@<TRIPOS>MOLECULE
mol
37500 30000
SMALL
USER_CHARGES


@<TRIPOS>ATOM
1 C 45.4948330585533 18.40402207570844 125.20647789077366 C 0.0 **** -0.24
2 H 44.92644341110889 19.17475016673228 125.72661159858897 H 0.0 **** 0.06
3 H 45.88868418306066 18.8093704776183 124.27471095638298 H 0.0 **** 0.06
4 H 44.843571778835724 17.557746095288536 124.98868126448544 H 0.0 **** 0.06
5 H 46.320639323378714 18.074557901950755 125.83728138827136 H 0.0 **** 0.06
6 C 145.57828676127804 83.1236307342379 118.39074431764088 C 0.0 **** -0.24
7 H 146.0230914708699 82.16243226787692 118.13416892362945 H 0.0 **** 0.06
8 H 144.6577740432608 83.26242779292224 117.82267352721335 H 0.0 **** 0.06
9 H 146.27829301035698 83.92379271431189 118.14854449339815 H 0.0 **** 0.06
10 H 145.35440600121964 83.14677870131264 119.45760760433159 H 0.0 **** 0.06
11 C 114.9037146974772 147.70541806797303 1.8293920090241649 C 0.0 **** -0.24
12 H 115.68650500929311 148.26821956391834 2.337572551361788 H 0.0 **** 0.06
13 H 114.45973126117502 148.32477867960714 1.0490492234889075 H 0.0 **** 0.06
14 H 114.13506212179988 147.42196478243073 2.548368450782796 H 0.0 **** 0.06
15 H 115.33266213981648 146.8087473529008 1.382379276766315 H 0.0 **** 0.06
16 C 74.6745877727393 122.62640143698151 104.52692145634067 C 0.0 **** -0.24
17 H 73.96686393102596 121.8365388511176 104.27557165054982 H 0.0 **** 0.06
18 H 74.16705445826346 123.3988658049724 105.10483962680881 H 0.0 **** 0.06
19 H 75.07451477359325 123.06053306404227 103.61007041851396 H 0.0 **** 0.06
20 H 75.49055798519476 122.20811601551596 105.11677788728066 H 0.0 **** 0.06
21 C 94.26951790097033 42.59691755362404 113.02997840234393 C 0.0 **** -0.24
22 H 94.32177686387871 43.62224803239209 113.39568876671579 H 0.0 **** 0.06
23 H 94.91183911155696 41.96019425777786 113.63924157502377 H 0.0 **** 0.06
24 H 94.60267552935866 42.563711213907695 111.99324026456598 H 0.0 **** 0.06
25 H 93.24115488918761 42.24126142979222 113.09298558485101 H 0.0 **** 0.06
26 C 10.525036572551016 60.474413603797075 6.932134158546866 C 0.0 **** -0.24
27 H 10.578007463598965 60.87976572262251 5.920810039477516 H 0.0 **** 0.06
28 H 10.268647083728581 59.41579122595063 6.885467486919566 H 0.0 **** 0.06
29 H 9.763035011303941 61.00911639451692 7.497757853805105 H 0.0 **** 0.06
30 H 11.491662343692894 60.59386170480778 7.420529910215073 H 0.0 **** 0.06
31 C 111.9786710616517 65.96230904570712 32.42093457247971 C 0.0 **** -0.24
32 H 112.39900519739824 66.21387870976935 33.39502471865207 H 0.0 **** 0.06
33 H 111.5467590861184 66.85559547178741 31.970106372245098 H 0.0 **** 0.06
34 H 111.20452607652025 65.20531438782177 32.543789280440045 H 0.0 **** 0.06
35 H 112.76733400983055 65.5744121554419 31.775413494677814 H 0.0 **** 0.06
36 C 28.86623432520679 145.2127311013451 156.2428608941372 C 0.0 **** -0.24
37 H 29.421173436621984 146.1396731744179 156.09739730916186 H 0.0 **** 0.06
38 H 28.228329026544998 145.03172916220015 155.37776448436455 H 0.0 **** 0.06
39 H 28.24996995439244 145.29527310422841 157.13862690322895 H 0.0 **** 0.06
40 H 29.566423494901215 144.38505593183297 156.35885069130197 H 0.0 **** 0.06
41 C 90.89349783089389 36.35943134213093 70.91345393119687 C 0.0 **** -0.24
42 H 91.21142939900919 36.536185200577876 71.94008395396796 H 0.0 **** 0.06
43 H 90.26777018699165 35.467628732511855 70.87369587799654 H 0.0 **** 0.06
44 H 91.77011556529074 36.2176722817985 70.28072854570246 H 0.0 **** 0.06
45 H 90.32447815409738 37.21841101133539 70.5572472219119 H 0.0 **** 0.06
46 C 150.5796059835574 11.569785677321022 82.63421992152132 C 0.0 **** -0.24
47 H 151.58901309570692 11.165712209806713 82.71444836124965 H 0.0 **** 0.06
48 H 150.61159223200477 12.523301265223608 82.10695473344369 H 0.0 **** 0.06
49 H 150.16880822469122 11.719395205917237 83.63250136898972 H 0.0 **** 0.06
50 H 149.95127243429187 10.870326134878667 82.08382194364884 H 0.0 **** 0.06
51 C 92.92308181573866 64.62544671951872 52.59408021950257 C 0.0 **** -0.24
52 H 92.39594826015767 64.89852229807966 53.508250671618285 H 0.0 **** 0.06
53 H 92.90988554138511 65.46763731376313 51.902713810831116 H 0.0 **** 0.06
54 H 92.42991000264476 63.76827778409222 52.1337936718909 H 0.0 **** 0.06
55 H 93.95430079213386 64.36569011544529 52.8333052199427 H 0.0 **** 0.06
56 C 66.80702035574912 62.17399789352545 58.64876323866642 C 0.0 **** -0.24
57 H 67.03862011263159 62.84268223022167 57.818975602384086 H 0.0 **** 0.06
58 H 67.09546579922163 61.15636579567747 58.38555265924015 H 0.0 **** 0.06
59 H 65.73738445345079 62.20843147046767 58.85388274742917 H 0.0 **** 0.06
60 H 67.35793514743625 62.49156121390364 59.53400563362993 H 0.0 **** 0.06
61 C 55.2790788048448 80.34096259647418 27.253214624505603 C 0.0 **** -0.24
62 H 55.730015828027845 80.562327522859 28.220640614792273 H 0.0 **** 0.06
63 H 55.325004599438216 81.22628832239275 26.62025190755611 H 0.0 **** 0.06
64 H 54.23896309351055 80.0490515524812 27.396528628985436 H 0.0 **** 0.06
65 H 55.823874240255904 79.52470435203529 26.778163991224744 H 0.0 **** 0.06
66 C 82.60960931310564 26.841444339938334 130.7778922168508 C 0.0 **** -0.24
67 H 83.67453058767094 27.059456886608274 130.86236055235736 H 0.0 **** 0.06
68 H 82.36505555913044 25.981113446339236 131.40220378917218 H 0.0 **** 0.06
69 H 82.365763458586 26.618681642818615 129.73903916781052 H 0.0 **** 0.06
70 H 82.03525167545047 27.706077836700814 131.10973084463652 H 0.0 **** 0.06
71 C 53.96206273987218 61.948214331033014 11.923007309709256 C 0.0 **** -0.24
72 H 54.4895525273576 62.8123093515793 12.327084026787702 H 0.0 **** 0.06
73 H 53.047168284869144 61.7832702831454 12.492042692003778 H 0.0 **** 0.06
74 H 54.59928748225775 61.06696030811132 11.994698565285184 H 0.0 **** 0.06
75 H 53.71166941597113 62.131609851577394 10.878235119126941 H 0.0 **** 0.06
76 C 142.7422295735558 10.232838488500477 39.09475560768476 C 0.0 **** -0.24
77 H 142.88662195199123 9.730043595289146 40.05170798373848 H 0.0 **** 0.06
78 H 143.57242900208644 9.994808819196237 38.429980121419874 H 0.0 **** 0.06
79 H 142.70083132261917 11.310859691597898 39.253875612953266 H 0.0 **** 0.06
80 H 141.80806995604652 9.895709855490963 38.64547421825512 H 0.0 **** 0.06
81 C 111.2839477032253 48.85952539611321 123.45733402499684 C 0.0 **** -0.24
82 H 111.29786250692536 49.144677434569644 124.51015044949241 H 0.0 **** 0.06
83 H 111.15447031581596 49.74923623430959 122.84157605122721 H 0.0 **** 0.06
84 H 110.45887258670723 48.16967258018417 123.28024982934437 H 0.0 **** 0.06
85 H 112.22529637737836 48.37315021908955 123.20131344662468 H 0.0 **** 0.06
86 C 95.1383910254932 34.81033793928313 18.181805986965145 C 0.0 **** -0.24
87 H 94.79526917249834 35.60440669905108 17.519139519486913 H 0.0 **** 0.06
88 H 96.2263174854937 34.83847940994016 18.248766953072533 H 0.0 **** 0.06
89 H 94.82255893044287 33.84533325093388 17.78464640900586 H 0.0 **** 0.06
90 H 94.70849087689379 34.952864022925354 19.173233163951778 H 0.0 **** 0.06
91 C 89.7166728916031 30.27072024752036 132.46502950349196 C 0.0 **** -0.24
92 H 89.10381830732817 29.422840383902823 132.1587491207269 H 0.0 **** 0.06
93 H 89.57015815543203 30.4587781348069 133.52952017750636 H 0.0 **** 0.06
94 H 89.42536644690185 31.15358946843434 131.8966298710962 H 0.0 **** 0.06
95 H 90.7663455683327 30.04739197490342 132.2774358318207 H 0.0 **** 0.06
96 C 97.56205593938844 71.96539595843242 77.73664073397565 C 0.0 **** -0.24
97 H 97.63107515669624 72.57083885050703 76.83200822590709 H 0.0 **** 0.06
98 H 96.64238716456096 71.38071439118728 77.7122791869216 H 0.0 **** 0.06
99 H 97.55641493007981 72.61735525265219 78.61028021118166 H 0.0 **** 0.06
100 H 98.41898547296205 71.29453861135714 77.78932692340902 H 0.0 **** 0.06
101 C 6.032132220136646 153.9344020468629 59.69597752636946 C 0.0 **** -0.24
102 H 6.353896579207003 153.51472425227706 60.648499903993184 H 0.0 **** 0.06
103 H 5.750214157727839 153.12759918866033 59.01982443088497 H 0.0 **** 0.06
104 H 6.849602622363051 154.50797178817263 59.25790150724498 H 0.0 **** 0.06
105 H 5.175944452549857 154.58868397143604 59.85904293916553 H 0.0 **** 0.06
106 C 99.71438718768309 145.02124496468485 48.3596288115193 C 0.0 **** -0.24
107 H 99.94760300879653 145.9814707743875 48.82106189078446 H 0.0 **** 0.06
108 H 100.24585736809536 144.9353772359745 47.411845158782356 H 0.0 **** 0.06
109 H 98.64175332678747 144.95466996535072 48.18328546763955 H 0.0 **** 0.06
110 H 100.02378377653667 144.21434820393623 49.024795765683336 H 0.0 **** 0.06
111 C 130.87580905760106 30.646434141815575 6.298509397519801 C 0.0 **** -0.24
112 H 131.3115143483612 30.208638110653055 5.400235377254326 H 0.0 **** 0.06
113 H 131.34885226222767 30.211765832026742 7.179125239398871 H 0.0 **** 0.06
114 H 129.80587286653196 30.44011093574622 6.321135585050115 H 0.0 **** 0.06
115 H 131.0390545648507 31.72438922584567 6.293271982230209 H 0.0 **** 0.06
116 C 78.09266373547187 9.257521869218692 60.637711583987425 C 0.0 **** -0.24
117 H 77.08910609425769 9.46969571743972 60.2691753096783 H 0.0 **** 0.06
118 H 78.55707393284679 8.496248003200947 60.00926348939703 H 0.0 **** 0.06
119 H 78.0331457705059 8.894382509934076 61.663623901074914 H 0.0 **** 0.06
120 H 78.69130501358175 10.167417348631204 60.60807247004786 H 0.0 **** 0.06
121 C 133.8727829956471 100.00946587222103 156.63157617357373 C 0.0 **** -0.24
122 H 133.24331872440953 100.4129704623615 157.42481665007148 H 0.0 **** 0.06
123 H 133.28477020560263 99.33363352468092 156.00984608832994 H 0.0 **** 0.06
124 H 134.70743200758776 99.46365157013418 157.0724757913932 H 0.0 **** 0.06
125 H 134.25558272150616 100.82626080546976 156.019595715171 H 0.0 **** 0.06
126 C 54.1636183279318 31.348618799389783 119.80786845057958 C 0.0 **** -0.24
127 H 54.73612256340013 30.450898594654348 119.57346703875055 H 0.0 **** 0.06
128 H 54.228286931432024 32.048242694368696 118.97407406746657 H 0.0 **** 0.06
129 H 54.568953000478785 31.814558180587426 120.70576206971418 H 0.0 **** 0.06
130 H 53.120245795288156 31.07963962947599 119.97644981801392 H 0.0 **** 0.06
131 C 20.557656031644697 66.34660271041146 78.7422596469978 C 0.0 **** -0.24
132 H 21.230288132856018 65.66675467465272 78.21908053462631 H 0.0 **** 0.06
133 H 19.874045027003646 66.80306918738137 78.02616326166266 H 0.0 **** 0.06
134 H 21.1397635273727 67.12464808177825 79.23641442440459 H 0.0 **** 0.06
135 H 19.98713489765297 65.79130626690065 79.48689994554778 H 0.0 **** 0.06
136 C 71.84245191456024 76.82903695611893 150.99394312612972 C 0.0 **** -0.24
137 H 72.16175138629566 76.5507934328985 149.99046068825353 H 0.0 **** 0.06
138 H 72.24062615080675 76.11283662688763 151.71392166338484 H 0.0 **** 0.06
139 H 70.75390250816325 76.82715334498823 151.04313955760685 H 0.0 **** 0.06
140 H 72.21493492864761 77.82564025569087 151.2299662700254 H 0.0 **** 0.06
141 C 50.73177300691715 79.20915884940345 145.2688103094694 C 0.0 **** -0.24
142 H 50.39519551353487 78.1752057569447 145.1931250162092 H 0.0 **** 0.06
143 H 51.798362474809906 79.22821464896333 145.49466752846263 H 0.0 **** 0.06
144 H 50.182297114588096 79.71312168483922 146.06277146462398 H 0.0 **** 0.06
145 H 50.5516435802016 79.71935186526721 144.32197812575217 H 0.0 **** 0.06
146 C 8.670363892389759 88.73288907373731 7.15024463826461 C 0.0 **** -0.24
147 H 8.998641618125106 89.77016586568669 7.213039925540329 H 0.0 **** 0.06
148 H 7.6368063395039485 88.70015668907533 6.803126355374843 H 0.0 **** 0.06
149 H 8.737927695167912 88.26992770575248 8.1343231664043 H 0.0 **** 0.06
150 H 9.306584506933177 88.19298974659006 6.449525229128739 H 0.0 **** 0.06
151 C 8.11481226991259 132.3384218320259 94.1810758629175 C 0.0 **** -0.24
152 H 9.151611583532883 132.4874610429888 93.88126403230254 H 0.0 **** 0.06
153 H 7.653979519340055 131.5897116730414 93.53534294322888 H 0.0 **** 0.06
154 H 7.571720664178258 133.2792765977352 94.09125664090192 H 0.0 **** 0.06
155 H 8.08099047892614 131.9962607268788 95.21536814831113 H 0.0 **** 0.06
156 C 14.683651295504205 32.23851536369045 62.19983786337082 C 0.0 **** -0.24
157 H 14.149098361009237 32.006188033263015 63.12037999216116 H 0.0 **** 0.06
158 H 15.388228539697536 33.050058139470195 62.38412549208249 H 0.0 **** 0.06
159 H 13.971571253747072 32.541531880245 61.43238319491843 H 0.0 **** 0.06
160 H 15.226511167855676 31.355365132673057 61.863177060909436 H 0.0 **** 0.06
161 C 112.66811012843944 82.27961061967225 92.3914080407014 C 0.0 **** -0.24
162 H 111.93596260330209 82.96585359642144 91.96766496038673 H 0.0 **** 0.06
163 H 113.67297564321915 82.66273662444524 92.21129568317224 H 0.0 **** 0.06
164 H 112.56184372196553 81.30117608784892 91.92216075811831 H 0.0 **** 0.06
165 H 112.50176861390058 82.18696611558626 93.46476314286049 H 0.0 **** 0.06
166 C 144.1050877555539 77.16378250508465 6.296336929860132 C 0.0 **** -0.24
167 H 143.01476825936322 77.15770600945164 6.274561192632206 H 0.0 **** 0.06
168 H 144.47580450827488 76.15259100456937 6.125349958000356 H 0.0 **** 0.06
169 H 144.44697847523685 77.51710879061055 7.268188709559723 H 0.0 **** 0.06
170 H 144.47994888734127 77.82552962082497 5.516219937167477 H 0.0 **** 0.06
171 C 75.9569367588254 144.72767758064552 49.80617168219973 C 0.0 **** -0.24
172 H 76.7051266045936 144.96989674057073 50.56087328022275 H 0.0 **** 0.06
173 H 75.71395872370908 145.6232443882485 49.23417653915587 H 0.0 **** 0.06
174 H 75.05711758983085 144.35247778972823 50.293448035093775 H 0.0 **** 0.06
175 H 76.35200782601271 143.96485223998715 49.13487440113738 H 0.0 **** 0.06
176 C 45.59152804449229 49.329082302461885 27.32964452017643 C 0.0 **** -0.24
177 H 46.21637974314564 49.927869153239 26.666097708398752 H 0.0 **** 0.06
178 H 45.53977926961062 49.806478348797356 28.308323098614665 H 0.0 **** 0.06
179 H 46.02392785255313 48.3340248144555 27.434237401752625 H 0.0 **** 0.06
180 H 44.58958967492208 49.24844382315075 26.91016203755285 H 0.0 **** 0.06
181 C 41.68141695841577 88.80715060949267 55.02554055098244 C 0.0 **** -0.24
182 H 42.56032307613451 88.91274066099729 55.66270967876136 H 0.0 **** 0.06
183 H 41.76792307196297 87.89437602868574 54.43563636798095 H 0.0 **** 0.06
184 H 41.61169427636379 89.6660939342805 54.35845227435601 H 0.0 **** 0.06
185 H 40.787597661346766 88.7555577081413 55.6465782957757 H 0.0 **** 0.06
186 C 3.898243093982444 152.15840691563182 133.16112754966116 C 0.0 **** -0.24
187 H 3.6209995488646314 151.3464212255879 133.8343310618052 H 0.0 **** 0.06
188 H 4.455425738967506 152.91448431157482 133.71546876657615 H 0.0 **** 0.06
189 H 2.9979733471624854 152.60587019770531 132.74156632539635 H 0.0 **** 0.06
190 H 4.5188462348115195 151.76664139830467 132.3555692499667 H 0.0 **** 0.06
191 C 75.04330413222604 76.36403948217382 62.48012169953972 C 0.0 **** -0.24
192 H 75.02035528909721 77.31252334486985 63.01630484814575 H 0.0 **** 0.06
193 H 75.73757542357137 76.4383305253279 61.64214500583657 H 0.0 **** 0.06
194 H 74.04557671162759 76.13233850462665 62.10751960855859 H 0.0 **** 0.06
195 H 75.37209120323367 75.5731269993361 63.15506481785337 H 0.0 **** 0.06
196 C 119.40943370846878 109.68628060900814 50.53266618642462 C 0.0 **** -0.24
197 H 120.19029746271639 110.38271225348423 50.83921382316878 H 0.0 **** 0.06
198 H 119.83213576093783 108.94155996506446 49.85726197228537 H 0.0 **** 0.06
199 H 118.6166473251983 110.23323454812133 50.02038123131051 H 0.0 **** 0.06
200 H 118.9990644529525 109.19071543811127 51.4117525664651 H 0.0 **** 0.06
201 C 103.85254290787468 58.38932551002418 21.65454145809263 C 0.0 **** -0.24
202 H 104.49040371724747 57.95677560832996 20.883828906638534 H 0.0 **** 0.06
203 H 102.99792983734484 57.73516506668324 21.827400612640382 H 0.0 **** 0.06
204 H 103.501184334059 59.36813552493163 21.328109569857176 H 0.0 **** 0.06
205 H 104.42190027972298 58.49680543781466 22.578307635546103 H 0.0 **** 0.06
206 C 127.38633371085272 75.32874125378362 1.691239007066713 C 0.0 **** -0.24
207 H 128.31337778174964 74.79822169415603 1.9104420747516428 H 0.0 **** 0.06
208 H 127.60680961830816 76.21492439327085 1.0970854485985342 H 0.0 **** 0.06
209 H 126.90915584083315 75.62603329948469 2.625355921060361 H 0.0 **** 0.06
210 H 126.71720266268697 74.67307143627131 1.1341138869858014 H 0.0 **** 0.06
211 C 133.90997929464476 63.77818067651263 34.83777850368868 C 0.0 **** -0.24
212 H 132.92465690011534 63.35270482822524 35.02845560552607 H 0.0 **** 0.06
213 H 134.5109558814014 63.06397577003989 34.27560758784486 H 0.0 **** 0.06
214 H 134.399670157172 63.99945669855114 35.786020796820665 H 0.0 **** 0.06
215 H 133.8040051688673 64.69729552165323 34.26134631959944 H 0.0 **** 0.06
216 C 122.92960909484083 144.0508091511145 137.67353668083712 C 0.0 **** -0.24
217 H 123.42326890252627 145.0223476234749 137.66197598672775 H 0.0 **** 0.06
218 H 122.48406288966191 143.88065124344243 138.6537287748241 H 0.0 **** 0.06
219 H 123.66080135607632 143.26921902020976 137.46474623916245 H 0.0 **** 0.06
220 H 122.14971962693755 144.03095448789784 136.91131759815053 H 0.0 **** 0.06
221 C 72.78254066933548 3.3758422306636255 156.01366616662165 C 0.0 **** -0.24
222 H 72.26660555931721 2.975025451088257 156.8860505634738 H 0.0 **** 0.06
223 H 72.0578023894605 3.8438239401389183 155.34688341283834 H 0.0 **** 0.06
224 H 73.29018728502922 2.5665283595660426 155.48844844301465 H 0.0 **** 0.06
225 H 73.51468887315846 4.116883065716152 156.3332989792848 H 0.0 **** 0.06
226 C 14.853328659588456 117.24751758014679 42.17659026412855 C 0.0 **** -0.24
227 H 13.961236252420399 117.86474684482675 42.27823086316204 H 0.0 **** 0.06
228 H 14.829368871004519 116.44951083867937 42.918704029533814 H 0.0 **** 0.06
229 H 15.73939928588377 117.86294663187431 42.33210102621109 H 0.0 **** 0.06
230 H 14.883367041598696 116.81422113006596 41.17692454548455 H 0.0 **** 0.06
231 C 66.62767000205478 135.79585875084757 25.780414892340417 C 0.0 **** -0.24
232 H 65.61257292659184 135.40640892208992 25.859068786780256 H 0.0 **** 0.06
233 H 67.0795079481544 135.83256971742227 26.77182926403748 H 0.0 **** 0.06
234 H 66.59981875180453 136.79968160326317 25.356570983382085 H 0.0 **** 0.06
235 H 67.21760628959812 135.14465157161158 25.13496925037265 H 0.0 **** 0.06
236 C 117.83478096343738 116.89438648517459 68.52961178413884 C 0.0 **** -0.24
237 H 118.69069541780898 116.92646078883452 69.20196234587064 H 0.0 **** 0.06
238 H 116.91407229376195 116.97456161303889 69.10874925666535 H 0.0 **** 0.06
239 H 117.83826398887963 115.95256843262116 67.9805768967742 H 0.0 **** 0.06
240 H 117.89454204206102 117.72458990890358 67.82537135551543 H 0.0 **** 0.06
241 C 111.46443762899388 119.01568244119652 88.42762915681904 C 0.0 **** -0.24
242 H 111.32564804025147 118.26688797973908 89.20794704076705 H 0.0 **** 0.06
243 H 112.0300501864272 119.85791577932694 88.82911413409663 H 0.0 **** 0.06
244 H 110.49222741990293 119.36265687836935 88.08054753306824 H 0.0 **** 0.06
245 H 112.01253447041564 118.5745973504629 87.59539935142465 H 0.0 **** 0.06
246 C 13.788551871744005 133.95305632741446 64.59052299998496 C 0.0 **** -0.24
247 H 13.553507617780099 134.6974957998101 63.82977813878081 H 0.0 **** 0.06
248 H 13.595623981782353 132.95591146638702 64.19468132713243 H 0.0 **** 0.06
249 H 13.167591079166925 134.12310374561758 65.46933822466437 H 0.0 **** 0.06
250 H 14.840125318989578 134.03669823277244 64.86726481044613 H 0.0 **** 0.06
251 C 9.128926357799713 33.684940623827856 102.68849159886747 C 0.0 **** -0.24
252 H 9.512456479596779 34.085123119380796 101.75050692257338 H 0.0 **** 0.06
253 H 9.923650104722952 33.68369376025731 103.43433895262086 H 0.0 **** 0.06
254 H 8.776629017102067 32.66461101591938 102.53057449457668 H 0.0 **** 0.06
255 H 8.302919790374801 34.30417972754208 103.03738231735639 H 0.0 **** 0.06
256 C 16.838830741183358 96.20187554297684 145.84622751014834 C 0.0 **** -0.24
257 H 17.72367495557117 95.94794819858575 145.26385027678927 H 0.0 **** 0.06
258 H 17.04946992488015 96.06188686830575 146.9065397190787 H 0.0 **** 0.06
259 H 16.0120961256817 95.55602224729216 145.5510122392089 H 0.0 **** 0.06
260 H 16.56958673647417 97.24249431507215 145.66369004110203 H 0.0 **** 0.06
261 C 80.33647634121553 155.77586577667483 97.2768065106061 C 0.0 **** -0.24
262 H 79.83708565008658 154.8636882028774 97.60260501630404 H 0.0 **** 0.06
263 H 81.125427938857 156.03049643776774 97.98385265094663 H 0.0 **** 0.06
264 H 79.61358677180226 156.58920506355776 97.23008942205456 H 0.0 **** 0.06
265 H 80.77067911756052 155.61842661463214 96.2890901766358 H 0.0 **** 0.06
266 C 106.70892398430311 26.941593042178027 9.419835562024588 C 0.0 **** -0.24
267 H 106.88677759683497 27.12308295245822 8.35962181328479 H 0.0 **** 0.06
268 H 105.84599685417254 27.521731532924093 9.747285987739723 H 0.0 **** 0.06
269 H 107.58710509880802 27.241054744513235 9.990963618000315 H 0.0 **** 0.06
270 H 106.51639941462713 25.880168326498676 9.579587150745468 H 0.0 **** 0.06
271 C 46.1348745538441 99.95402051152071 110.68391468466037 C 0.0 **** -0.24
272 H 46.0814524369421 99.06958356467003 111.31853348872532 H 0.0 **** 0.06
273 H 46.73912780986794 99.73278481666655 109.80402523335219 H 0.0 **** 0.06
274 H 46.590149947791076 100.7730226903315 111.24080284207677 H 0.0 **** 0.06
275 H 45.12991980118349 100.23967985286025 110.37392542441945 H 0.0 **** 0.06
276 C 60.25780159295462 21.523589689594075 107.97343360435747 C 0.0 **** -0.24
277 H 61.05645475598105 20.788770068913543 108.06928184500532 H 0.0 **** 0.06
278 H 60.03801667685765 21.686350132435813 106.91852209870825 H 0.0 **** 0.06
279 H 60.571908846014296 22.462695673710883 108.42885017356662 H 0.0 **** 0.06
280 H 59.364144436325645 21.155764060055006 108.47846914002622 H 0.0 **** 0.06
281 C 135.88034995715566 132.37995755232322 103.0801206798799 C 0.0 **** -0.24
282 H 136.52728529439048 131.53191356039125 102.85478816889649 H 0.0 **** 0.06
283 H 136.20420446353106 132.8461465628553 104.0105457063044 H 0.0 **** 0.06
284 H 134.85132268168428 132.03420883699334 103.18429074244615 H 0.0 **** 0.06
285 H 135.93816623748793 133.1063919419122 102.2689992003289 H 0.0 **** 0.06
286 C 133.7348206165589 50.04021338053889 132.33127237597307 C 0.0 **** -0.24
287 H 133.87474278856428 49.074412278995126 131.84662543148437 H 0.0 **** 0.06
288 H 134.68469897276026 50.57553131984312 132.35542866220118 H 0.0 **** 0.06
289 H 133.3778180932213 49.88608668445593 133.35042049496764 H 0.0 **** 0.06
290 H 133.00306896705916 50.62428716363871 131.77423290596687 H 0.0 **** 0.06
291 C 48.71604568852605 31.133343375300228 9.272447222012907 C 0.0 **** -0.24
292 H 48.393681634076685 31.655319590575687 8.371403980441961 H 0.0 **** 0.06
293 H 47.84310845718045 30.747427826907995 9.799790071830493 H 0.0 **** 0.06
294 H 49.25483056069524 31.826665230552635 9.919220270767553 H 0.0 **** 0.06
295 H 49.3709104733213 30.30654218335536 8.998594063795245 H 0.0 **** 0.06
296 C 138.29898255755216 144.89794673677815 45.40502082850372 C 0.0 **** -0.24
297 H 139.06962168723229 144.15443246211626 45.20255721987519 H 0.0 **** 0.06
298 H 138.75127398554184 145.7702465776349 45.8764485646326 H 0.0 **** 0.06
299 H 137.54973747736113 144.47166780314674 46.072650796907794 H 0.0 **** 0.06
300 H 137.82520426851252 145.19505971229486 44.46934690679535 H 0.0 **** 0.06
301 C 6.057479384518331 89.91557878008561 84.92391184606528 C 0.0 **** -0.24
302 H 6.977855324855682 89.74184556440679 85.48341487682563 H 0.0 **** 0.06
303 H 5.232443117710318 89.39824650886246 85.41430574233864 H 0.0 **** 0.06
304 H 6.173216346148763 89.53631813333052 83.90850257158301 H 0.0 **** 0.06
305 H 5.848568723024812 90.98405384298565 84.8918495905584 H 0.0 **** 0.06
306 C 11.107556826708816 29.379395997796273 120.79680747083734 C 0.0 **** -0.24
307 H 10.91073757935095 30.447059689266197 120.70657968150203 H 0.0 **** 0.06
308 H 11.160968478464923 29.107627263441962 121.85180210322278 H 0.0 **** 0.06
309 H 12.053806486293979 29.14131253264963 120.31213079508541 H 0.0 **** 0.06
310 H 10.303497053962161 28.819656204878115 120.31839035500718 H 0.0 **** 0.06
311 C 111.25320133006097 14.935056998600118 140.74061445249288 C 0.0 **** -0.24
312 H 111.07235728433658 13.906172838180083 140.4281652348132 H 0.0 **** 0.06
313 H 110.89030852812216 15.07317685609442 141.7596745232191 H 0.0 **** 0.06
314 H 110.7268464028948 15.615396353951155 140.0715894127085 H 0.0 **** 0.06
315 H 112.32263111697897 15.142687320825189 140.70389589588618 H 0.0 **** 0.06
316 C 89.73413314875995 45.74283251098194 126.04787831939574 C 0.0 **** -0.24
317 H 89.48091242929497 44.96341877770992 125.32977794775444 H 0.0 **** 0.06
318 H 89.31759839120794 45.48851849105614 127.02224623181543 H 0.0 **** 0.06
319 H 89.32026278935986 46.69405458419881 125.71203372707784 H 0.0 **** 0.06
320 H 90.8181452747549 45.82689471567802 126.12589711103347 H 0.0 **** 0.06
321 C 33.92147811223096 78.75107253456684 93.57161742863988 C 0.0 **** -0.24
322 H 34.38423511547127 78.72984821847079 94.55819238759979 H 0.0 **** 0.06
323 H 34.339022839086425 79.57641497325527 92.99295863006084 H 0.0 **** 0.06
324 H 32.846029053325026 78.88836687171685 93.67733029146078 H 0.0 **** 0.06
325 H 34.11949327641301 77.8109412045777 93.05762159168046 H 0.0 **** 0.06
326 C 125.628478189561 72.0054779966471 85.92641373162722 C 0.0 **** -0.24
327 H 125.63563163286177 72.89172112971889 85.29254814563504 H 0.0 **** 0.06
328 H 125.79154301501912 71.11848871632662 85.31283602163484 H 0.0 **** 0.06
329 H 124.66554508173716 71.92727666959892 86.43036316156348 H 0.0 **** 0.06
330 H 126.42257320769652 72.08423433991955 86.67014975416132 H 0.0 **** 0.06
331 C 111.6440314868002 45.667236750758775 18.5961798229975 C 0.0 **** -0.24
332 H 110.97537740011188 45.33753009945114 17.801040271811416 H 0.0 **** 0.06
333 H 111.088627104733 46.276725449252396 19.308540088066195 H 0.0 **** 0.06
334 H 112.45512350493368 46.25602396167936 18.16686751968797 H 0.0 **** 0.06
335 H 112.05800232920711 44.79647782957075 19.106483434325696 H 0.0 **** 0.06
336 C 31.898922022410275 45.73816353216671 101.53931844749364 C 0.0 **** -0.24
337 H 32.97183937526512 45.542994871617566 101.5304157151647 H 0.0 **** 0.06
338 H 31.57494982521235 45.93986549176316 102.56109438034788 H 0.0 **** 0.06
339 H 31.36821927980025 44.86794850643366 101.1543144891089 H 0.0 **** 0.06
340 H 31.682766960304654 46.6023629278078 100.91206169833258 H 0.0 **** 0.06
341 C 90.65851803338788 24.826980622656805 139.15598585294788 C 0.0 **** -0.24
342 H 90.40776848961082 25.621677357125577 138.45273663248375 H 0.0 **** 0.06
343 H 90.08003384141367 23.934101215747944 138.91654042798933 H 0.0 **** 0.06
344 H 90.42356133902148 25.1516346933696 140.16920089831453 H 0.0 **** 0.06
345 H 91.7216928940713 24.600932800243584 139.08457704582509 H 0.0 **** 0.06
346 C 85.82330524298436 142.81465222480452 12.069105949391144 C 0.0 **** -0.24
347 H 86.67543958491936 143.11078512109654 12.681296327010784 H 0.0 **** 0.06
348 H 86.15678696554153 142.6319371746115 11.047492114167085 H 0.0 **** 0.06
349 H 85.08047285027183 143.61179527164228 12.072518060025118 H 0.0 **** 0.06
350 H 85.38296281608837 141.90426321542037 12.477569065123248 H 0.0 **** 0.06
351 C 115.71836852862236 148.102219277752 145.98240572662843 C 0.0 **** -0.24
352 H 115.09212728668535 148.5258339222698 146.76743579249987 H 0.0 **** 0.06
353 H 115.18579396529026 148.14415611289175 145.0313172091878 H 0.0 **** 0.06
354 H 115.9506980084592 147.06479499322992 146.22359973041992 H 0.0 **** 0.06
355 H 116.64243513101519 148.67399130684933 145.90763757058858 H 0.0 **** 0.06
356 C 10.889805599029494 38.390018686178166 21.859318951448472 C 0.0 **** -0.24
357 H 10.859914559552195 37.594568574381185 21.115424952948047 H 0.0 **** 0.06
358 H 10.189943885303293 38.16128821082077 22.662741384794742 H 0.0 **** 0.06
359 H 10.611188588464039 39.335371573793765 21.392562927949882 H 0.0 **** 0.06
360 H 11.897535453239648 38.46958673148765 22.266752541184132 H 0.0 **** 0.06
361 C 8.26963600971041 38.93999180132647 0.042655630604087946 C 0.0 **** -0.24
362 H 7.644424077101377 39.544044826627754 -0.6141164920030064 H 0.0 **** 0.06
363 H 7.845300415211398 37.940218425234775 0.1288596684987624 H 0.0 **** 0.06
364 H 8.314161967845422 39.40215169935226 1.0285285026394035 H 0.0 **** 0.06
365 H 9.275613663562098 38.87432665653432 -0.3733464856652233 H 0.0 **** 0.06
366 C 55.81832817501909 23.639750814780484 153.50918023485127 C 0.0 **** -0.24
367 H 56.21826707259629 22.63831553099095 153.67108437954766 H 0.0 **** 0.06
368 H 55.78724748062906 24.175501921124862 154.45730647944183 H 0.0 **** 0.06
369 H 54.81059942153232 23.566701377712718 153.09868266944775 H 0.0 **** 0.06
370 H 56.4572715525283 24.176600088714736 152.80808403254912 H 0.0 **** 0.06
371 C 122.55672816716667 97.0966303175839 81.22392072377492 C 0.0 **** -0.24
372 H 122.84047551907044 96.88209277511066 82.25421619229316 H 0.0 **** 0.06
373 H 122.8982758835407 96.28862797134519 80.57668502646963 H 0.0 **** 0.06
374 H 123.01471341501166 98.03484464898355 80.90924615863604 H 0.0 **** 0.06
375 H 121.47168921604002 97.18254830234594 81.15707553008326 H 0.0 **** 0.06
376 C 79.20418353988282 59.17270723616481 67.46649150818921 C 0.0 **** -0.24
377 H 79.82862451403878 59.28451106267946 66.58043731896309 H 0.0 **** 0.06
378 H 78.90555920920849 58.12943448341146 67.57110105714669 H 0.0 **** 0.06
379 H 78.31631068867028 59.79647073003294 67.36487673280725 H 0.0 **** 0.06
380 H 79.76606354530907 59.480307462140914 68.34815165636651 H 0.0 **** 0.06
381 C 151.23339764587382 45.36521961372904 137.25951641059032 C 0.0 **** -0.24
382 H 151.59693022321093 45.964734766443144 136.42570271665005 H 0.0 **** 0.06
383 H 150.1429920179719 45.37662723067689 137.2665262988291 H 0.0 **** 0.06
384 H 151.60727361084304 45.78065199042362 138.19597378490485 H 0.0 **** 0.06
385 H 151.58582834733738 44.339536355746816 137.1509709214542 H 0.0 **** 0.06
386 C 10.896405271230805 138.51974953082322 87.75876176957536 C 0.0 **** -0.24
387 H 11.671871959706209 138.71947273045623 88.49786440818968 H 0.0 **** 0.06
388 H 11.234435122736244 138.85266294355807 86.77855919956227 H 0.0 **** 0.06
389 H 9.98766235026298 139.05676011328637 88.03308029369946 H 0.0 **** 0.06
390 H 10.69045101970903 137.4495070737503 87.72944249701976 H 0.0 **** 0.06
391 C 59.669780697611046 87.71510667553969 33.645579086701474 C 0.0 **** -0.24
392 H 59.52136141827903 88.79079291334682 33.54202444721261 H 0.0 **** 0.06
393 H 60.402960964579634 87.52431492757121 34.4299545783027 H 0.0 **** 0.06
394 H 60.03046867894018 87.30609171274169 32.70270552360674 H 0.0 **** 0.06
395 H 58.72353911321618 87.24260239686822 33.91007721076147 H 0.0 **** 0.06
396 C 36.92993303249159 152.21698656684305 27.598996347150262 C 0.0 **** -0.24
397 H 36.939534010556315 151.518259843091 26.762076112732075 H 0.0 **** 0.06
398 H 36.812388467164 153.2329546561156 27.221911753174822 H 0.0 **** 0.06
399 H 37.86795028462001 152.13929298944979 28.147915271258967 H 0.0 **** 0.06
400 H 36.09977664815699 151.97693892153464 28.263220083912586 H 0.0 **** 0.06
401 C 51.35440136370303 58.62241893633377 28.16277389039874 C 0.0 **** -0.24
402 H 51.25946685288608 59.217948776567155 27.25489046550007 H 0.0 **** 0.06
403 H 50.391513212095504 58.172137193744945 28.403841159429874 H 0.0 **** 0.06
404 H 51.67334801930306 59.262468356984186 28.98472121522917 H 0.0 **** 0.06
405 H 52.09465526482302 57.83670302865622 28.005661168274088 H 0.0 **** 0.06
406 C 102.73377535223659 62.2631301824465 2.994343723343377 C 0.0 **** -0.24
407 H 102.6981998397647 63.17747695986773 2.402585323200128 H 0.0 **** 0.06
408 H 101.78840018673435 62.13681516403153 3.523889801556521 H 0.0 **** 0.06
409 H 103.54758861833153 62.329630980004 3.7155803306223447 H 0.0 **** 0.06
410 H 102.89898528129976 61.40994740155429 2.3359999605349913 H 0.0 **** 0.06
411 C 101.7632331780945 90.89882221711957 112.26075011615961 C 0.0 **** -0.24
412 H 102.01344756941664 90.1467614728536 111.51281291930258 H 0.0 **** 0.06
413 H 101.34169763349907 90.41065035002367 113.13929247448556 H 0.0 **** 0.06
414 H 101.03393318913974 91.59485118349505 111.84562496223697 H 0.0 **** 0.06
415 H 102.66425796272064 91.44306369686427 112.54358614335393 H 0.0 **** 0.06
416 C 52.798021079631894 147.7545629876616 86.84259319830659 C 0.0 **** -0.24
417 H 52.70450430845756 148.80217915956035 86.55879996717817 H 0.0 **** 0.06
418 H 52.08750459222233 147.15893049758893 86.27057406650718 H 0.0 **** 0.06
419 H 52.58893974266391 147.64682801602964 87.90694410074397 H 0.0 **** 0.06
420 H 53.81124825116319 147.41065541815283 86.63498792308513 H 0.0 **** 0.06
421 C 142.6351287234322 20.56505576214434 146.8434930098507 C 0.0 **** -0.24
422 H 142.1213564635765 19.623965528674063 147.04019053159982 H 0.0 **** 0.06
423 H 142.5413679587056 20.814913251549626 145.78669226076016 H 0.0 **** 0.06
424 H 143.68902291554267 20.46351400321757 147.10089725749577 H 0.0 **** 0.06
425 H 142.18734577830105 21.35623650576707 147.44552968880691 H 0.0 **** 0.06
426 C 112.73123061286323 11.845900734642328 43.91169672934255 C 0.0 **** -0.24
427 H 111.91222717639313 11.762288162396544 43.19728649628398 H 0.0 **** 0.06
428 H 113.24792335921303 10.888334168667313 43.9853145835218 H 0.0 **** 0.06
429 H 112.33373319913646 12.119927329865476 44.88848220888411 H 0.0 **** 0.06
430 H 113.42951800506943 12.610886233638638 43.574707829103176 H 0.0 **** 0.06
431 C 10.904379449725468 19.987510804712258 121.40181324793063 C 0.0 **** -0.24
432 H 11.188288367365658 20.89100727498254 121.94056225731605 H 0.0 **** 0.06
433 H 11.528489593635783 19.156788480052114 121.73289579853163 H 0.0 **** 0.06
434 H 11.04445044177126 20.143183982917378 120.33185218866491 H 0.0 **** 0.06
435 H 9.858325065245253 19.758210030021985 121.60300475858081 H 0.0 **** 0.06
436 C 26.840123358585146 59.40438836090658 78.53425396495534 C 0.0 **** -0.24
437 H 26.58301513503647 58.55626691307677 77.8999905896598 H 0.0 **** 0.06
438 H 27.583368949303676 60.02344014160377 78.03061660096107 H 0.0 **** 0.06
439 H 27.2490027005123 59.040724342561134 79.47747391225 H 0.0 **** 0.06
440 H 25.945483541980288 59.99550122992298 78.73004427767843 H 0.0 **** 0.06
441 C 55.182085662897975 92.19618968280611 126.98282870116425 C 0.0 **** -0.24
442 H 54.22304634572333 92.16038505962513 126.46710566256148 H 0.0 **** 0.06
443 H 55.56764031499375 91.18276171522052 127.10289160541636 H 0.0 **** 0.06
444 H 55.05045975919222 92.65382997884689 127.96329422887023 H 0.0 **** 0.06
445 H 55.88821674865906 92.786580733857 126.39874139999198 H 0.0 **** 0.06
446 C 28.941688638412927 16.843462264729034 15.859440431900708 C 0.0 **** -0.24
447 H 27.99513990859296 17.25099894844113 15.505079022265562 H 0.0 **** 0.06
448 H 29.459543405606667 16.355548922319215 15.033214853240793 H 0.0 **** 0.06
449 H 28.751285077147998 16.11682882992882 16.64970243142099 H 0.0 **** 0.06
450 H 29.561201482027627 17.65135790690426 16.249973616778448 H 0.0 **** 0.06
451 C 40.637968281671476 152.91004387338023 20.055463284606844 C 0.0 **** -0.24
452 H 39.60688959057882 152.9214895729889 19.70095598322021 H 0.0 **** 0.06
453 H 40.647479125051746 152.9170705173921 21.145731079546806 H 0.0 **** 0.06
454 H 41.16087650835556 153.78913399412173 19.680684454847153 H 0.0 **** 0.06
455 H 41.134606055721235 152.00968482864863 19.693436778157064 H 0.0 **** 0.06
456 C 18.12420825585707 28.684286612948995 99.51827880195361 C 0.0 **** -0.24
457 H 17.994298066522333 28.61973391038015 98.43787333665657 H 0.0 **** 0.06
458 H 19.120467408303938 28.33088657264898 99.7858770344501 H 0.0 **** 0.06
459 H 17.374969981179447 28.066095186882876 100.01211887383761 H 0.0 **** 0.06
460 H 18.00792533610425 29.720511629488442 99.83610214130442 H 0.0 **** 0.06
461 C 85.85652066749955 141.99156135878226 146.8527189034058 C 0.0 **** -0.24
462 H 85.97634722079937 143.07175250055792 146.92610360967745 H 0.0 **** 0.06
463 H 84.87809719037776 141.7076257711178 147.24064642611535 H 0.0 **** 0.06
464 H 86.63519604845825 141.49930922288328 147.4356950350696 H 0.0 **** 0.06
465 H 85.93660719366216 141.6871823526652 145.80934254428854 H 0.0 **** 0.06
466 C 80.04718661418808 93.15466171195224 97.44090287982903 C 0.0 **** -0.24
467 H 79.04395111876055 92.72773620857916 97.44387737497556 H 0.0 **** 0.06
468 H 80.44317064714488 93.14555244648825 96.4253885570676 H 0.0 **** 0.06
469 H 80.69445648746327 92.56327240295467 98.08877021049562 H 0.0 **** 0.06
470 H 80.00642594302366 94.18039321316333 97.80718299278516 H 0.0 **** 0.06
471 C 63.20249708271436 58.31355633574924 155.68678428631736 C 0.0 **** -0.24
472 H 63.52450180233083 58.77997260088904 154.75561593105226 H 0.0 **** 0.06
473 H 62.88428077521705 59.08525843524171 156.38792616324017 H 0.0 **** 0.06
474 H 64.03020916912234 57.75049112115403 156.11614414125432 H 0.0 **** 0.06
475 H 62.36965524228975 57.63956246475192 155.48569622310427 H 0.0 **** 0.06
476 C 99.42396575940231 79.65579910072455 30.36311911658626 C 0.0 **** -0.24
477 H 100.03713399991256 79.92545107840203 31.222845341344424 H 0.0 **** 0.06
478 H 99.82319845828295 80.13359416216022 29.467828192425458 H 0.0 **** 0.06
479 H 98.39948870349014 79.99141692584399 30.527967985641766 H 0.0 **** 0.06
480 H 99.43568606678957 78.57362401854046 30.233549079278646 H 0.0 **** 0.06
481 C 98.66019132905423 68.15351777862071 40.85544741945343 C 0.0 **** -0.24
482 H 97.70326021496057 68.64371025551489 40.67444225036553 H 0.0 **** 0.06
483 H 99.0276747524366 68.43050157777307 41.844009814791676 H 0.0 **** 0.06
484 H 99.37837574778354 68.46790044377099 40.09843530707688 H 0.0 **** 0.06
485 H 98.5287746962466 67.07310537927788 40.80648468042254 H 0.0 **** 0.06
486 C 79.902563584187 95.82508603526429 67.2751247743032 C 0.0 **** -0.24
487 H 80.24145074723324 95.8101058853047 66.239250864532 H 0.0 **** 0.06
488 H 80.73694626948972 96.08352086704966 67.92618283838816 H 0.0 **** 0.06
489 H 79.51994121593906 94.84169895703084 67.54573815628794 H 0.0 **** 0.06
490 H 79.11023635786016 96.56559792735828 67.38652670316054 H 0.0 **** 0.06
491 C 69.9517081407684 140.81086283040187 18.331256222553776 C 0.0 **** -0.24
492 H 69.39060607086958 140.1582953296141 18.999794762625925 H 0.0 **** 0.06
493 H 70.05809892155037 141.79513534050966 18.78975853593562 H 0.0 **** 0.06
494 H 69.41876436813811 140.906493769022 17.384640478228057 H 0.0 **** 0.06
495 H 70.93854355480352 140.38560823794901 18.15182927787199 H 0.0 **** 0.06
496 C 45.56507349759936 3.0582995606352483 106.86776234911851 C 0.0 **** -0.24
497 H 46.02366797951527 3.8889207063065214 107.40454842719656 H 0.0 **** 0.06
498 H 45.973561745295044 3.0089117277905757 105.85859543919868 H 0.0 **** 0.06
499 H 44.48713722634794 3.2096229556825335 106.81682832577651 H 0.0 **** 0.06
500 H 45.77641399102441 2.1258169500381427 107.39194750316001 H 0.0 **** 0.06
501 C 72.89137097370514 117.05796716646563 64.03544291020549 C 0.0 **** -0.24
502 H 72.20417987784467 117.4017440417797 63.262720120511275 H 0.0 **** 0.06
503 H 73.80607616904443 116.6905990405159 63.57052708275371 H 0.0 **** 0.06
504 H 72.42453289446982 116.25429999455355 64.6055770879918 H 0.0 **** 0.06
505 H 73.13005393423731 117.885687914183 64.70356003410159 H 0.0 **** 0.06
506 C 9.327000241988245 6.428878054393351 121.47559522132366 C 0.0 **** -0.24
507 H 9.797700110104529 6.171578087585971 120.52670532572006 H 0.0 **** 0.06
508 H 9.11489964746071 5.517286630915123 122.03461856450235 H 0.0 **** 0.06
509 H 8.396590935049979 6.963708284576057 121.28613334867441 H 0.0 **** 0.06
510 H 9.999382709106918 7.062384280700201 122.05431999036006 H 0.0 **** 0.06
511 C 103.01597662988623 68.89296500281472 48.17945692649879 C 0.0 **** -0.24
512 H 102.46174735821408 67.9631501696569 48.04872825806014 H 0.0 **** 0.06
513 H 102.68605853645981 69.62086352287588 47.43759474403558 H 0.0 **** 0.06
514 H 104.08085458248492 68.70109168137333 48.05207085964395 H 0.0 **** 0.06
515 H 102.83439393131592 69.28565261553973 49.179677810947894 H 0.0 **** 0.06
516 C 140.30733607734265 143.52123876696746 118.49336770741837 C 0.0 **** -0.24
517 H 139.9025030269322 144.36048313291164 117.92796363942966 H 0.0 **** 0.06
518 H 139.7015360183458 143.36011623993556 119.38607009257493 H 0.0 **** 0.06
519 H 141.33413663605438 143.7414451005514 118.78560298576144 H 0.0 **** 0.06
520 H 140.28877269671568 142.62356715102553 117.87551599761576 H 0.0 **** 0.06
521 C 114.30495302366585 138.71380293074262 45.0202834722885 C 0.0 **** -0.24
522 H 114.01548231222553 139.72327628637467 45.3127777998979 H 0.0 **** 0.06
523 H 115.27721086646478 138.74289303240977 44.52912046429395 H 0.0 **** 0.06
524 H 113.56201523124973 138.3083860883494 44.332194563521966 H 0.0 **** 0.06
525 H 114.36262689850138 138.08198981887213 45.905998184356065 H 0.0 **** 0.06
526 C 102.96060008787354 19.931046927506003 140.92217951107438 C 0.0 **** -0.24
527 H 103.47328619240746 19.441974300809733 141.7502160932844 H 0.0 **** 0.06
528 H 103.39158690789345 19.59448536012411 139.97918993091173 H 0.0 **** 0.06
529 H 103.07736691172097 21.01122704804763 141.00975283344997 H 0.0 **** 0.06
530 H 101.90108336444062 19.677200276693696 140.9487473347118 H 0.0 **** 0.06
531 C 154.43177352995158 40.34975492265136 22.224830134273134 C 0.0 **** -0.24
532 H 154.23914770634673 39.335972567154926 22.574973359137516 H 0.0 **** 0.06
533 H 155.29012845269966 40.34435300819706 21.552522660207273 H 0.0 **** 0.06
534 H 154.64074831227632 40.99549992974775 23.077458178565962 H 0.0 **** 0.06
535 H 153.55588222180785 40.72212891065368 21.692799377112124 H 0.0 **** 0.06
536 C 31.06232325418557 5.614565172929304 71.62824917652857 C 0.0 **** -0.24
537 H 31.88834080390461 5.302682792296196 70.98893621279035 H 0.0 **** 0.06
538 H 31.138811951189666 6.684905951423389 71.82370970885965 H 0.0 **** 0.06
539 H 31.107558564988892 5.069366175751469 72.5714413717662 H 0.0 **** 0.06
540 H 30.117354196041788 5.401701659816524 71.12998496518465 H 0.0 **** 0.06
541 C 73.96992519872356 50.362501683246876 126.25709203187375 C 0.0 **** -0.24
542 H 74.94707974151379 50.19287448840505 126.70861751850674 H 0.0 **** 0.06
543 H 73.84396072555577 51.42570506444359 126.05077379067046 H 0.0 **** 0.06
544 H 73.19120777412857 50.03060609383975 126.94416712131886 H 0.0 **** 0.06
545 H 73.89740613461225 49.79943213714175 125.32682683874071 H 0.0 **** 0.06
546 C 146.66126235446802 119.79223208604107 22.08154001086396 C 0.0 **** -0.24
547 H 147.6722162457212 119.83448293034168 22.48574631645039 H 0.0 **** 0.06
548 H 145.99434378803298 119.34404203567728 22.81848166136993 H 0.0 **** 0.06
549 H 146.65858935508604 119.18912147321952 21.173415500773018 H 0.0 **** 0.06
550 H 146.3208324300379 120.80137007066573 21.848867118304497 H 0.0 **** 0.06
551 C 101.8199684287009 7.834057132566272 3.896219290373324 C 0.0 **** -0.24
552 H 100.76853708942092 7.5737477215784 4.015100733821384 H 0.0 **** 0.06
553 H 102.40187049867727 6.92721687244773 3.730332560344891 H 0.0 **** 0.06
554 H 102.1746898242575 8.33340266273268 4.798005547491243 H 0.0 **** 0.06
555 H 101.93496397026006 8.500940079419593 3.041779222749142 H 0.0 **** 0.06
556 C 90.30739804035954 82.11907809828588 144.81000588712158 C 0.0 **** -0.24
557 H 89.73826173303001 83.02053660117647 144.58495239857282 H 0.0 **** 0.06
558 H 90.91296795007207 82.28395553192365 145.70040419239646 H 0.0 **** 0.06
559 H 90.95638128900987 81.88026553143672 143.96666549600283 H 0.0 **** 0.06
560 H 89.62011047366803 81.29058888584309 144.98586420541628 H 0.0 **** 0.06
561 C 87.52882889203448 58.64862227089915 63.33937153271877 C 0.0 **** -0.24
562 H 86.5905186107749 58.844617241314396 62.82032966219312 H 0.0 **** 0.06
563 H 88.16292782717056 59.53411304584087 63.29128503184222 H 0.0 **** 0.06
564 H 88.03832467870146 57.81082842683699 62.86453771774977 H 0.0 **** 0.06
565 H 87.32289947587361 58.40497965036754 64.38209635295262 H 0.0 **** 0.06
566 C 49.65702559800093 123.89590772833121 2.4422398463326545 C 0.0 **** -0.24
567 H 50.72923559086098 124.0868897091891 2.4631977724288845 H 0.0 **** 0.06
568 H 49.15794923726662 124.6860784323898 1.8796558297271702 H 0.0 **** 0.06
569 H 49.27199422152313 123.877010312325 3.461457867850271 H 0.0 **** 0.06
570 H 49.467868669372706 122.93416245668585 1.9638556825343016 H 0.0 **** 0.06
571 C 111.32760864015978 91.1738379939639 135.6126782427912 C 0.0 **** -0.24
572 H 112.24760757847315 90.87758126787696 136.1159341965803 H 0.0 **** 0.06
573 H 110.50462725462017 91.16651868033136 136.32750881386158 H 0.0 **** 0.06
574 H 111.11397545684736 90.4756293010654 134.8035082060681 H 0.0 **** 0.06
575 H 111.44438513071299 92.17785262390362 135.2038047050766 H 0.0 **** 0.06
576 C 86.13355729256743 142.49886150350804 118.61501973355155 C 0.0 **** -0.24
577 H 85.13408249140493 142.08416935923304 118.48942844203367 H 0.0 **** 0.06
578 H 86.10736355266003 143.29257733610254 119.36258095663061 H 0.0 **** 0.06
579 H 86.48005002912 142.90612710121985 117.66451816650664 H 0.0 **** 0.06
580 H 86.81376123941617 141.71304479978676 118.94270304456586 H 0.0 **** 0.06
581 C 110.65572613978809 2.2748798004835464 4.2677518553166465 C 0.0 **** -0.24
582 H 110.80848815986691 1.568867537761669 3.4509323220864303 H 0.0 **** 0.06
583 H 109.67281207566312 2.7353322621472174 4.169832848624367 H 0.0 **** 0.06
584 H 111.4248812896639 3.045936336689042 4.229387443367443 H 0.0 **** 0.06
585 H 110.7175500776119 1.7478138537540886 5.219165496943333 H 0.0 **** 0.06
586 C 110.21344325273661 136.24261619411413 71.61603233179251 C 0.0 **** -0.24
587 H 110.8415317194693 135.81833504944927 70.8321764224792 H 0.0 **** 0.06
588 H 110.84260390887577 136.69081866324245 72.38364357235109 H 0.0 **** 0.06
589 H 109.60367315864245 135.45435451303706 72.05843107872822 H 0.0 **** 0.06
590 H 109.56404885399361 137.0051595895842 71.18612286121035 H 0.0 **** 0.06
591 C 123.52664970011641 91.05231009891429 21.39625302238963 C 0.0 **** -0.24
592 H 124.06072960733478 91.30561905845666 22.312698838089275 H 0.0 **** 0.06
593 H 123.16307758558774 91.96427706815366 20.92393406423176 H 0.0 **** 0.06
594 H 122.68376557113528 90.40397982173359 21.63437452050733 H 0.0 **** 0.06
595 H 124.2018373144435 90.53432579875992 20.714139640563033 H 0.0 **** 0.06
596 C 108.1464036177371 45.361477507228784 122.26069002596098 C 0.0 **** -0.24
597 H 108.97239194331608 45.29484253485714 122.96901957364715 H 0.0 **** 0.06
598 H 108.49762572014843 45.08254695068533 121.26678435642096 H 0.0 **** 0.06
599 H 107.76846619011057 46.38389711865449 122.23919287346887 H 0.0 **** 0.06
600 H 107.34894165635997 44.68583270790219 122.56827117304557 H 0.0 **** 0.06
601 C 128.8354457519038 83.74165016058888 16.124246407264195 C 0.0 **** -0.24
602 H 129.79825924130878 84.19977106593458 15.895937140458216 H 0.0 **** 0.06
603 H 128.42937397495413 83.28199713264888 15.223261683786689 H 0.0 **** 0.06
604 H 128.14672013681985 84.50583745716568 16.484340103931316 H 0.0 **** 0.06
605 H 128.96870454857105 82.98072529602433 16.892829580749435 H 0.0 **** 0.06
606 C 99.90439994170886 16.224045581062285 44.111077912904605 C 0.0 **** -0.24
607 H 98.9866252416579 16.618243316607646 44.54836322359456 H 0.0 **** 0.06
608 H 100.74391584647348 16.443676514589242 44.76960575861801 H 0.0 **** 0.06
609 H 100.07179117688754 16.68988205404969 43.140077800569046 H 0.0 **** 0.06
610 H 99.81211844985482 15.145021452458195 43.98544454479328 H 0.0 **** 0.06
611 C 143.20337054392223 121.44375750488813 148.5179085114317 C 0.0 **** -0.24
612 H 144.23436594039578 121.13753153692646 148.3443724085574 H 0.0 **** 0.06
613 H 143.10751548970984 122.51507598020352 148.34251127595397 H 0.0 **** 0.06
614 H 142.92637259925323 121.21860155239857 149.54896121841784 H 0.0 **** 0.06
615 H 142.54469531185475 120.90268766897897 147.83971754130593 H 0.0 **** 0.06
616 C 32.44506123922872 117.35107381070286 33.99844844291482 C 0.0 **** -0.24
617 H 33.447626746386135 117.77505475046614 34.04273384870481 H 0.0 **** 0.06
618 H 32.50622759332137 116.26542023787825 34.079248779669626 H 0.0 **** 0.06
619 H 31.979173009823654 117.61902384534467 33.04935221095508 H 0.0 **** 0.06
620 H 31.847235739452714 117.74520024702487 34.82025967133447 H 0.0 **** 0.06
621 C 34.707948374245234 12.355892356724667 147.52962058189541 C 0.0 **** -0.24
622 H 35.41871676597151 12.032649672158215 146.77024315687285 H 0.0 **** 0.06
623 H 35.23641251602761 12.899011167925778 148.31389369696322 H 0.0 **** 0.06
624 H 34.21559383825506 11.483764922346523 147.96005690288453 H 0.0 **** 0.06
625 H 33.96095424686155 13.007563243382549 147.07591636779767 H 0.0 **** 0.06
626 C 1.4687017728002019 129.7725916521332 67.1212724417689 C 0.0 **** -0.24
627 H 1.8291219977619129 129.49550307732042 68.11161977154404 H 0.0 **** 0.06
628 H 0.7615827871662226 130.59796574322874 67.21032892048106 H 0.0 **** 0.06
629 H 0.9718558641937136 128.91685848146716 66.662978224586 H 0.0 **** 0.06
630 H 2.310124309246099 130.07932112017414 66.50115328265079 H 0.0 **** 0.06
631 C 150.7453724197735 76.87007000086949 67.18129491235078 C 0.0 **** -0.24
632 H 150.9274553878974 76.78240451496006 68.25258676777543 H 0.0 **** 0.06
633 H 149.95608275109632 77.60312590279862 67.00724716806161 H 0.0 **** 0.06
634 H 150.43614930511401 75.90299749719904 66.78503174020284 H 0.0 **** 0.06
635 H 151.65868025319912 77.19269603682659 66.68283642151098 H 0.0 **** 0.06
636 C 134.7635960824359 1.936894196873368 74.49737325046056 C 0.0 **** -0.24
637 H 135.05637092529744 1.6426733482934708 73.4899609097908 H 0.0 **** 0.06
638 H 133.8561765476643 2.539132211195806 74.45026868417096 H 0.0 **** 0.06
639 H 135.5641319464082 2.519289263934752 74.95292343433141 H 0.0 **** 0.06
640 H 134.57724279437312 1.0443035586736755 75.09613709062091 H 0.0 **** 0.06
641 C 27.068663771042054 43.99337982412534 155.55243684713773 C 0.0 **** -0.24
642 H 26.75521315357463 43.56741856666845 156.5059977612672 H 0.0 **** 0.06
643 H 26.576405907956428 44.95436933138704 155.40482581051293 H 0.0 **** 0.06
644 H 26.794612741346953 43.31520761464897 154.7445320591687 H 0.0 **** 0.06
645 H 28.149956288454348 44.13455038861204 155.55605184598053 H 0.0 **** 0.06
646 C 117.40511872284851 33.810911190892426 50.330056253250206 C 0.0 **** -0.24
647 H 118.44156970499894 33.96015919369523 50.02696703371308 H 0.0 **** 0.06
648 H 117.37314704680496 33.18276248447722 51.22021954263539 H 0.0 **** 0.06
649 H 116.85652776629802 33.32603453697021 49.52254943304938 H 0.0 **** 0.06
650 H 116.948201442383 34.776274756047115 50.549836794458116 H 0.0 **** 0.06
651 C 133.46644951562814 0.06525107457991908 67.47906013553835 C 0.0 **** -0.24
652 H 133.2262107350082 -0.08635980389717446 68.5314284852158 H 0.0 **** 0.06
653 H 133.1091245874254 1.0456756370734617 67.16366949965037 H 0.0 **** 0.06
654 H 132.98520995472026 -0.7073985708789152 66.88086900685863 H 0.0 **** 0.06
655 H 134.5469458657908 0.010985614415996992 67.34301751369863 H 0.0 **** 0.06
656 C 58.73049723803261 16.691036314717905 36.41836452987323 C 0.0 **** -0.24
657 H 58.70630744437477 17.760765000406536 36.209271055631106 H 0.0 **** 0.06
658 H 58.26242386469592 16.14895811742622 35.59573200732666 H 0.0 **** 0.06
659 H 58.18799677741657 16.48922011577045 37.341928896911895 H 0.0 **** 0.06
660 H 59.76526086564314 16.365202025268502 36.52652615962323 H 0.0 **** 0.06
661 C 101.70550517049146 148.0711064969015 3.721461670401368 C 0.0 **** -0.24
662 H 101.29071298179444 147.11679148071025 3.3959190738886207 H 0.0 **** 0.06
663 H 102.56105667680022 148.32792425727703 3.09476875311222 H 0.0 **** 0.06
664 H 102.026409717209 147.99215015432534 4.760107344132166 H 0.0 **** 0.06
665 H 100.94496125252674 148.8463212854008 3.6332595100571723 H 0.0 **** 0.06
666 C 12.981460706634316 28.433905775453397 100.29864782221222 C 0.0 **** -0.24
667 H 12.701495910302071 28.30162737563805 101.3441428418169 H 0.0 **** 0.06
668 H 12.990527829468355 29.49708259036411 100.05687614495093 H 0.0 **** 0.06
669 H 12.25926750146175 27.922401216167792 99.66236114943985 H 0.0 **** 0.06
670 H 13.973936971020507 28.0149351990512 100.13241246397644 H 0.0 **** 0.06
671 C 146.4492060804397 55.30528816663289 108.81175182298527 C 0.0 **** -0.24
672 H 147.5076167495934 55.37468737295552 108.56087481535955 H 0.0 **** 0.06
673 H 146.29598245099425 54.49095387458803 109.51939426631246 H 0.0 **** 0.06
674 H 145.87281155966326 55.11315145305349 107.9064024243297 H 0.0 **** 0.06
675 H 146.1197943968657 56.242803907793984 109.25968803342418 H 0.0 **** 0.06
676 C 46.74948603550661 109.93950632383361 63.2674255584879 C 0.0 **** -0.24
677 H 45.96692682196277 109.30902227477095 62.84497009194858 H 0.0 **** 0.06
678 H 47.34984368318129 110.36273604811872 62.46254050872463 H 0.0 **** 0.06
679 H 47.38579172279702 109.34109295878032 63.9201691674302 H 0.0 **** 0.06
680 H 46.2942588829784 110.74498803391889 63.843947141253366 H 0.0 **** 0.06
681 C 105.49560386999497 143.14176918729223 65.15742481108622 C 0.0 **** -0.24
682 H 105.1703295377921 144.15644553274618 64.92703990461442 H 0.0 **** 0.06
683 H 106.40971043043555 143.17984319952282 65.75095010643513 H 0.0 **** 0.06
684 H 105.6870231984206 142.60230295959076 64.22967510877665 H 0.0 **** 0.06
685 H 104.71648129079165 142.62933468124325 65.72209424244491 H 0.0 **** 0.06
686 C 97.20147199415953 9.45710306591495 17.5470941926165 C 0.0 **** -0.24
687 H 97.89708249066007 8.826571280768007 18.101295773105733 H 0.0 **** 0.06
688 H 97.34038794219552 9.297735348903444 16.477211487987063 H 0.0 **** 0.06
689 H 97.38952211611951 10.503769769563242 17.78540831311372 H 0.0 **** 0.06
690 H 96.1789372759988 9.198870756340952 17.822772448271508 H 0.0 **** 0.06
691 C 109.53741690165218 90.58721377024392 123.65051214816343 C 0.0 **** -0.24
692 H 109.6262453877243 89.50366175416957 123.5699813387924 H 0.0 **** 0.06
693 H 109.83891233492186 90.90328596651057 124.64880845616342 H 0.0 **** 0.06
694 H 108.50257969186593 90.88145534927492 123.47208134200828 H 0.0 **** 0.06
695 H 110.18192524758156 91.06044151539163 122.90894138141941 H 0.0 **** 0.06
696 C 26.209035115671213 114.02742383752262 42.18011206058385 C 0.0 **** -0.24
697 H 27.10295144819895 113.56305639389946 41.76420687218088 H 0.0 **** 0.06
698 H 25.392018449979787 113.94699266315446 41.462522838362844 H 0.0 **** 0.06
699 H 26.409284894828886 115.07792277003607 42.38820975972027 H 0.0 **** 0.06
700 H 25.932631802138303 113.51919919001033 43.10375624395462 H 0.0 **** 0.06
701 C 151.07344942504824 61.37579174974468 48.44615702970191 C 0.0 **** -0.24
702 H 150.08399234950042 61.355425923421194 48.90132573638755 H 0.0 **** 0.06
703 H 151.7265274044997 60.67205905274824 48.96294919152069 H 0.0 **** 0.06
704 H 151.48869554672572 62.380520225077134 48.52456633318917 H 0.0 **** 0.06
705 H 150.99587057795213 61.09565593852875 47.39547623549208 H 0.0 **** 0.06
706 C 62.07098173906218 145.14147333010249 37.443149601023265 C 0.0 **** -0.24
707 H 63.13311262331277 144.96378164558578 37.615324980660375 H 0.0 **** 0.06
708 H 61.8903106890605 145.24981385192635 36.373755393899046 H 0.0 **** 0.06
709 H 61.7687525223879 146.0542309714537 37.95782007868604 H 0.0 **** 0.06
710 H 61.49495312441471 144.2996315571363 37.826245030821156 H 0.0 **** 0.06
711 C 27.069026429693054 50.59326399307423 26.642072770341642 C 0.0 **** -0.24
712 H 27.844361505986797 50.472793349003155 27.398943979848646 H 0.0 **** 0.06
713 H 26.22413280819285 49.94714873740514 26.882373720837386 H 0.0 **** 0.06
714 H 27.46982248236833 50.31921886079317 25.665723708898078 H 0.0 **** 0.06
715 H 26.73868316486835 51.63086186311426 26.621273837571437 H 0.0 **** 0.06
716 C 145.08965570796428 23.981993334362734 145.50038229197324 C 0.0 **** -0.24
717 H 144.44800325600858 24.550360698019063 146.17339962398228 H 0.0 **** 0.06
718 H 145.41488663008155 23.06598266886745 145.99550756988367 H 0.0 **** 0.06
719 H 145.96098728636372 24.580792498347506 145.23687236058976 H 0.0 **** 0.06
720 H 144.5350357544479 23.729070914449665 144.59664138062513 H 0.0 **** 0.06
721 C 33.3348880973399 46.01777124127716 151.84754502395762 C 0.0 **** -0.24
722 H 33.15927018954659 44.95162612754336 151.70189256721827 H 0.0 **** 0.06
723 H 32.38912828336413 46.51541292009847 152.0646989847163 H 0.0 **** 0.06
724 H 33.76964244128354 46.441214574849 150.94100482034355 H 0.0 **** 0.06
725 H 34.02261441582871 46.16186643870489 152.680894746027 H 0.0 **** 0.06
726 C 12.985405672933808 25.500660175415334 120.19084345522087 C 0.0 **** -0.24
727 H 14.052089373036239 25.555510815749244 120.40959212575216 H 0.0 **** 0.06
728 H 12.842961765323338 25.299959469906412 119.12834231362321 H 0.0 **** 0.06
729 H 12.512520373302152 26.448540739027123 120.44845093419217 H 0.0 **** 0.06
730 H 12.535191622045033 24.69874857637231 120.77569023597219 H 0.0 **** 0.06
731 C 137.51398988252743 52.49132136300018 103.17054821884248 C 0.0 **** -0.24
732 H 136.47521006031084 52.527762293467646 103.49965189565238 H 0.0 **** 0.06
733 H 137.5483343870053 52.45046853503115 102.0817947220521 H 0.0 **** 0.06
734 H 137.9942765057166 51.60388661883847 103.58329392855508 H 0.0 **** 0.06
735 H 138.03615670218505 53.382452649036566 103.51820106203188 H 0.0 **** 0.06
736 C 100.23142420190942 130.2310416235508 26.81942361193647 C 0.0 **** -0.24
737 H 100.8318419789544 129.8386131174823 25.99856001867255 H 0.0 **** 0.06
738 H 100.80453731688385 130.98696420120316 27.35852486717853 H 0.0 **** 0.06
739 H 99.96971827559088 129.41969593393063 27.49837341825058 H 0.0 **** 0.06
740 H 99.32203510905521 130.68039649395521 26.4213377847299 H 0.0 **** 0.06
741 C 124.29113741076328 3.3311709320262253 86.15957614583517 C 0.0 **** -0.24
742 H 124.29675942211783 3.4104244922559133 87.24705808323942 H 0.0 **** 0.06
743 H 125.05275409020469 2.618112067701759 85.8438171168303 H 0.0 **** 0.06
744 H 124.50303564936858 4.307952612906604 85.72323178908023 H 0.0 **** 0.06
745 H 123.31151231346091 2.9898411131141245 85.82562962143166 H 0.0 **** 0.06
746 C 38.94500241571896 67.2425869205845 115.41406512338467 C 0.0 **** -0.24
747 H 39.3391123542184 66.90243569415401 114.45581087276578 H 0.0 **** 0.06
748 H 38.09916654934317 66.61749580098169 115.70088468599302 H 0.0 **** 0.06
749 H 38.619201675518724 68.27867890071235 115.32586685248425 H 0.0 **** 0.06
750 H 39.72395048049806 67.16942698153844 116.17289659440247 H 0.0 **** 0.06
751 C 84.7950279359508 128.91840679711476 16.300765209971445 C 0.0 **** -0.24
752 H 85.51918740405976 129.7078414913302 16.50368051675902 H 0.0 **** 0.06
753 H 85.31652158321948 128.0295571654463 15.944036437587691 H 0.0 **** 0.06
754 H 84.09119640168026 129.25733136552316 15.540342306555281 H 0.0 **** 0.06
755 H 84.25274120585101 128.67907217701367 17.21666082738721 H 0.0 **** 0.06
756 C 70.95106041769822 21.441187258466023 151.62108641623462 C 0.0 **** -0.24
757 H 70.29332098693476 21.295638669113565 152.47738898337366 H 0.0 **** 0.06
758 H 71.61295463743056 22.286659835348843 151.81169825321814 H 0.0 **** 0.06
759 H 70.35174587731862 21.641905385471645 150.7329687494594 H 0.0 **** 0.06
760 H 71.54577995669703 20.541906557980944 151.46368713908805 H 0.0 **** 0.06
761 C 38.820849056401684 96.60435987745151 113.46798790880372 C 0.0 **** -0.24
762 H 38.952724735291795 96.17362969266264 112.47504127929666 H 0.0 **** 0.06
763 H 37.81900190415652 97.02619724590514 113.54940163449196 H 0.0 **** 0.06
764 H 39.56011861526464 97.38941758871539 113.62393838036978 H 0.0 **** 0.06
765 H 38.9509411066126 95.82691255680874 114.22057304095578 H 0.0 **** 0.06
766 C 42.26464728925649 115.0398309868324 112.0138762730049 C 0.0 **** -0.24
767 H 42.479484325593035 115.5517281880994 111.07611779803672 H 0.0 **** 0.06
768 H 42.48147590577672 115.70574432269235 112.8502461146624 H 0.0 **** 0.06
769 H 42.88366158337405 114.14656087335577 112.09099595347134 H 0.0 **** 0.06
770 H 41.212150752694 114.75552505271791 112.03942787142513 H 0.0 **** 0.06
771 C 70.33652052707265 140.8076490679867 127.58770149666343 C 0.0 **** -0.24
772 H 70.28648669614545 141.1854717614524 126.56578450060546 H 0.0 **** 0.06
773 H 70.98919667202554 141.44940459499074 128.18004293877777 H 0.0 **** 0.06
774 H 70.73289289221873 139.79277277556298 127.58003996342772 H 0.0 **** 0.06
775 H 69.33696838071249 140.8034852327934 128.02283578859567 H 0.0 **** 0.06
776 C 81.65731190529499 131.04332739479446 101.91481501929383 C 0.0 **** -0.24
777 H 80.83112920525286 130.75083125512032 101.26800533076897 H 0.0 **** 0.06
778 H 81.40716921018446 131.9723315705009 102.42660748382468 H 0.0 **** 0.06
779 H 82.55453583412248 131.18994119845468 101.31263787058168 H 0.0 **** 0.06
780 H 81.83834890554846 130.25983742492332 102.65055392510561 H 0.0 **** 0.06
781 C 14.064769132978753 120.27871885382224 14.974962778272236 C 0.0 **** -0.24
782 H 14.623706237249849 119.84653741403291 15.80465981389564 H 0.0 **** 0.06
783 H 13.89164260961936 119.51553329372435 14.215958369724234 H 0.0 **** 0.06
784 H 14.636110163923263 121.09967241806926 14.541220508456135 H 0.0 **** 0.06
785 H 13.107984259731502 120.65392298630941 15.338502659565435 H 0.0 **** 0.06
786 C 140.8880175476193 54.511965849149306 42.09675730843156 C 0.0 **** -0.24
787 H 139.9636695805625 54.52433385939922 42.67399082131578 H 0.0 **** 0.06
788 H 140.65632273028194 54.630421642048006 41.03771177280419 H 0.0 **** 0.06
789 H 141.40123945543883 53.56389315398269 42.2533014392514 H 0.0 **** 0.06
790 H 141.53002977786718 55.331278344061445 42.42232150587586 H 0.0 **** 0.06
791 C 42.56318717355842 105.30136233827538 139.59283259369147 C 0.0 **** -0.24
792 H 41.692139540621326 105.7705702896012 139.13610557415922 H 0.0 **** 0.06
793 H 42.814974424365516 104.3927632913746 139.04663611201497 H 0.0 **** 0.06
794 H 42.340159177599276 105.05219861699716 140.63036988495963 H 0.0 **** 0.06
795 H 43.406300481701294 105.99188426121633 139.5588897334305 H 0.0 **** 0.06
796 C 10.032419322108694 68.36617634977159 141.84306583297376 C 0.0 **** -0.24
797 H 10.945810448632017 68.58651710760495 142.39633909178423 H 0.0 **** 0.06
798 H 9.232208968751166 68.12982472470179 142.54501027347038 H 0.0 **** 0.06
799 H 10.203726381557601 67.51308101642184 141.1864815516185 H 0.0 **** 0.06
800 H 9.749617833098796 69.23320661683093 141.24639381841882 H 0.0 **** 0.06
801 C 23.61078772492033 74.8083471774757 32.75081392107302 C 0.0 **** -0.24
802 H 24.159800665487097 74.6395803288022 31.824199531872097 H 0.0 **** 0.06
803 H 22.65461833838924 75.28062388799594 32.52652957484338 H 0.0 **** 0.06
804 H 24.193249625729635 75.45765320325836 33.404933566532776 H 0.0 **** 0.06
805 H 23.437234894233455 73.85438527616336 33.24886389911785 H 0.0 **** 0.06
806 C 1.3293798325821626 130.2050291677615 5.905940134710761 C 0.0 **** -0.24
807 H 1.8413228135873965 130.16213497900839 6.867043213961608 H 0.0 **** 0.06
808 H 1.1304203469209995 131.24488241068366 5.646355788933306 H 0.0 **** 0.06
809 H 0.387090371383664 129.6607913440294 5.9715636338647755 H 0.0 **** 0.06
810 H 1.9578283197284634 129.75231845758327 5.139312345606697 H 0.0 **** 0.06
811 C 77.00492409805733 6.154438167699766 112.88367813884638 C 0.0 **** -0.24
812 H 76.41460269190779 5.33596984628258 113.29532714748352 H 0.0 **** 0.06
813 H 76.58658101200778 7.105510990896732 113.21312193950884 H 0.0 **** 0.06
814 H 76.98409472605563 6.106571069327401 111.7946347191404 H 0.0 **** 0.06
815 H 78.0353252125439 6.069944214265689 113.2312857309163 H 0.0 **** 0.06
816 C 51.39487160691179 135.8748811094157 78.03196217051969 C 0.0 **** -0.24
817 H 50.91530297402623 136.06787269889634 77.0729064846635 H 0.0 **** 0.06
818 H 50.94639893154469 134.9932009186262 78.49193177321143 H 0.0 **** 0.06
819 H 51.25761178250549 136.73599650265302 78.68629060818192 H 0.0 **** 0.06
820 H 52.45982114986134 135.70166414861265 77.87783878113524 H 0.0 **** 0.06
821 C 151.00049949939392 32.41009058305042 125.82137306693113 C 0.0 **** -0.24
822 H 150.69721671713026 32.83075301557807 124.86260388443674 H 0.0 **** 0.06
823 H 150.53603906850418 31.433290497184146 125.95226132222683 H 0.0 **** 0.06
824 H 150.6835739348339 33.07441753166131 126.62541259817942 H 0.0 **** 0.06
825 H 152.08486281170588 32.303199880755756 125.84474498203326 H 0.0 **** 0.06
826 C 84.97303769761776 31.980464745871586 73.38472849129664 C 0.0 **** -0.24
827 H 85.78847219463273 31.94891318194948 74.10764602820257 H 0.0 **** 0.06
828 H 84.05569369686056 31.63091180814837 73.8583954607459 H 0.0 **** 0.06
829 H 85.21341846665653 31.336875495520303 72.53834994612134 H 0.0 **** 0.06
830 H 84.83619853852363 33.00398185957107 73.03715921548076 H 0.0 **** 0.06
831 C 156.6634007469233 25.52989095603634 134.07440678883 C 0.0 **** -0.24
832 H 157.452526310989 25.785089113050915 134.7825977640918 H 0.0 **** 0.06
833 H 156.9735034378125 24.672278175826854 133.47808365148762 H 0.0 **** 0.06
834 H 156.47649002450675 26.38052945102769 133.41824733020405 H 0.0 **** 0.06
835 H 155.75272813874932 25.283969057375707 134.6196961251597 H 0.0 **** 0.06
836 C 7.204414001910067 92.0817929154446 46.16137504184441 C 0.0 **** -0.24
837 H 6.442216302755554 91.88682070299029 46.91617580613092 H 0.0 **** 0.06
838 H 7.468681842867596 91.14848660832928 45.66366977475698 H 0.0 **** 0.06
839 H 8.089120386936713 92.50152919380835 46.63954522220071 H 0.0 **** 0.06
840 H 6.81740274346933 92.78774195369311 45.42790394641058 H 0.0 **** 0.06
841 C 130.06728340586 96.22704821770907 83.03522686063766 C 0.0 **** -0.24
842 H 129.35846204862293 97.05354553036909 83.07103334916029 H 0.0 **** 0.06
843 H 130.13458973689814 95.76300146733621 84.0201228960233 H 0.0 **** 0.06
844 H 131.04824706149907 96.60120438822469 82.74184460879378 H 0.0 **** 0.06
845 H 129.7287437499523 95.4886941093676 82.30825382918435 H 0.0 **** 0.06
846 C 53.89428819782309 26.474337003489573 97.19547550520201 C 0.0 **** -0.24
847 H 54.464366745018765 25.73880193716598 97.76357699972965 H 0.0 **** 0.06
848 H 54.352273579221716 27.457082293793107 97.3115693708624 H 0.0 **** 0.06
849 H 52.86993713139482 26.50409823027949 97.5654536118285 H 0.0 **** 0.06
850 H 53.89252905184166 26.195907099485893 96.14153889811922 H 0.0 **** 0.06
851 C 61.049759101877996 59.741586511748096 29.55530667698789 C 0.0 **** -0.24
852 H 60.53090554704612 60.147119997691746 30.423635092457353 H 0.0 **** 0.06
853 H 60.72976781593903 60.27314216088912 28.65985271561496 H 0.0 **** 0.06
854 H 60.813734891956585 58.68181874576631 29.45417035201831 H 0.0 **** 0.06
855 H 62.1247413808739 59.862437565199215 29.685724330880383 H 0.0 **** 0.06
856 C 146.26941577580303 70.1055694637493 87.03548424400947 C 0.0 **** -0.24
857 H 145.45076930178683 70.0039038522321 86.32420464295924 H 0.0 **** 0.06
858 H 145.87165889137344 70.40183066283629 88.00671772369765 H 0.0 **** 0.06
859 H 146.9661706184789 70.8659983406456 86.68107159843171 H 0.0 **** 0.06
860 H 146.78885865201542 69.15244050950153 87.1305470668928 H 0.0 **** 0.06
861 C 88.77299769663445 87.38492329590524 15.349043036104774 C 0.0 **** -0.24
862 H 88.1656976897822 86.9644019181799 14.547406491797261 H 0.0 **** 0.06
863 H 89.0263867936597 86.60123819508372 16.062569685471345 H 0.0 **** 0.06
864 H 88.2111701333852 88.1702932674663 15.855241107249356 H 0.0 **** 0.06
865 H 89.6872164447234 87.8055904219832 14.928871690393066 H 0.0 **** 0.06
866 C 40.28763485934044 18.93508060581138 5.346648013797335 C 0.0 **** -0.24
867 H 40.37589004649445 18.078975351023246 4.678767453848479 H 0.0 **** 0.06
868 H 39.28442739628919 19.35596972877761 5.267484512943668 H 0.0 **** 0.06
869 H 41.021116240029016 19.690785346589962 5.067678407629387 H 0.0 **** 0.06
870 H 40.46790373336377 18.61521742111148 6.3730667173929305 H 0.0 **** 0.06
871 C 54.359656455798586 145.59686873371425 147.6912247422115 C 0.0 **** -0.24
872 H 54.32094956159261 146.6852525598049 147.641113761908 H 0.0 **** 0.06
873 H 54.162857014396934 145.1807513698776 146.70237892893124 H 0.0 **** 0.06
874 H 53.60628846964812 145.23908183610035 148.39214759404553 H 0.0 **** 0.06
875 H 55.348063666428374 145.2833702718059 148.02757958455294 H 0.0 **** 0.06
876 C 70.84115844996604 96.82550957742207 102.48991579460989 C 0.0 **** -0.24
877 H 70.87543450879457 96.63833697669936 101.41659839319124 H 0.0 **** 0.06
878 H 70.11589290770866 96.15476633221205 102.95192672981511 H 0.0 **** 0.06
879 H 70.5456397195547 97.85913448983408 102.66862471079014 H 0.0 **** 0.06
880 H 71.82640245739167 96.64905876242075 102.92159047470648 H 0.0 **** 0.06
881 C 62.648388076799364 9.70206682558107 153.56087992763628 C 0.0 **** -0.24
882 H 61.76352361822346 9.09475099355872 153.74910854760856 H 0.0 **** 0.06
883 H 62.91168572871261 10.24982389470383 154.4664776613643 H 0.0 **** 0.06
884 H 62.439575681080385 10.408482411255399 152.75740928246165 H 0.0 **** 0.06
885 H 63.47772005837457 9.056348293125886 153.27179219148002 H 0.0 **** 0.06
886 C 123.43247078351031 19.145727736583467 130.16374237847356 C 0.0 **** -0.24
887 H 122.7964974936235 18.306353106744666 130.44560029996262 H 0.0 **** 0.06
888 H 123.17755806739642 20.013888493137244 130.77306917057155 H 0.0 **** 0.06
889 H 123.27680746047047 19.382621315630047 129.11077511152 H 0.0 **** 0.06
890 H 124.47691120721673 18.881036778936306 130.32628327922538 H 0.0 **** 0.06
891 C 15.837064873366849 120.30288538541403 149.86171633015843 C 0.0 **** -0.24
892 H 15.00250812532051 119.68338153060996 149.53418211633743 H 0.0 **** 0.06
893 H 15.457561790140645 121.14840184593102 150.43583043879258 H 0.0 **** 0.06
894 H 16.381745203756026 120.66925295725851 148.99100464331715 H 0.0 **** 0.06
895 H 16.505599894857966 119.71078011650967 150.48538843496854 H 0.0 **** 0.06
896 C 10.80115446926348 144.21989507216384 61.34176836688283 C 0.0 **** -0.24
897 H 10.616406164229993 143.34145425336757 60.72255556102556 H 0.0 **** 0.06
898 H 10.777226389322685 143.93336614433707 62.39387878911944 H 0.0 **** 0.06
899 H 10.030813492650964 144.96717798239496 61.150538888443094 H 0.0 **** 0.06
900 H 11.778718053428072 144.63610514396032 61.09926007402615 H 0.0 **** 0.06
901 C 12.300743027201236 59.0458658417362 51.6886079471234 C 0.0 **** -0.24
902 H 11.259011123318771 58.98564597554147 52.004197696391685 H 0.0 **** 0.06
903 H 12.825408531823115 58.140409578464386 51.99504842234023 H 0.0 **** 0.06
904 H 12.771046581059437 59.91321033019099 52.150301274788575 H 0.0 **** 0.06
905 H 12.346052419067007 59.14268601412488 50.60410780102083 H 0.0 **** 0.06
906 C 15.169515299139285 125.88421172984442 116.06264810706188 C 0.0 **** -0.24
907 H 15.582159419248534 126.64397890618704 116.72587455089422 H 0.0 **** 0.06
908 H 14.223331750496726 125.52409191648991 116.46790249442665 H 0.0 **** 0.06
909 H 15.870322211529405 125.05351245766292 115.98170337196206 H 0.0 **** 0.06
910 H 15.002247815282722 126.3152636390376 115.07511201096463 H 0.0 **** 0.06
911 C 90.5286144218939 67.3134550957704 155.0846531601631 C 0.0 **** -0.24
912 H 89.93760895608591 68.06144773760485 155.61288815407246 H 0.0 **** 0.06
913 H 91.20815913809002 67.81022601058234 154.39247594734758 H 0.0 **** 0.06
914 H 89.86408188173192 66.65082562022192 154.53030277595172 H 0.0 **** 0.06
915 H 91.10401124846476 66.73093936083961 155.80452648136054 H 0.0 **** 0.06
916 C 4.43407731570619 97.09325454421796 103.1808186642027 C 0.0 **** -0.24
917 H 3.8343374120501608 97.53981153082611 102.3873556242941 H 0.0 **** 0.06
918 H 4.866562777966607 97.88264181758328 103.79713659448949 H 0.0 **** 0.06
919 H 5.232721337331782 96.49705204346336 102.74099832443544 H 0.0 **** 0.06
920 H 3.801312368311102 96.45545078067218 103.79837802707861 H 0.0 **** 0.06
921 C 103.65414343141752 151.95810844929176 155.38182110512022 C 0.0 **** -0.24
922 H 104.35612892989441 151.88449298594364 156.21259050971778 H 0.0 **** 0.06
923 H 102.91841138857835 151.1565212467077 155.45615837784334 H 0.0 **** 0.06
924 H 104.19593115108815 151.8690675451521 154.44024240261683 H 0.0 **** 0.06
925 H 103.14700830267135 152.92186753183103 155.41926494127082 H 0.0 **** 0.06
926 C 74.9165049575928 45.339431081254475 100.941200396071 C 0.0 **** -0.24
927 H 74.0605862679253 45.035313993545515 100.33979485782515 H 0.0 **** 0.06
928 H 75.80655965001417 44.80828318807011 100.60163850118363 H 0.0 **** 0.06
929 H 74.7284931538297 45.10042409709223 101.988232351303 H 0.0 **** 0.06
930 H 75.07157173339434 46.41259630436423 100.83573320048083 H 0.0 **** 0.06
931 C 27.436816943510436 89.64741026980543 6.824148219631439 C 0.0 **** -0.24
932 H 28.46483669545769 89.67661857882591 6.4629323048856975 H 0.0 **** 0.06
933 H 26.753171403975507 89.77544311583429 5.984305335428445 H 0.0 **** 0.06
934 H 27.28197120314431 90.45104882015511 7.544131240911383 H 0.0 **** 0.06
935 H 27.247000364807427 88.68717059331657 7.303996225885129 H 0.0 **** 0.06
936 C 99.42551685470607 152.20163525096376 13.651790892917091 C 0.0 **** -0.24
937 H 99.99768532516202 151.31395656068707 13.382728737133334 H 0.0 **** 0.06
938 H 100.04931300319487 152.87027374942147 14.244535843518236 H 0.0 **** 0.06
939 H 98.55210157110037 151.90777934222723 14.233785834923424 H 0.0 **** 0.06
940 H 99.10285248417489 152.7148330777676 12.745166709726675 H 0.0 **** 0.06
941 C 150.148516361473 57.811957537807274 149.6334184769884 C 0.0 **** -0.24
942 H 149.627414027523 56.934820171245136 149.24991611037024 H 0.0 **** 0.06
943 H 149.97870625137386 57.89539176082117 150.70721126501553 H 0.0 **** 0.06
944 H 149.77071821211484 58.705004766391 149.13547181255433 H 0.0 **** 0.06
945 H 151.21602683862568 57.71312018529893 149.44052425818853 H 0.0 **** 0.06
946 C 81.48770241072944 133.70823299193012 72.75794599304783 C 0.0 **** -0.24
947 H 81.15541854494589 133.19924042809885 71.85281191746756 H 0.0 **** 0.06
948 H 82.5632008673546 133.8791618563269 72.7031911710865 H 0.0 **** 0.06
949 H 81.26067169969951 133.0899740659814 73.62673632648436 H 0.0 **** 0.06
950 H 80.97109379924117 134.66429129662927 72.84608651210151 H 0.0 **** 0.06
951 C 4.980289796711872 66.35459514680116 16.84044099362808 C 0.0 **** -0.24
952 H 4.22867082236931 65.99608832683913 17.544007238044003 H 0.0 **** 0.06
953 H 5.940611735354686 65.89247902972045 17.069391080643726 H 0.0 **** 0.06
954 H 5.069123645833756 67.43788809972352 16.925556295492186 H 0.0 **** 0.06
955 H 4.683649402003269 66.0924867968501 15.825616718133062 H 0.0 **** 0.06
956 C 53.33299445633858 154.06339554108376 82.49813197368022 C 0.0 **** -0.24
957 H 53.57771543575757 153.24202367820266 83.171650776905 H 0.0 **** 0.06
958 H 53.79501966330194 153.88559155053161 81.5272395452957 H 0.0 **** 0.06
959 H 53.70885787574403 154.99758487991858 82.91472364625213 H 0.0 **** 0.06
960 H 52.251284692202134 154.1262174286131 82.38078608213831 H 0.0 **** 0.06
961 C 110.65372657355606 37.592804840072944 56.95260366573265 C 0.0 **** -0.24
962 H 111.73828733950826 37.70412066618927 56.94358015243765 H 0.0 **** 0.06
963 H 110.23652006436423 38.164741666736845 57.78218169546463 H 0.0 **** 0.06
964 H 110.39843743471594 36.539175915891846 57.072258445451965 H 0.0 **** 0.06
965 H 110.24288908954655 37.961791976046385 56.013144934659366 H 0.0 **** 0.06
966 C 48.41528696095716 26.81483977790262 12.81568680195744 C 0.0 **** -0.24
967 H 47.58999694347649 27.328666218203352 12.322500776662082 H 0.0 **** 0.06
968 H 49.169158076310936 27.54470734806077 13.113823350364783 H 0.0 **** 0.06
969 H 48.85737211512489 26.095529708882452 12.127589167693714 H 0.0 **** 0.06
970 H 48.044097239925435 26.29385830265622 13.697761706425922 H 0.0 **** 0.06
971 C 143.03022256220643 148.21296032828113 102.7691122841652 C 0.0 **** -0.24
972 H 144.06451836212668 147.86801939255176 102.76491205573899 H 0.0 **** 0.06
973 H 142.4318418914508 147.57286058406584 102.1198283692085 H 0.0 **** 0.06
974 H 142.98916249271608 149.23989640762153 102.40515891949514 H 0.0 **** 0.06
975 H 142.6381140911336 148.17071539948677 103.78446785301338 H 0.0 **** 0.06
976 C 129.52569058761438 98.50390320469823 62.07247535947573 C 0.0 **** -0.24
977 H 130.09273063097567 99.3089285570889 61.60492595505883 H 0.0 **** 0.06
978 H 128.93846002577757 98.90628120226133 62.8978642875212 H 0.0 **** 0.06
979 H 130.21407004179923 97.74769682798211 62.450446693548656 H 0.0 **** 0.06
980 H 128.85927390550984 98.05438184860269 61.336437302188074 H 0.0 **** 0.06
981 C 88.01386560224296 31.32136013339808 145.76114717887998 C 0.0 **** -0.24
982 H 87.44776185369861 30.65419784069728 145.11037707815441 H 0.0 **** 0.06
983 H 88.47191850033047 32.10905056521286 145.16180500442167 H 0.0 **** 0.06
984 H 88.7914599521913 30.755728520372216 146.27289762935476 H 0.0 **** 0.06
985 H 87.34432728688064 31.766918824324748 146.4967174070941 H 0.0 **** 0.06
986 C 0.2936622333455716 39.582502761367664 66.4818061242353 C 0.0 **** -0.24
987 H -0.18450214570745516 39.8963108762444 67.40889992555954 H 0.0 **** 0.06
988 H -0.46847767242960003 39.27256798177109 65.76666706415622 H 0.0 **** 0.06
989 H 0.964677569105163 38.747479350192236 66.68247496334409 H 0.0 **** 0.06
990 H 0.8636094765721225 40.41485573764595 66.0671527964173 H 0.0 **** 0.06
991 C 144.80438661421186 64.79776636564061 2.2080800505730735 C 0.0 **** -0.24
992 H 144.81959676906203 65.67496633356654 1.5622902281863844 H 0.0 **** 0.06
993 H 145.10421197900422 65.08294680041617 3.216374915251663 H 0.0 **** 0.06
994 H 145.49668328792595 64.04960553706455 1.8205424432355244 H 0.0 **** 0.06
995 H 143.79693533304467 64.38133912792517 2.2327776494786917 H 0.0 **** 0.06
996 C 106.13841964669814 136.52289454755592 24.478220162124103 C 0.0 **** -0.24
997 H 105.33173648114047 136.33413803255831 25.186229275478865 H 0.0 **** 0.06
998 H 107.04337420818683 136.79380989272352 25.023008030903213 H 0.0 **** 0.06
999 H 105.85508727219684 137.34022473024623 23.814785296847447 H 0.0 **** 0.06
1000 H 106.32345540003337 135.62452737905625 23.889718797273787 H 0.0 **** 0.06
1001 C 118.64179675248074 132.188943516757 93.33205142812488 C 0.0 **** -0.24
1002 H 119.72160788798057 132.33605918767861 93.31001594110582 H 0.0 **** 0.06
1003 H 118.24740125634703 132.24046582167333 92.31673357278058 H 0.0 **** 0.06
1004 H 118.18191594634139 132.96832851964982 93.93980741441578 H 0.0 **** 0.06
1005 H 118.41658382321457 131.21306348024564 93.76050669322765 H 0.0 **** 0.06
1006 C 78.63428710877378 24.954794621199397 56.09177692056559 C 0.0 **** -0.24
1007 H 78.9112967127354 24.87826170898937 55.04027510484508 H 0.0 **** 0.06
1008 H 77.96363010704096 25.802921628355968 56.22962624715237 H 0.0 **** 0.06
1009 H 79.53182088134156 25.098859893421633 56.693642362776075 H 0.0 **** 0.06
1010 H 78.13085189855113 24.03954687257181 56.40165945944136 H 0.0 **** 0.06
1011 C 100.05014329787042 114.95378693925566 149.26737290318812 C 0.0 **** -0.24
1012 H 101.13701820380663 114.9868115777562 149.1966978740433 H 0.0 **** 0.06
1013 H 99.62718607335773 115.82316300813498 148.76499050361872 H 0.0 **** 0.06
1014 H 99.75376789211134 114.9596963817615 150.31647126880324 H 0.0 **** 0.06
1015 H 99.682344653347 114.04452101820495 148.79118771290598 H 0.0 **** 0.06
1016 C 11.459245416057456 40.717394666164566 96.91312762655221 C 0.0 **** -0.24
1017 H 10.525279336991844 41.259091035744035 97.0598656583703 H 0.0 **** 0.06
1018 H 11.52884544065327 40.38496439581867 95.87680737564818 H 0.0 **** 0.06
1019 H 11.484309681292672 39.851839548729984 97.57463557791678 H 0.0 **** 0.06
1020 H 12.299393796989591 41.37342263988748 97.14166575937033 H 0.0 **** 0.06
1021 C 34.511466124863944 99.14083154570238 70.56115369360612 C 0.0 **** -0.24
1022 H 35.14498023539551 98.27681157952088 70.35725645340648 H 0.0 **** 0.06
1023 H 33.55372515602585 99.01588897158719 70.05641094138045 H 0.0 **** 0.06
1024 H 35.000654423811454 100.04344464119406 70.19620431377388 H 0.0 **** 0.06
1025 H 34.348722451479716 99.22495060397313 71.63619471144648 H 0.0 **** 0.06
1026 C 67.02663126432248 25.4577134018623 111.25504086165513 C 0.0 **** -0.24
1027 H 67.74970602976828 25.78690301179016 112.00208222161386 H 0.0 **** 0.06
1028 H 66.04325631034612 25.859207007941244 111.50064067756294 H 0.0 **** 0.06
1029 H 66.98385450930786 24.36882309612667 111.24785025364297 H 0.0 **** 0.06
1030 H 67.33157642372663 25.815716090001757 110.27232312155603 H 0.0 **** 0.06
1031 C 57.46044835922555 120.65848321936436 1.0599257940467695 C 0.0 **** -0.24
1032 H 58.06725425879215 121.56371329474631 1.0365637490271347 H 0.0 **** 0.06
1033 H 58.11082250750738 119.78462751031942 1.028904497371169 H 0.0 **** 0.06
1034 H 56.79455565351877 120.64689197147841 0.19640842040924156 H 0.0 **** 0.06
1035 H 56.86950428310213 120.64108728420403 1.9749657437351011 H 0.0 **** 0.06
1036 C 122.89697635682813 9.809681628293724 76.89013090837267 C 0.0 **** -0.24
1037 H 122.04987480826804 9.12933201230036 76.79270864407255 H 0.0 **** 0.06
1038 H 123.53772391612705 9.476304582711549 77.70703421474045 H 0.0 **** 0.06
1039 H 122.53324243643084 10.814963872193992 77.09980655274234 H 0.0 **** 0.06
1040 H 123.4657615382331 9.815081766244163 75.96078549435362 H 0.0 **** 0.06
1041 C 10.158651301263149 124.58723029242464 122.27747638694827 C 0.0 **** -0.24
1042 H 9.825552970077865 123.79395426474059 122.9461902977611 H 0.0 **** 0.06
1043 H 10.66245839118477 125.36263975081914 122.85546366463835 H 0.0 **** 0.06
1044 H 9.297656549831856 125.01627157344166 121.76573791761369 H 0.0 **** 0.06
1045 H 10.850223801910147 124.175539184743 121.54223385068433 H 0.0 **** 0.06
1046 C 4.571195347904677 138.24496693852763 86.97672263756 C 0.0 **** -0.24
1047 H 3.851492359504306 138.11907815209838 86.16801670583645 H 0.0 **** 0.06
1048 H 4.135353670203244 137.88546733308897 87.9095183150303 H 0.0 **** 0.06
1049 H 4.824981499947654 139.30007564277014 87.07649671498524 H 0.0 **** 0.06
1050 H 5.472810555333297 137.6743106258897 86.75253725682467 H 0.0 **** 0.06
1051 C 111.79025551206439 73.31502086382685 108.56362443720467 C 0.0 **** -0.24
1052 H 112.27456022208105 74.20836272382287 108.95782100851038 H 0.0 **** 0.06
1053 H 112.1066960784081 73.15503267025287 107.53262257674412 H 0.0 **** 0.06
1054 H 110.70901685085244 73.44339897456061 108.59704064264629 H 0.0 **** 0.06
1055 H 112.0723514329955 72.45305132842955 109.16818632922742 H 0.0 **** 0.06
1056 C 101.254527699873 81.17384764056379 53.93557952826335 C 0.0 **** -0.24
1057 H 100.60459987989066 80.32087525270225 53.73671110073799 H 0.0 **** 0.06
1058 H 102.20182928288932 81.03758608918139 53.41383038002 H 0.0 **** 0.06
1059 H 101.4365792249996 81.24927339753293 55.007159593559706 H 0.0 **** 0.06
1060 H 100.77350722759644 82.08669988908787 53.583375370080574 H 0.0 **** 0.06
1061 C 117.71103999415278 38.98072683449929 150.25960970821407 C 0.0 **** -0.24
1062 H 118.65482061450227 38.79447253820305 150.772764820839 H 0.0 **** 0.06
1063 H 117.58660035901924 40.05321641863458 150.10660456568633 H 0.0 **** 0.06
1064 H 116.88844921362083 38.60186724416302 150.8653138075789 H 0.0 **** 0.06
1065 H 117.71638635499842 38.47443711468661 149.2944077589368 H 0.0 **** 0.06
1066 C 16.547241780253756 123.48169872481856 55.652165082681506 C 0.0 **** -0.24
1067 H 16.08504024510546 124.23731721160124 55.01775584517384 H 0.0 **** 0.06
1068 H 15.96088482475568 123.36563824534073 56.56418601901083 H 0.0 **** 0.06
1069 H 17.559952424532185 123.79168786862158 55.90805670423279 H 0.0 **** 0.06
1070 H 16.58229797479592 122.53118609587551 55.11932599497544 H 0.0 **** 0.06
1071 C 134.87216319786768 113.25537887447966 78.92896440110462 C 0.0 **** -0.24
1072 H 133.97094825987634 112.97227877417642 78.38404451902817 H 0.0 **** 0.06
1073 H 134.65047352442488 113.30306779820224 79.9951984898282 H 0.0 **** 0.06
1074 H 135.2129347030502 114.23180795454222 78.58332335410516 H 0.0 **** 0.06
1075 H 135.65155623341272 112.51465147844128 78.75144517103696 H 0.0 **** 0.06
1076 C 132.18631982729403 124.85652806071143 25.05114171569778 C 0.0 **** -0.24
1077 H 132.20358581262562 123.77137500735078 25.14657949930904 H 0.0 **** 0.06
1078 H 131.693753102566 125.13099691209375 24.119000363015004 H 0.0 **** 0.06
1079 H 133.2079527470412 125.23733787424636 25.0498167964235 H 0.0 **** 0.06
1080 H 131.64029298546717 125.28599213089824 25.891952050141356 H 0.0 **** 0.06
1081 C 51.577666370816644 143.3449682250495 59.07529933717859 C 0.0 **** -0.24
1082 H 52.567539352209366 143.1956256391696 59.50550384128502 H 0.0 **** 0.06
1083 H 51.55743785633703 144.28949866932552 58.53065931553442 H 0.0 **** 0.06
1084 H 50.834356470892885 143.36810137306298 59.87164906714327 H 0.0 **** 0.06
1085 H 51.35192442462085 142.52631840705416 58.39125419859522 H 0.0 **** 0.06
1086 C 85.40659620193239 23.82145151822749 69.6219049411811 C 0.0 **** -0.24
1087 H 85.89138802392029 24.40254328666896 68.8378291181055 H 0.0 **** 0.06
1088 H 84.92049568090908 24.497001048638253 70.32583376493685 H 0.0 **** 0.06
1089 H 86.15388968716118 23.22555326246669 70.14652138044545 H 0.0 **** 0.06
1090 H 84.6619766743185 23.160957535919806 69.17716328287622 H 0.0 **** 0.06
1091 C 119.02977247886982 77.34365511259728 77.75553385340419 C 0.0 **** -0.24
1092 H 118.92612967218567 78.18387567896559 77.06905207270864 H 0.0 **** 0.06
1093 H 118.14636964525924 77.28262547363465 78.39151852622354 H 0.0 **** 0.06
1094 H 119.91533033311556 77.48873845234158 78.37500282899663 H 0.0 **** 0.06
1095 H 119.13348985894844 76.4202572167251 77.18605102664458 H 0.0 **** 0.06
1096 C 44.090449681883925 40.327578541981325 12.469269687755585 C 0.0 **** -0.24
1097 H 44.02223500350253 39.39029458466831 11.916512750785323 H 0.0 **** 0.06
1098 H 44.73705058704468 41.02084723972166 11.930073529564986 H 0.0 **** 0.06
1099 H 44.50682292583805 40.13517058131737 13.458382517491515 H 0.0 **** 0.06
1100 H 43.096661980496506 40.76259427583932 12.571836559541346 H 0.0 **** 0.06
1101 C 66.82423703353122 144.56365203039252 129.30151898905265 C 0.0 **** -0.24
1102 H 66.36699820909163 145.3208921087202 129.93799976293232 H 0.0 **** 0.06
1103 H 67.47134382876125 145.04687768937674 128.56966284096103 H 0.0 **** 0.06
1104 H 66.04371295661487 144.00534142893187 128.7851285437793 H 0.0 **** 0.06
1105 H 67.41372910066825 143.88224153764796 129.91504284227594 H 0.0 **** 0.06
1106 C 135.0140634038362 26.063811785602525 135.3012124095077 C 0.0 **** -0.24
1107 H 135.44294722702907 25.87683494425545 134.3166480370623 H 0.0 **** 0.06
1108 H 135.79959206315561 26.016005890475952 136.05528401643184 H 0.0 **** 0.06
1109 H 134.2567617439937 25.30956852310638 135.51667468270512 H 0.0 **** 0.06
1110 H 134.55526484350435 27.053200449667315 135.31610108059914 H 0.0 **** 0.06
1111 C 28.399948243477695 55.15201840075443 41.03680096752919 C 0.0 **** -0.24
1112 H 27.965973060196177 54.362393325160056 41.65095524902449 H 0.0 **** 0.06
1113 H 27.602039399249577 55.702233965832036 40.53612138580877 H 0.0 **** 0.06
1114 H 29.059914986118812 54.70982494023599 40.29090252128799 H 0.0 **** 0.06
1115 H 28.969825258789854 55.83311507872429 41.66846239502178 H 0.0 **** 0.06
1116 C 83.1825633424656 95.26888795373293 130.800608093155 C 0.0 **** -0.24
1117 H 84.0350783240798 95.43456863454406 130.14239249858628 H 0.0 **** 0.06
1118 H 82.3190858436438 94.96524126320142 130.20750606565235 H 0.0 **** 0.06
1119 H 82.95109341540167 96.19062802624848 131.334954050744 H 0.0 **** 0.06
1120 H 83.4246075672108 94.48378852828012 131.51788433032812 H 0.0 **** 0.06
1121 C 80.8547136565407 3.0991920699191837 34.26960904397319 C 0.0 **** -0.24
1122 H 81.16509645506207 4.055984994198809 34.68992618737286 H 0.0 **** 0.06
1123 H 80.82976442384143 2.3474994552443036 35.0588824038708 H 0.0 **** 0.06
1124 H 81.56222547494724 2.7938444715747437 33.49909329292197 H 0.0 **** 0.06
1125 H 79.86140042929281 3.1998298604624438 33.832924353473885 H 0.0 **** 0.06
1126 C 54.428999187903315 68.56607453049656 16.335820892995883 C 0.0 **** -0.24
1127 H 54.94261069032599 69.30710311535404 16.94846396766107 H 0.0 **** 0.06
1128 H 53.393048989818965 68.4772594951658 16.66639436612263 H 0.0 **** 0.06
1129 H 54.926960804441066 67.60167538434887 16.43719738510464 H 0.0 **** 0.06
1130 H 54.451778339856105 68.87961630290987 15.29249576920975 H 0.0 **** 0.06
1131 C 128.28823295098056 141.43705107913976 68.48919315822685 C 0.0 **** -0.24
1132 H 128.66127956203775 142.23036291388314 69.13579750491634 H 0.0 **** 0.06
1133 H 128.93858675600316 140.56542554529318 68.57083609385958 H 0.0 **** 0.06
1134 H 128.2759053419066 141.78611803405252 67.45581616043039 H 0.0 **** 0.06
1135 H 127.2769562542678 141.16637483183558 68.79260456164378 H 0.0 **** 0.06
1136 C 11.621434050199554 51.201133614267945 103.0945933352766 C 0.0 **** -0.24
1137 H 10.641707910696368 50.844114297056905 102.77719993812129 H 0.0 **** 0.06
1138 H 11.79378447068676 52.197644609284964 102.68832146760958 H 0.0 **** 0.06
1139 H 12.391759916403387 50.52086633621332 102.7295670295258 H 0.0 **** 0.06
1140 H 11.658958259793764 51.240005298536346 104.18289732388236 H 0.0 **** 0.06
1141 C 60.243622405320764 114.94498128682407 0.5359052287629602 C 0.0 **** -0.24
1142 H 60.57983954041913 115.52200019642295 -0.3255771497461275 H 0.0 **** 0.06
1143 H 59.73025362430117 115.60434124412767 1.236027092825207 H 0.0 **** 0.06
1144 H 61.104435040139805 114.49125062096347 1.0276142681513534 H 0.0 **** 0.06
1145 H 59.56059894099826 114.16305527131372 0.20452129299793853 H 0.0 **** 0.06
1146 C 83.53966549738364 78.66285163923459 140.8923517904418 C 0.0 **** -0.24
1147 H 84.18609783565714 77.83617505080329 141.18943892867614 H 0.0 **** 0.06
1148 H 83.46193372528477 78.6901457515259 139.8054950969285 H 0.0 **** 0.06
1149 H 83.96185083545109 79.60072795090247 141.25144257697167 H 0.0 **** 0.06
1150 H 82.54943071404654 78.52140577668814 141.32499575668598 H 0.0 **** 0.06
1151 C 21.151004030851624 65.16365257459938 33.58580004396773 C 0.0 **** -0.24
1152 H 20.063229445579623 65.23276761783904 33.60889221844195 H 0.0 **** 0.06
1153 H 21.549238346631995 65.9325513423297 32.92318717797469 H 0.0 **** 0.06
1154 H 21.445342611685646 64.17979000447144 33.22121000581731 H 0.0 **** 0.06
1155 H 21.545326443317236 65.31064653901251 34.591618269185986 H 0.0 **** 0.06
1156 C 119.4013099890695 19.2247886926676 95.49525986846783 C 0.0 **** -0.24
1157 H 119.16273776015855 19.944765903056044 94.71192481558616 H 0.0 **** 0.06
1158 H 119.09660252743898 19.624973964112243 96.46261595814524 H 0.0 **** 0.06
1159 H 120.4753550370096 19.03706879527239 95.50101923921278 H 0.0 **** 0.06
1160 H 118.87065018418319 18.2913912740401 95.30520164284455 H 0.0 **** 0.06
1161 C 6.96401268674515 15.92475645765802 74.80207407973936 C 0.0 **** -0.24
1162 H 7.9739049942438385 15.782574290974026 74.41683331991598 H 0.0 **** 0.06
1163 H 7.012734245331728 16.217073696594298 75.8509146327781 H 0.0 **** 0.06
1164 H 6.404970262381482 14.99405656051249 74.70952725899795 H 0.0 **** 0.06
1165 H 6.464031017944222 16.706844637074994 74.22914726094388 H 0.0 **** 0.06
1166 C 55.77947571241566 132.0151562849432 39.28625398242008 C 0.0 **** -0.24
1167 H 56.316935068986595 131.27248321769278 38.69620496585196 H 0.0 **** 0.06
1168 H 55.071050420880226 132.54265442248797 38.64865854254134 H 0.0 **** 0.06
1169 H 56.48972972476926 132.72586213816257 39.70756036187004 H 0.0 **** 0.06
1170 H 55.24248319284487 131.5168452303733 40.09263339652449 H 0.0 **** 0.06
1171 C 132.40996463540614 128.04481906829642 152.91345850895075 C 0.0 **** -0.24
1172 H 132.77473164284729 127.69234889100873 153.8789374155077 H 0.0 **** 0.06
1173 H 132.0098564648511 127.2038446671619 152.34841768695512 H 0.0 **** 0.06
1174 H 133.23233540308414 128.49708066493372 152.35876088550043 H 0.0 **** 0.06
1175 H 131.62601730028481 128.78565520938366 153.06981083839491 H 0.0 **** 0.06
1176 C 144.13957911777842 125.90129024156164 78.61547635406838 C 0.0 **** -0.24
1177 H 143.18456283340055 125.38782473255856 78.50117517137629 H 0.0 **** 0.06
1178 H 144.91212292616848 125.35731356114883 78.07149462256938 H 0.0 **** 0.06
1179 H 144.40269253992244 125.9467610342993 79.67147225866594 H 0.0 **** 0.06
1180 H 144.05821956774219 126.91261284560187 78.21751294575898 H 0.0 **** 0.06
1181 C 99.36499502750439 43.09402939644315 6.294310739167379 C 0.0 **** -0.24
1182 H 98.70408315417922 43.95968354475434 6.235914591106557 H 0.0 **** 0.06
1183 H 98.76822609405448 42.18292219645508 6.315456318308485 H 0.0 **** 0.06
1184 H 99.96601350489686 43.15709459569982 7.201327406214041 H 0.0 **** 0.06
1185 H 100.02120829926287 43.07935340146179 5.424123157804559 H 0.0 **** 0.06
1186 C 90.55143140310662 57.50583947282695 1.7621773388891313 C 0.0 **** -0.24
1187 H 91.35321529949235 58.2273171506223 1.606234393874871 H 0.0 **** 0.06
1188 H 90.51513684579135 57.22636749560064 2.8153681133398436 H 0.0 **** 0.06
1189 H 90.73865129857148 56.619569117094215 1.1561317720402258 H 0.0 **** 0.06
1190 H 89.60049630325511 57.95228570048937 1.4706693837197236 H 0.0 **** 0.06
1191 C 151.06425551250953 105.39275391842199 44.446611398604816 C 0.0 **** -0.24
1192 H 151.10548576351238 105.22642736177716 43.36994746346086 H 0.0 **** 0.06
1193 H 150.11336514961647 105.85894316538293 44.70501956656696 H 0.0 **** 0.06
1194 H 151.88329346703517 106.04652155338698 44.74451967846659 H 0.0 **** 0.06
1195 H 151.15417113948848 104.4383235197518 44.964339542918694 H 0.0 **** 0.06
1196 C 86.0853667660564 38.884924166694816 89.1548245236201 C 0.0 **** -0.24
1197 H 87.15720017963163 39.07068380405184 89.08528199033817 H 0.0 **** 0.06
1198 H 85.67073402043034 39.45282559530176 89.98744947610938 H 0.0 **** 0.06
1199 H 85.91156823805782 37.82100449406573 89.31739354839263 H 0.0 **** 0.06
1200 H 85.60298211638971 39.193968952722685 88.22795181669545 H 0.0 **** 0.06
1201 C 134.14559951619663 113.23909516283466 128.30713361679318 C 0.0 **** -0.24
1202 H 134.2374587301406 112.55514824623008 127.46261350776581 H 0.0 **** 0.06
1203 H 134.87299058160136 114.04404613225428 128.2010777257076 H 0.0 **** 0.06
1204 H 134.33467871244736 112.69861597983272 129.2342123387278 H 0.0 **** 0.06
1205 H 133.1398101162335 113.65797338122645 128.32814249483982 H 0.0 **** 0.06
1206 C 61.73957671020571 7.16859710482381 5.430807469648244 C 0.0 **** -0.24
1207 H 60.760544347549086 7.40945879729648 5.015955729970031 H 0.0 **** 0.06
1208 H 62.415507200138876 6.885634734568498 4.623946306426895 H 0.0 **** 0.06
1209 H 61.642695957552704 6.339594436552844 6.131251142744745 H 0.0 **** 0.06
1210 H 62.137616141712286 8.039298000668673 5.951046071409017 H 0.0 **** 0.06
1211 C 33.72052042608179 97.45664023897771 146.51795425356391 C 0.0 **** -0.24
1212 H 33.41069549227478 97.9416645881502 145.5925243276394 H 0.0 **** 0.06
1213 H 33.221801544378096 97.93421752046905 147.3624666277359 H 0.0 **** 0.06
1214 H 34.80039733173189 97.55036816209174 146.6333389162639 H 0.0 **** 0.06
1215 H 33.44872771482565 96.40166105372472 146.48488906396727 H 0.0 **** 0.06
1216 C 114.6794221261927 20.678852046594727 29.148797786594827 C 0.0 **** -0.24
1217 H 115.5444125852796 21.25595031034888 28.821669713840834 H 0.0 **** 0.06
1218 H 114.9786620665531 19.64546919504025 29.32449075023655 H 0.0 **** 0.06
1219 H 113.90951167499337 20.709529619389656 28.378355427869394 H 0.0 **** 0.06
1220 H 114.28685645092115 21.106235089023187 30.07233914922014 H 0.0 **** 0.06
1221 C 3.1744119035555514 120.65005141378184 9.764019571004503 C 0.0 **** -0.24
1222 H 2.4357247881351896 121.22021001601219 10.327764370875308 H 0.0 **** 0.06
1223 H 4.170649768493206 120.87032307069957 10.145875752143716 H 0.0 **** 0.06
1224 H 3.1182019761726565 120.92537143493259 8.711134495422662 H 0.0 **** 0.06
1225 H 2.970301269970321 119.58426392088306 9.873127704445508 H 0.0 **** 0.06
1226 C 78.92302219866403 142.43985259250815 128.45917969235882 C 0.0 **** -0.24
1227 H 78.29753957258407 141.62812546583837 128.08689049326995 H 0.0 **** 0.06
1228 H 79.67235321300087 142.69441108070134 127.7095993562779 H 0.0 **** 0.06
1229 H 79.41785947224406 142.12378990625598 129.37735402895532 H 0.0 **** 0.06
1230 H 78.3012432185574 143.31265730935715 128.66337460414474 H 0.0 **** 0.06
1231 C 126.05531281745583 141.4123260417996 41.69528739361671 C 0.0 **** -0.24
1232 H 126.38508265591507 141.83558898753142 42.644000732166774 H 0.0 **** 0.06
1233 H 125.58008451429721 140.44768259850997 41.874311886043145 H 0.0 **** 0.06
1234 H 126.91582261069148 141.27766219081155 41.040020112052275 H 0.0 **** 0.06
1235 H 125.34156376592559 142.08865097312048 41.22461281487658 H 0.0 **** 0.06
1236 C 23.351317424333672 79.04760075555268 57.399989814020174 C 0.0 **** -0.24
1237 H 22.864321484584224 79.8969513024478 57.88005470985959 H 0.0 **** 0.06
1238 H 23.45169195261579 78.23331413134963 58.1177550444574 H 0.0 **** 0.06
1239 H 24.338792771176173 79.34555501492355 57.04796231483691 H 0.0 **** 0.06
1240 H 22.74915891951386 78.7150602439645 56.554451751817396 H 0.0 **** 0.06
1241 C 141.84405627505663 29.925054850168415 141.13312740266187 C 0.0 **** -0.24
1242 H 142.1028977507154 29.943492703505818 142.19193371975567 H 0.0 **** 0.06
1243 H 142.6733475673371 29.501866413885914 140.56482974698346 H 0.0 **** 0.06
1244 H 141.6483889443219 30.940523546468285 140.78902089868205 H 0.0 **** 0.06
1245 H 140.95369440646112 29.313838859536425 140.98729732919912 H 0.0 **** 0.06
1246 C 99.09434384286034 80.69681737808948 77.9638065630094 C 0.0 **** -0.24
1247 H 98.67472554530602 80.62151081293979 76.96037191446332 H 0.0 **** 0.06
1248 H 99.6945683519145 79.81162233614192 78.17397541067437 H 0.0 **** 0.06
1249 H 98.28561890438134 80.77007734608205 78.69115010822169 H 0.0 **** 0.06
1250 H 99.72161369716476 81.58566323025339 78.0284226493207 H 0.0 **** 0.06
1251 C 31.645103508339744 52.90510062597542 11.33514377091791 C 0.0 **** -0.24
1252 H 30.890756775997545 52.142533275074186 11.140444707445909 H 0.0 **** 0.06
1253 H 31.3030895286729 53.86332906614473 10.942827065554411 H 0.0 **** 0.06
1254 H 32.57927581029122 52.62501998783918 10.8482098723656 H 0.0 **** 0.06
1255 H 31.807455143269806 52.98879455684164 12.4102963103918 H 0.0 **** 0.06
1256 C 68.24230581357858 108.37657430191378 149.284789001503 C 0.0 **** -0.24
1257 H 68.53893872533382 107.36156801329837 149.5490612469428 H 0.0 **** 0.06
1258 H 67.65068559869255 108.80429418638421 150.09458089637275 H 0.0 **** 0.06
1259 H 67.64835895376808 108.35508760742839 148.37179936417823 H 0.0 **** 0.06
1260 H 69.13349526440355 108.98484126388611 149.1245254840568 H 0.0 **** 0.06
1261 C 153.39231927555602 90.76933803106185 80.42411185688536 C 0.0 **** -0.24
1262 H 152.6782305118329 90.69502253452815 79.60351321005486 H 0.0 **** 0.06
1263 H 153.88268780209148 91.74299926837436 80.39168932403683 H 0.0 **** 0.06
1264 H 154.14038809312675 89.98188332764201 80.32680903201708 H 0.0 **** 0.06
1265 H 152.86844562485396 90.65732258425639 81.37356465730197 H 0.0 **** 0.06
1266 C 0.636607272793924 73.41999921886686 31.56507166400089 C 0.0 **** -0.24
1267 H -0.17866627169360072 73.76326268237153 32.20275806598902 H 0.0 **** 0.06
1268 H 1.57189695965576 73.45307699908805 32.12325148372903 H 0.0 **** 0.06
1269 H 0.710631336264214 74.06745311063207 30.69055201793779 H 0.0 **** 0.06
1270 H 0.4397426617351812 72.39721496581507 31.24369125303845 H 0.0 **** 0.06
1271 C 39.276246548151676 33.023447797221166 150.36584322346113 C 0.0 **** -0.24
1272 H 40.0602017071883 32.80137115581072 151.08953302557168 H 0.0 **** 0.06
1273 H 38.460849501196265 33.54709213621749 150.86504752926183 H 0.0 **** 0.06
1274 H 38.90257900213848 32.09322659603148 149.93721661308055 H 0.0 **** 0.06
1275 H 39.68131375841237 33.652118428599564 149.5729892282827 H 0.0 **** 0.06
1276 C 44.6931431392307 102.14422026454072 55.36878478778344 C 0.0 **** -0.24
1277 H 43.835948832838426 102.07563663944829 56.03709221257135 H 0.0 **** 0.06
1278 H 44.61662513979468 101.3758323643507 54.59909931902031 H 0.0 **** 0.06
1279 H 45.61160817806842 101.99760080609828 55.938069788778904 H 0.0 **** 0.06
1280 H 44.71027573139605 103.12788101554996 54.89967747904021 H 0.0 **** 0.06
1281 C 94.3432622529715 16.964680838762206 27.79249185414284 C 0.0 **** -0.24
1282 H 95.11140678014812 16.378142232931282 27.288536381474394 H 0.0 **** 0.06
1283 H 93.36788811517613 16.509081456170975 27.620508779287356 H 0.0 **** 0.06
1284 H 94.34474091113435 17.98074402168737 27.39697558861848 H 0.0 **** 0.06
1285 H 94.54917563419548 16.99038182499305 28.861748022426603 H 0.0 **** 0.06
1286 C 86.37722478512639 9.349491853734513 105.09473515131585 C 0.0 **** -0.24
1287 H 87.43718588872608 9.577469816615697 105.20773153837798 H 0.0 **** 0.06
1288 H 86.2198833677601 8.278362596659882 105.22756028688063 H 0.0 **** 0.06
1289 H 86.04589415358434 9.645733964422739 104.10004863903329 H 0.0 **** 0.06
1290 H 85.8067302569061 9.896580134159791 105.84591030271427 H 0.0 **** 0.06
1291 C 15.320765947709418 152.36876158633376 43.40455732291775 C 0.0 **** -0.24
1292 H 14.67489456656736 153.19227430131616 43.71018398865192 H 0.0 **** 0.06
1293 H 15.603408049456789 152.49810287575787 42.35901822826463 H 0.0 **** 0.06
1294 H 14.788381326406125 151.42519829590245 43.5237990878685 H 0.0 **** 0.06
1295 H 16.21701944365904 152.36179096365117 44.02477159932471 H 0.0 **** 0.06
1296 C 11.529883591932247 18.56409662214034 24.71929346643725 C 0.0 **** -0.24
1297 H 10.993107794136876 17.704204320162262 24.318008457645476 H 0.0 **** 0.06
1298 H 10.938118964127995 19.465789084998107 24.563681842408016 H 0.0 **** 0.06
1299 H 12.488248283974116 18.66483647766006 24.209916132043787 H 0.0 **** 0.06
1300 H 11.699659438438403 18.419508679434784 25.786371330994996 H 0.0 **** 0.06
1301 C 38.40325438718128 97.54472112324946 82.72538884935513 C 0.0 **** -0.24
1302 H 37.810549932905175 96.79607067977727 83.2508787240103 H 0.0 **** 0.06
1303 H 39.46059335313379 97.38228784810458 82.93573720177474 H 0.0 **** 0.06
1304 H 38.11298148203383 98.53938151957324 83.06164464656315 H 0.0 **** 0.06
1305 H 38.227765694313774 97.45775780525997 81.65278417144678 H 0.0 **** 0.06
1306 C 138.76179232663242 43.878203431215695 48.554436709084015 C 0.0 **** -0.24
1307 H 138.86882296332635 44.95856538412113 48.64808574529434 H 0.0 **** 0.06
1308 H 139.32910499824618 43.52982719657811 47.691423963217474 H 0.0 **** 0.06
1309 H 137.70811177765174 43.62832398653137 48.4219365036802 H 0.0 **** 0.06
1310 H 139.13872663970398 43.3965722017586 49.45627900660554 H 0.0 **** 0.06
1311 C 35.50607950765546 139.60516328891018 56.041292118503065 C 0.0 **** -0.24
1312 H 36.087537562386984 139.984437637777 55.20105574422752 H 0.0 **** 0.06
1313 H 34.60581106159945 140.20790058589483 56.16258580948849 H 0.0 **** 0.06
1314 H 36.10489522570221 139.66010065487626 56.95111041569092 H 0.0 **** 0.06
1315 H 35.226835615034986 138.5692356087071 55.852254237608065 H 0.0 **** 0.06
1316 C 54.171904481973684 76.5719181022352 133.95841189806674 C 0.0 **** -0.24
1317 H 53.19101297621566 76.12296363630605 134.11932013670912 H 0.0 **** 0.06
1318 H 54.923138940538166 75.78467119112685 133.88792223855057 H 0.0 **** 0.06
1319 H 54.41136400558452 77.22983144857778 134.7940935665572 H 0.0 **** 0.06
1320 H 54.159608372101445 77.14789241840504 133.0329665610431 H 0.0 **** 0.06
1321 C 18.41918065365809 8.064776307384648 77.45161622481908 C 0.0 **** -0.24
1322 H 18.39092740169508 7.2975865953131915 78.22499216867925 H 0.0 **** 0.06
1323 H 17.706572183666708 7.814103535497509 76.66491866678331 H 0.0 **** 0.06
1324 H 19.423523057207603 8.117711613473915 77.02877590933898 H 0.0 **** 0.06
1325 H 18.157409109477612 9.028413138754189 77.88658901591799 H 0.0 **** 0.06
1326 C 66.05282748368185 17.767554768952955 148.29315865681093 C 0.0 **** -0.24
1327 H 66.64159306571858 17.963618334572942 149.189052526642 H 0.0 **** 0.06
1328 H 65.02220012199508 18.082295791031882 148.4607207093445 H 0.0 **** 0.06
1329 H 66.07599884590182 16.700654780368282 148.07003718886028 H 0.0 **** 0.06
1330 H 66.47138831639136 18.324103548792465 147.45522791839974 H 0.0 **** 0.06
1331 C 48.062436899235394 127.25546241423802 141.03044144630348 C 0.0 **** -0.24
1332 H 47.53913823839957 126.41661807344133 140.57281133771698 H 0.0 **** 0.06
1333 H 49.092592825043454 127.27770860145097 140.67436903820072 H 0.0 **** 0.06
1334 H 48.05443059764214 127.14214883755534 142.11353679534005 H 0.0 **** 0.06
1335 H 47.56387169655093 128.18614447138765 140.7589689264634 H 0.0 **** 0.06
1336 C 16.174561267749283 137.78714004895846 32.321619059347256 C 0.0 **** -0.24
1337 H 15.255707053630658 138.28908363251287 32.62175933544145 H 0.0 **** 0.06
1338 H 17.031442929400328 138.32835140224125 32.722977707825265 H 0.0 **** 0.06
1339 H 16.237349875540843 137.76308570487677 31.233709757426567 H 0.0 **** 0.06
1340 H 16.175137908435232 136.7682719327675 32.70794932695793 H 0.0 **** 0.06
1341 C 50.844122363344695 55.938681865743305 31.648140877009155 C 0.0 **** -0.24
1342 H 50.87984354155131 57.024762941288145 31.739566266194522 H 0.0 **** 0.06
1343 H 51.59553595467389 55.49449857574233 32.30039731932852 H 0.0 **** 0.06
1344 H 51.044885849159414 55.65494025071628 30.614095687662996 H 0.0 **** 0.06
1345 H 49.85516440383526 55.582053624804104 31.937262211883862 H 0.0 **** 0.06
1346 C 77.5955374665628 152.61920399483776 21.661861987964215 C 0.0 **** -0.24
1347 H 78.61282375782888 152.78183699527776 22.017839203295182 H 0.0 **** 0.06
1348 H 77.44426206607388 151.55716975445776 21.466097512596605 H 0.0 **** 0.06
1349 H 77.43818755783212 153.18383011738825 20.7430986857309 H 0.0 **** 0.06
1350 H 76.88683182519269 152.95377202536582 22.419435230876815 H 0.0 **** 0.06
1351 C 109.75829840487908 73.99782455319229 55.16930438449299 C 0.0 **** -0.24
1352 H 109.2609612919233 74.43871136842161 56.032977510622686 H 0.0 **** 0.06
1353 H 110.82554659195999 73.901463101329 55.3753809132985 H 0.0 **** 0.06
1354 H 109.61252886131159 74.63828702213546 54.299793765137224 H 0.0 **** 0.06
1355 H 109.33635450963662 73.0123186590428 54.970015194295456 H 0.0 **** 0.06
1356 C 144.52578333549513 155.96933777070103 83.93512704665147 C 0.0 **** -0.24
1357 H 144.37463119844492 155.1250207900937 83.26246848425006 H 0.0 **** 0.06
1358 H 145.24642382430778 156.65864092986092 83.49514624042229 H 0.0 **** 0.06
1359 H 144.90525827233594 155.6085387003336 84.89090498149724 H 0.0 **** 0.06
1360 H 143.5775530230342 156.4833599366228 84.09086767291558 H 0.0 **** 0.06
1361 C 102.42985974051578 57.13565535449143 155.8772758346949 C 0.0 **** -0.24
1362 H 102.06766091088457 56.795479637918106 154.90759953267113 H 0.0 **** 0.06
1363 H 103.34680726183939 57.709066294345945 155.7414862696882 H 0.0 **** 0.06
1364 H 102.63042985377956 56.2727363676794 156.5134661926407 H 0.0 **** 0.06
1365 H 101.673631397811 57.764997514036125 156.34678815668022 H 0.0 **** 0.06
1366 C 103.55934554938217 93.99249862278653 110.60540545553995 C 0.0 **** -0.24
1367 H 103.2942695956652 93.27911880824608 111.38547445018786 H 0.0 **** 0.06
1368 H 104.62058137583033 93.89779387787696 110.37322829173833 H 0.0 **** 0.06
1369 H 103.35249771403413 95.00405428204125 110.95245694936382 H 0.0 **** 0.06
1370 H 102.97176713725197 93.78756815873882 109.71139218182894 H 0.0 **** 0.06
1371 C 37.14816374510562 12.721218970050415 93.32186347372027 C 0.0 **** -0.24
1372 H 36.06721524158347 12.589425107566683 93.2777911408203 H 0.0 **** 0.06
1373 H 37.58554847766416 12.457229906168152 92.35864332064713 H 0.0 **** 0.06
1374 H 37.560702117154506 12.07793296669007 94.09782147250213 H 0.0 **** 0.06
1375 H 37.37765927897473 13.76181748551852 93.55263223734948 H 0.0 **** 0.06
1376 C 18.137715325302224 8.353027443122784 73.09509316779702 C 0.0 **** -0.24
1377 H 18.033848705569596 7.271288237377554 73.17657734036308 H 0.0 **** 0.06
1378 H 18.926775042254377 8.693276194812626 73.76617456502935 H 0.0 **** 0.06
1379 H 17.19678038899781 8.830460089080077 73.36827475508902 H 0.0 **** 0.06
1380 H 18.39485354052428 8.616235891408984 72.06877258308079 H 0.0 **** 0.06
1381 C 29.913056872004304 79.43437733210483 40.620448106607085 C 0.0 **** -0.24
1382 H 30.991066661503027 79.5865617470826 40.66072749484799 H 0.0 **** 0.06
1383 H 29.61470400522522 79.21713513719037 39.59422342011058 H 0.0 **** 0.06
1384 H 29.406501604181358 80.33724644082363 40.961815666217134 H 0.0 **** 0.06
1385 H 29.639083704115862 78.59836527599789 41.264024223720355 H 0.0 **** 0.06
1386 C 54.91193893649671 143.5756159898736 137.802641603135 C 0.0 **** -0.24
1387 H 55.347659133180514 144.2758138791062 137.09043413806097 H 0.0 **** 0.06
1388 H 55.465404290873835 143.6192654876003 138.7407927115405 H 0.0 **** 0.06
1389 H 54.963955573300495 142.56522338051107 137.39651387727105 H 0.0 **** 0.06
1390 H 53.870434909758046 143.84123232336165 137.98261099699178 H 0.0 **** 0.06
1391 C 127.41017570053636 44.78430790155515 11.952477209933136 C 0.0 **** -0.24
1392 H 127.96119267574359 44.226919407195695 11.194879008058479 H 0.0 **** 0.06
1393 H 127.12746246319709 45.758632965469516 11.552993055289164 H 0.0 **** 0.06
1394 H 128.03825850739753 44.91933299389876 12.833020157418446 H 0.0 **** 0.06
1395 H 126.51262768312985 44.230491954657396 12.228555347779036 H 0.0 **** 0.06
1396 C 61.35970936612364 150.57621903865865 93.00998948488837 C 0.0 **** -0.24
1397 H 60.58223072159137 150.84409987394608 93.72508910740542 H 0.0 **** 0.06
1398 H 61.99657771796737 149.8024026791192 93.4385692490713 H 0.0 **** 0.06
1399 H 61.96057645651791 151.45643966509428 92.78033087987056 H 0.0 **** 0.06
1400 H 60.899207053631585 150.20254332309452 92.09521477815223 H 0.0 **** 0.06
1401 C 153.90717121231822 92.17504142350631 86.45494133079252 C 0.0 **** -0.24
1402 H 153.51719943294603 93.00710537959769 87.04259625407718 H 0.0 **** 0.06
1403 H 154.45516027290748 91.49489749730576 87.10838372143394 H 0.0 **** 0.06
1404 H 154.574871435869 92.55706717532745 85.6835728297911 H 0.0 **** 0.06
1405 H 153.0786326008281 91.6423295396436 85.98733838443333 H 0.0 **** 0.06
1406 C 151.6298618214392 121.4439791609882 22.22590856588394 C 0.0 **** -0.24
1407 H 151.9570943334315 121.71329732066012 23.229934098085558 H 0.0 **** 0.06
1408 H 150.560627048913 121.63352457556088 22.12988659890189 H 0.0 **** 0.06
1409 H 151.82854408085035 120.3862836965664 22.05046523086441 H 0.0 **** 0.06
1410 H 152.17340507264444 122.04150960365142 21.49385475336645 H 0.0 **** 0.06
1411 C 26.990302463738033 43.08716789268223 151.59956603923277 C 0.0 **** -0.24
1412 H 26.601033312371698 42.60683343058332 150.70149364480764 H 0.0 **** 0.06
1413 H 26.97025435280358 44.16935505431067 151.47004886606805 H 0.0 **** 0.06
1414 H 28.016208644627852 42.75935781505052 151.77077576333636 H 0.0 **** 0.06
1415 H 26.373913970600633 42.811041618945126 152.45515950660106 H 0.0 **** 0.06
1416 C 34.89173646029576 68.27012401500258 46.71259489838141 C 0.0 **** -0.24
1417 H 34.17299731839904 69.07401104527413 46.8677410233705 H 0.0 **** 0.06
1418 H 34.41707753578714 67.46015169041375 46.158919538912826 H 0.0 **** 0.06
1419 H 35.234553315416576 67.89799188298167 47.678685469400264 H 0.0 **** 0.06
1420 H 35.74265604895851 68.64788405972861 46.14632830811465 H 0.0 **** 0.06
1421 C 48.082836581550566 155.03717502559405 23.557314895437287 C 0.0 **** -0.24
1422 H 49.0190562348743 155.5918649589317 23.62180146464678 H 0.0 **** 0.06
1423 H 47.584347936465264 155.2744441990339 22.617044132846715 H 0.0 **** 0.06
1424 H 47.43876628517654 155.31632790221096 24.390684422347704 H 0.0 **** 0.06
1425 H 48.290709761202706 153.96837033827322 23.600880150710097 H 0.0 **** 0.06
1426 C 69.31079589351505 88.53453467123155 108.21578051876936 C 0.0 **** -0.24
1427 H 70.054436682192 89.07280943260226 108.80329419828463 H 0.0 **** 0.06
1428 H 69.53858918147814 88.64143388305979 107.15398320614689 H 0.0 **** 0.06
1429 H 68.32161968976952 88.94384157427997 108.41824269304503 H 0.0 **** 0.06
1430 H 69.32861143228331 87.47822672781234 108.48631488823894 H 0.0 **** 0.06
1431 C 126.05039690690302 60.71926490392718 109.40843555243676 C 0.0 **** -0.24
1432 H 126.70322088446602 60.10093968146987 110.02495762099069 H 0.0 **** 0.06
1433 H 126.62321531469934 61.55052711489583 108.99410963404272 H 0.0 **** 0.06
1434 H 125.2355766701329 61.107781865772665 110.0192671328334 H 0.0 **** 0.06
1435 H 125.64254088268927 60.11798321902404 108.59582342234903 H 0.0 **** 0.06
1436 C 53.72798487530733 154.94722353386248 144.29065601782042 C 0.0 **** -0.24
1437 H 54.59288141985785 155.60603881099632 144.21268120838175 H 0.0 **** 0.06
1438 H 52.82843524550357 155.54570232450106 144.43478537972027 H 0.0 **** 0.06
1439 H 53.85867431580266 154.27551331197333 145.13873461075724 H 0.0 **** 0.06
1440 H 53.63314986895678 154.36326243573814 143.37546182440076 H 0.0 **** 0.06
1441 C 67.86747456642475 123.15305476915586 22.483216351883925 C 0.0 **** -0.24
1442 H 67.7119259860922 122.51192068515337 23.35189319246851 H 0.0 **** 0.06
1443 H 66.94781703510532 123.20210058712865 21.89937627568952 H 0.0 **** 0.06
1444 H 68.66733323980318 122.7415639285208 21.867640150672116 H 0.0 **** 0.06
1445 H 68.14188704461486 124.15424920363506 22.81551767255408 H 0.0 **** 0.06
1446 C 115.72475493507649 153.17221927193694 5.472790110024938 C 0.0 **** -0.24
1447 H 114.77161326233026 153.66805410094003 5.293286921605862 H 0.0 **** 0.06
1448 H 115.7423052337784 152.77696588950218 6.489750044160964 H 0.0 **** 0.06
1449 H 116.53671121658657 153.88914628849332 5.3479728643343805 H 0.0 **** 0.06
1450 H 115.84924003830399 152.35471159424836 4.762848338969832 H 0.0 **** 0.06
1451 C 103.35464112958472 15.969980710780476 48.72544936688007 C 0.0 **** -0.24
1452 H 103.68123411809147 15.888957791819792 47.68895915505067 H 0.0 **** 0.06
1453 H 103.52139489123321 16.987056428647463 49.080682880481106 H 0.0 **** 0.06
1454 H 103.92315372602512 15.272730869959787 49.341287637132154 H 0.0 **** 0.06
1455 H 102.29359669063835 15.73113813168942 48.79144605798757 H 0.0 **** 0.06
1456 C 153.395483616846 14.190423527421707 64.07013254357786 C 0.0 **** -0.24
1457 H 154.02559534199125 15.040740100835144 64.33074836532067 H 0.0 **** 0.06
1458 H 153.62006755885267 13.869039495776235 63.053084841367436 H 0.0 **** 0.06
1459 H 152.34713601443943 14.482045206103805 64.13555257390881 H 0.0 **** 0.06
1460 H 153.58868151703652 13.369920184609605 64.76203394201329 H 0.0 **** 0.06
1461 C 107.8891608602954 7.169673392015227 76.43415061703328 C 0.0 **** -0.24
1462 H 108.00241626092445 6.101413367878536 76.24838350588094 H 0.0 **** 0.06
1463 H 106.90722771634564 7.3604339719171605 76.86714296317167 H 0.0 **** 0.06
1464 H 107.98544016104954 7.713781634390557 75.49439841593794 H 0.0 **** 0.06
1465 H 108.66302778506831 7.501385548025638 77.12652096962047 H 0.0 **** 0.06
1466 C 89.91393927083134 110.513836278032 44.46075667515744 C 0.0 **** -0.24
1467 H 90.3433034855266 110.24883973040853 43.49452902379987 H 0.0 **** 0.06
1468 H 89.66284247927155 109.60510312457852 45.00841546498151 H 0.0 **** 0.06
1469 H 89.01194682006052 111.10704078941596 44.30605134155017 H 0.0 **** 0.06
1470 H 90.63723532100121 111.09506842588557 45.03220979405296 H 0.0 **** 0.06
1471 C 111.09223056149597 62.3917815493632 69.88154036670738 C 0.0 **** -0.24
1472 H 110.55923391097474 61.60896890319265 70.42136497596721 H 0.0 **** 0.06
1473 H 110.85656686877729 63.36089889068268 70.32026333682398 H 0.0 **** 0.06
1474 H 110.78868252582521 62.38270405757055 68.83445590174381 H 0.0 **** 0.06
1475 H 112.16581112872376 62.21252563259867 69.95003704746603 H 0.0 **** 0.06
1476 C 86.93064256899076 101.61481240768025 80.12494795397214 C 0.0 **** -0.24
1477 H 85.9952553963719 102.05506583838299 79.78026925143575 H 0.0 **** 0.06
1478 H 87.7654170481102 102.24041346055576 79.80800224645401 H 0.0 **** 0.06
1479 H 87.04139301326164 100.6168169611184 79.69895247057718 H 0.0 **** 0.06
1480 H 86.92065562633643 101.54573242791791 81.21326542954785 H 0.0 **** 0.06
1481 C 22.796292760770235 39.986242801278436 137.6409671508224 C 0.0 **** -0.24
1482 H 22.675118815612016 39.28088811643087 138.46329088582047 H 0.0 **** 0.06
1483 H 23.854444844031015 40.085771114888885 137.40149498819233 H 0.0 **** 0.06
1484 H 22.396083067360756 40.95764636368209 137.93284387144536 H 0.0 **** 0.06
1485 H 22.258384714614934 39.61990157362227 136.7665818182502 H 0.0 **** 0.06
1486 C 37.802719776984716 44.91589373154068 53.0964274454646 C 0.0 **** -0.24
1487 H 37.8466683928488 45.890773823226596 52.60862311193489 H 0.0 **** 0.06
1488 H 38.48235047797505 44.22797880276221 52.59416077412641 H 0.0 **** 0.06
1489 H 36.785658152729326 44.528190728290156 53.04095948065881 H 0.0 **** 0.06
1490 H 38.09641247192346 45.01992432690673 54.140911004300165 H 0.0 **** 0.06
1491 C 67.8717536619584 154.60832143443628 111.11846466243331 C 0.0 **** -0.24
1492 H 67.35724499844054 154.7763680573587 110.17289562485713 H 0.0 **** 0.06
1493 H 67.9731379924641 155.55531955871842 111.64911187075997 H 0.0 **** 0.06
1494 H 68.85987309630832 154.19078284082278 110.92537873838451 H 0.0 **** 0.06
1495 H 67.29542797832846 153.91124224520746 111.72625489033832 H 0.0 **** 0.06
1496 C 26.91822264933915 94.86454887077335 54.96870104747114 C 0.0 **** -0.24
1497 H 25.93758661833028 95.33539944065512 55.04210681847266 H 0.0 **** 0.06
1498 H 27.16853946131178 94.70947520988216 53.91833854569859 H 0.0 **** 0.06
1499 H 26.899542940750493 93.90466330391934 55.483698523825154 H 0.0 **** 0.06
1500 H 27.666252985274284 95.51016504172688 55.4289901432971 H 0.0 **** 0.06
1501 C 71.47235543043979 31.71060322653038 145.88417299980694 C 0.0 **** -0.24
1502 H 72.16019037928936 31.786786553103525 146.72638844712208 H 0.0 **** 0.06
1503 H 71.04311239063787 32.691169106994735 145.6758447195882 H 0.0 **** 0.06
1504 H 70.67497648815217 31.00864773307117 146.12891978767527 H 0.0 **** 0.06
1505 H 72.01251610637505 31.35608247062987 145.00534241078896 H 0.0 **** 0.06
1506 C 27.87932332414492 67.96202879206403 127.09708215015348 C 0.0 **** -0.24
1507 H 28.103431711150705 67.19640419550736 127.83944935037488 H 0.0 **** 0.06
1508 H 28.429514990866743 67.75144806270235 126.18040743532879 H 0.0 **** 0.06
1509 H 28.174172371076473 68.9387579841827 127.48169080906473 H 0.0 **** 0.06
1510 H 26.80928249689743 67.96186067802923 126.8882226582785 H 0.0 **** 0.06
1511 C 135.1260736617991 58.32663207134543 5.146936146309869 C 0.0 **** -0.24
1512 H 134.39678550368708 58.33482276418975 4.337074827108999 H 0.0 **** 0.06
1513 H 135.1569433619804 59.30976576564507 5.617412390383421 H 0.0 **** 0.06
1514 H 136.11033284235066 58.08257190824112 4.747037186340371 H 0.0 **** 0.06
1515 H 134.83868979438438 57.57868678169072 5.886613820101829 H 0.0 **** 0.06
1516 C 148.5231483801658 129.60715230989098 156.55948206409218 C 0.0 **** -0.24
1517 H 148.61115541866783 130.6825176295887 156.71002713935718 H 0.0 **** 0.06
1518 H 149.2203025510188 129.08990284947023 157.2194690056666 H 0.0 **** 0.06
1519 H 148.7570451133253 129.36534651588192 155.5225177641634 H 0.0 **** 0.06
1520 H 147.5049818846237 129.29064407193724 156.78550681505803 H 0.0 **** 0.06
1521 C 41.97115237495768 103.64562215063414 88.61477359391193 C 0.0 **** -0.24
1522 H 42.30642313737087 102.72820924115804 89.09714554167024 H 0.0 **** 0.06
1523 H 42.795554165565534 104.08040728266649 88.04866646456455 H 0.0 **** 0.06
1524 H 41.637548814216245 104.35396202372856 89.37261984190906 H 0.0 **** 0.06
1525 H 41.14510761012161 103.42007313636186 87.93925793411279 H 0.0 **** 0.06
1526 C 112.89378024121692 12.36228590410218 33.85596546323106 C 0.0 **** -0.24
1527 H 113.16514955918262 12.99323748769109 34.7023385860677 H 0.0 **** 0.06
1528 H 113.76665695826432 12.214132135310876 33.21856101135111 H 0.0 **** 0.06
1529 H 112.10202595034866 12.844512155980851 33.28188473309385 H 0.0 **** 0.06
1530 H 112.54249480141698 11.396589696091496 34.220772365150935 H 0.0 **** 0.06
1531 C 76.78105357305678 54.47872503768919 119.66004758731003 C 0.0 **** -0.24
1532 H 77.38803482760173 54.20566376198008 120.52218209398251 H 0.0 **** 0.06
1533 H 77.0863334901322 55.46012726693375 119.29755414434675 H 0.0 **** 0.06
1534 H 75.73097737040153 54.508691482533294 119.9485516760904 H 0.0 **** 0.06
1535 H 76.91988195767783 53.74026602386141 118.86991490116975 H 0.0 **** 0.06
1536 C 62.76898510191545 50.49018826475039 115.89740122278363 C 0.0 **** -0.24
1537 H 62.26980403143568 50.594128315442106 114.93399975058566 H 0.0 **** 0.06
1538 H 62.64075933929131 49.47213752615889 116.26443460220491 H 0.0 **** 0.06
1539 H 62.333416992290964 51.191624932607596 116.60939680734452 H 0.0 **** 0.06
1540 H 63.83138153161195 50.70375911019845 115.77980874000389 H 0.0 **** 0.06
1541 C 87.9677750938395 105.70415457568227 119.82316605717926 C 0.0 **** -0.24
1542 H 87.63958533929197 106.37676342080998 119.03054350767746 H 0.0 **** 0.06
1543 H 89.04312344511227 105.81301452692095 119.96950523697137 H 0.0 **** 0.06
1544 H 87.74251364250559 104.67531801122611 119.54348543105937 H 0.0 **** 0.06
1545 H 87.44742248671899 105.95185754905712 120.74790442290754 H 0.0 **** 0.06
1546 C 151.78511789402464 53.085123466444784 52.65503995545028 C 0.0 **** -0.24
1547 H 151.81599945993148 52.030441840682 52.926520401594445 H 0.0 **** 0.06
1548 H 152.71698329234664 53.36141717001654 52.16144462743955 H 0.0 **** 0.06
1549 H 151.6582884199133 53.6882945848391 53.55423657966777 H 0.0 **** 0.06
1550 H 150.9489953301352 53.262506479037754 51.978473622594606 H 0.0 **** 0.06
1551 C 151.50619216103934 36.38900154039659 23.958260918876874 C 0.0 **** -0.24
1552 H 150.85852016878613 35.65901184108368 24.443666621896654 H 0.0 **** 0.06
1553 H 152.49001397732718 35.94934121567739 23.79382823244228 H 0.0 **** 0.06
1554 H 151.60267617527666 37.26821339838597 24.596409069500595 H 0.0 **** 0.06
1555 H 151.0718030982585 36.6805173264984 23.00173942087369 H 0.0 **** 0.06
1556 C 31.275761819145316 0.25207483876923575 113.66026055181494 C 0.0 **** -0.24
1557 H 32.20489089280585 0.7705469959619968 113.89464788704494 H 0.0 **** 0.06
1558 H 30.482802103210872 0.9836925399822753 113.5002163389574 H 0.0 **** 0.06
1559 H 31.005583373132424 -0.4005319461746346 114.48963659368367 H 0.0 **** 0.06
1560 H 31.409193515696927 -0.34341121155779675 112.75736520802234 H 0.0 **** 0.06
1561 C 136.78753672506537 97.92250778878577 87.46528617790534 C 0.0 **** -0.24
1562 H 136.36647042583456 96.94018128765956 87.68238415104406 H 0.0 **** 0.06
1563 H 136.240965713333 98.37691624434677 86.63900005821262 H 0.0 **** 0.06
1564 H 137.83724895098612 97.81468031224921 87.19245446331979 H 0.0 **** 0.06
1565 H 136.70497114518645 98.55614581124286 88.34845403228536 H 0.0 **** 0.06
1566 C 91.58833393781444 28.355649719581578 56.2148916608632 C 0.0 **** -0.24
1567 H 92.24606259785384 27.870342565103954 55.49390023097568 H 0.0 **** 0.06
1568 H 90.60187740258431 27.892842686657332 56.17476870851807 H 0.0 **** 0.06
1569 H 91.50240738208592 29.414781410094662 55.97211530362095 H 0.0 **** 0.06
1570 H 92.00235016322276 28.24466266474863 57.216027037018264 H 0.0 **** 0.06
1571 C 129.17851470309992 66.25980189250237 20.356997427995594 C 0.0 **** -0.24
1572 H 129.64529396280213 66.35719615537363 21.33613995377945 H 0.0 **** 0.06
1573 H 128.59190248711843 65.3411246042744 20.32384845627871 H 0.0 **** 0.06
1574 H 129.94943634771803 66.22651018977854 19.587868625272677 H 0.0 **** 0.06
1575 H 128.52455623964235 67.11438356122852 20.179258242238006 H 0.0 **** 0.06
1576 C 1.1480737960990695 97.24506982885833 113.20209174150602 C 0.0 **** -0.24
1577 H 0.9241307842476552 98.1944628843197 113.68718655991029 H 0.0 **** 0.06
1578 H 1.745164497621051 96.62620241620539 113.87220778070736 H 0.0 **** 0.06
1579 H 1.7056225688994786 97.42855582129172 112.28316195337948 H 0.0 **** 0.06
1580 H 0.2166165275634242 96.73075347196655 112.96465811662836 H 0.0 **** 0.06
1581 C 5.108748588197962 133.77268551291186 70.78699834157396 C 0.0 **** -0.24
1582 H 6.154622643481801 134.06942648547547 70.8604142837547 H 0.0 **** 0.06
1583 H 4.977403102752099 132.78815365184127 71.23549587347084 H 0.0 **** 0.06
1584 H 4.814642776797058 133.73642844576602 69.73724983711507 H 0.0 **** 0.06
1585 H 4.48828359019042 134.49749841315122 71.31250672825699 H 0.0 **** 0.06
1586 C 11.032097628060228 37.06968869215915 28.542708734985354 C 0.0 **** -0.24
1587 H 12.013570801057881 37.408345137201024 28.876930136747916 H 0.0 **** 0.06
1588 H 10.74867758240805 36.17581907899381 29.098499044091454 H 0.0 **** 0.06
1589 H 11.06977904166564 36.841694358808965 27.478050889999906 H 0.0 **** 0.06
1590 H 10.298018311556177 37.855779185021646 28.720509116433306 H 0.0 **** 0.06
1591 C 27.254409304131343 1.3307728305307478 31.009149270312264 C 0.0 **** -0.24
1592 H 26.67103227189216 0.4992969662703217 30.61399893507098 H 0.0 **** 0.06
1593 H 27.76086053929353 1.84058415049509 30.189684060742934 H 0.0 **** 0.06
1594 H 27.99369110363193 0.9527205875126583 31.71481531846956 H 0.0 **** 0.06
1595 H 26.59074427548626 2.0303484363171265 31.518615083948532 H 0.0 **** 0.06
1596 C 87.8173011204115 20.277564823170906 150.06275801089978 C 0.0 **** -0.24
1597 H 87.62660468612263 21.342284131043606 149.9305070513779 H 0.0 **** 0.06
1598 H 87.31572094395908 19.927181546950067 150.96533464835727 H 0.0 **** 0.06
1599 H 88.89119890727908 20.110576504366385 150.1555867226681 H 0.0 **** 0.06
1600 H 87.43791471583413 19.73017886562004 149.19953656737215 H 0.0 **** 0.06
1601 C 9.924277413370476 111.53921833237187 125.55870281154337 C 0.0 **** -0.24
1602 H 10.819065485413262 111.99837478977123 125.1380683685429 H 0.0 **** 0.06
1603 H 9.323658479354464 112.30176392050818 126.0540782018747 H 0.0 **** 0.06
1604 H 10.213122382047885 110.77647761505476 126.28126272400492 H 0.0 **** 0.06
1605 H 9.34218989320513 111.07962523869095 124.75922422240923 H 0.0 **** 0.06
1606 C 95.084148397117 99.81499362057048 132.6981243240949 C 0.0 **** -0.24
1607 H 94.77403960146901 98.79418012344286 132.91938656702243 H 0.0 **** 0.06
1608 H 95.98456718114268 99.79503600316718 132.08260548585304 H 0.0 **** 0.06
1609 H 95.29214610432315 100.3414195534811 133.6294568915133 H 0.0 **** 0.06
1610 H 94.28730806617861 100.32821725900067 132.16028081562808 H 0.0 **** 0.06
1611 C 143.2793864419874 56.22847406427802 114.58062091527592 C 0.0 **** -0.24
1612 H 143.43768158884086 55.93087288236288 113.54458818519703 H 0.0 **** 0.06
1613 H 143.60071568728188 57.261541384795294 114.71421771851664 H 0.0 **** 0.06
1614 H 143.859199356051 55.57846464198387 115.23689939946945 H 0.0 **** 0.06
1615 H 142.22075108323142 56.14158471590389 114.82622650350959 H 0.0 **** 0.06
1616 C 48.62470774094237 116.66975376317913 52.964396260420074 C 0.0 **** -0.24
1617 H 49.25461977076162 115.94905396317375 53.48652874109996 H 0.0 **** 0.06
1618 H 47.75457399042574 116.9022351269403 53.578275190141596 H 0.0 **** 0.06
1619 H 48.29732121984546 116.24559701733182 52.01518722581173 H 0.0 **** 0.06
1620 H 49.19363018618657 117.58097515910185 52.77856433656723 H 0.0 **** 0.06
1621 C 151.90470829872115 17.52624926757254 89.58622608648491 C 0.0 **** -0.24
1622 H 151.34778488235486 16.99052732392842 88.81782647553285 H 0.0 **** 0.06
1623 H 152.1129570799148 16.85538209278397 90.41948075243056 H 0.0 **** 0.06
1624 H 151.31392887400767 18.372060764182983 89.93918824283679 H 0.0 **** 0.06
1625 H 152.84359286346276 17.88852093491694 89.16720736215314 H 0.0 **** 0.06
1626 C 60.38737914664955 108.89001020910275 108.21429602476367 C 0.0 **** -0.24
1627 H 60.47430535706104 109.2920172647007 107.2053541034398 H 0.0 **** 0.06
1628 H 60.87555344209362 109.56480769302176 108.91686406906108 H 0.0 **** 0.06
1629 H 60.8665916765253 107.91172825265535 108.25705639423113 H 0.0 **** 0.06
1630 H 59.33396018812648 108.79111253578007 108.47647425154985 H 0.0 **** 0.06
1631 C 155.04541924717842 138.60799595119602 138.7088195188635 C 0.0 **** -0.24
1632 H 154.9159833945592 137.91706013575578 137.874998331541 H 0.0 **** 0.06
1633 H 154.38361127218673 139.46352338980557 138.5772001849955 H 0.0 **** 0.06
1634 H 156.08017699355372 138.94804088415827 138.7411536816419 H 0.0 **** 0.06
1635 H 154.8011943966033 138.0990665295164 139.64218375281 H 0.0 **** 0.06
1636 C 126.8756343826667 142.73641417857164 85.19714952732187 C 0.0 **** -0.24
1637 H 126.65738437424869 141.67132513103547 85.13224293467078 H 0.0 **** 0.06
1638 H 127.92630948894475 142.8772088621643 85.4513017587768 H 0.0 **** 0.06
1639 H 126.25048056821271 143.18898215557647 85.96632413576202 H 0.0 **** 0.06
1640 H 126.66814657101838 143.20818229638525 84.23573734642216 H 0.0 **** 0.06
1641 C 17.725087082253822 145.699196281419 90.98517045345936 C 0.0 **** -0.24
1642 H 18.26870495614395 145.09967015820587 91.716263299592 H 0.0 **** 0.06
1643 H 16.653112423325638 145.59730593718015 91.15707854148674 H 0.0 **** 0.06
1644 H 17.967037679722466 145.35358951458846 89.98028462329054 H 0.0 **** 0.06
1645 H 18.011935879324426 146.74600370885233 91.08871595835734 H 0.0 **** 0.06
1646 C 149.11385593961376 74.2357998168386 76.7319148130527 C 0.0 **** -0.24
1647 H 148.29884242585842 74.89098836847614 76.42757036748283 H 0.0 **** 0.06
1648 H 149.70422543231095 73.96014747074126 75.85761432470555 H 0.0 **** 0.06
1649 H 148.7051230872376 73.33616719324436 77.19286198370423 H 0.0 **** 0.06
1650 H 149.7484393394678 74.75596033230087 77.45034759374688 H 0.0 **** 0.06
1651 C 102.45770889349886 60.93753762466248 57.45693431712593 C 0.0 **** -0.24
1652 H 102.73390307411533 60.98392254450037 56.40293767325926 H 0.0 **** 0.06
1653 H 102.6258104375636 61.910271894568055 57.91962816500154 H 0.0 **** 0.06
1654 H 103.06813973958118 60.186048600264684 57.95933968513208 H 0.0 **** 0.06
1655 H 101.40558108939591 60.66884066103843 57.54477882240539 H 0.0 **** 0.06
1656 C 61.804617902085326 139.19928877650577 70.98400461894681 C 0.0 **** -0.24
1657 H 61.71879144001116 138.17828948167923 70.60984023681866 H 0.0 **** 0.06
1658 H 62.69121975827949 139.6686225786606 70.55713740718471 H 0.0 **** 0.06
1659 H 61.88999254388456 139.18204331927083 72.07015581010091 H 0.0 **** 0.06
1660 H 60.91965806214925 139.76661995332046 70.69784199088397 H 0.0 **** 0.06
1661 C 86.16317425115714 47.70488818021437 38.31082453832133 C 0.0 **** -0.24
1662 H 85.23244595196327 47.21298201910048 38.59393377831904 H 0.0 **** 0.06
1663 H 86.52863512195934 47.280365645794916 37.37626174695025 H 0.0 **** 0.06
1664 H 86.90574308388948 47.5540768258615 39.09419681641583 H 0.0 **** 0.06
1665 H 85.98405449536916 48.77228165463737 38.18128706166519 H 0.0 **** 0.06
1666 C 45.05539615807663 64.57582716088443 19.156381515155573 C 0.0 **** -0.24
1667 H 44.74833932146038 64.40973709942611 20.189548442978293 H 0.0 **** 0.06
1668 H 45.40227102534175 63.636393422637255 18.725495494738425 H 0.0 **** 0.06
1669 H 45.862638022936494 65.30849402655653 19.130915091371918 H 0.0 **** 0.06
1670 H 44.20798270783291 64.94892879250366 18.581761407273973 H 0.0 **** 0.06
1671 C 25.288141561729994 20.278244183319032 156.16202207929382 C 0.0 **** -0.24
1672 H 24.39678527558892 20.253318262584003 156.78977232953756 H 0.0 **** 0.06
1673 H 25.09295000411577 20.88500224786489 155.27755071604165 H 0.0 **** 0.06
1674 H 25.546660662539978 19.26440522225971 155.85766196084393 H 0.0 **** 0.06
1675 H 26.115639133124112 20.711297540201258 156.7243771667987 H 0.0 **** 0.06
1676 C 49.41201660138091 155.2318863710348 34.66815703853155 C 0.0 **** -0.24
1677 H 48.8341553201835 154.46916363569903 34.14503364997891 H 0.0 **** 0.06
1678 H 48.81978100190872 156.1437826918616 34.74997876444806 H 0.0 **** 0.06
1679 H 50.32542286612755 155.44051303265954 34.11154355676784 H 0.0 **** 0.06
1680 H 49.66788936410859 154.87381257134842 35.664570056840915 H 0.0 **** 0.06
1681 C 116.42017565577545 152.4687007531986 63.951514315908256 C 0.0 **** -0.24
1682 H 116.46700405065566 152.04421406825907 62.94836236025722 H 0.0 **** 0.06
1683 H 115.47268335583918 152.19522620564143 64.41709644974375 H 0.0 **** 0.06
1684 H 116.49590374887028 153.5542429504933 63.89101592806789 H 0.0 **** 0.06
1685 H 117.244213818452 152.07855077931384 64.54881137157761 H 0.0 **** 0.06
1686 C 19.182307353089897 75.47432025832498 4.039587365183451 C 0.0 **** -0.24
1687 H 20.17735426953618 75.04738000902091 4.168111118269508 H 0.0 **** 0.06
1688 H 18.775910421566664 75.1643486636505 3.0766663781961654 H 0.0 **** 0.06
1689 H 19.247522167159445 76.56228493641169 4.074034295721418 H 0.0 **** 0.06
1690 H 18.530859830931377 75.12338088602532 4.839158070835026 H 0.0 **** 0.06
1691 C 84.01734348640694 84.79116760228071 41.682130664879736 C 0.0 **** -0.24
1692 H 84.8639729862812 84.73873295953622 40.997999279969804 H 0.0 **** 0.06
1693 H 83.38903113673362 83.91080721179483 41.54925920647017 H 0.0 **** 0.06
1694 H 83.43551635893733 85.68907294636242 41.47269362242214 H 0.0 **** 0.06
1695 H 84.38183665990937 84.82672318947066 42.70933864574495 H 0.0 **** 0.06
1696 C 52.54410867822109 73.95485710738483 89.93770915289286 C 0.0 **** -0.24
1697 H 52.01439090419295 74.00227529229467 88.98570426781959 H 0.0 **** 0.06
1698 H 53.09145187753559 73.01475414794123 90.00183012402496 H 0.0 **** 0.06
1699 H 51.8268806528023 74.01594542336478 90.7562596098382 H 0.0 **** 0.06
1700 H 53.24451100337133 74.78793834589054 90.0052660785243 H 0.0 **** 0.06
1701 C 41.73427552018916 114.40794669365953 117.28516648252537 C 0.0 **** -0.24
1702 H 40.81415618552349 114.95900726554451 117.09471628716062 H 0.0 **** 0.06
1703 H 42.48843441830792 115.08635213113648 117.6851303781466 H 0.0 **** 0.06
1704 H 42.09498573327632 113.96997405156274 116.35397809736281 H 0.0 **** 0.06
1705 H 41.539276013725 113.6147634994792 118.00712790356607 H 0.0 **** 0.06
1706 C 133.33572748086357 71.05795742114596 112.7093645799802 C 0.0 **** -0.24
1707 H 132.52230522096013 71.42850043746051 112.08461678354031 H 0.0 **** 0.06
1708 H 133.84077913671695 71.89876627941106 113.18416973948116 H 0.0 **** 0.06
1709 H 134.04595023383803 70.50846841463519 112.09255820702843 H 0.0 **** 0.06
1710 H 132.93179335062098 70.39651668167039 113.4754155039236 H 0.0 **** 0.06
1711 C 118.20344897462046 86.50540733417874 80.60394788616408 C 0.0 **** -0.24
1712 H 118.5735962255976 86.05650932919411 79.68178884857394 H 0.0 **** 0.06
1713 H 117.24892134501376 86.99579132043071 80.41074010083064 H 0.0 **** 0.06
1714 H 118.92340472503936 87.24077482928509 80.96458907931503 H 0.0 **** 0.06
1715 H 118.0674713275172 85.72926537845439 81.35659215203646 H 0.0 **** 0.06
1716 C 100.82982276457666 33.46535121250234 82.27034108640441 C 0.0 **** -0.24
1717 H 100.19577651992132 32.584057546879365 82.17248654610728 H 0.0 **** 0.06
1718 H 101.07188939020405 33.62456786512377 83.32176750846958 H 0.0 **** 0.06
1719 H 100.30186997511042 34.336543834060876 81.88286601492354 H 0.0 **** 0.06
1720 H 101.74975517307094 33.316235603945536 81.70424427611704 H 0.0 **** 0.06
1721 C 113.87055799889119 47.32617763870701 55.62187168394655 C 0.0 **** -0.24
1722 H 113.99754231545488 47.810573518857495 54.65290763080941 H 0.0 **** 0.06
1723 H 113.1242582426243 47.86885419707539 56.20352669560856 H 0.0 **** 0.06
1724 H 114.82040387240183 47.32837460922826 56.156282248347 H 0.0 **** 0.06
1725 H 113.53902196120107 46.29915023472029 55.47304897912528 H 0.0 **** 0.06
1726 C 101.18711505301327 156.78974179083266 62.76035071491643 C 0.0 **** -0.24
1727 H 100.5957938105066 155.88547402150124 62.61350492046749 H 0.0 **** 0.06
1728 H 100.56759748376577 157.55533759091887 63.228836324268116 H 0.0 **** 0.06
1729 H 101.54436463184699 157.1501795385413 61.79602192294453 H 0.0 **** 0.06
1730 H 102.03748153495751 156.56648980464064 63.40367646971839 H 0.0 **** 0.06
1731 C 113.15726985635938 80.73523484687821 12.316900649842779 C 0.0 **** -0.24
1732 H 112.3513916057071 80.11146395040217 11.930715757865983 H 0.0 **** 0.06
1733 H 114.09804510026648 80.44271717152326 11.848636750422344 H 0.0 **** 0.06
1734 H 113.23219896078216 80.60353877444811 13.396451692734473 H 0.0 **** 0.06
1735 H 112.94772417075642 81.77989007292297 12.090883666691155 H 0.0 **** 0.06
1736 C 84.24185299272918 64.46033319613969 130.16893808932764 C 0.0 **** -0.24
1737 H 83.59327664863295 63.98038304288096 129.4366319918321 H 0.0 **** 0.06
1738 H 84.17621324764096 63.926664077897655 131.11746610178778 H 0.0 **** 0.06
1739 H 83.92472214750963 65.49367871955056 130.3113485711711 H 0.0 **** 0.06
1740 H 85.27127019890247 64.44158867515303 129.8108647239123 H 0.0 **** 0.06
1741 C 117.24850071967508 22.864897718874488 4.886617100310872 C 0.0 **** -0.24
1742 H 116.19392250540248 23.136000516482454 4.852445594917697 H 0.0 **** 0.06
1743 H 117.77036192058388 23.328344522677355 4.048613723576153 H 0.0 **** 0.06
1744 H 117.34702282631228 21.781551991894958 4.82274942992899 H 0.0 **** 0.06
1745 H 117.68280525962892 23.2143308440439 5.823422702369413 H 0.0 **** 0.06
1746 C 73.2132660565756 7.767023893891519 8.429960042438417 C 0.0 **** -0.24
1747 H 72.19807764106301 7.534274669591639 8.748834464793745 H 0.0 **** 0.06
1748 H 73.31696202241503 7.55595470131783 7.365161166523677 H 0.0 **** 0.06
1749 H 73.9195189656063 7.156161191256388 8.992652030354733 H 0.0 **** 0.06
1750 H 73.41964078974814 8.82223358141971 8.612535226659269 H 0.0 **** 0.06
1751 C 153.88802383798816 95.43742998193508 121.7325606369908 C 0.0 **** -0.24
1752 H 153.36404754055147 94.59757001378627 121.27681429414298 H 0.0 **** 0.06
1753 H 154.59723539926975 95.06502115918717 122.47225741577063 H 0.0 **** 0.06
1754 H 153.16642472457556 96.0941044366859 122.21995482643399 H 0.0 **** 0.06
1755 H 154.4226282291655 95.99343189334921 120.96207526639188 H 0.0 **** 0.06
1756 C 125.61003505600297 57.04274693085193 90.58925326571095 C 0.0 **** -0.24
1757 H 125.61182625910254 57.92907643894327 91.22402998196382 H 0.0 **** 0.06
1758 H 125.98345340527743 57.30456393218543 89.59886582139274 H 0.0 **** 0.06
1759 H 124.59355111608949 56.65808429478619 90.50504677143725 H 0.0 **** 0.06
1760 H 126.25233050190741 56.28054677475785 91.03021488308559 H 0.0 **** 0.06
1761 C 139.31163846590442 122.24990477909968 14.604013121103776 C 0.0 **** -0.24
1762 H 139.98719914970408 121.39570899041307 14.626705356812636 H 0.0 **** 0.06
1763 H 139.42339754252686 122.77764810161575 13.657000683633441 H 0.0 **** 0.06
1764 H 139.55072377310393 122.92382891973533 15.426217545390728 H 0.0 **** 0.06
1765 H 138.28318304453413 121.90221363078952 14.706993793649644 H 0.0 **** 0.06
1766 C 120.90276618966818 47.91636097312232 25.509044218891546 C 0.0 **** -0.24
1767 H 120.65506858474454 48.04093069729947 24.454872054120486 H 0.0 **** 0.06
1768 H 120.34550239797984 47.07254006765197 25.916407730616292 H 0.0 **** 0.06
1769 H 120.63869719053808 48.82362319061582 26.052825901402358 H 0.0 **** 0.06
1770 H 121.97172276810831 47.729631279904595 25.61147723970962 H 0.0 **** 0.06
1771 C 112.4505143171048 30.94728147709668 132.85059323444534 C 0.0 **** -0.24
1772 H 111.89301490280626 31.2012576820386 133.75298683535974 H 0.0 **** 0.06
1773 H 112.3041273875002 31.727116305561935 132.10278764444513 H 0.0 **** 0.06
1774 H 112.09328573220866 29.99504474284595 132.45863327755285 H 0.0 **** 0.06
1775 H 113.51051605738549 30.866786022220367 133.08986178308083 H 0.0 **** 0.06
1776 C 17.139663371129927 2.102342356151212 66.83906699950637 C 0.0 **** -0.24
1777 H 17.914996004633906 2.661103258579999 66.31531207737282 H 0.0 **** 0.06
1778 H 17.039424654089544 1.1130288892878752 66.3915597192744 H 0.0 **** 0.06
1779 H 16.192204375114272 2.6347035800851017 66.76018973181533 H 0.0 **** 0.06
1780 H 17.41285324565345 1.999478471078703 67.88966064721961 H 0.0 **** 0.06
1781 C 82.78384174843492 64.3701887597624 144.9177822353904 C 0.0 **** -0.24
1782 H 83.7060062032146 63.791521767036045 144.97116669592188 H 0.0 **** 0.06
1783 H 82.80106444622697 65.00020502512152 144.02685931606874 H 0.0 **** 0.06
1784 H 82.69727044060983 64.99793897960159 145.8043592057329 H 0.0 **** 0.06
1785 H 81.9322040326831 63.6921729007489 144.86718234196655 H 0.0 **** 0.06
1786 C 145.0175596242968 34.34700450881027 51.068048761502496 C 0.0 **** -0.24
1787 H 144.97883013193618 33.644475528233755 51.901679849160246 H 0.0 **** 0.06
1788 H 146.0386683019078 34.706340013799206 50.94355093895871 H 0.0 **** 0.06
1789 H 144.35778753684696 35.18987365843424 51.27398579424607 H 0.0 **** 0.06
1790 H 144.69380226253654 33.84578422481498 50.15585795378962 H 0.0 **** 0.06
1791 C 34.99464442169853 131.23821898078359 102.41043323305375 C 0.0 **** -0.24
1792 H 35.70445312309731 132.03399839273976 102.18149120602457 H 0.0 **** 0.06
1793 H 35.052794284600196 130.46823964734273 101.64074686253703 H 0.0 **** 0.06
1794 H 33.986182086655354 131.65004676412474 102.43877479145978 H 0.0 **** 0.06
1795 H 35.237584814270825 130.8032713193036 103.37978206595871 H 0.0 **** 0.06
1796 C 67.11990283942357 101.53572759375753 107.6657437443692 C 0.0 **** -0.24
1797 H 66.61501074186684 100.58588365433387 107.49137312519053 H 0.0 **** 0.06
1798 H 66.93141096082546 101.86527603334558 108.6876152220446 H 0.0 **** 0.06
1799 H 66.73991444795305 102.28191729844993 106.96681995057344 H 0.0 **** 0.06
1800 H 68.1916888303947 101.41078639565207 107.51640818283806 H 0.0 **** 0.06
1801 C 111.32370729971488 147.31987221775114 18.33865109118122 C 0.0 **** -0.24
1802 H 111.60809957358445 146.42143344632018 17.791461490022357 H 0.0 **** 0.06
1803 H 110.93405512503232 147.03973743209315 19.31814657775263 H 0.0 **** 0.06
1804 H 110.55502089949165 147.85553850640406 17.782240726578294 H 0.0 **** 0.06
1805 H 112.19600735854199 147.96151672260248 18.463589523287226 H 0.0 **** 0.06
1806 C 31.30735858795842 106.46762528405725 99.10743858782874 C 0.0 **** -0.24
1807 H 31.118692177797726 107.4730504426314 99.48292345632152 H 0.0 **** 0.06
1808 H 32.33596057835922 106.1832664551074 99.33371217718536 H 0.0 **** 0.06
1809 H 31.154038241860917 106.44710707832974 98.02840496911539 H 0.0 **** 0.06
1810 H 30.62297104442392 105.76780812735257 99.58542316874873 H 0.0 **** 0.06
1811 C 72.83524893426947 87.6093218916275 143.0745791510983 C 0.0 **** -0.24
1812 H 72.11757150054041 88.20854159735376 142.5129177185283 H 0.0 **** 0.06
1813 H 72.51528728614578 87.54233300037339 144.114969338196 H 0.0 **** 0.06
1814 H 73.81788588871437 88.07887822410726 143.02535365154662 H 0.0 **** 0.06
1815 H 72.88783016305574 86.60928763159427 142.6448171872881 H 0.0 **** 0.06
1816 C 34.792243299678944 89.13888513962173 134.2055377933621 C 0.0 **** -0.24
1817 H 34.902445037056964 89.26940043137866 133.12959868488662 H 0.0 **** 0.06
1818 H 34.47187958623215 88.11821074804224 134.41630679564446 H 0.0 **** 0.06
1819 H 34.047238690754625 89.83929092500453 134.58266579623285 H 0.0 **** 0.06
1820 H 35.74842233577289 89.32770311976695 134.69389637357835 H 0.0 **** 0.06
1821 C 51.004686223075325 45.32599103459941 25.8505728879464 C 0.0 **** -0.24
1822 H 50.214891046300494 44.612942341356884 25.612407319339006 H 0.0 **** 0.06
1823 H 51.19966039927721 45.9556160571168 24.982260684486548 H 0.0 **** 0.06
1824 H 51.91233052917674 44.7844863558949 26.118890233872264 H 0.0 **** 0.06
1825 H 50.69138910484057 45.94783577830441 26.688216397507695 H 0.0 **** 0.06
1826 C 13.44356924634139 89.69551976892956 58.310498189108785 C 0.0 **** -0.24
1827 H 12.660344915801652 89.2644318967667 57.685565695610876 H 0.0 **** 0.06
1828 H 13.61468024649313 89.0521875216325 59.17306545384167 H 0.0 **** 0.06
1829 H 13.13352286555606 90.68422513685454 58.64898247634744 H 0.0 **** 0.06
1830 H 14.363430644103822 89.78173267328873 57.731468794757234 H 0.0 **** 0.06
1831 C 121.72945666346136 30.29929071390177 140.52550140218148 C 0.0 **** -0.24
1832 H 121.25117026172269 29.49374770888918 141.08065920226667 H 0.0 **** 0.06
1833 H 121.10507171823728 31.19278679013611 140.57206261434487 H 0.0 **** 0.06
1834 H 121.85604661533758 29.99905371298015 139.48578539850416 H 0.0 **** 0.06
1835 H 122.70405926705054 30.513987749336472 140.96250321052827 H 0.0 **** 0.06
1836 C 78.77084004415383 31.83314648586427 22.243650660870095 C 0.0 **** -0.24
1837 H 78.98677903898044 32.013400930318625 23.29626992971663 H 0.0 **** 0.06
1838 H 79.40403076918517 32.47263870998891 21.627960073102294 H 0.0 **** 0.06
1839 H 77.72253649848653 32.058496462115656 22.0441192546429 H 0.0 **** 0.06
1840 H 78.96908962627225 30.78767264950583 22.00631282254254 H 0.0 **** 0.06
1841 C 105.65760237039405 68.15769954127494 77.53070814809186 C 0.0 **** -0.24
1842 H 104.6546595091699 67.74579580040297 77.64358242713524 H 0.0 **** 0.06
1843 H 105.61548106547679 69.24393097873774 77.60615155072003 H 0.0 **** 0.06
1844 H 106.05924221470133 67.87561729171806 76.55677655184883 H 0.0 **** 0.06
1845 H 106.30249922597312 67.7625381639941 78.316895955696 H 0.0 **** 0.06
1846 C 67.01440343809548 83.35360044633677 51.412752990042705 C 0.0 **** -0.24
1847 H 66.94762569091989 84.27682746975734 50.836376987297214 H 0.0 **** 0.06
1848 H 66.77640698127061 83.5607175924693 52.45598490956604 H 0.0 **** 0.06
1849 H 68.02642080318259 82.95441099771136 51.342543876652215 H 0.0 **** 0.06
1850 H 66.30800523307926 82.62555370321701 51.01483068135106 H 0.0 **** 0.06
1851 C 56.16791614215589 134.88100553720128 49.398777381188495 C 0.0 **** -0.24
1852 H 56.46131420182002 135.20736439319379 50.39706550672071 H 0.0 **** 0.06
1853 H 56.87964192515523 135.264160947737 48.66869659374743 H 0.0 **** 0.06
1854 H 55.17195250941444 135.2603872737614 49.17119311728388 H 0.0 **** 0.06
1855 H 56.15884786140623 133.79126363856892 49.36135998443456 H 0.0 **** 0.06
1856 C 17.553466219850385 74.33682678709872 154.34767641683965 C 0.0 **** -0.24
1857 H 17.631583255297862 73.92012144495982 153.3436524887627 H 0.0 **** 0.06
1858 H 18.538067093706722 74.34543068378855 154.81516199064458 H 0.0 **** 0.06
1859 H 16.873552317595134 73.72644495823786 154.94300726394863 H 0.0 **** 0.06
1860 H 17.169258856348755 75.35530229509635 154.28905883955235 H 0.0 **** 0.06
1861 C 30.21805926741004 64.64410032597745 116.75827544104366 C 0.0 **** -0.24
1862 H 29.479071206213945 64.32975478118794 117.49571372011273 H 0.0 **** 0.06
1863 H 30.501894215046818 65.67896858174821 116.94748448187134 H 0.0 **** 0.06
1864 H 29.791819736520978 64.56036854246473 115.75909553351467 H 0.0 **** 0.06
1865 H 31.09873041953088 64.00549136444951 116.833292888124 H 0.0 **** 0.06
1866 C 11.913572268479612 125.71540358962635 113.46887817817118 C 0.0 **** -0.24
1867 H 12.92655557938457 125.78453630346466 113.07157832637374 H 0.0 **** 0.06
1868 H 11.26643141644334 125.23899803597858 112.73315125680564 H 0.0 **** 0.06
1869 H 11.541732736439144 126.7155990872564 113.68862112403635 H 0.0 **** 0.06
1870 H 11.923422637522947 125.12251739102813 114.38362874845818 H 0.0 **** 0.06
1871 C 140.56538504902068 138.52099172256737 14.462157997516549 C 0.0 **** -0.24
1872 H 140.51315605442062 137.45111407589803 14.663059993913897 H 0.0 **** 0.06
1873 H 141.44095022646175 138.73316914134153 13.848644320555337 H 0.0 **** 0.06
1874 H 140.63967655605614 139.06392039635776 15.404316632455874 H 0.0 **** 0.06
1875 H 139.6654349453709 138.83499148066687 13.932506541993511 H 0.0 **** 0.06
1876 C 31.484489277948512 106.9778979035126 45.59531531714225 C 0.0 **** -0.24
1877 H 32.530938779746066 106.7738792323729 45.369458106235584 H 0.0 **** 0.06
1878 H 31.4073015797278 107.91860242933774 46.14196856905119 H 0.0 **** 0.06
1879 H 31.079764571539158 106.16962482981586 46.20340180896312 H 0.0 **** 0.06
1880 H 30.919835403514526 107.05078673317843 44.66529600359149 H 0.0 **** 0.06
1881 C 18.253651025243983 8.404157745019546 90.13928770020125 C 0.0 **** -0.24
1882 H 19.22591717090006 8.270461065373638 90.61330394812481 H 0.0 **** 0.06
1883 H 17.508938152191945 7.806648031740451 90.66496207214384 H 0.0 **** 0.06
1884 H 18.309416845959902 8.084307293846962 89.09925572956723 H 0.0 **** 0.06
1885 H 17.971633216897885 9.457011261974912 90.17990974084496 H 0.0 **** 0.06
1886 C 35.79793046377938 129.34478276320118 16.65401655566393 C 0.0 **** -0.24
1887 H 34.92788604298963 128.6880575402717 16.680139074825775 H 0.0 **** 0.06
1888 H 35.48068430635766 130.35804342498207 16.406861971346274 H 0.0 **** 0.06
1889 H 36.49902039098737 128.98779511272153 15.899599295270093 H 0.0 **** 0.06
1890 H 36.282863325373796 129.34351624160684 17.630128322812624 H 0.0 **** 0.06
1891 C 137.03854068782366 81.9042483565789 18.410094945701694 C 0.0 **** -0.24
1892 H 137.65469459905583 82.79658489124974 18.302719361575285 H 0.0 **** 0.06
1893 H 136.0111057748452 82.19746282669715 18.629882351642443 H 0.0 **** 0.06
1894 H 137.4241646125219 81.29205020527017 19.224654487671522 H 0.0 **** 0.06
1895 H 137.062882496317 81.33262047669706 17.48198571988179 H 0.0 **** 0.06
1896 C 128.67338743611236 107.84598788625715 42.43202139345517 C 0.0 **** -0.24
1897 H 129.1809789366006 107.45847262943204 43.31470957628511 H 0.0 **** 0.06
1898 H 127.86329724084078 107.17186288900092 42.153105551102655 H 0.0 **** 0.06
1899 H 129.38344334393383 107.91930281355053 41.60839696808338 H 0.0 **** 0.06
1900 H 128.26622756075847 108.8327501756188 42.650029777705015 H 0.0 **** 0.06
1901 C 48.22329949358749 9.349337119974287 138.94660085592403 C 0.0 **** -0.24
1902 H 47.59210210558851 8.461311141524881 138.97375556424618 H 0.0 **** 0.06
1903 H 48.910792464252154 9.332023417411314 139.79271098253548 H 0.0 **** 0.06
1904 H 47.599005303223436 10.240959080355516 139.00300749211794 H 0.0 **** 0.06
1905 H 48.79205237739758 9.362076486570814 138.01624094015153 H 0.0 **** 0.06
1906 C 99.33455582230143 141.93050030337986 42.752317359587636 C 0.0 **** -0.24
1907 H 99.74551927161205 141.0767425558621 42.21308787420486 H 0.0 **** 0.06
1908 H 100.0128745512206 142.77887089065143 42.65917911054319 H 0.0 **** 0.06
1909 H 99.21789893561004 141.67254631629203 43.80589917897822 H 0.0 **** 0.06
1910 H 98.36330703915607 142.19313251053723 42.33271659146166 H 0.0 **** 0.06
1911 C 146.45298086110316 144.51269692607897 111.581452758438 C 0.0 **** -0.24
1912 H 147.2913277422818 145.12251651949933 111.92030713389279 H 0.0 **** 0.06
1913 H 145.52777309785188 145.07987260054102 111.68358023277644 H 0.0 **** 0.06
1914 H 146.3940986335341 143.60819296262915 112.18636772385766 H 0.0 **** 0.06
1915 H 146.60024224085734 144.24201214824427 110.53621283957558 H 0.0 **** 0.06
1916 C 145.75701783166312 144.96472632951375 46.53885339129178 C 0.0 **** -0.24
1917 H 145.645349568705 143.888370484494 46.409420188363015 H 0.0 **** 0.06
1918 H 146.25234890508224 145.16636612552514 47.48980673596492 H 0.0 **** 0.06
1919 H 144.7735101979778 145.435941539659 46.53398799871286 H 0.0 **** 0.06
1920 H 146.35678554142626 145.3686358809654 45.72310805956815 H 0.0 **** 0.06
1921 C 73.76798460880454 98.45421724464641 123.80834322565444 C 0.0 **** -0.24
1922 H 74.5804076448795 97.81532543017744 123.4619781963216 H 0.0 **** 0.06
1923 H 74.17297115123313 99.25090138913981 124.43295107856964 H 0.0 **** 0.06
1924 H 73.06047465385456 97.86049403734086 124.38759455654424 H 0.0 **** 0.06
1925 H 73.2582290274807 98.89013227293819 122.94861766727557 H 0.0 **** 0.06
1926 C 67.06002323499786 150.66593997929718 102.11246903002852 C 0.0 **** -0.24
1927 H 67.02542832083623 149.77469703650087 102.74045146411832 H 0.0 **** 0.06
1928 H 67.84040043928673 150.548914077947 101.36102242233956 H 0.0 **** 0.06
1929 H 67.27732974717199 151.5367812050329 102.7313859291758 H 0.0 **** 0.06
1930 H 66.09755067923709 150.80052214654904 101.61993592795768 H 0.0 **** 0.06
1931 C 86.29310108689529 7.015420129533851 23.20032993241699 C 0.0 **** -0.24
1932 H 86.19770116861682 7.584128442377164 22.27565573916013 H 0.0 **** 0.06
1933 H 85.50012400321827 6.268672302848017 23.250755402089737 H 0.0 **** 0.06
1934 H 86.21158342717456 7.690173081087892 24.052335207265628 H 0.0 **** 0.06
1935 H 87.2629957485714 6.518706691822217 23.22257338115253 H 0.0 **** 0.06
1936 C 122.97626117434555 144.3026631627522 47.44687475899043 C 0.0 **** -0.24
1937 H 123.55435572240822 143.37897195459266 47.43376372413782 H 0.0 **** 0.06
1938 H 122.84612267902293 144.6638303859466 46.426019271538564 H 0.0 **** 0.06
1939 H 123.50435361594845 145.05398745154093 48.033603692648285 H 0.0 **** 0.06
1940 H 121.99956121225648 144.1131639428142 47.89235529435402 H 0.0 **** 0.06
1941 C 70.28554524791551 110.15951760150182 35.218289034827166 C 0.0 **** -0.24
1942 H 71.24054314220004 110.23685835587872 35.73740855929961 H 0.0 **** 0.06
1943 H 70.17416276923797 109.15532010874932 34.80874657740716 H 0.0 **** 0.06
1944 H 70.25278947244396 110.88883921610852 34.40833981299133 H 0.0 **** 0.06
1945 H 69.473826260963 110.35911097861555 35.91850219600974 H 0.0 **** 0.06
1946 C 117.1713373290725 75.85014897601667 121.48258615294215 C 0.0 **** -0.24
1947 H 117.17058508148106 75.85695566513232 122.57294242541083 H 0.0 **** 0.06
1948 H 118.18244154309413 75.65860934848328 121.12157430949291 H 0.0 **** 0.06
1949 H 116.83108649378515 76.81805738916123 121.11429639082625 H 0.0 **** 0.06
1950 H 116.50218182545832 75.069020694627 121.12396359336837 H 0.0 **** 0.06
1951 C 55.878582533678355 142.66849348089096 70.59660475271443 C 0.0 **** -0.24
1952 H 55.98542498618565 141.72146621643736 70.06764755142399 H 0.0 **** 0.06
1953 H 55.31284958492665 142.50956060681358 71.5151428702469 H 0.0 **** 0.06
1954 H 55.35224265246353 143.38176863569288 69.96376235930808 H 0.0 **** 0.06
1955 H 56.86577698554913 143.0603007616872 70.84195724451615 H 0.0 **** 0.06
1956 C 48.20165266914381 70.98985068897285 73.18229124536398 C 0.0 **** -0.24
1957 H 47.824483956005935 70.6663647073245 74.15272479285761 H 0.0 **** 0.06
1958 H 48.157021332584065 70.1584262724741 72.47949033134493 H 0.0 **** 0.06
1959 H 49.23507419744914 71.3222506261546 73.28773291342904 H 0.0 **** 0.06
1960 H 47.59170178516868 71.81342898790194 72.81123414387744 H 0.0 **** 0.06
1961 C 136.2921611544239 137.21218354090246 92.2795234982272 C 0.0 **** -0.24
1962 H 135.519239213209 137.63334202204038 92.92276909061104 H 0.0 **** 0.06
1963 H 137.1915860507981 137.82613901702268 92.34252554515638 H 0.0 **** 0.06
1964 H 135.9362338303122 137.19358943768117 91.24949259247217 H 0.0 **** 0.06
1965 H 136.5208361676605 136.1966623614494 92.60397097863046 H 0.0 **** 0.06
1966 C 94.17117234195814 145.85361342291952 103.73868163451742 C 0.0 **** -0.24
1967 H 94.1719141350489 146.41637295199422 104.6724133132886 H 0.0 **** 0.06
1968 H 94.01287475371942 144.79654391983064 103.9510718243457 H 0.0 **** 0.06
1969 H 95.12945851672299 145.98444735945964 103.23525459479931 H 0.0 **** 0.06
1970 H 93.37036307493764 146.2188510249648 103.09504298508257 H 0.0 **** 0.06
1971 C 50.36969266690642 40.76893346477199 31.389308059970887 C 0.0 **** -0.24
1972 H 50.393414043604395 41.73432638037487 30.8838602552446 H 0.0 **** 0.06
1973 H 50.59450704784908 40.90751597081305 32.44647031305959 H 0.0 **** 0.06
1974 H 51.111627493900016 40.107074477277706 30.94221067169775 H 0.0 **** 0.06
1975 H 49.37812627666969 40.32815551752937 31.28223988670024 H 0.0 **** 0.06
1976 C 103.93951299616573 85.43080081278492 15.45015909691886 C 0.0 **** -0.24
1977 H 103.28334279172607 86.00519164239853 14.796786702942676 H 0.0 **** 0.06
1978 H 104.96408496641969 85.49355659083659 15.083184071282282 H 0.0 **** 0.06
1979 H 103.62029243863417 84.38762119986109 15.458892380007185 H 0.0 **** 0.06
1980 H 103.88897610526637 85.8344067323676 16.46125204234299 H 0.0 **** 0.06
1981 C 143.63701616983846 66.63832103175281 139.76935064610672 C 0.0 **** -0.24
1982 H 143.01883078439175 67.45855058178961 139.4054138905907 H 0.0 **** 0.06
1983 H 143.68250543938908 65.85437902917167 139.0118637422744 H 0.0 **** 0.06
1984 H 143.20406049173926 66.23514387761278 140.68395995204548 H 0.0 **** 0.06
1985 H 144.64325149996347 67.00519863852583 139.97400641101092 H 0.0 **** 0.06
1986 C 152.2613739200026 9.76162760645149 3.9896700596897006 C 0.0 **** -0.24
1987 H 152.0310802995045 8.723695192222785 4.228862043249023 H 0.0 **** 0.06
1988 H 152.69663551769062 10.2478607980159 4.862915332693262 H 0.0 **** 0.06
1989 H 151.34485455372425 10.279739292239313 3.7048047371844177 H 0.0 **** 0.06
1990 H 152.97013463380281 9.795675500004648 3.1621196561809484 H 0.0 **** 0.06
1991 C 116.13457228461272 114.86352870379784 15.365376545981015 C 0.0 **** -0.24
1992 H 115.95717567861652 115.8057700190995 14.847782700046231 H 0.0 **** 0.06
1993 H 115.63736996570157 114.88304699621 16.336199200240905 H 0.0 **** 0.06
1994 H 117.20608847142046 114.72394921848496 15.508423039867068 H 0.0 **** 0.06
1995 H 115.73660829678431 114.04158624197112 14.770022084354665 H 0.0 **** 0.06
1996 C 108.78615657924162 144.69720746722547 124.13136521689523 C 0.0 **** -0.24
1997 H 108.76234863731311 145.4277718276089 124.93967552476227 H 0.0 **** 0.06
1998 H 109.56852021932035 143.96394043298318 124.32870574046899 H 0.0 **** 0.06
1999 H 108.99265786933837 145.20456763943255 123.18875842773718 H 0.0 **** 0.06
2000 H 107.8225187166325 144.19284880386766 124.0692682108953 H 0.0 **** 0.06
2001 C 97.69778645154602 153.49627171496533 126.81985116914935 C 0.0 **** -0.24
2002 H 97.85936139134277 154.25666412312873 126.05636667911828 H 0.0 **** 0.06
2003 H 96.77325582599649 152.95875428285203 126.60733569246598 H 0.0 **** 0.06
2004 H 97.6248520553408 153.97265550216954 127.79799827592485 H 0.0 **** 0.06
2005 H 98.53326159737875 152.79635198426462 126.81832931510026 H 0.0 **** 0.06
2006 C 100.55075659394583 125.35238312721604 42.93800395136239 C 0.0 **** -0.24
2007 H 101.13771689592011 125.49479987580538 42.02990990985111 H 0.0 **** 0.06
2008 H 100.69081319475805 124.33512794970211 43.30536721168909 H 0.0 **** 0.06
2009 H 99.49631962222458 125.51696626216243 42.71766622203205 H 0.0 **** 0.06
2010 H 100.87909466025826 126.06165236126456 43.69728776880055 H 0.0 **** 0.06
2011 C 99.1493783059293 38.72984103657774 35.043626334966916 C 0.0 **** -0.24
2012 H 98.52888735151731 39.422923601266604 34.47627091036708 H 0.0 **** 0.06
2013 H 98.53897016335324 38.22719610993161 35.79415792175132 H 0.0 **** 0.06
2014 H 99.95182380741602 39.28051626132918 35.53518783426847 H 0.0 **** 0.06
2015 H 99.57803185878976 37.989934767543446 34.367662196330286 H 0.0 **** 0.06
2016 C 50.526274796823884 92.83366411069291 88.69650670338474 C 0.0 **** -0.24
2017 H 50.75935677939087 93.7554132662441 89.22844177056808 H 0.0 **** 0.06
2018 H 49.55209921042763 92.92703428171038 88.21600631228479 H 0.0 **** 0.06
2019 H 50.505458617481025 92.00310430190711 89.40172776476732 H 0.0 **** 0.06
2020 H 51.288943305395435 92.64855193668379 87.93950608997955 H 0.0 **** 0.06
2021 C 49.75250229485499 94.62837359396396 10.263670788643338 C 0.0 **** -0.24
2022 H 49.52843690151798 95.65704926518013 9.978716788759442 H 0.0 **** 0.06
2023 H 50.467858395336236 94.2045782653781 9.559895403781326 H 0.0 **** 0.06
2024 H 48.83503804497593 94.03995125234452 10.249139027257911 H 0.0 **** 0.06
2025 H 50.177188547665025 94.61505171508009 11.267908218457904 H 0.0 **** 0.06
2026 C 82.03125878094295 36.73120414470236 78.75685233240283 C 0.0 **** -0.24
2027 H 82.42871468439257 37.74613090714274 78.74252935576158 H 0.0 **** 0.06
2028 H 81.03182594138904 36.738549622830135 79.19269260067553 H 0.0 **** 0.06
2029 H 82.68427992638219 36.09413798984974 79.35376001777126 H 0.0 **** 0.06
2030 H 81.98138164272375 36.347151085867324 77.73787186312374 H 0.0 **** 0.06
2031 C 134.51010323266087 121.08916067363585 60.13208325779084 C 0.0 **** -0.24
2032 H 134.3293597517058 122.10514144981586 59.78033825909172 H 0.0 **** 0.06
2033 H 134.28457037012635 120.38298715355289 59.3315224326615 H 0.0 **** 0.06
2034 H 133.8703809890904 120.88268983073739 60.9902848205809 H 0.0 **** 0.06
2035 H 135.55450100639433 120.98602509094893 60.42365821917416 H 0.0 **** 0.06
2036 C 142.76200077881577 15.850817551766397 153.46258729720046 C 0.0 **** -0.24
2037 H 142.08199318331322 15.275779971723466 152.83328676878415 H 0.0 **** 0.06
2038 H 143.6689559702333 15.271705147682496 153.64002691587723 H 0.0 **** 0.06
2039 H 142.27807108419444 16.068834027538998 154.41487010864705 H 0.0 **** 0.06
2040 H 143.01832164347036 16.784774226317722 152.96307333790412 H 0.0 **** 0.06
2041 C 8.496648116951263 105.80411726972476 133.1744253491682 C 0.0 **** -0.24
2042 H 9.159083389857216 104.9405034982092 133.11729017795892 H 0.0 **** 0.06
2043 H 7.5415352114548 105.56096504002436 132.70776054892934 H 0.0 **** 0.06
2044 H 8.951906324736626 106.6465659898253 132.65375963265652 H 0.0 **** 0.06
2045 H 8.333848301073488 106.06771880057177 134.21955411150282 H 0.0 **** 0.06
2046 C 25.572505248125907 41.84526584542026 11.699791358113103 C 0.0 **** -0.24
2047 H 25.204851666919467 42.28811848427719 12.625197777644004 H 0.0 **** 0.06
2048 H 26.66172506745525 41.79117111580777 11.729618950505106 H 0.0 **** 0.06
2049 H 25.262036690589042 42.45946020122973 10.854475889313584 H 0.0 **** 0.06
2050 H 25.16157614491749 40.84094650562663 11.589552263241579 H 0.0 **** 0.06
2051 C 56.00045229499521 70.23859823490308 81.78121472020328 C 0.0 **** -0.24
2052 H 56.19807764317396 70.06685722078285 80.72342225639022 H 0.0 **** 0.06
2053 H 55.07027863489621 69.74502285401437 82.06300361484361 H 0.0 **** 0.06
2054 H 55.91460566401669 71.3093021469082 81.96546223718134 H 0.0 **** 0.06
2055 H 56.82092739128714 69.83355425009876 82.37421782604251 H 0.0 **** 0.06
2056 C 8.008164747943908 102.59478298226507 106.05863925663927 C 0.0 **** -0.24
2057 H 7.368464670215474 103.45664094188676 105.87003299399014 H 0.0 **** 0.06
2058 H 8.349476618273997 102.18149569722941 105.11016444975841 H 0.0 **** 0.06
2059 H 7.4453960119140845 101.83712581604392 106.60501154499603 H 0.0 **** 0.06
2060 H 8.869745733013957 102.90466776021454 106.65139329828365 H 0.0 **** 0.06
2061 C 146.11266729181693 20.942463168349768 138.44262528691817 C 0.0 **** -0.24
2062 H 146.59607299330568 19.96894287113429 138.36270770297756 H 0.0 **** 0.06
2063 H 146.86062136146555 21.701534444673754 138.6745373838769 H 0.0 **** 0.06
2064 H 145.3660248618046 20.91347369260796 139.23735066194152 H 0.0 **** 0.06
2065 H 145.62720832703937 21.18605820254097 137.49800912250402 H 0.0 **** 0.06
2066 C 38.20379640009665 37.54729517008488 54.06827302066074 C 0.0 **** -0.24
2067 H 37.13480899474614 37.41821254134666 53.897520896545075 H 0.0 **** 0.06
2068 H 38.74619259608467 36.71692265853447 53.618122520719794 H 0.0 **** 0.06
2069 H 38.39980743342316 37.57256467249937 55.13988898541362 H 0.0 **** 0.06
2070 H 38.53243057812959 38.48371611394769 53.616456582323394 H 0.0 **** 0.06
2071 C 46.10138220513454 121.47011204474882 88.74281927247421 C 0.0 **** -0.24
2072 H 46.33380128321613 120.81675085747776 87.90181736710764 H 0.0 **** 0.06
2073 H 46.95613094850779 122.11475495314181 88.94877022012622 H 0.0 **** 0.06
2074 H 45.880885021901776 120.86486609637888 89.62269996821885 H 0.0 **** 0.06
2075 H 45.2339534890977 122.08347545001988 88.49824323412582 H 0.0 **** 0.06
2076 C 124.73109919371775 92.41099533815097 0.9998442797901532 C 0.0 **** -0.24
2077 H 124.17604398695165 92.37464665730842 1.937366636942329 H 0.0 **** 0.06
2078 H 124.95610389869374 91.39617252380447 0.6715072339821688 H 0.0 **** 0.06
2079 H 125.66111033272331 92.95936413749929 1.149789645290582 H 0.0 **** 0.06
2080 H 124.13046219104687 92.913590846261 0.2419382123175069 H 0.0 **** 0.06
2081 C 63.70958048089342 136.8760397102129 152.25704838513113 C 0.0 **** -0.24
2082 H 63.8064985744589 136.60240891815593 151.20602423202104 H 0.0 **** 0.06
2083 H 62.75239531854072 136.52172363848192 152.63865726012747 H 0.0 **** 0.06
2084 H 63.76171172918795 137.96045221872933 152.35553962365066 H 0.0 **** 0.06
2085 H 64.51999469221299 136.42030165290026 152.82590363829644 H 0.0 **** 0.06
2086 C 27.470341951918698 25.083026263303395 47.56830545255556 C 0.0 **** -0.24
2087 H 27.386884452104283 25.022823644653016 48.65312209106412 H 0.0 **** 0.06
2088 H 26.484314086016752 24.96319627715974 47.119843100742344 H 0.0 **** 0.06
2089 H 28.130702394342165 24.2923145322531 47.21023316715946 H 0.0 **** 0.06
2090 H 27.881756347048167 26.053395262755892 47.289237552661746 H 0.0 **** 0.06
2091 C 105.30513311760171 87.91573497935845 109.7022040338809 C 0.0 **** -0.24
2092 H 104.7289098252179 87.9880550105544 108.77976422375413 H 0.0 **** 0.06
2093 H 105.45450367577581 86.86569558466861 109.95487654465514 H 0.0 **** 0.06
2094 H 104.7623760920323 88.41051518319287 110.50827789289436 H 0.0 **** 0.06
2095 H 106.27255128459655 88.39921768928367 109.56494791143906 H 0.0 **** 0.06
2096 C 149.35633031144283 137.13024408060858 0.18192205403084927 C 0.0 **** -0.24
2097 H 149.75079654520812 137.17754974291557 -0.8330095841192815 H 0.0 **** 0.06
2098 H 148.302269339129 136.85396646280998 0.1493670789249677 H 0.0 **** 0.06
2099 H 149.46274049727313 138.10404506512992 0.6586747645467312 H 0.0 **** 0.06
2100 H 149.91068718573516 136.38376562204053 0.7517045330629912 H 0.0 **** 0.06
2101 C 39.050726982129575 6.300892355762301 95.8500927203962 C 0.0 **** -0.24
2102 H 39.91123677423215 6.542520273360196 95.22670239496648 H 0.0 **** 0.06
2103 H 38.6745791938977 5.313305762570906 95.58269930180253 H 0.0 **** 0.06
2104 H 38.26777860241988 7.043678938102971 95.69197045040053 H 0.0 **** 0.06
2105 H 39.349481880164134 6.305315246668897 96.89836063520771 H 0.0 **** 0.06
2106 C 138.26782633254805 144.37049166336942 70.73395601517889 C 0.0 **** -0.24
2107 H 139.13018298017062 144.9864824237051 70.48191629895608 H 0.0 **** 0.06
2108 H 138.23226624221383 143.5051158417699 70.07195688560057 H 0.0 **** 0.06
2109 H 137.35579876485048 144.95596343755986 70.61435997178116 H 0.0 **** 0.06
2110 H 138.35007775923077 144.0347199881502 71.7674388352954 H 0.0 **** 0.06
2111 C 11.057288859208711 97.91480197838396 135.1787338406259 C 0.0 **** -0.24
2112 H 11.919654207009671 98.43068023241287 134.75639356621377 H 0.0 **** 0.06
2113 H 11.116204497280478 96.85311300192255 134.93697948516353 H 0.0 **** 0.06
2114 H 10.142590809513024 98.33345293337035 134.75980364906215 H 0.0 **** 0.06
2115 H 11.05335609776239 98.04146506879073 136.2609041761292 H 0.0 **** 0.06
2116 C 60.2721211832944 105.59683769273333 73.6623530456414 C 0.0 **** -0.24
2117 H 60.17318151151642 105.74221076728462 74.73816682505384 H 0.0 **** 0.06
2118 H 60.66906214472225 106.50567678156649 73.20887086248365 H 0.0 **** 0.06
2119 H 59.295157278327295 105.37432883754794 73.2345879566341 H 0.0 **** 0.06
2120 H 60.95161865555035 104.7677501087254 73.4687204417121 H 0.0 **** 0.06
2121 C 91.68330221214896 46.961466857790015 34.6554627088413 C 0.0 **** -0.24
2122 H 92.14811095261211 47.930758789423834 34.83925252854925 H 0.0 **** 0.06
2123 H 90.96876790440608 46.74538908760525 35.44974149628723 H 0.0 **** 0.06
2124 H 92.45154241146278 46.18872864128936 34.63621946347786 H 0.0 **** 0.06
2125 H 91.1658388268463 46.98379837302181 33.69675284854037 H 0.0 **** 0.06
2126 C 131.66103410099254 49.932948592117526 86.2232933150799 C 0.0 **** -0.24
2127 H 132.21300054810624 50.71101337329894 86.75062708946258 H 0.0 **** 0.06
2128 H 131.8806483022306 49.99075317659059 85.15681643716943 H 0.0 **** 0.06
2129 H 130.5919339799834 50.07354048684195 86.38201796978134 H 0.0 **** 0.06
2130 H 131.959281313546 48.95508600635168 86.60299987946873 H 0.0 **** 0.06
2131 C 130.89748206972652 70.55003517538549 135.27297144814912 C 0.0 **** -0.24
2132 H 130.63574820347054 69.55823863813143 135.64214172645947 H 0.0 **** 0.06
2133 H 131.6759825727027 70.46144960335923 134.5152186954129 H 0.0 **** 0.06
2134 H 131.26134000467113 71.16079710025302 136.0991826460895 H 0.0 **** 0.06
2135 H 130.0155171608889 71.01922528062542 134.8352063675005 H 0.0 **** 0.06
2136 C 129.15272603246916 109.38880787470647 111.44948987369919 C 0.0 **** -0.24
2137 H 129.6818897486633 109.03756361021966 110.5631169669385 H 0.0 **** 0.06
2138 H 128.08846965494905 109.47373626643444 111.22781165795713 H 0.0 **** 0.06
2139 H 129.54323356834513 110.36290927353541 111.74352727158252 H 0.0 **** 0.06
2140 H 129.29844969317674 108.67848556138811 112.26402196915241 H 0.0 **** 0.06
2141 C 16.034571541325477 16.84664430713576 97.21966728824952 C 0.0 **** -0.24
2142 H 15.962017307945985 16.00104076404932 96.5348985400486 H 0.0 **** 0.06
2143 H 15.23743140404892 17.55788136965333 97.00262783769872 H 0.0 **** 0.06
2144 H 17.001125399671082 17.334716725871658 97.09286177703831 H 0.0 **** 0.06
2145 H 15.93762242406379 16.492340609816722 98.24551786395367 H 0.0 **** 0.06
2146 C 101.20406069432386 60.121151290493074 80.41869377174442 C 0.0 **** -0.24
2147 H 100.85616978263033 59.76109495207368 81.38711105306595 H 0.0 **** 0.06
2148 H 101.03894957478144 59.35239143174019 79.66420039888794 H 0.0 **** 0.06
2149 H 102.26780147253578 60.35010271437987 80.47782457946789 H 0.0 **** 0.06
2150 H 100.6536518726324 61.021878285343504 80.14710460014012 H 0.0 **** 0.06
2151 C 95.34636217683811 34.76108680084393 111.27661413170017 C 0.0 **** -0.24
2152 H 96.39799322893401 34.52776251065814 111.10927738842537 H 0.0 **** 0.06
2153 H 95.26275348622076 35.73842740218245 111.7526547072793 H 0.0 **** 0.06
2154 H 94.90518860028783 34.00242336270169 111.92299121279905 H 0.0 **** 0.06
2155 H 94.82199404641358 34.774417028221734 110.32119797354665 H 0.0 **** 0.06
2156 C 143.1527340242246 110.02513631396427 2.99543111262426 C 0.0 **** -0.24
2157 H 143.03151599964235 110.36282734046365 4.024274931880797 H 0.0 **** 0.06
2158 H 143.6449308125567 109.0524715093763 2.9878035315826423 H 0.0 **** 0.06
2159 H 143.76008679254898 110.74435725922855 2.447168881863604 H 0.0 **** 0.06
2160 H 142.17440249215036 109.94088914678854 2.522477105170111 H 0.0 **** 0.06
2161 C 97.04518322008744 114.72255328144115 155.88835887503814 C 0.0 **** -0.24
2162 H 97.35842415568698 115.62741420858157 155.36771457673365 H 0.0 **** 0.06
2163 H 95.97154098076646 114.58265630910114 155.75866738504146 H 0.0 **** 0.06
2164 H 97.27376752045373 114.81710857461786 156.94922368129966 H 0.0 **** 0.06
2165 H 97.57537236467732 113.86418190315055 155.47640414100425 H 0.0 **** 0.06
2166 C 6.8882262573008575 70.45427249621268 79.83990108714518 C 0.0 **** -0.24
2167 H 6.394684836513676 70.81232923499617 80.74286779606547 H 0.0 **** 0.06
2168 H 6.160954346958832 70.38447950483717 79.03107961480339 H 0.0 **** 0.06
2169 H 7.318878337793009 69.46996801322351 80.02710467257361 H 0.0 **** 0.06
2170 H 7.68031883373984 71.14883926799111 79.55823984450362 H 0.0 **** 0.06
2171 C 54.35961985242581 72.93637196010049 144.7206174906566 C 0.0 **** -0.24
2172 H 54.89985534165464 72.90726967625153 143.77455706327424 H 0.0 **** 0.06
2173 H 54.35921603922303 73.95629270615638 145.10724681242027 H 0.0 **** 0.06
2174 H 54.848172419934954 72.27618727211048 145.43794396414665 H 0.0 **** 0.06
2175 H 53.332442528033525 72.60630533247902 144.5631930325655 H 0.0 **** 0.06
2176 C 68.58893669556882 142.71463381139293 80.1281677844859 C 0.0 **** -0.24
2177 H 69.12138374896851 142.31478936524084 80.99138574010006 H 0.0 **** 0.06
2178 H 67.57405835074078 142.31786148745374 80.11127619313085 H 0.0 **** 0.06
2179 H 69.10881378658013 142.4237045136115 79.21550102299572 H 0.0 **** 0.06
2180 H 68.55369244993409 143.8022926011401 80.19557619355722 H 0.0 **** 0.06
2181 C 14.93293711858081 73.34097887921865 89.5399140701434 C 0.0 **** -0.24
2182 H 14.795908742123345 73.72770105041894 88.52969534011862 H 0.0 **** 0.06
2183 H 14.367533010165516 72.41602068408395 89.65475401430707 H 0.0 **** 0.06
2184 H 14.578737385480565 74.07671404023989 90.2616868740951 H 0.0 **** 0.06
2185 H 15.990952758193487 73.1429517470832 89.71262146235513 H 0.0 **** 0.06
2186 C 11.929356988529094 17.11292361285927 80.80020818560273 C 0.0 **** -0.24
2187 H 10.878272380798336 17.22892574684105 81.06639300017981 H 0.0 **** 0.06
2188 H 12.553429774139815 17.467885290402727 81.62041306245189 H 0.0 **** 0.06
2189 H 12.142467879881664 17.69495665283636 79.90249218175376 H 0.0 **** 0.06
2190 H 12.141956165469303 16.060873953506643 80.60998258734716 H 0.0 **** 0.06
2191 C 96.30063632072907 10.231468804157714 72.24084672890149 C 0.0 **** -0.24
2192 H 95.71373341946664 10.569423100062721 71.38648113624129 H 0.0 **** 0.06
2193 H 96.36868900178928 9.142957482001577 72.22657588652447 H 0.0 **** 0.06
2194 H 95.81700960115523 10.552660665069169 73.1631333663695 H 0.0 **** 0.06
2195 H 97.30145941119497 10.659365060756329 72.18686903247288 H 0.0 **** 0.06
2196 C 17.172491667037484 43.390913430093946 51.65879453388061 C 0.0 **** -0.24
2197 H 17.427452401103523 44.145996942761315 50.91520621813328 H 0.0 **** 0.06
2198 H 18.06963885635392 43.10922043447263 52.21206094387199 H 0.0 **** 0.06
2199 H 16.76383112432719 42.51240437831052 51.159376791899206 H 0.0 **** 0.06
2200 H 16.431962251551347 43.79549204779332 52.34809343031276 H 0.0 **** 0.06
2201 C 79.84691515733815 113.60308306789919 19.807567444381867 C 0.0 **** -0.24
2202 H 80.69906078560864 113.323396699468 20.426218397798316 H 0.0 **** 0.06
2203 H 79.4309454767069 112.71076527760594 19.338931250347066 H 0.0 **** 0.06
2204 H 80.17137875512756 114.30071666677408 19.03553998176855 H 0.0 **** 0.06
2205 H 79.08589618533303 114.07602484583167 20.427626992984663 H 0.0 **** 0.06
2206 C 89.96674355353514 85.82688659415658 81.03158369664806 C 0.0 **** -0.24
2207 H 90.48004479626039 84.97330980227866 81.47397623190534 H 0.0 **** 0.06
2208 H 90.37461187226222 86.75023195017263 81.44456977878488 H 0.0 **** 0.06
2209 H 88.9020025085656 85.76706644137136 81.25731745792137 H 0.0 **** 0.06
2210 H 90.10944380768527 85.81738009453778 79.95149393154816 H 0.0 **** 0.06
2211 C 76.63683445525396 32.6772358740013 139.27447459252863 C 0.0 **** -0.24
2212 H 76.28101059094986 31.963791784349027 140.01710138118284 H 0.0 **** 0.06
2213 H 76.00703841640156 32.61968235798911 138.38535970078203 H 0.0 **** 0.06
2214 H 77.66692867203267 32.439147144160856 139.00596315855972 H 0.0 **** 0.06
2215 H 76.59245998010799 33.685098214491155 139.68760543185317 H 0.0 **** 0.06
2216 C 129.48190264945532 152.78833557754533 17.233924217086027 C 0.0 **** -0.24
2217 H 130.10748726239723 153.45258961537124 17.82952484771338 H 0.0 **** 0.06
2218 H 128.55415744215554 153.29974136640467 16.97469330782768 H 0.0 **** 0.06
2219 H 129.2551857112021 151.89081396466784 17.808765962411307 H 0.0 **** 0.06
2220 H 130.01115357671893 152.5118567827107 16.32238563763657 H 0.0 **** 0.06
2221 C 19.382429134212572 68.48153030214553 105.90595238044612 C 0.0 **** -0.24
2222 H 19.226142624356726 68.61571437229452 104.83600901551002 H 0.0 **** 0.06
2223 H 18.682333708964507 69.1101367496181 106.45674818546358 H 0.0 **** 0.06
2224 H 20.403579810425242 68.76287974102144 106.16297855894784 H 0.0 **** 0.06
2225 H 19.2165351887906 67.43681438085616 106.16870798966976 H 0.0 **** 0.06
2226 C 123.36301151715215 77.50683142730315 71.57013710801982 C 0.0 **** -0.24
2227 H 123.08684499990825 78.47789467798805 71.9802991104516 H 0.0 **** 0.06
2228 H 122.57381753245674 76.78508639044549 71.78306822193565 H 0.0 **** 0.06
2229 H 124.29496373577935 77.17165564915979 72.02468183743497 H 0.0 **** 0.06
2230 H 123.49531519454364 77.59332547923668 70.49188705773827 H 0.0 **** 0.06
2231 C 17.030117181747812 100.41001288983205 93.22651275111033 C 0.0 **** -0.24
2232 H 17.166303174033857 100.42578627473034 92.14485926286805 H 0.0 **** 0.06
2233 H 17.841691153974182 100.96066722931357 93.70222291431418 H 0.0 **** 0.06
2234 H 17.0354970547273 99.37831266025421 93.5780043731542 H 0.0 **** 0.06
2235 H 16.077950987139644 100.87489763219793 93.47898915102182 H 0.0 **** 0.06
2236 C 28.894012032110155 146.1840849990507 54.00440117293263 C 0.0 **** -0.24
2237 H 29.51942137871658 146.94867936929074 54.46517689682406 H 0.0 **** 0.06
2238 H 28.01384876451084 146.6518763703968 53.56320560572152 H 0.0 **** 0.06
2239 H 28.582143557645402 145.4651985077586 54.7624123574592 H 0.0 **** 0.06
2240 H 29.461497621486238 145.67051515533296 53.22792785584301 H 0.0 **** 0.06
2241 C 123.36522696995961 37.215240024525 13.521769529642022 C 0.0 **** -0.24
2242 H 122.59069693142645 36.66242533642853 14.052720364051929 H 0.0 **** 0.06
2243 H 123.10170794774415 37.287402658165846 12.466738279613644 H 0.0 **** 0.06
2244 H 124.31788460034981 36.69381461607881 13.623924859956105 H 0.0 **** 0.06
2245 H 123.45272662086909 38.21609586561483 13.943946093679301 H 0.0 **** 0.06
2246 C 66.18243399359899 29.780199178187388 61.95200590012553 C 0.0 **** -0.24
2247 H 66.46125896320859 29.48326667702355 62.96324989192891 H 0.0 **** 0.06
2248 H 65.1283824142193 30.05952005052046 61.93403841436822 H 0.0 **** 0.06
2249 H 66.3500837846398 28.948262403682776 61.26933294610956 H 0.0 **** 0.06
2250 H 66.79010064948297 30.63182262773421 61.643567158815245 H 0.0 **** 0.06
2251 C 34.52069935633813 18.672878650676495 128.2796297574563 C 0.0 **** -0.24
2252 H 34.84551933482146 17.66950860772681 128.55276922599637 H 0.0 **** 0.06
2253 H 33.49068923485862 18.821778061207596 128.60434009012363 H 0.0 **** 0.06
2254 H 34.58277200211302 18.793561612525878 127.19854592640847 H 0.0 **** 0.06
2255 H 35.16364093545491 19.407229635936034 128.76524116498626 H 0.0 **** 0.06
2256 C 12.043414886510533 118.7355933078209 66.33098711342944 C 0.0 **** -0.24
2257 H 11.778639095547248 119.78007811433575 66.16190136372177 H 0.0 **** 0.06
2258 H 13.05988773514261 118.55804279742206 65.98024586378494 H 0.0 **** 0.06
2259 H 11.352614533859736 118.09322240251554 65.78543221841932 H 0.0 **** 0.06
2260 H 11.981979253384964 118.51396979833855 67.39611026618894 H 0.0 **** 0.06
2261 C 94.6856458343216 107.00205444951774 71.71433665480318 C 0.0 **** -0.24
2262 H 95.36691924272893 107.20547117912804 72.54010649293718 H 0.0 **** 0.06
2263 H 93.6922359677755 107.37539971759094 71.9624350408793 H 0.0 **** 0.06
2264 H 94.63716810818656 105.92709295744714 71.54008575323803 H 0.0 **** 0.06
2265 H 95.04695418036957 107.49963972166103 70.81434396165348 H 0.0 **** 0.06
2266 C 0.5125702084945942 121.0687533033075 148.7301042943932 C 0.0 **** -0.24
2267 H -0.29799729881682424 121.08946019966776 148.00213988034812 H 0.0 **** 0.06
2268 H 1.457699809258088 121.27157570537868 148.22664746936013 H 0.0 **** 0.06
2269 H 0.5540215058779836 120.08564171710164 149.19864037486445 H 0.0 **** 0.06
2270 H 0.33691651567423264 121.82740250840378 149.49298688321488 H 0.0 **** 0.06
2271 C 155.72219351399286 11.11134375706547 2.5675323719310654 C 0.0 **** -0.24
2272 H 155.47046636940837 11.574305600026861 3.5218700791270408 H 0.0 **** 0.06
2273 H 155.7172626536851 11.870816928616108 1.7843000116722436 H 0.0 **** 0.06
2274 H 154.98767875597255 10.341576369438485 2.332307188526073 H 0.0 **** 0.06
2275 H 156.71273389914614 10.661583316435554 2.6320377721343 H 0.0 **** 0.06
2276 C 33.744376933962286 112.71852142723941 11.086503839262804 C 0.0 **** -0.24
2277 H 34.832992401376174 112.70838847989074 11.031083954637012 H 0.0 **** 0.06
2278 H 33.328616240460434 112.43607256710567 10.11886217713402 H 0.0 **** 0.06
2279 H 33.40353056323718 113.71995476022056 11.350719142976516 H 0.0 **** 0.06
2280 H 33.41239854729989 112.01064660872021 11.845562626495678 H 0.0 **** 0.06
2281 C 29.012296758135733 153.62213617126523 70.81455239559759 C 0.0 **** -0.24
2282 H 28.203863444537717 153.69158149941356 70.08748117508698 H 0.0 **** 0.06
2283 H 29.333317669816523 154.62445325994915 71.0972566283692 H 0.0 **** 0.06
2284 H 29.85149134910438 153.08293348197336 70.37443583315213 H 0.0 **** 0.06
2285 H 28.662073582794903 153.0893554907343 71.69831431313679 H 0.0 **** 0.06
2286 C 11.06926035534265 79.242691182364 59.087422065314485 C 0.0 **** -0.24
2287 H 11.032564965993409 79.26076467242015 57.998282284661954 H 0.0 **** 0.06
2288 H 10.585809144445143 78.3351964076948 59.45158808493419 H 0.0 **** 0.06
2289 H 10.549572286955588 80.1149340513874 59.483115556629656 H 0.0 **** 0.06
2290 H 12.108186673546491 79.25771831402632 59.41596269170074 H 0.0 **** 0.06
2291 C 153.24936967606783 98.05877131401006 66.7185333012438 C 0.0 **** -0.24
2292 H 152.73200263463832 98.962740315999 67.04211189367801 H 0.0 **** 0.06
2293 H 154.0535205601443 98.32800608247999 66.03273835348546 H 0.0 **** 0.06
2294 H 152.54474441588076 97.39984163281537 66.21168660649926 H 0.0 **** 0.06
2295 H 153.6659508238128 97.5477287367654 67.58619296048724 H 0.0 **** 0.06
2296 C 77.00830986200344 53.96944487601904 112.78095719365774 C 0.0 **** -0.24
2297 H 77.6453530044027 53.672260211420735 113.6145554248655 H 0.0 **** 0.06
2298 H 75.98889745616515 53.6313773661082 112.96388980232331 H 0.0 **** 0.06
2299 H 77.38135908749169 53.51819233795277 111.86113921276518 H 0.0 **** 0.06
2300 H 77.0199601125076 55.055248663872774 112.68452542058736 H 0.0 **** 0.06
2301 C 132.08357347527286 60.53107163231027 12.825407352358468 C 0.0 **** -0.24
2302 H 131.5158350352619 60.98689711409361 12.013963651686424 H 0.0 **** 0.06
2303 H 132.01684107174077 59.44517215127098 12.74892977851789 H 0.0 **** 0.06
2304 H 131.6741242494304 60.854675103125146 13.782519575101787 H 0.0 **** 0.06
2305 H 133.12809080338658 60.83646358152066 12.754350898404539 H 0.0 **** 0.06
2306 C 96.16389963228863 108.2702617689631 5.967907958694241 C 0.0 **** -0.24
2307 H 97.15766880981334 107.84404001567619 6.103264866032248 H 0.0 **** 0.06
2308 H 95.4133935410353 107.56210553998393 6.317733631755459 H 0.0 **** 0.06
2309 H 96.0012609958938 108.48129206810198 4.911302291934533 H 0.0 **** 0.06
2310 H 96.08562225311698 109.19595046064374 6.539437328183709 H 0.0 **** 0.06
2311 C 77.74567272295701 63.775621427282616 72.44280113968216 C 0.0 **** -0.24
2312 H 77.9095055206925 62.97249503317762 73.16170551388223 H 0.0 **** 0.06
2313 H 76.73440636627004 64.16646427674786 72.5592782732578 H 0.0 **** 0.06
2314 H 77.87309642955722 63.389544973996564 71.43191251450446 H 0.0 **** 0.06
2315 H 78.46650643237007 64.5742095871936 72.62118392997905 H 0.0 **** 0.06
2316 C 16.69297213586475 55.69865029313465 36.0052454301199 C 0.0 **** -0.24
2317 H 17.12355098151989 55.44492650388969 36.97327937952386 H 0.0 **** 0.06
2318 H 16.875289936998584 54.88573556352314 35.30258013050499 H 0.0 **** 0.06
2319 H 17.1530702248268 56.61321383066496 35.630752487775155 H 0.0 **** 0.06
2320 H 15.618685257346705 55.85027522047345 36.114727330808606 H 0.0 **** 0.06
2321 C 39.745065413796084 123.51242404210443 101.323881504663 C 0.0 **** -0.24
2322 H 38.87778131017106 123.9548496142149 100.83544162554006 H 0.0 **** 0.06
2323 H 40.168044460198274 124.22718803697113 102.03085030021685 H 0.0 **** 0.06
2324 H 40.493542258051264 123.25699333526664 100.5734774442601 H 0.0 **** 0.06
2325 H 39.4418321159049 122.61050614671355 101.85606320771637 H 0.0 **** 0.06
2326 C 16.155944289529543 55.26437563878625 131.79684248763607 C 0.0 **** -0.24
2327 H 15.971814403618225 56.29209859960092 132.11001715945756 H 0.0 **** 0.06
2328 H 16.818916994129637 54.779478592593605 132.51292537168138 H 0.0 **** 0.06
2329 H 16.621605981132035 55.263589732909224 130.81113398400743 H 0.0 **** 0.06
2330 H 15.21034573392322 54.72350228060766 131.75173069611938 H 0.0 **** 0.06
2331 C 91.19306622062413 103.05585058248109 149.9931991235609 C 0.0 **** -0.24
2332 H 90.95580951260933 103.65761981828122 149.11583904077284 H 0.0 **** 0.06
2333 H 91.20578173749948 102.00119777945635 149.71686151297297 H 0.0 **** 0.06
2334 H 90.43986875329821 103.22115171932639 150.7629904923011 H 0.0 **** 0.06
2335 H 92.17244979083469 103.343488201055 150.37559171692527 H 0.0 **** 0.06
2336 C 154.4566753335744 83.56524304561418 3.4777709993040844 C 0.0 **** -0.24
2337 H 155.01518260680734 82.65863749853511 3.71024610016309 H 0.0 **** 0.06
2338 H 153.58730683469423 83.63367335406915 4.131092781767023 H 0.0 **** 0.06
2339 H 154.12869988743822 83.53333573929089 2.4379067003498562 H 0.0 **** 0.06
2340 H 155.09564661919336 84.43487684054753 3.629894030010661 H 0.0 **** 0.06
2341 C 118.84629487309765 33.2283419965651 35.59083220060603 C 0.0 **** -0.24
2342 H 119.35721623705437 32.590435409252024 36.31275619283208 H 0.0 **** 0.06
2343 H 119.32097699201078 33.12333758841121 34.61445641127993 H 0.0 **** 0.06
2344 H 118.90849865406581 34.26690250145609 35.91603743230618 H 0.0 **** 0.06
2345 H 117.79996045974254 32.931038413175955 35.52038684638896 H 0.0 **** 0.06
2346 C 119.08662358560684 47.0505026269052 134.98519692888246 C 0.0 **** -0.24
2347 H 119.41662335331733 47.51627426440285 134.05640490751668 H 0.0 **** 0.06
2348 H 119.80878328221235 46.291484517797215 135.28720781862074 H 0.0 **** 0.06
2349 H 118.1123836577458 46.58713445177412 134.83251707498104 H 0.0 **** 0.06
2350 H 119.01020134869441 47.809818918255786 135.76398002357692 H 0.0 **** 0.06
2351 C 114.46463754137248 45.29091087700398 37.16514223592961 C 0.0 **** -0.24
2352 H 114.20773191758322 45.4500633555957 38.21266964736827 H 0.0 **** 0.06
2353 H 115.1454494221362 44.44298898161303 37.08449273507284 H 0.0 **** 0.06
2354 H 114.94701547325941 46.18398216234695 36.7698248566453 H 0.0 **** 0.06
2355 H 113.55749405880071 45.08487050828238 36.596781655748146 H 0.0 **** 0.06
2356 C 57.41151844166603 109.45960900220915 5.132031366780893 C 0.0 **** -0.24
2357 H 57.72749231045556 110.49715398020989 5.019957150780044 H 0.0 **** 0.06
2358 H 57.02077372274586 109.30712528956265 6.138498444896754 H 0.0 **** 0.06
2359 H 58.264018994499 108.80056648992779 4.969349383040992 H 0.0 **** 0.06
2360 H 56.63410374935964 109.23610192783805 4.4015824309346385 H 0.0 **** 0.06
2361 C 65.23302460178968 42.857896019824324 147.2533925789819 C 0.0 **** -0.24
2362 H 65.9560164323897 43.31002233576592 146.5741773772134 H 0.0 **** 0.06
2363 H 64.29122429157479 42.69886145205646 146.7277730704394 H 0.0 **** 0.06
2364 H 65.06831771520893 43.52114160229999 148.10259609528518 H 0.0 **** 0.06
2365 H 65.61778508250185 41.902163596382366 147.60931332818413 H 0.0 **** 0.06
2366 C 153.07706473589315 61.893055673916095 8.745998114539113 C 0.0 **** -0.24
2367 H 153.5277318084902 61.35864901387622 7.910040362382766 H 0.0 **** 0.06
2368 H 153.8203505817793 62.02859375690474 9.533068837392413 H 0.0 **** 0.06
2369 H 152.23759716502093 61.31827362307705 9.135273613599082 H 0.0 **** 0.06
2370 H 152.72522585035165 62.86765800408874 8.406654055728879 H 0.0 **** 0.06
2371 C 11.634368297687168 71.5634016839634 99.61269649301096 C 0.0 **** -0.24
2372 H 11.022662908319191 71.29700063465953 98.74991510959606 H 0.0 **** 0.06
2373 H 11.054611586841013 71.42385559669417 100.52573359710789 H 0.0 **** 0.06
2374 H 11.940719751983572 72.60591387110206 99.53211257985487 H 0.0 **** 0.06
2375 H 12.51830818307188 70.92560453315382 99.64157161579942 H 0.0 **** 0.06
2376 C 81.86592072950677 103.97410688968364 0.6973054967837129 C 0.0 **** -0.24
2377 H 81.11557472067216 104.33704685215645 1.4000103679350673 H 0.0 **** 0.06
2378 H 82.44188332103607 104.81716307402667 0.3144699383769023 H 0.0 **** 0.06
2379 H 81.37116551493651 103.46555651633821 -0.1299794945421695 H 0.0 **** 0.06
2380 H 82.53277125681151 103.27835114533985 1.205674418235958 H 0.0 **** 0.06
2381 C 110.92224273212041 33.47768103570423 140.83030529034232 C 0.0 **** -0.24
2382 H 111.94942254265452 33.22829673167451 140.5666601985907 H 0.0 **** 0.06
2383 H 110.2787371692147 32.61961097610411 140.6378578632925 H 0.0 **** 0.06
2384 H 110.5878054793696 34.32417486765909 140.22904025172807 H 0.0 **** 0.06
2385 H 110.8719382579212 33.740577338220945 141.88660763477282 H 0.0 **** 0.06
2386 C 38.882167993935695 141.2469755800206 62.9425126931575 C 0.0 **** -0.24
2387 H 38.790426289520525 140.17533532675606 63.1196377946866 H 0.0 **** 0.06
2388 H 37.90555649885846 141.718803178914 63.05257353439167 H 0.0 **** 0.06
2389 H 39.25749772626108 141.41712444346865 61.9334568846993 H 0.0 **** 0.06
2390 H 39.57615770219701 141.675749186977 63.66490602399172 H 0.0 **** 0.06
2391 C 135.53108207152033 131.48642903875566 148.75127842336826 C 0.0 **** -0.24
2392 H 136.49706899742125 131.16379280071578 148.36094031820483 H 0.0 **** 0.06
2393 H 135.1199592282696 130.7067902738575 149.3920826486366 H 0.0 **** 0.06
2394 H 134.84844852471372 131.67300504612427 147.921466066774 H 0.0 **** 0.06
2395 H 135.66103097395396 132.4019365394676 149.32813192309595 H 0.0 **** 0.06
2396 C 97.73615303152599 110.62402797438256 144.83086730008728 C 0.0 **** -0.24
2397 H 97.32894865861601 110.02974244694053 145.64986549008216 H 0.0 **** 0.06
2398 H 97.63924580801142 111.68335319444071 145.0692509164249 H 0.0 **** 0.06
2399 H 97.18658406084518 110.40556451402551 143.9153628885957 H 0.0 **** 0.06
2400 H 98.78793573019743 110.37698314298262 144.69126560364492 H 0.0 **** 0.06
2401 C 139.91177429600748 104.51144977760049 70.23035146389361 C 0.0 **** -0.24
2402 H 139.7916436691934 105.59500293144788 70.25248505511843 H 0.0 **** 0.06
2403 H 140.6619883974865 104.21465466785156 70.9634947962513 H 0.0 **** 0.06
2404 H 140.23245498843903 104.20209116260304 69.23553750396326 H 0.0 **** 0.06
2405 H 138.9608623538898 104.03577549410323 70.46993468290464 H 0.0 **** 0.06
2406 C 105.17541398803998 114.35246909312644 67.11004045014215 C 0.0 **** -0.24
2407 H 106.19540425560585 114.16115744541787 67.44173962539705 H 0.0 **** 0.06
2408 H 105.18148389743494 114.62883081123448 66.05552490344087 H 0.0 **** 0.06
2409 H 104.75034808511681 115.1674544193616 67.69685354135986 H 0.0 **** 0.06
2410 H 104.57437171958189 113.45405234687479 67.24788162666047 H 0.0 **** 0.06
2411 C 149.74846351111307 108.01129842201699 61.27446958221236 C 0.0 **** -0.24
2412 H 148.7516752056662 107.84706534163733 60.86525418939762 H 0.0 **** 0.06
2413 H 149.83673198297421 107.4980005910095 62.23239635929781 H 0.0 **** 0.06
2414 H 149.91022123121283 109.0798549663363 61.41713362854853 H 0.0 **** 0.06
2415 H 150.49441915576426 107.6196671697911 60.58210273928526 H 0.0 **** 0.06
2416 C 9.48217444016359 91.75146072643889 9.716995235225397 C 0.0 **** -0.24
2417 H 10.098763631441955 92.25699141260262 8.97351344066459 H 0.0 **** 0.06
2418 H 8.62505625309808 92.3782291333253 9.964869145907414 H 0.0 **** 0.06
2419 H 10.072062115873734 91.5700277239003 10.61565383489554 H 0.0 **** 0.06
2420 H 9.133385338787718 90.80119169358389 9.313379599100529 H 0.0 **** 0.06
2421 C 145.40812908298534 113.48670528836539 57.25814004792906 C 0.0 **** -0.24
2422 H 144.80254154341304 114.2390339829924 56.75184273430952 H 0.0 **** 0.06
2423 H 145.34267829560275 113.63293833988303 58.33640845958669 H 0.0 **** 0.06
2424 H 146.44672460983776 113.58379235723191 56.94104523286025 H 0.0 **** 0.06
2425 H 145.041498732091 112.49275203638467 57.002138518461294 H 0.0 **** 0.06
2426 C 93.30721104576685 87.86037244842018 77.72875758131444 C 0.0 **** -0.24
2427 H 92.50590778495994 88.04113204831472 78.44454434431874 H 0.0 **** 0.06
2428 H 93.85866852912926 88.78621191078346 77.5604315453907 H 0.0 **** 0.06
2429 H 92.88228755272715 87.5151658619513 76.78637066522042 H 0.0 **** 0.06
2430 H 93.9829126395581 87.10168190636482 78.12277238660175 H 0.0 **** 0.06
2431 C 33.54967467436599 43.525685382779784 138.83933376923724 C 0.0 **** -0.24
2432 H 33.06548097918565 44.495226254909596 138.72900432700158 H 0.0 **** 0.06
2433 H 32.79163067387645 42.746684153692556 138.9170964244208 H 0.0 **** 0.06
2434 H 34.16350772535268 43.52708309005854 139.74140404466823 H 0.0 **** 0.06
2435 H 34.18114116777893 43.33478597708603 137.97171394988484 H 0.0 **** 0.06
2436 C 111.86484613498529 145.93634308104663 39.54155034968181 C 0.0 **** -0.24
2437 H 112.63395935899975 146.56491260761695 39.09440739696801 H 0.0 **** 0.06
2438 H 111.64203269891856 146.29433993202346 40.546846380241675 H 0.0 **** 0.06
2439 H 112.22078436382078 144.90667770861796 39.593221589309195 H 0.0 **** 0.06
2440 H 110.96173441914424 145.978340686462 38.931879838253494 H 0.0 **** 0.06
2441 C 156.51257634147115 115.51943407740553 10.109815454798536 C 0.0 **** -0.24
2442 H 156.45720177970574 115.24856088004437 9.055500967951104 H 0.0 **** 0.06
2443 H 157.38132820727802 115.03943568252502 10.562257123889765 H 0.0 **** 0.06
2444 H 155.60818164974683 115.18669661493682 10.61814670437468 H 0.0 **** 0.06
2445 H 156.6056241722998 116.60107726929103 10.20324324959438 H 0.0 **** 0.06
2446 C 107.20262234928605 89.52694370516122 34.970533641746215 C 0.0 **** -0.24
2447 H 106.87338467683871 90.5180722431835 34.65810532177781 H 0.0 **** 0.06
2448 H 107.2660831452282 89.49194944808022 36.058333170752874 H 0.0 **** 0.06
2449 H 108.18324393388762 89.31788527227775 34.54194108435212 H 0.0 **** 0.06
2450 H 106.48796485171876 88.78120072701881 34.6233208529043 H 0.0 **** 0.06
2451 C 59.69536595887298 140.59828328269964 87.16315383861593 C 0.0 **** -0.24
2452 H 59.86513178504697 141.14982748131882 88.0879317777148 H 0.0 **** 0.06
2453 H 58.625721788933376 140.43364436240194 87.02924684983267 H 0.0 **** 0.06
2454 H 60.207788444061606 139.63698602618814 87.21404087042308 H 0.0 **** 0.06
2455 H 60.08325576554358 141.17188502919328 86.32182858674226 H 0.0 **** 0.06
2456 C 119.03962198295517 26.308745908520933 34.34118243816974 C 0.0 **** -0.24
2457 H 118.6666261698025 27.122877258428133 33.72057555249586 H 0.0 **** 0.06
2458 H 119.84213420396276 26.677330261142544 34.97964337042305 H 0.0 **** 0.06
2459 H 119.4194761424319 25.51083644176981 33.703158168327434 H 0.0 **** 0.06
2460 H 118.22830878822197 25.92408338662699 34.96025461414416 H 0.0 **** 0.06
2461 C 83.79452038352076 76.28282966491348 132.0376481753511 C 0.0 **** -0.24
2462 H 84.40164091332718 75.42625097730783 132.33195636849803 H 0.0 **** 0.06
2463 H 82.9084932836829 76.33473811946764 132.67150084554592 H 0.0 **** 0.06
2464 H 83.49054902650686 76.1706770664317 130.9960763167246 H 0.0 **** 0.06
2465 H 84.37698791464052 77.19696195791832 132.14979708087776 H 0.0 **** 0.06
2466 C 127.20212975033729 18.319692106252703 102.45039126658247 C 0.0 **** -0.24
2467 H 127.50449706533436 17.56255757964894 101.72651765534289 H 0.0 **** 0.06
2468 H 127.43251576189977 19.310104785310102 102.05787033620857 H 0.0 **** 0.06
2469 H 127.74018688589632 18.164314173782607 103.38493118150228 H 0.0 **** 0.06
2470 H 126.12987114112343 18.24034693562804 102.63029262728452 H 0.0 **** 0.06
2471 C 142.6253979133964 118.06688932712389 6.94376604759853 C 0.0 **** -0.24
2472 H 141.87247128305785 118.75508427507533 6.558646718530994 H 0.0 **** 0.06
2473 H 143.57838467675305 118.58783310456234 7.03805015117441 H 0.0 **** 0.06
2474 H 142.7345176676322 117.22760493478079 6.257429224287705 H 0.0 **** 0.06
2475 H 142.31417943074763 117.69888395965678 7.9215905651724725 H 0.0 **** 0.06
2476 C 51.52075876605181 24.200077207177785 141.38281216652646 C 0.0 **** -0.24
2477 H 51.01050485906927 24.1557145547416 142.34479998609865 H 0.0 **** 0.06
2478 H 50.84640687708068 23.857811855855545 140.59800351403288 H 0.0 **** 0.06
2479 H 52.40256990261959 23.56034477236058 141.41023817627104 H 0.0 **** 0.06
2480 H 51.823889548628344 25.22742195620866 141.18018646359218 H 0.0 **** 0.06
2481 C 119.00011292558635 147.81148474313082 124.89066889870827 C 0.0 **** -0.24
2482 H 119.84072094496467 147.56528448568415 124.24218123395957 H 0.0 **** 0.06
2483 H 118.36907685424408 146.93082485935963 125.01754038571778 H 0.0 **** 0.06
2484 H 118.41652408231307 148.61493013017554 124.44113219746725 H 0.0 **** 0.06
2485 H 119.37433683711531 148.13400224265942 125.86221179167188 H 0.0 **** 0.06
2486 C 104.62490919109872 99.99697237264235 74.0151086717625 C 0.0 **** -0.24
2487 H 105.01281504584783 99.06631442561388 73.59969979009105 H 0.0 **** 0.06
2488 H 103.99975031008118 99.77471916116144 74.88056149612936 H 0.0 **** 0.06
2489 H 104.03200946450501 100.51269572998922 73.25947382846303 H 0.0 **** 0.06
2490 H 105.45648374658957 100.63220151217922 74.32032232282073 H 0.0 **** 0.06
2491 C 20.950458724605028 133.1084385897361 0.6053113667913976 C 0.0 **** -0.24
2492 H 21.471412894812204 133.61356345188818 1.41911006448791 H 0.0 **** 0.06
2493 H 21.60301140251073 132.349493147051 0.17331426055076804 H 0.0 **** 0.06
2494 H 20.682062058079225 133.83616912981574 -0.16095959325019749 H 0.0 **** 0.06
2495 H 20.047337572903984 132.6356109308192 0.9907148556895606 H 0.0 **** 0.06
2496 C 66.40517446073255 126.50953095950776 34.97821865436242 C 0.0 **** -0.24
2497 H 66.09135295070988 127.25913363813139 35.704014441547486 H 0.0 **** 0.06
2498 H 67.07050183221962 125.79272983034123 35.460678329160714 H 0.0 **** 0.06
2499 H 66.92887134995637 126.99704864598847 34.15605338042428 H 0.0 **** 0.06
2500 H 65.5283063467866 125.98832175705344 34.592787750033494 H 0.0 **** 0.06
2501 C 62.027452048651696 134.06659975705665 1.2860132338531116 C 0.0 **** -0.24
2502 H 62.59270706127836 133.13430849094578 1.280773328440091 H 0.0 **** 0.06
2503 H 60.962348017042444 133.8442742440954 1.3563585441924317 H 0.0 **** 0.06
2504 H 62.22396840487812 134.61573657665764 0.36524956056743463 H 0.0 **** 0.06
2505 H 62.329879431130166 134.67041118657636 2.1404897077423755 H 0.0 **** 0.06
2506 C 50.90392247081759 110.83222918813533 89.61941174239244 C 0.0 **** -0.24
2507 H 50.96636175412391 110.9548589476812 88.53788737083404 H 0.0 **** 0.06
2508 H 49.97587474305773 111.27473272804775 89.98172474434557 H 0.0 **** 0.06
2509 H 51.752514873331805 111.32895650363474 90.09040706978479 H 0.0 **** 0.06
2510 H 50.92162431613032 109.77081621312925 89.86474168253638 H 0.0 **** 0.06
2511 C 91.62153392007103 11.873914139454286 52.447283088552936 C 0.0 **** -0.24
2512 H 92.57558523666849 12.400975334328336 52.45131430022907 H 0.0 **** 0.06
2513 H 90.81128847444982 12.588846529197298 52.590847260234725 H 0.0 **** 0.06
2514 H 91.6081839229106 11.142076683343959 53.25444562458506 H 0.0 **** 0.06
2515 H 91.49227501176362 11.364489992600483 51.49234756980894 H 0.0 **** 0.06
2516 C 111.63781906656708 13.292134664346037 50.06657893278373 C 0.0 **** -0.24
2517 H 112.4397121428345 12.59570301870167 49.82246602197472 H 0.0 **** 0.06
2518 H 111.36012107920565 13.854093545324048 49.17456899391834 H 0.0 **** 0.06
2519 H 111.97738658602354 13.981389442054905 50.8399420002566 H 0.0 **** 0.06
2520 H 110.77199444243813 12.736521405728809 50.429578056836945 H 0.0 **** 0.06
2521 C 84.41776673938045 138.9318848951413 10.301279433954996 C 0.0 **** -0.24
2522 H 84.88501792730517 139.88373895390475 10.553396159096849 H 0.0 **** 0.06
2523 H 83.62211580556021 138.71752218222764 11.015337495707982 H 0.0 **** 0.06
2524 H 85.16487681549171 138.13883284987807 10.340185417487405 H 0.0 **** 0.06
2525 H 83.9996568915135 138.98824187255883 9.296272113093984 H 0.0 **** 0.06
2526 C 48.32821909156692 121.73966397025656 32.04359055429576 C 0.0 **** -0.24
2527 H 48.66774994092012 120.70838198594966 31.952668008559044 H 0.0 **** 0.06
2528 H 47.559180510600896 121.80211710429303 32.81393590494969 H 0.0 **** 0.06
2529 H 47.916443843160835 122.07213032839117 31.090932734380374 H 0.0 **** 0.06
2530 H 49.17008644492972 122.37542423345543 32.31736950003588 H 0.0 **** 0.06
2531 C 73.1698575097486 87.0573748555781 73.01643420304954 C 0.0 **** -0.24
2532 H 72.8127078891559 86.07852622439263 73.33398282275802 H 0.0 **** 0.06
2533 H 73.66984396085543 87.55003795168885 73.85074009133812 H 0.0 **** 0.06
2534 H 72.32479729563647 87.66385847551433 72.68964597637951 H 0.0 **** 0.06
2535 H 73.8720808933464 86.93707677071659 72.19136792172262 H 0.0 **** 0.06
2536 C 52.325469553033884 71.0196424980515 118.56955065971408 C 0.0 **** -0.24
2537 H 52.859569694273034 71.20709461893021 119.50092942527561 H 0.0 **** 0.06
2538 H 51.773060630105476 70.08266361045823 118.65090586401845 H 0.0 **** 0.06
2539 H 53.03960753798617 70.95116664803732 117.74903578369651 H 0.0 **** 0.06
2540 H 51.62959351045686 71.83693463571348 118.37945128007362 H 0.0 **** 0.06
2541 C 21.986735570442477 96.48930678568854 137.39765175447434 C 0.0 **** -0.24
2542 H 22.010538200040685 95.42487747553776 137.63401671228354 H 0.0 **** 0.06
2543 H 22.97024852599577 96.80687518751515 137.05275725632262 H 0.0 **** 0.06
2544 H 21.71368363330032 97.05266291441603 138.29038251385393 H 0.0 **** 0.06
2545 H 21.250154273962607 96.67030140393638 136.61402323620027 H 0.0 **** 0.06
2546 C 55.96146128627595 118.6711578517562 89.65359470331519 C 0.0 **** -0.24
2547 H 56.230078841022305 119.27803956246221 90.51825872456249 H 0.0 **** 0.06
2548 H 54.8974480713174 118.43607206719638 89.69225021772733 H 0.0 **** 0.06
2549 H 56.53842736494323 117.74639933249345 89.66557384135086 H 0.0 **** 0.06
2550 H 56.178847340447646 119.2239672057869 88.73999535260367 H 0.0 **** 0.06
2551 C 137.41623405659874 133.0451583975147 63.88348415440437 C 0.0 **** -0.24
2552 H 137.8780817400443 133.77732702918377 64.54637366689356 H 0.0 **** 0.06
2553 H 136.85401098469606 132.32249881783827 64.47630122101963 H 0.0 **** 0.06
2554 H 138.19216422760542 132.52727320028401 63.31904904924693 H 0.0 **** 0.06
2555 H 136.7423297395875 133.5530429231459 63.19395465318034 H 0.0 **** 0.06
2556 C 100.23404918509293 81.63221386327068 66.77803777513675 C 0.0 **** -0.24
2557 H 100.7358067455793 80.7026948006878 66.50843557701675 H 0.0 **** 0.06
2558 H 99.23867848621428 81.6492980178411 66.33229230070984 H 0.0 **** 0.06
2559 H 100.81238686465097 82.4778838102567 66.40791415780265 H 0.0 **** 0.06
2560 H 100.1477939546253 81.69703916243122 67.86213248864661 H 0.0 **** 0.06
2561 C 122.46233782465474 117.07031925828123 60.07729496023342 C 0.0 **** -0.24
2562 H 123.0233119630608 116.82345748856123 60.97891015980241 H 0.0 **** 0.06
2563 H 122.46722475443734 116.21415677452258 59.40168735566229 H 0.0 **** 0.06
2564 H 122.92393523512798 117.92502580680495 59.58528160823869 H 0.0 **** 0.06
2565 H 121.43460048515648 117.31639164387393 60.34527076051475 H 0.0 **** 0.06
2566 C 10.943755664407576 35.880109248876266 135.26202366833567 C 0.0 **** -0.24
2567 H 10.468303474607808 35.72951620892249 134.29278240604106 H 0.0 **** 0.06
2568 H 10.943233827852623 36.94290214663624 135.50608859329162 H 0.0 **** 0.06
2569 H 11.970797357558354 35.515717315906016 135.22286266443712 H 0.0 **** 0.06
2570 H 10.392923243611449 35.33090734363995 136.0264002913995 H 0.0 **** 0.06
2571 C 30.439740147516517 119.81952122526621 107.6755312880939 C 0.0 **** -0.24
2572 H 29.364605053520876 119.725409860649 107.52480228656235 H 0.0 **** 0.06
2573 H 30.70395555318845 120.873742669026 107.75963862036913 H 0.0 **** 0.06
2574 H 30.96564363028915 119.3793121554674 106.82843674374844 H 0.0 **** 0.06
2575 H 30.724470290337166 119.29953230763124 108.59020168867771 H 0.0 **** 0.06
2576 C 122.29455273707792 15.932116779868835 140.24709984105527 C 0.0 **** -0.24
2577 H 122.61523681597042 16.513969831423708 141.1112719429498 H 0.0 **** 0.06
2578 H 123.14645258557293 15.757978613116677 139.5894926397703 H 0.0 **** 0.06
2579 H 121.52365971974292 16.48137848768897 139.7065231064505 H 0.0 **** 0.06
2580 H 121.89150128363467 14.97656362336744 140.5825687085395 H 0.0 **** 0.06
2581 C 65.84686716818601 113.92334016136753 92.97894663541459 C 0.0 **** -0.24
2582 H 65.92245428393431 113.288317489661 92.0962759921264 H 0.0 **** 0.06
2583 H 65.04467629921851 113.557197434365 93.62207499321666 H 0.0 **** 0.06
2584 H 65.63002667989042 114.94676320541787 92.6734190007795 H 0.0 **** 0.06
2585 H 66.78976989622078 113.8991465799101 93.52499588043248 H 0.0 **** 0.06
2586 C 80.11642832508025 63.5586664384021 79.02930458324333 C 0.0 **** -0.24
2587 H 79.18364058161268 63.29037447982529 78.53615041908078 H 0.0 **** 0.06
2588 H 80.88265524189043 62.82157549450977 78.78510387368156 H 0.0 **** 0.06
2589 H 79.96384914299344 63.579444530176545 80.10862684881086 H 0.0 **** 0.06
2590 H 80.4380150049412 64.54298562306116 78.68904964903798 H 0.0 **** 0.06
2591 C 7.972700236702195 140.25912838891878 13.197750654163826 C 0.0 **** -0.24
2592 H 9.026125396562065 140.5292248246622 13.27464040785992 H 0.0 **** 0.06
2593 H 7.682391222259781 139.67649610752835 14.07216930668244 H 0.0 **** 0.06
2594 H 7.815011142350954 139.66664132415224 12.29624473875461 H 0.0 **** 0.06
2595 H 7.367870521288864 141.1647361676791 13.147399390469019 H 0.0 **** 0.06
2596 C 99.77765054018118 84.04387093655066 119.79930153070806 C 0.0 **** -0.24
2597 H 100.78979818382231 84.08699469326973 120.20242580836778 H 0.0 **** 0.06
2598 H 99.41091691441454 85.05686626356822 119.63247347944151 H 0.0 **** 0.06
2599 H 99.12618327182673 83.53331587834305 120.50859456194588 H 0.0 **** 0.06
2600 H 99.78533618867573 83.49979671496783 118.85547749864985 H 0.0 **** 0.06
2601 C 129.02757402808726 133.2607991614293 138.6465370487235 C 0.0 **** -0.24
2602 H 128.00458101257726 133.0638917057483 138.9672229012005 H 0.0 **** 0.06
2603 H 129.56490387069346 133.7768865974582 139.44333321459666 H 0.0 **** 0.06
2604 H 129.01461453623307 133.88550997806476 137.75386236436484 H 0.0 **** 0.06
2605 H 129.5268499139687 132.3179318078479 138.42447309926837 H 0.0 **** 0.06
2606 C 142.85682574285886 145.13468133841195 5.66508569055452 C 0.0 **** -0.24
2607 H 143.09089308115654 144.12059594768607 5.99034866140795 H 0.0 **** 0.06
2608 H 142.28816990433324 145.64338592792063 6.444568148591543 H 0.0 **** 0.06
2609 H 142.26523798232233 145.09561490791793 4.7510953367221305 H 0.0 **** 0.06
2610 H 143.7815372942805 145.67878975742104 5.476726464592446 H 0.0 **** 0.06
2611 C 59.53969827838149 40.458865038896846 22.80229735491389 C 0.0 **** -0.24
2612 H 58.878755789531965 39.790940726267564 23.354272712340958 H 0.0 **** 0.06
2613 H 59.0454041922372 41.420282951053835 22.657040068312995 H 0.0 **** 0.06
2614 H 59.77252285488585 40.01946614750639 21.832508722772218 H 0.0 **** 0.06
2615 H 60.46148328235802 40.60523330612516 23.365994465701647 H 0.0 **** 0.06
2616 C 141.36696527144818 95.39758089476689 150.6620288259273 C 0.0 **** -0.24
2617 H 141.98959688936924 95.51327760165992 149.77508080072064 H 0.0 **** 0.06
2618 H 141.54463332517025 94.41702742526053 151.10448068814878 H 0.0 **** 0.06
2619 H 140.31756840283822 95.48588744548013 150.38252425444767 H 0.0 **** 0.06
2620 H 141.61751701672097 96.17338413354791 151.38450427906298 H 0.0 **** 0.06
2621 C 143.77661239915608 153.57585310779092 55.70427066103787 C 0.0 **** -0.24
2622 H 143.39090115816282 153.45267469286085 56.716717013567745 H 0.0 **** 0.06
2623 H 144.71535312237808 153.032004736778 55.60517760681324 H 0.0 **** 0.06
2624 H 143.94732491858218 154.6345045376312 55.507141064527104 H 0.0 **** 0.06
2625 H 143.05217055623723 153.18554274316102 54.989715208313385 H 0.0 **** 0.06
2626 C 92.08657355789094 76.04279005016 123.18101644192086 C 0.0 **** -0.24
2627 H 91.47776520460188 75.44420783057456 122.50390761434949 H 0.0 **** 0.06
2628 H 91.63994259717055 77.03062255875585 123.29515406951424 H 0.0 **** 0.06
2629 H 93.09233322559477 76.14349329459247 122.77212031320374 H 0.0 **** 0.06
2630 H 92.13715704362855 75.55271585701828 124.15329431667647 H 0.0 **** 0.06
2631 C 66.71429321933161 14.304899971450205 61.04976703019692 C 0.0 **** -0.24
2632 H 67.06359244480764 13.281628388916694 61.18877063002171 H 0.0 **** 0.06
2633 H 66.37860642662575 14.707234807031078 62.00549801975011 H 0.0 **** 0.06
2634 H 65.88576624846233 14.311888216803752 60.34045331693609 H 0.0 **** 0.06
2635 H 67.52915212099545 14.917339760673016 60.66303435312237 H 0.0 **** 0.06
2636 C 86.40488473021162 85.31069735409142 93.74956103356354 C 0.0 **** -0.24
2637 H 87.27577173632085 84.65496119118194 93.74795193562326 H 0.0 **** 0.06
2638 H 86.53443670769002 86.08831258491057 92.99671143778677 H 0.0 **** 0.06
2639 H 86.29802028281756 85.76965490530307 94.73269207448374 H 0.0 **** 0.06
2640 H 85.51160791906386 84.72832967987205 93.52164189797256 H 0.0 **** 0.06
2641 C 33.83619086460911 68.26643253262621 104.11891182773222 C 0.0 **** -0.24
2642 H 33.811451901753415 68.35222583669704 103.03338333591209 H 0.0 **** 0.06
2643 H 33.04339817256741 67.59465729365395 104.44876401155271 H 0.0 **** 0.06
2644 H 33.68748327503958 69.25105293260748 104.5637122721045 H 0.0 **** 0.06
2645 H 34.80304955320052 67.86991665457627 104.4301209720605 H 0.0 **** 0.06
2646 C 82.29346228814497 130.27326459948011 22.35834225678417 C 0.0 **** -0.24
2647 H 81.85612469696086 131.21836894942987 22.680573970290624 H 0.0 **** 0.06
2648 H 83.26971441481633 130.14648227877717 22.826314158305678 H 0.0 **** 0.06
2649 H 82.40709513183074 130.2776286487155 21.274279434030575 H 0.0 **** 0.06
2650 H 81.63937337928887 129.45207170791332 22.65157357771983 H 0.0 **** 0.06
2651 C 100.6742787810699 45.82167089715517 152.26041567425676 C 0.0 **** -0.24
2652 H 101.37574980712499 45.8800918977376 151.42898376876514 H 0.0 **** 0.06
2653 H 99.65376824526844 45.84825223342318 151.87749221980823 H 0.0 **** 0.06
2654 H 100.83290482087581 46.667230891066254 152.9294408868622 H 0.0 **** 0.06
2655 H 100.83349457830944 44.891757683762435 152.80612567925186 H 0.0 **** 0.06
2656 C 48.762875290711065 66.7063462156571 51.16915669055503 C 0.0 **** -0.24
2657 H 49.591580481161316 67.22553416384844 50.68716574684936 H 0.0 **** 0.06
2658 H 48.36152202141369 65.95471283575777 50.48897031487043 H 0.0 **** 0.06
2659 H 47.98214139032348 67.42369981114231 51.41963229236913 H 0.0 **** 0.06
2660 H 49.11797518694789 66.22189592149927 52.07844192110824 H 0.0 **** 0.06
2661 C 82.42407145875384 44.60368762572243 87.87662275105295 C 0.0 **** -0.24
2662 H 81.7679448441776 44.726169619210154 88.73850888396375 H 0.0 **** 0.06
2663 H 83.2680962909685 43.97050701153188 88.15009681359433 H 0.0 **** 0.06
2664 H 82.78952668022173 45.57924971995864 87.55621871377566 H 0.0 **** 0.06
2665 H 81.86939043431912 44.13836115878938 87.06151421372253 H 0.0 **** 0.06
2666 C 100.32208159561684 29.478890089793452 99.05360355067812 C 0.0 **** -0.24
2667 H 99.65301684105147 29.319531593173664 99.89945750269844 H 0.0 **** 0.06
2668 H 100.6459048886016 30.52042501244695 99.03839799258135 H 0.0 **** 0.06
2669 H 99.79658373895036 29.247789822711667 98.12719687436099 H 0.0 **** 0.06
2670 H 101.19188459699221 28.829037383419973 99.15015339617929 H 0.0 **** 0.06
2671 C 140.79201143040953 82.67769903917065 56.12568963490983 C 0.0 **** -0.24
2672 H 140.715596374327 83.72224259993902 56.42919777327266 H 0.0 **** 0.06
2673 H 139.82606844931533 82.33653047624409 55.753435908046114 H 0.0 **** 0.06
2674 H 141.08622654753674 82.07170723438415 56.98222162307937 H 0.0 **** 0.06
2675 H 141.54015031518526 82.5825324463811 55.338197904084126 H 0.0 **** 0.06
2676 C 57.434180054446415 70.39298724428535 40.54455945409458 C 0.0 **** -0.24
2677 H 58.39990600492854 70.84901849079613 40.32757662560957 H 0.0 **** 0.06
2678 H 56.66677117433295 71.16717253641167 40.57693931101349 H 0.0 **** 0.06
2679 H 57.48033745060059 69.88593168065997 41.5078941796674 H 0.0 **** 0.06
2680 H 57.189130450524544 69.67066020678405 39.76484087168332 H 0.0 **** 0.06
2681 C 156.60672284240144 106.88780615942147 65.42676013637984 C 0.0 **** -0.24
2682 H 157.2105852147169 107.68000228207359 65.86843330004504 H 0.0 **** 0.06
2683 H 155.7249105216025 107.32336358965966 64.95558027013767 H 0.0 **** 0.06
2684 H 156.29658004262853 106.1904042382518 66.20500025283415 H 0.0 **** 0.06
2685 H 157.19575859164212 106.35770342817324 64.67780574682918 H 0.0 **** 0.06
2686 C 11.51202125964545 33.07430379579091 148.0603792475485 C 0.0 **** -0.24
2687 H 10.680724364653827 32.37241779925438 148.12267831898532 H 0.0 **** 0.06
2688 H 12.407168529558191 32.54822341527421 147.72788340432606 H 0.0 **** 0.06
2689 H 11.691671990760142 33.51334009667289 149.04151144944078 H 0.0 **** 0.06
2690 H 11.269274143042423 33.86358577961357 147.34830025894337 H 0.0 **** 0.06
2691 C 30.791387467945185 22.582981438071556 13.528480877201034 C 0.0 **** -0.24
2692 H 30.076662343621045 22.838629124849945 14.310040787167175 H 0.0 **** 0.06
2693 H 30.389080543856224 21.772169704597843 12.919816605188082 H 0.0 **** 0.06
2694 H 31.729439336190325 22.264950111565554 13.982625583062521 H 0.0 **** 0.06
2695 H 30.96919349923894 23.45561939827394 12.899364272211365 H 0.0 **** 0.06
2696 C 7.048506352620002 80.7416850606865 122.22805565155925 C 0.0 **** -0.24
2697 H 6.069456086682571 80.65634639706255 121.75610483291835 H 0.0 **** 0.06
2698 H 7.563184015115368 79.78196158436742 122.17312430933573 H 0.0 **** 0.06
2699 H 6.924032294700886 81.0283822375159 123.27244811606538 H 0.0 **** 0.06
2700 H 7.6358097978535255 81.499279149767 121.71070134425271 H 0.0 **** 0.06
2701 C 46.69243359308011 27.340184833684702 92.02360418716866 C 0.0 **** -0.24
2702 H 46.1887302265381 26.692292499163358 91.30588618635262 H 0.0 **** 0.06
2703 H 47.7675879464752 27.16580859010466 91.97834136330994 H 0.0 **** 0.06
2704 H 46.33053411268901 27.12067834828727 93.02766908245133 H 0.0 **** 0.06
2705 H 46.48296001683873 28.382032233792444 91.7811098827519 H 0.0 **** 0.06
2706 C 139.38222950458942 92.13676788048127 149.09853846346698 C 0.0 **** -0.24
2707 H 140.39987390743198 91.80858073737663 149.30940507716522 H 0.0 **** 0.06
2708 H 139.2366755729804 93.14402335258661 149.4913771098345 H 0.0 **** 0.06
2709 H 138.6755519580724 91.45631898728912 149.57318444389796 H 0.0 **** 0.06
2710 H 139.21637271213396 92.13886766104591 148.02072177117998 H 0.0 **** 0.06
2711 C 130.13259310157454 108.31211960947343 14.709267829318833 C 0.0 **** -0.24
2712 H 129.36149770267687 108.2592127795981 15.478063273509377 H 0.0 **** 0.06
2713 H 130.00640764834768 107.48355604780437 14.011173723050632 H 0.0 **** 0.06
2714 H 131.11494928726026 108.24864280142054 15.176043634479981 H 0.0 **** 0.06
2715 H 130.04459526867885 109.2571110869851 14.172466948059252 H 0.0 **** 0.06
2716 C 50.04804969845601 73.98088291712212 2.5496034103362604 C 0.0 **** -0.24
2717 H 49.011250353828146 73.98464965735232 2.2130196812150302 H 0.0 **** 0.06
2718 H 50.47372818617734 74.97701787011462 2.427633495623155 H 0.0 **** 0.06
2719 H 50.61984147251772 73.26655958769771 1.957120479192639 H 0.0 **** 0.06
2720 H 50.08781501013587 73.69396898463394 3.6004786602456704 H 0.0 **** 0.06
2721 C 141.7345257251085 115.39453156321196 46.15964252740065 C 0.0 **** -0.24
2722 H 142.4904410735008 114.69237407637956 46.51158645358805 H 0.0 **** 0.06
2723 H 141.06092859725422 115.6451776631423 46.98041970929438 H 0.0 **** 0.06
2724 H 141.16601173278426 114.94007705247145 45.34817495996944 H 0.0 **** 0.06
2725 H 142.2213275670799 116.30098910315911 45.79956840689397 H 0.0 **** 0.06
2726 C 0.8202512060331344 130.43770421859594 80.94443324901799 C 0.0 **** -0.24
2727 H 0.6267645938105773 131.23074738507526 81.66685843058075 H 0.0 **** 0.06
2728 H 0.7898640404745834 129.4714956086525 81.44826081927285 H 0.0 **** 0.06
2729 H 1.8039864708146922 130.58435399083768 80.49844396027467 H 0.0 **** 0.06
2730 H 0.06002982849133787 130.4655439209764 80.16382702452482 H 0.0 **** 0.06
2731 C 24.88631110470856 126.41756464014945 123.86723002954369 C 0.0 **** -0.24
2732 H 25.94666952787609 126.17655009319053 123.80432837309326 H 0.0 **** 0.06
2733 H 24.552665040389655 126.83594960783857 122.91775702523478 H 0.0 **** 0.06
2734 H 24.72652624788597 127.14711582985824 124.66206119322072 H 0.0 **** 0.06
2735 H 24.32048510981373 125.51275762409996 124.08533510289436 H 0.0 **** 0.06
2736 C 11.07934564579 64.78990593046566 59.62037463888862 C 0.0 **** -0.24
2737 H 10.275649406851812 64.19467744905864 60.05483995422452 H 0.0 **** 0.06
2738 H 11.775580451671942 65.08682514363068 60.40590618350646 H 0.0 **** 0.06
2739 H 10.659713926740665 65.6798011769619 59.15074142393337 H 0.0 **** 0.06
2740 H 11.606602986154371 64.19807835702353 58.872227936994534 H 0.0 **** 0.06
2741 C 96.30098790844508 88.3862724357338 45.01611685396455 C 0.0 **** -0.24
2742 H 96.56439390070798 89.26439166353238 45.60697269458558 H 0.0 **** 0.06
2743 H 95.21739229289594 88.33047093580078 44.9136063869268 H 0.0 **** 0.06
2744 H 96.66574713349031 87.48964877426917 45.51697649507926 H 0.0 **** 0.06
2745 H 96.75596888777456 88.46252699485548 44.02914816977915 H 0.0 **** 0.06
2746 C 64.3544324641548 144.5714663123419 31.755072124475703 C 0.0 **** -0.24
2747 H 64.19692608578686 143.49769919621914 31.85610968485844 H 0.0 **** 0.06
2748 H 63.432782257507654 145.09809830231444 32.005280750496354 H 0.0 **** 0.06
2749 H 64.63772222768534 144.8022661580432 30.72909066804445 H 0.0 **** 0.06
2750 H 65.14875358544435 144.8862055676768 32.4315577587916 H 0.0 **** 0.06
2751 C 61.701683039541365 57.82880083543006 130.51882053373245 C 0.0 **** -0.24
2752 H 60.92994546142012 58.58232134151274 130.35820713700323 H 0.0 **** 0.06
2753 H 62.61952694219218 58.13630745475592 130.0169371349496 H 0.0 **** 0.06
2754 H 61.36704871381039 56.87412455054164 130.11088820441378 H 0.0 **** 0.06
2755 H 61.888174681491535 57.722545572985325 131.58704865906762 H 0.0 **** 0.06
2756 C 137.707360498029 7.835549957618923 101.86383251940123 C 0.0 **** -0.24
2757 H 136.7411080503895 7.384086778098663 101.64055500052848 H 0.0 **** 0.06
2758 H 137.83285636482026 7.906344086508625 102.9444035070369 H 0.0 **** 0.06
2759 H 137.75215076497838 8.832879839898851 101.42680895635363 H 0.0 **** 0.06
2760 H 138.50193723196853 7.2184582938551785 101.4452607344042 H 0.0 **** 0.06
2761 C 68.34432585169189 35.543992797610954 25.716213020191674 C 0.0 **** -0.24
2762 H 67.71631217677646 35.02184946133562 26.438178280428247 H 0.0 **** 0.06
2763 H 68.49106361548853 34.91240077113278 24.839248221821663 H 0.0 **** 0.06
2764 H 69.31029554831382 35.766479404433255 26.168815389521626 H 0.0 **** 0.06
2765 H 67.85961270269138 36.47291236270193 25.417852105634267 H 0.0 **** 0.06
2766 C 155.39933890073323 20.175492978207046 134.09261856604394 C 0.0 **** -0.24
2767 H 155.91702900160757 19.457181451517386 134.72729890964695 H 0.0 **** 0.06
2768 H 155.33276781665094 21.13335458037136 134.6092162196997 H 0.0 **** 0.06
2769 H 154.39619823198808 19.81052893848573 133.873087917014 H 0.0 **** 0.06
2770 H 155.95233394682032 20.30218340977916 133.16242791231804 H 0.0 **** 0.06
2771 C 126.05639377499426 5.018003999977282 29.602208561323863 C 0.0 **** -0.24
2772 H 125.24840802076852 4.3778327600451235 29.24853715460685 H 0.0 **** 0.06
2773 H 126.40095066213189 5.6520625177956845 28.784208514724895 H 0.0 **** 0.06
2774 H 126.88180259844222 4.400818526769115 29.955886396331152 H 0.0 **** 0.06
2775 H 125.69415692001775 5.6434802555486385 30.417923938612205 H 0.0 **** 0.06
2776 C 113.54092627752487 124.5907461602177 150.68034026426136 C 0.0 **** -0.24
2777 H 113.90706271340702 125.45252615598797 151.2386618842899 H 0.0 **** 0.06
2778 H 114.38768742710022 124.01942855835121 150.2992662012856 H 0.0 **** 0.06
2779 H 112.92801001100679 124.93253029844577 149.84671210859995 H 0.0 **** 0.06
2780 H 112.94290970442108 123.95996129194928 151.33678008997697 H 0.0 **** 0.06
2781 C 56.59908319062771 23.797371565799608 31.592358199501803 C 0.0 **** -0.24
2782 H 57.23647208135807 22.92521277565868 31.441871769377798 H 0.0 **** 0.06
2783 H 57.109149163030736 24.513635207894055 32.23697885580225 H 0.0 **** 0.06
2784 H 55.66508059356768 23.48686706521272 32.0604615728206 H 0.0 **** 0.06
2785 H 56.385803901095784 24.26101504829404 30.629509136411684 H 0.0 **** 0.06
2786 C 74.36357964613178 12.982097536026856 83.06655478316695 C 0.0 **** -0.24
2787 H 73.93773466687965 13.084087352209082 84.06394224592029 H 0.0 **** 0.06
2788 H 74.90953619051456 12.040100039615965 82.99926511235401 H 0.0 **** 0.06
2789 H 75.04431672441453 13.811273439880523 82.8752199885291 H 0.0 **** 0.06
2790 H 73.56240602415724 12.9915686525527 82.32677046742309 H 0.0 **** 0.06
2791 C 65.35875609284562 107.80113005178093 18.835832361032317 C 0.0 **** -0.24
2792 H 66.27564744422216 107.43711241111804 18.371082844030695 H 0.0 **** 0.06
2793 H 65.50789287008077 108.82627877133264 19.17637461883021 H 0.0 **** 0.06
2794 H 65.1053751136777 107.16780514051636 19.686087211991094 H 0.0 **** 0.06
2795 H 64.54701487817542 107.77445841739303 18.108084099035977 H 0.0 **** 0.06
2796 C 95.40085708598747 149.6562510974419 25.49587250465308 C 0.0 **** -0.24
2797 H 96.2454353464799 150.24195451664647 25.85838281766707 H 0.0 **** 0.06
2798 H 95.76808493754277 148.76167371232512 24.991868822049014 H 0.0 **** 0.06
2799 H 94.81867225290381 150.25515649486326 24.795001018288673 H 0.0 **** 0.06
2800 H 94.77105261807037 149.3671961892485 26.336501568505795 H 0.0 **** 0.06
2801 C 67.43398579741131 40.90081097062958 29.681477249105853 C 0.0 **** -0.24
2802 H 67.37316351605719 39.81637968135692 29.58722166368713 H 0.0 **** 0.06
2803 H 66.44467083463024 41.33375888923581 29.53155495734535 H 0.0 **** 0.06
2804 H 68.1200846281256 41.29289543621323 28.93032955632748 H 0.0 **** 0.06
2805 H 67.79717707777628 41.1589031470114 30.676044582070674 H 0.0 **** 0.06
2806 C 109.39667694931705 140.60716538533597 75.809758453085 C 0.0 **** -0.24
2807 H 109.87438386506733 139.63172243834066 75.71995968014393 H 0.0 **** 0.06
2808 H 108.49204265027646 140.51553185995516 76.4108705498523 H 0.0 **** 0.06
2809 H 109.13832634704784 140.97752192062714 74.81806714526547 H 0.0 **** 0.06
2810 H 110.0832187822993 141.30445241355642 76.29042132729604 H 0.0 **** 0.06
2811 C 37.25943240911674 5.252920504236499 12.38011721641476 C 0.0 **** -0.24
2812 H 37.58657785545857 4.465631802471989 13.059937823208713 H 0.0 **** 0.06
2813 H 38.01593127865384 5.402800003631967 11.607867020236199 H 0.0 **** 0.06
2814 H 37.12025534425851 6.178968081459004 12.93754818624987 H 0.0 **** 0.06
2815 H 36.317609774185314 4.962548502326229 11.915145305696086 H 0.0 **** 0.06
2816 C 30.685684313603304 62.0495809753742 145.78002468847623 C 0.0 **** -0.24
2817 H 31.335796232648754 62.80285172878773 145.33519064015758 H 0.0 **** 0.06
2818 H 30.30143780089712 62.41723147472079 146.73199550214025 H 0.0 **** 0.06
2819 H 31.253805430087475 61.13312454857321 145.946865221795 H 0.0 **** 0.06
2820 H 29.853946963317988 61.84315992367877 145.10638605883776 H 0.0 **** 0.06
2821 C 105.8921200678555 4.619156968304395 122.58914173074128 C 0.0 **** -0.24
2822 H 106.45672962940966 4.972160766289221 121.72508612254889 H 0.0 **** 0.06
2823 H 105.43175389764247 5.46823730746803 123.09332146505524 H 0.0 **** 0.06
2824 H 106.56386654092199 4.10712719036087 123.27750705978384 H 0.0 **** 0.06
2825 H 105.11677698745683 3.9279881962186494 122.25713941206233 H 0.0 **** 0.06
2826 C 91.4986013285753 98.20747703490636 88.02535679371567 C 0.0 **** -0.24
2827 H 90.86558765051275 98.00446995213076 87.16213640174004 H 0.0 **** 0.06
2828 H 90.87581624438089 98.32649457747931 88.91267707162706 H 0.0 **** 0.06
2829 H 92.06516723363221 99.12258070975884 87.85403254106325 H 0.0 **** 0.06
2830 H 92.18869961754216 97.37628353424469 88.1740794349538 H 0.0 **** 0.06
2831 C 145.41997851224383 134.35575709392776 105.80558241528654 C 0.0 **** -0.24
2832 H 146.37427264554543 133.83026591831197 105.76113666103659 H 0.0 **** 0.06
2833 H 145.39959635909398 134.998725472918 106.68566929250555 H 0.0 **** 0.06
2834 H 144.6082194819694 133.63095131763941 105.86531956254937 H 0.0 **** 0.06
2835 H 145.2996567979548 134.9641200901492 104.90806479057544 H 0.0 **** 0.06
2836 C 64.75590415791886 25.12398885145751 30.502543419126923 C 0.0 **** -0.24
2837 H 65.73629934895266 25.560449311030595 30.311153204593637 H 0.0 **** 0.06
2838 H 64.81941832354424 24.450984026014282 31.358291726122225 H 0.0 **** 0.06
2839 H 64.42796832791713 24.56739905653501 29.625470153379503 H 0.0 **** 0.06
2840 H 64.04059800447232 25.918545511276648 30.71781425327866 H 0.0 **** 0.06
2841 C 155.8711611616702 52.65846917546173 87.23416190885372 C 0.0 **** -0.24
2842 H 155.36025772816788 51.69582945216345 87.20781565193708 H 0.0 **** 0.06
2843 H 155.6222827656386 53.177289569590926 88.15925032337428 H 0.0 **** 0.06
2844 H 155.5545566281965 53.26041727935811 86.38189859995305 H 0.0 **** 0.06
2845 H 156.94890755005034 52.49807677788817 87.18503224927636 H 0.0 **** 0.06
2846 C 156.20116093601902 83.80423024182916 56.55770889421221 C 0.0 **** -0.24
2847 H 156.98971086232058 83.65761834248562 57.2961272383226 H 0.0 **** 0.06
2848 H 156.29041668753774 83.04656936257688 55.77805119246584 H 0.0 **** 0.06
2849 H 156.29685330188255 84.79486384189993 56.11500395812962 H 0.0 **** 0.06
2850 H 155.22915578845323 83.71444386660933 57.04184631590722 H 0.0 **** 0.06
2851 C 21.73245079708815 121.71399320614786 48.8764343621493 C 0.0 **** -0.24
2852 H 22.06321453290184 121.20055786522526 49.77984745026026 H 0.0 **** 0.06
2853 H 21.27070689597096 122.66377897515413 49.14711544575985 H 0.0 **** 0.06
2854 H 21.007720200105183 121.0927116616556 48.35099126367355 H 0.0 **** 0.06
2855 H 22.59063659207797 121.89775898598164 48.22965853870828 H 0.0 **** 0.06
2856 C 134.71341819451357 23.744782542383177 67.51919408172134 C 0.0 **** -0.24
2857 H 133.8234470917215 24.185483562704462 67.96723167187767 H 0.0 **** 0.06
2858 H 135.42967706785413 23.4969988871361 68.3028701454756 H 0.0 **** 0.06
2859 H 135.1632255539186 24.457648038957586 66.82751798636014 H 0.0 **** 0.06
2860 H 134.43744541711362 22.83986120829252 66.9786637426235 H 0.0 **** 0.06
2861 C 123.626843583072 7.417386161036234 34.27285193702494 C 0.0 **** -0.24
2862 H 123.27229766245364 6.431497397350768 33.970125581045494 H 0.0 **** 0.06
2863 H 122.85511820309125 8.159452724297239 34.06514573648252 H 0.0 **** 0.06
2864 H 124.52975267364059 7.665501058917698 33.71474545188565 H 0.0 **** 0.06
2865 H 123.849025334695 7.411779019291657 35.33969423195761 H 0.0 **** 0.06
2866 C 44.49357773463808 4.486142910438687 144.55206151113322 C 0.0 **** -0.24
2867 H 45.14124138643646 4.278842583932963 143.7007812941332 H 0.0 **** 0.06
2868 H 44.75706191517034 3.826923983787374 145.37960376852791 H 0.0 **** 0.06
2869 H 43.45503549324593 4.3157851437038985 144.26806693396443 H 0.0 **** 0.06
2870 H 44.620170589048314 5.524544998192965 144.8599723056008 H 0.0 **** 0.06
2871 C 95.40731179798547 143.15880592395004 42.19580217483497 C 0.0 **** -0.24
2872 H 94.367504724313 143.48113883261374 42.23819766157055 H 0.0 **** 0.06
2873 H 96.0390731362196 143.9056965752057 42.67853263721668 H 0.0 **** 0.06
2874 H 95.71023027235879 143.04562342384392 41.154425767875466 H 0.0 **** 0.06
2875 H 95.51429360297243 142.2048522682881 42.71095549836497 H 0.0 **** 0.06
2876 C 22.106619749447958 3.571843297023875 99.96229179054593 C 0.0 **** -0.24
2877 H 23.087959562421503 3.2705273176188534 100.32873213077583 H 0.0 **** 0.06
2878 H 21.545265663426903 4.0392005849435435 100.77107137262873 H 0.0 **** 0.06
2879 H 21.567957076195 2.695090140700998 99.60471794759844 H 0.0 **** 0.06
2880 H 22.227643062013897 4.283254859788684 99.14471754171525 H 0.0 **** 0.06
2881 C 9.715832853042457 147.98768236178395 126.38006434863763 C 0.0 **** -0.24
2882 H 8.693198852224754 147.82282831274722 126.71863265362475 H 0.0 **** 0.06
2883 H 10.185300309878755 147.02826658597706 126.15994304755475 H 0.0 **** 0.06
2884 H 10.278930852370195 148.49751213716831 127.1623756320264 H 0.0 **** 0.06
2885 H 9.70590139769621 148.60212241124327 125.47930606134457 H 0.0 **** 0.06
2886 C 105.56265347005619 121.91256730995941 68.39308180784747 C 0.0 **** -0.24
2887 H 104.50181220217279 121.71315493966885 68.24219384955103 H 0.0 **** 0.06
2888 H 105.95998999795684 121.22216831568797 69.13625577275354 H 0.0 **** 0.06
2889 H 105.69307859422675 122.93708912441765 68.74242838242117 H 0.0 **** 0.06
2890 H 106.09532552817454 121.77957801389796 67.45051560125631 H 0.0 **** 0.06
2891 C 63.830718462244306 10.788513320607791 78.92952221505175 C 0.0 **** -0.24
2892 H 64.75741504122902 10.939401059081604 79.48395709756036 H 0.0 **** 0.06
2893 H 63.000005750763876 10.701845458315972 79.62980625751761 H 0.0 **** 0.06
2894 H 63.906337502704446 9.875049454107454 78.33945425006732 H 0.0 **** 0.06
2895 H 63.6619521010756 11.637209119575346 78.26650031815623 H 0.0 **** 0.06
2896 C 79.78388905469274 16.017154506042175 57.6037553241182 C 0.0 **** -0.24
2897 H 80.4243279674739 16.16360253545332 56.73418610111435 H 0.0 **** 0.06
2898 H 80.20171013396029 16.553377029059845 58.456821956269124 H 0.0 **** 0.06
2899 H 79.72407021073184 14.954291610339055 57.836065059850455 H 0.0 **** 0.06
2900 H 78.78637911951766 16.398786052855826 57.38769991862296 H 0.0 **** 0.06
2901 C 150.848466684934 81.64633861393273 4.960816546682231 C 0.0 **** -0.24
2902 H 149.82357447092065 81.35429859728119 4.732798486491774 H 0.0 **** 0.06
2903 H 150.9312375709863 82.73338497527205 4.936080068973986 H 0.0 **** 0.06
2904 H 151.52321506287495 81.21254983737411 4.222511996042819 H 0.0 **** 0.06
2905 H 151.11676805267243 81.2848799336775 5.954129543111385 H 0.0 **** 0.06
2906 C 147.39952154274127 63.39867497375167 103.12371412098243 C 0.0 **** -0.24
2907 H 147.057473356969 63.46376928875293 104.15688131861761 H 0.0 **** 0.06
2908 H 147.4558273994909 62.35193400048246 102.82503091974884 H 0.0 **** 0.06
2909 H 148.38497106859683 63.85591723324609 103.03823664332084 H 0.0 **** 0.06
2910 H 146.6982345442135 63.92428296969797 102.47614139990905 H 0.0 **** 0.06
2911 C 67.415119929437 114.34016747136174 105.46426095269811 C 0.0 **** -0.24
2912 H 68.16291713811414 115.10633700750985 105.26267670984015 H 0.0 **** 0.06
2913 H 67.722496663649 113.40160820387327 105.00207620111291 H 0.0 **** 0.06
2914 H 66.45576906721647 114.65106767527847 105.05062867940592 H 0.0 **** 0.06
2915 H 67.3186715951304 114.20085809815883 106.54067688760841 H 0.0 **** 0.06
2916 C 148.85319317164584 59.484583148373744 107.51012680379438 C 0.0 **** -0.24
2917 H 149.14990159754237 60.074163580833414 108.37838468060261 H 0.0 **** 0.06
2918 H 147.81069225442184 59.69371321666131 107.2686063111484 H 0.0 **** 0.06
2919 H 148.9703775935354 58.42470821118208 107.7332356537176 H 0.0 **** 0.06
2920 H 149.48375571287846 59.74926329898247 106.66118629994406 H 0.0 **** 0.06
2921 C 143.98292455551666 30.571613126055922 101.81446921674255 C 0.0 **** -0.24
2922 H 143.22184028501678 30.14489939875523 102.46890244365979 H 0.0 **** 0.06
2923 H 144.9258539914783 30.644778930809878 102.35526351834748 H 0.0 **** 0.06
2924 H 143.66870180084183 31.564232383763 101.49243392549273 H 0.0 **** 0.06
2925 H 144.11239334517776 29.930808485871523 100.94200836818656 H 0.0 **** 0.06
2926 C 76.34946695306053 150.1157286770536 127.08966932648661 C 0.0 **** -0.24
2927 H 77.02998333311422 149.93479707461168 127.92179244728652 H 0.0 **** 0.06
2928 H 75.99343192576762 149.1628641576664 126.69883954616427 H 0.0 **** 0.06
2929 H 76.87357608055143 150.65869482434093 126.30333857723463 H 0.0 **** 0.06
2930 H 75.50150993456643 150.70582042137912 127.43672016643643 H 0.0 **** 0.06
2931 C 86.44725362489301 154.94435293754356 114.91515856789147 C 0.0 **** -0.24
2932 H 86.06956825906164 154.1378115476281 114.28693853276826 H 0.0 **** 0.06
2933 H 87.45629563740074 154.70339480275527 115.24858028640352 H 0.0 **** 0.06
2934 H 85.79666046403686 155.06361696319692 115.78222738950046 H 0.0 **** 0.06
2935 H 86.46439034035801 155.87182421296407 114.34389155823459 H 0.0 **** 0.06
2936 C 136.1689757844893 143.16601962314968 107.3522508111261 C 0.0 **** -0.24
2937 H 136.73669603967195 143.68952324468458 106.58242916296093 H 0.0 **** 0.06
2938 H 136.70759000790872 142.26619195314632 107.65170464419417 H 0.0 **** 0.06
2939 H 135.19112207879027 142.89093715498956 106.9579268163459 H 0.0 **** 0.06
2940 H 136.042371206378 143.8186585615066 108.21596220013255 H 0.0 **** 0.06
2941 C 38.41145828745613 110.36049305216471 2.4537808611023877 C 0.0 **** -0.24
2942 H 38.06742384687824 109.44655397724318 2.9380259883361077 H 0.0 **** 0.06
2943 H 37.83792633920842 110.52646809421248 1.5422310608819316 H 0.0 **** 0.06
2944 H 39.469020701533836 110.265755401121 2.2070680834007703 H 0.0 **** 0.06
2945 H 38.27006366454292 111.2042184128237 3.130797711915278 H 0.0 **** 0.06
2946 C 139.2218222864085 95.5136446365008 144.2572680643711 C 0.0 **** -0.24
2947 H 138.78176588988356 96.12806756960268 145.04192751766794 H 0.0 **** 0.06
2948 H 138.83348271213333 95.82856052499318 143.28827732344564 H 0.0 **** 0.06
2949 H 138.96541468139458 94.46800734522972 144.42944961768956 H 0.0 **** 0.06
2950 H 140.30548051857812 95.6287090871266 144.269824594167 H 0.0 **** 0.06
2951 C 62.44829316013825 37.04630887330359 29.583337211643936 C 0.0 **** -0.24
2952 H 62.17213916378334 36.03230234783035 29.873887436723862 H 0.0 **** 0.06
2953 H 61.669187194381024 37.46592328978596 28.946292995841873 H 0.0 **** 0.06
2954 H 63.39164077717254 37.02343913567077 29.037559852216134 H 0.0 **** 0.06
2955 H 62.55915009605681 37.66231307369449 30.476160408790747 H 0.0 **** 0.06
2956 C 68.66741628467298 24.473249417839895 44.9829256229894 C 0.0 **** -0.24
2957 H 68.7966397523665 25.32898312445417 45.6461403797652 H 0.0 **** 0.06
2958 H 68.45386322968955 23.584085601981286 45.57573457812333 H 0.0 **** 0.06
2959 H 69.58097667990467 24.317811071316044 44.40952089883814 H 0.0 **** 0.06
2960 H 67.83889200511112 24.664804954134013 44.30083642414439 H 0.0 **** 0.06
2961 C 38.818656228132895 120.99357651935713 134.13003857741762 C 0.0 **** -0.24
2962 H 38.616080171934954 121.70302687821078 133.32726038646288 H 0.0 **** 0.06
2963 H 39.39018667211603 121.48772454940729 134.91537629472128 H 0.0 **** 0.06
2964 H 39.392233173250034 120.15371654140836 133.73569173274296 H 0.0 **** 0.06
2965 H 37.87656106160321 120.63000423337166 134.53963904317916 H 0.0 **** 0.06
2966 C 117.9579283782561 103.08437673692396 66.86341698294882 C 0.0 **** -0.24
2967 H 118.90682734027996 103.38264384880631 66.41873717826036 H 0.0 **** 0.06
2968 H 117.47776371223063 103.95356436421042 67.31367408183098 H 0.0 **** 0.06
2969 H 118.13706928478518 102.32986300271324 67.62890454470153 H 0.0 **** 0.06
2970 H 117.3089115544064 102.67100619545062 66.09047799736811 H 0.0 **** 0.06
2971 C 110.05080479543574 154.637613916201 97.36407999038767 C 0.0 **** -0.24
2972 H 110.32277579126185 154.76778506040029 98.4115411692585 H 0.0 **** 0.06
2973 H 109.02922506970322 154.9865755507652 97.20937590933883 H 0.0 **** 0.06
2974 H 110.11867737761014 153.58248615293246 97.09893212565666 H 0.0 **** 0.06
2975 H 110.73055422231641 155.21466645976855 96.73743755840675 H 0.0 **** 0.06
2976 C 97.33433061643083 106.35838554855813 36.286217772911186 C 0.0 **** -0.24
2977 H 96.40665211105528 106.72761704248317 36.72250361770068 H 0.0 **** 0.06
2978 H 97.15034826723166 105.40201342834148 35.79633559700159 H 0.0 **** 0.06
2979 H 98.07848203844358 106.22671701650764 37.07219916879099 H 0.0 **** 0.06
2980 H 97.7024139021874 107.07794712730207 35.55488371773728 H 0.0 **** 0.06
2981 C 30.989427091284995 115.32573198143426 20.240353670522865 C 0.0 **** -0.24
2982 H 31.2305807775707 114.9728503971778 19.237163165331197 H 0.0 **** 0.06
2983 H 31.860617118973842 115.82095398886533 20.67037553475535 H 0.0 **** 0.06
2984 H 30.707889395213584 114.47759594207876 20.86469529593282 H 0.0 **** 0.06
2985 H 30.159198324701606 116.03064854408133 20.187207311159227 H 0.0 **** 0.06
2986 C 62.68758485960427 126.31563182288961 104.72819197924349 C 0.0 **** -0.24
2987 H 62.334814272494555 125.36317971099494 105.12202889153565 H 0.0 **** 0.06
2988 H 63.10475703909333 126.91269742986957 105.53958259407244 H 0.0 **** 0.06
2989 H 61.85310337860051 126.85157012457329 104.27411872517786 H 0.0 **** 0.06
2990 H 63.455356760065285 126.13656208549718 103.97582239405125 H 0.0 **** 0.06
2991 C 57.02283825637551 48.72694314562098 76.61313872718885 C 0.0 **** -0.24
2992 H 57.499612581020415 48.29382704453293 75.73318793670096 H 0.0 **** 0.06
2993 H 56.74295883821242 49.75898621999572 76.4026054420125 H 0.0 **** 0.06
2994 H 57.71869543024059 48.70241167714414 77.45143977949847 H 0.0 **** 0.06
2995 H 56.131358012499845 48.151934912672886 76.86267462206834 H 0.0 **** 0.06
2996 C 6.710978018060132 46.65931277256382 64.7943886875205 C 0.0 **** -0.24
2997 H 6.539165809614872 46.64199194534268 63.71791284390672 H 0.0 **** 0.06
2998 H 5.9727565892792995 46.027365430668624 65.28946079668573 H 0.0 **** 0.06
2999 H 6.618760073333988 47.68170368759564 65.15982036839547 H 0.0 **** 0.06
3000 H 7.712463008261636 46.28465049679852 65.00770696822767 H 0.0 **** 0.06
3001 C 153.8279434923198 124.65620664552603 49.23891170937763 C 0.0 **** -0.24
3002 H 153.65759746183713 124.78045447509567 48.17016181741239 H 0.0 **** 0.06
3003 H 154.87797164345722 124.8451247242051 49.46409949837242 H 0.0 **** 0.06
3004 H 153.57051497770297 123.63867258521401 49.532235171465885 H 0.0 **** 0.06
3005 H 153.20520112328606 125.36103469981089 49.79039520598624 H 0.0 **** 0.06
3006 C 38.48185151690626 9.823401877530884 134.21698262955124 C 0.0 **** -0.24
3007 H 39.04086298472646 8.887537436627724 134.18516064441894 H 0.0 **** 0.06
3008 H 37.95619862367292 9.963900373752232 133.27277139118917 H 0.0 **** 0.06
3009 H 39.171216585316316 10.652263046728606 134.37631128374002 H 0.0 **** 0.06
3010 H 37.76101918979954 9.78783358870956 135.03404158422063 H 0.0 **** 0.06
3011 C 66.79963033459828 64.77798801851424 35.59720755647413 C 0.0 **** -0.24
3012 H 66.93237841904404 63.751720913909836 35.940709333987144 H 0.0 **** 0.06
3013 H 65.78036483197499 65.1024021399105 35.80822888896682 H 0.0 **** 0.06
3014 H 66.98289701386958 64.82765855390424 34.5237315003389 H 0.0 **** 0.06
3015 H 67.50392944441175 65.42846728127631 36.11617496994697 H 0.0 **** 0.06
3016 C 42.432525919927954 27.597303880333698 118.26803774872117 C 0.0 **** -0.24
3017 H 41.51610915495753 27.06153498276717 118.51618827473429 H 0.0 **** 0.06
3018 H 43.270232601480075 27.154661393189315 118.80644261295232 H 0.0 **** 0.06
3019 H 42.32856688200205 28.64442166834141 118.55205275159422 H 0.0 **** 0.06
3020 H 42.61234026651388 27.528721899697985 117.1950517323351 H 0.0 **** 0.06
3021 C 93.77503647784165 91.00676800764249 27.916893959802024 C 0.0 **** -0.24
3022 H 93.22598800504592 90.68285894968258 28.801437565342923 H 0.0 **** 0.06
3023 H 93.80397250175615 90.19392433620261 27.19005243629178 H 0.0 **** 0.06
3024 H 94.7918415392875 91.27908039487646 28.19942023151782 H 0.0 **** 0.06
3025 H 93.27649867637811 91.87043676368101 27.476673541736403 H 0.0 **** 0.06
3026 C 104.31286388200675 50.53663257673294 97.01217537357421 C 0.0 **** -0.24
3027 H 103.93272874997632 50.89104842973022 97.9703269052952 H 0.0 **** 0.06
3028 H 103.83526373576098 51.09208673720953 96.2046504715794 H 0.0 **** 0.06
3029 H 104.0930120066489 49.47501557416642 96.90475040029324 H 0.0 **** 0.06
3030 H 105.39137737762388 50.69105642452743 96.97120457821116 H 0.0 **** 0.06
3031 C 71.91862689429566 101.62470349881039 84.16275375232271 C 0.0 **** -0.24
3032 H 72.75607920902254 101.20457518738698 83.60555136513594 H 0.0 **** 0.06
3033 H 71.52758680759847 102.4916920486728 83.63141004323319 H 0.0 **** 0.06
3034 H 72.25842309285791 101.92820216345172 85.1538237953041 H 0.0 **** 0.06
3035 H 71.1351544019359 100.87408652661549 84.26143328272812 H 0.0 **** 0.06
3036 C 140.8822297099149 153.65070439197115 84.87026011031304 C 0.0 **** -0.24
3037 H 141.77955253068208 154.1568983892955 85.22654099915428 H 0.0 **** 0.06
3038 H 140.33335110866457 154.31407923246002 84.20066782782317 H 0.0 **** 0.06
3039 H 140.2519384604137 153.38807632881475 85.71983300857619 H 0.0 **** 0.06
3040 H 141.16568844945022 152.7453021696988 84.33418678548526 H 0.0 **** 0.06
3041 C 34.148386358484196 85.14483332222483 0.6037438243613451 C 0.0 **** -0.24
3042 H 35.15323382440783 84.75524705482195 0.44234753135225446 H 0.0 **** 0.06
3043 H 33.56409420994071 84.42072548298097 1.1713274623847099 H 0.0 **** 0.06
3044 H 33.669339098746796 85.32524556568012 -0.3588536167077052 H 0.0 **** 0.06
3045 H 34.207741551782306 86.0803785738139 1.1605173293770008 H 0.0 **** 0.06
3046 C 122.95340045794548 11.633388347478906 140.40999720623427 C 0.0 **** -0.24
3047 H 123.42778080891684 11.33284833044599 141.34407410027399 H 0.0 **** 0.06
3048 H 123.02316151142743 10.819177080080138 139.6889021582768 H 0.0 **** 0.06
3049 H 123.45789968163736 12.515041046321436 140.01398111927574 H 0.0 **** 0.06
3050 H 121.90437177220103 11.868273889186327 140.59431844434442 H 0.0 **** 0.06
3051 C 135.75944441848554 47.734324270536106 121.8974261521339 C 0.0 **** -0.24
3052 H 134.77276353698363 47.58401262675028 122.33621190535388 H 0.0 **** 0.06
3053 H 136.51340440442175 47.71348902490699 122.68373071952328 H 0.0 **** 0.06
3054 H 135.78795880372178 48.699578392285446 121.3906450138229 H 0.0 **** 0.06
3055 H 135.96059974579862 46.94022937789167 121.17828603335835 H 0.0 **** 0.06
3056 C 63.945634911024115 93.65919135329186 23.860796256042462 C 0.0 **** -0.24
3057 H 64.29352535833962 93.29083916462652 22.895595458255777 H 0.0 **** 0.06
3058 H 63.860394828466866 94.74556682108455 23.825937088088615 H 0.0 **** 0.06
3059 H 64.65800172083368 93.37544409482612 24.635215832062173 H 0.0 **** 0.06
3060 H 62.971863323777484 93.22484899871795 24.085770179607543 H 0.0 **** 0.06
3061 C 89.15751571442769 150.9303101920783 61.08755021668691 C 0.0 **** -0.24
3062 H 89.74672514002674 151.46672753109553 60.344294313604735 H 0.0 **** 0.06
3063 H 89.80154557327046 150.6319714516655 61.914740766337786 H 0.0 **** 0.06
3064 H 88.71764275132216 150.0430639166668 60.63076850232659 H 0.0 **** 0.06
3065 H 88.3647883371475 151.578697770213 61.459405688969525 H 0.0 **** 0.06
3066 C 116.38071086442062 44.394375563248786 53.408968588521944 C 0.0 **** -0.24
3067 H 116.49563891380143 44.06425100100512 52.37615591738282 H 0.0 **** 0.06
3068 H 115.95401738718425 43.585941850733946 54.00262865859462 H 0.0 **** 0.06
3069 H 115.71847481067613 45.25905754869012 53.44171180536772 H 0.0 **** 0.06
3070 H 117.35514565260888 44.66729844305581 53.81340226566536 H 0.0 **** 0.06
3071 C 138.55857186614313 142.38156940684053 24.64109845935792 C 0.0 **** -0.24
3072 H 139.26020823831013 141.6159223016371 24.31005981750397 H 0.0 **** 0.06
3073 H 139.07370764823196 143.08859762458087 25.291764973998028 H 0.0 **** 0.06
3074 H 137.74079729502625 141.9127002790859 25.187411674232067 H 0.0 **** 0.06
3075 H 138.16136858042293 142.9085419499667 23.77392653944105 H 0.0 **** 0.06
3076 C 62.03588614701113 146.73129220344123 57.40130163578024 C 0.0 **** -0.24
3077 H 61.25864007951941 147.3148285365158 56.90706020124857 H 0.0 **** 0.06
3078 H 62.8686814432171 146.57898406069395 56.714353375019655 H 0.0 **** 0.06
3079 H 61.63015094562945 145.76500370827938 57.70052087626861 H 0.0 **** 0.06
3080 H 62.385709322918046 147.26721227091625 58.28363156139382 H 0.0 **** 0.06
3081 C 110.72510587569019 7.448839526822439 86.82629851544847 C 0.0 **** -0.24
3082 H 110.59717873109742 7.634364706973031 87.89266839436351 H 0.0 **** 0.06
3083 H 111.00223752679841 6.4062753651791695 86.6707649745008 H 0.0 **** 0.06
3084 H 111.51021341341902 8.096634913667344 86.43655506581449 H 0.0 **** 0.06
3085 H 109.79013111561522 7.658232100613247 86.30755909439542 H 0.0 **** 0.06
3086 C 140.07092433427587 152.7475151767815 16.8492389428651 C 0.0 **** -0.24
3087 H 139.7365770029166 153.19815306781516 17.784381747474555 H 0.0 **** 0.06
3088 H 140.77723229973003 153.41517595249843 16.356550609144108 H 0.0 **** 0.06
3089 H 139.2117891965646 152.58157089257062 16.199090507032793 H 0.0 **** 0.06
3090 H 140.5562670223232 151.79459020119145 17.05923924001388 H 0.0 **** 0.06
3091 C 69.84452487552522 101.64024460522324 153.78915141041617 C 0.0 **** -0.24
3092 H 70.57127723134988 102.18220201433178 153.18398378777894 H 0.0 **** 0.06
3093 H 69.53786724786022 102.26284953316741 154.63102072901285 H 0.0 **** 0.06
3094 H 70.29569483001828 100.72059529478071 154.16194558281086 H 0.0 **** 0.06
3095 H 68.97342443047688 101.39769657605922 153.18027199026488 H 0.0 **** 0.06
3096 C 91.37070824829817 108.69658275324787 52.889668131905964 C 0.0 **** -0.24
3097 H 91.08460969740172 109.66638737001853 52.482003673615466 H 0.0 **** 0.06
3098 H 90.53982053701861 108.28438400311597 53.46249313375415 H 0.0 **** 0.06
3099 H 92.2372029728552 108.81766101861501 53.5410279943743 H 0.0 **** 0.06
3100 H 91.62130711221707 108.02011155941864 52.073450295604644 H 0.0 **** 0.06
3101 C 139.44404741228186 103.80532713674866 99.61922771262819 C 0.0 **** -0.24
3102 H 138.9564766408829 103.18648411025053 98.86622524944526 H 0.0 **** 0.06
3103 H 140.38507232998174 103.34092298169581 99.91543639469482 H 0.0 **** 0.06
3104 H 138.79511550621658 103.89886821692154 100.48930706508305 H 0.0 **** 0.06
3105 H 139.64116253459008 104.79382217467865 99.20458105182783 H 0.0 **** 0.06
3106 C 10.913634919641964 40.421761817930246 42.290035908508514 C 0.0 **** -0.24
3107 H 11.173741894042337 40.39377495718935 43.348012636615806 H 0.0 **** 0.06
3108 H 11.788166085036806 40.718452985706165 41.70918280165674 H 0.0 **** 0.06
3109 H 10.110656500333278 41.141701028282284 42.133045938888955 H 0.0 **** 0.06
3110 H 10.583577501291956 39.433393813211836 41.970499599556405 H 0.0 **** 0.06
3111 C 21.67929188047424 97.05566507887295 46.20374435148861 C 0.0 **** -0.24
3112 H 22.664761594357117 96.85478907147007 46.621801625338136 H 0.0 **** 0.06
3113 H 21.050931543915226 97.52205657242706 46.963824608838394 H 0.0 **** 0.06
3114 H 21.223686880654526 96.12026804847159 45.87903810475315 H 0.0 **** 0.06
3115 H 21.776405678305736 97.72749953158825 45.35083928411167 H 0.0 **** 0.06
3116 C 95.12719285501207 105.14560288744434 25.024256262562332 C 0.0 **** -0.24
3117 H 95.29432848723562 106.20646216927491 24.834406380038438 H 0.0 **** 0.06
3118 H 95.47255092167174 104.56462180804272 24.16968828425958 H 0.0 **** 0.06
3119 H 94.06246216912227 104.9683813159815 25.179074809008434 H 0.0 **** 0.06
3120 H 95.67878993702746 104.84583099518613 25.915663668418382 H 0.0 **** 0.06
3121 C 119.78843412975893 52.07734293539448 125.37694600192356 C 0.0 **** -0.24
3122 H 120.84687150185836 52.17321690681749 125.13474116424322 H 0.0 **** 0.06
3123 H 119.34615079037586 53.069355912488106 125.47183220617052 H 0.0 **** 0.06
3124 H 119.67958982193922 51.539073642091694 126.31895013317325 H 0.0 **** 0.06
3125 H 119.28216936659884 51.52694737110505 124.58433489744937 H 0.0 **** 0.06
3126 C 44.78950076233858 8.906911474738784 85.76113574830534 C 0.0 **** -0.24
3127 H 44.4581288830347 8.110038582145954 86.42692470982712 H 0.0 **** 0.06
3128 H 44.14014269509613 8.94286354977077 84.88612475627997 H 0.0 **** 0.06
3129 H 45.814819161084216 8.71323928597338 85.44513424010597 H 0.0 **** 0.06
3130 H 44.74498197428784 9.860568872927402 86.28601314127475 H 0.0 **** 0.06
3131 C 126.27719752444159 62.9482309141093 95.52007131915362 C 0.0 **** -0.24
3132 H 125.54298643645836 62.635937329564456 96.26295117361677 H 0.0 **** 0.06
3133 H 125.80947457328386 63.636618680658486 94.81472015699376 H 0.0 **** 0.06
3134 H 126.64642497523823 62.073978382695614 94.98446861854138 H 0.0 **** 0.06
3135 H 127.10778192082893 63.44754743447861 96.01853920133017 H 0.0 **** 0.06
3136 C 25.89889177106408 96.73793678984919 69.91020043355984 C 0.0 **** -0.24
3137 H 26.232536622536173 96.47809105122788 68.90623582593818 H 0.0 **** 0.06
3138 H 26.733229916191448 97.16023410331158 70.47188590577714 H 0.0 **** 0.06
3139 H 25.537161555409988 95.842763153775 70.41602953676902 H 0.0 **** 0.06
3140 H 25.094601892087823 97.47137378053937 69.84792956193131 H 0.0 **** 0.06
3141 C 80.48510959327632 136.35955794891657 38.80262527700427 C 0.0 **** -0.24
3142 H 81.56515200349926 136.3965719632422 38.66040352940513 H 0.0 **** 0.06
3143 H 79.98739422331843 136.51294597436197 37.84521669756617 H 0.0 **** 0.06
3144 H 80.18330342547769 137.14334504101262 39.49840868344461 H 0.0 **** 0.06
3145 H 80.20581620365853 135.3870537391932 39.2072812006752 H 0.0 **** 0.06
3146 C 50.39373435996208 11.463230203775595 12.86137462348296 C 0.0 **** -0.24
3147 H 50.175258833676764 11.052708728152425 13.847554250407768 H 0.0 **** 0.06
3148 H 51.27343649529308 12.104275878440717 12.921143147358407 H 0.0 **** 0.06
3149 H 49.54135598442133 12.045107718970826 12.512964976979276 H 0.0 **** 0.06
3150 H 50.585813586577416 10.647415099207933 12.163136828600045 H 0.0 **** 0.06
3151 C 56.85252193815137 6.890071803550427 128.51523177763906 C 0.0 **** -0.24
3152 H 56.49290965949213 6.264418045796674 127.69905041489436 H 0.0 **** 0.06
3153 H 56.40024644072567 7.879585001939972 128.44077902413386 H 0.0 **** 0.06
3154 H 57.93698525476319 6.980706713913264 128.45418838535613 H 0.0 **** 0.06
3155 H 56.57866068594636 6.435703144676154 129.46748479644094 H 0.0 **** 0.06
3156 C 142.92286008438776 20.635040052794466 19.14043601756947 C 0.0 **** -0.24
3157 H 142.86635800325035 20.110188348297243 20.094866697568193 H 0.0 **** 0.06
3158 H 142.06019117727453 20.370069746415254 18.528203380903847 H 0.0 **** 0.06
3159 H 143.83819264574348 20.347717668451935 18.62242844933982 H 0.0 **** 0.06
3160 H 142.9273330094265 21.709780289805167 19.31792415152205 H 0.0 **** 0.06
3161 C 96.96263160783755 33.567224449524105 141.16565358769495 C 0.0 **** -0.24
3162 H 96.83237272144886 32.5179112285756 141.4313735063933 H 0.0 **** 0.06
3163 H 97.58948033259522 33.6415284832747 140.27755661788856 H 0.0 **** 0.06
3164 H 97.4405340402548 34.0941832104927 141.99226440385345 H 0.0 **** 0.06
3165 H 95.98915044615632 34.01415110302182 140.9640111709755 H 0.0 **** 0.06
3166 C 127.01635820249045 70.49238787302926 81.54111680170672 C 0.0 **** -0.24
3167 H 126.37129612503456 69.95991491234867 82.24002962441614 H 0.0 **** 0.06
3168 H 128.05780021391502 70.36546044686264 81.8380943473424 H 0.0 **** 0.06
3169 H 126.76276462460491 71.55274650004128 81.54986731145186 H 0.0 **** 0.06
3170 H 126.87285064642533 70.09334146989369 80.53738417055808 H 0.0 **** 0.06
3171 C 27.895585242465927 4.028840299476684 148.09259681313893 C 0.0 **** -0.24
3172 H 28.06808306932578 3.8155519252992462 147.03744693939058 H 0.0 **** 0.06
3173 H 28.824371433493184 3.897126995750426 148.64693647565224 H 0.0 **** 0.06
3174 H 27.13916918097334 3.3461908489638006 148.4809396635353 H 0.0 **** 0.06
3175 H 27.548960238573557 5.0561927536259645 148.20286785019223 H 0.0 **** 0.06
3176 C 152.05784910903196 71.06717500097763 89.25346320789362 C 0.0 **** -0.24
3177 H 151.56162219329104 70.86823054850802 88.30393774654806 H 0.0 **** 0.06
3178 H 152.36360298975904 72.11220062559681 89.29213678339744 H 0.0 **** 0.06
3179 H 152.93549489457905 70.42683094813688 89.34581072481137 H 0.0 **** 0.06
3180 H 151.36872499699234 70.85856092971787 90.07292452973587 H 0.0 **** 0.06
3181 C 112.80267177750255 89.53216166742169 14.381743478792906 C 0.0 **** -0.24
3182 H 113.19914503722629 90.54408525147252 14.299814981841998 H 0.0 **** 0.06
3183 H 112.7530091392141 89.08027035869213 13.390433951108513 H 0.0 **** 0.06
3184 H 111.803627163957 89.56756482695346 14.815325215712214 H 0.0 **** 0.06
3185 H 113.45511854314225 88.93769236083779 15.021545903918728 H 0.0 **** 0.06
3186 C 112.59219855623486 133.1957814285696 153.1392157506241 C 0.0 **** -0.24
3187 H 111.5373273000463 133.44380085834177 153.01745492511176 H 0.0 **** 0.06
3188 H 112.70743760623101 132.1131205143496 153.18781582571575 H 0.0 **** 0.06
3189 H 112.96493233600047 133.6429783344708 154.06063862988253 H 0.0 **** 0.06
3190 H 113.15628468746299 133.58520072073014 152.29243414789306 H 0.0 **** 0.06
3191 C 134.99173089869748 4.5429340655989705 96.76969094286248 C 0.0 **** -0.24
3192 H 134.13599792987299 4.213513563012995 97.35937467447496 H 0.0 **** 0.06
3193 H 135.89505114157876 4.057693206604803 97.13930901246434 H 0.0 **** 0.06
3194 H 135.0978833336328 5.624696562207987 96.85735659808113 H 0.0 **** 0.06
3195 H 134.83688667088106 4.276851742761288 95.72437945220045 H 0.0 **** 0.06
3196 C 2.138716674074235 15.0881977880614 48.90175513329686 C 0.0 **** -0.24
3197 H 3.178512021116081 15.228827094385323 48.60631019767952 H 0.0 **** 0.06
3198 H 1.9704306580066202 15.553035760790678 49.873583395459974 H 0.0 **** 0.06
3199 H 1.9202150170557601 14.022036735285369 48.96641828713378 H 0.0 **** 0.06
3200 H 1.4848142754534557 15.548176975866518 48.16153865281724 H 0.0 **** 0.06
3201 C 34.266040062884294 87.4160842254779 36.26735994834591 C 0.0 **** -0.24
3202 H 34.194990476901516 86.90889577662082 37.229622131496384 H 0.0 **** 0.06
3203 H 33.29197840172244 87.40519576880723 35.77768146987201 H 0.0 **** 0.06
3204 H 34.99527696696632 86.90334618161444 35.63939104989558 H 0.0 **** 0.06
3205 H 34.583239628235994 88.44732844509463 36.42298922828701 H 0.0 **** 0.06
3206 C 33.07039386561178 19.05941056282228 123.9490265822045 C 0.0 **** -0.24
3207 H 33.87896143041462 19.5139788833402 123.37604593128485 H 0.0 **** 0.06
3208 H 32.113461155833875 19.43817363147673 123.58765274222604 H 0.0 **** 0.06
3209 H 33.18624585951255 19.309976991854626 125.00283463214505 H 0.0 **** 0.06
3210 H 33.103641432803784 17.976715220985398 123.82625412173265 H 0.0 **** 0.06
3211 C 135.4463113457339 142.66655294961012 19.370239242488367 C 0.0 **** -0.24
3212 H 134.60033690052947 143.31279248390354 19.134550045220237 H 0.0 **** 0.06
3213 H 135.41804342288526 142.40235004368583 20.42759558566746 H 0.0 **** 0.06
3214 H 136.37567337154235 143.1931451485085 19.151637836239644 H 0.0 **** 0.06
3215 H 135.39093894185294 141.76035296076853 18.76736600891408 H 0.0 **** 0.06
3216 C 56.196685291852305 90.98228820618348 34.859284816133865 C 0.0 **** -0.24
3217 H 56.58807393386604 91.66896574309357 35.61068857036224 H 0.0 **** 0.06
3218 H 56.28138514267508 89.95852276425549 35.224144975244684 H 0.0 **** 0.06
3219 H 56.76712564082732 91.08844831916912 33.937364287477635 H 0.0 **** 0.06
3220 H 55.14868671684064 91.21399581965369 34.667437840029834 H 0.0 **** 0.06
3221 C 62.69314383668831 21.87625682101826 103.09516510369791 C 0.0 **** -0.24
3222 H 62.308040295213004 21.819612590883565 102.076794159215 H 0.0 **** 0.06
3223 H 63.76123301666945 22.090742068338386 103.06881677989979 H 0.0 **** 0.06
3224 H 62.52446963238236 20.924710961095663 103.60040781248806 H 0.0 **** 0.06
3225 H 62.175807392845485 22.670518972455717 103.6339074635088 H 0.0 **** 0.06
3226 C 64.72731407154927 25.515238382508983 45.36056716905159 C 0.0 **** -0.24
3227 H 65.39505343071781 26.341960566975438 45.602912476751555 H 0.0 **** 0.06
3228 H 63.993180861906694 25.844925656369256 44.62495964832317 H 0.0 **** 0.06
3229 H 64.21506248993856 25.1856751529344 46.264169983730426 H 0.0 **** 0.06
3230 H 65.30782301958482 24.68832058986161 44.949503852306634 H 0.0 **** 0.06
3231 C 100.95909828702963 137.8906067874284 105.32174770822833 C 0.0 **** -0.24
3232 H 100.7033154191954 137.82776610269167 104.26381346637258 H 0.0 **** 0.06
3233 H 101.49270593107548 138.82208244717816 105.51073355027513 H 0.0 **** 0.06
3234 H 101.59313253974847 137.0462692718228 105.59320933218616 H 0.0 **** 0.06
3235 H 100.04651225883885 137.86622515002753 105.9176646166362 H 0.0 **** 0.06
3236 C 57.128080305393155 66.2988205636666 71.03469448466383 C 0.0 **** -0.24
3237 H 56.39070705268989 66.88560242161375 71.58193153464289 H 0.0 **** 0.06
3238 H 57.22687828778882 66.69238039190992 70.0232760373515 H 0.0 **** 0.06
3239 H 56.80320019232664 65.25851952078966 70.98981265925468 H 0.0 **** 0.06
3240 H 58.09015034890446 66.35747141093647 71.54436496910395 H 0.0 **** 0.06
3241 C 150.7104194695697 21.865232946139393 38.27093061125744 C 0.0 **** -0.24
3242 H 151.55872538064997 21.35333836561665 37.81585401118956 H 0.0 **** 0.06
3243 H 149.78617651526724 21.514232040396628 37.81086862782176 H 0.0 **** 0.06
3244 H 150.80830006937038 22.93900853710077 38.116188929756376 H 0.0 **** 0.06
3245 H 150.68777306928325 21.652240341097112 39.33978933414008 H 0.0 **** 0.06
3246 C 44.18127093582666 45.08426519583861 74.63867974361962 C 0.0 **** -0.24
3247 H 43.124005133699185 44.81880079508835 74.65389026781386 H 0.0 **** 0.06
3248 H 44.70815740330144 44.43960135686359 73.9366549655368 H 0.0 **** 0.06
3249 H 44.60087686086992 44.95544495038686 75.63693417914091 H 0.0 **** 0.06
3250 H 44.28931480591872 46.12433460065205 74.33044795280392 H 0.0 **** 0.06
3251 C 45.443452250509765 12.787775394380532 60.44529516320637 C 0.0 **** -0.24
3252 H 45.484900514961026 13.841193941654666 60.16798652031872 H 0.0 **** 0.06
3253 H 46.444528128252784 12.35899861767777 60.390923647630274 H 0.0 **** 0.06
3254 H 44.78303113805288 12.257857608911337 59.75842269510949 H 0.0 **** 0.06
3255 H 45.06204712266708 12.694229363287832 61.461816644131005 H 0.0 **** 0.06
3256 C 122.27105025268577 77.63888802535311 142.70232149937902 C 0.0 **** -0.24
3257 H 121.23700844178967 77.97890446201082 142.65313816696292 H 0.0 **** 0.06
3258 H 122.30330897310358 76.55721495050163 142.5718170752199 H 0.0 **** 0.06
3259 H 122.69334500054077 77.90066227591984 143.67328035954492 H 0.0 **** 0.06
3260 H 122.84988958483586 78.11873238243604 141.9134120762031 H 0.0 **** 0.06
3261 C 112.7653237703891 98.60894283052909 110.15305861154421 C 0.0 **** -0.24
3262 H 112.9117560410532 97.52897466652776 110.14295818853167 H 0.0 **** 0.06
3263 H 112.00254242264475 98.87889553517986 109.42177763356584 H 0.0 **** 0.06
3264 H 113.70260780761464 99.10446490335882 109.89984490364002 H 0.0 **** 0.06
3265 H 112.44534708689787 98.92336943079255 111.14621242133835 H 0.0 **** 0.06
3266 C 109.24379163050446 97.42082750139087 133.31055899779454 C 0.0 **** -0.24
3267 H 109.66615806192596 98.01167667778438 132.49787177955284 H 0.0 **** 0.06
3268 H 108.34963978699176 96.90631297906678 132.95780415861276 H 0.0 **** 0.06
3269 H 108.98097823217358 98.07957687344977 134.1389611293722 H 0.0 **** 0.06
3270 H 109.97674364384261 96.68815055955146 133.646895860673 H 0.0 **** 0.06
3271 C 84.09134111517251 32.009471826437846 93.64507329546404 C 0.0 **** -0.24
3272 H 84.87768424810473 31.3776282798448 94.05781761710233 H 0.0 **** 0.06
3273 H 83.16577700515705 31.438457001217785 93.57383560238702 H 0.0 **** 0.06
3274 H 84.38481494396679 32.352824639423574 92.65275497526764 H 0.0 **** 0.06
3275 H 83.93838717735655 32.8702802356066 94.2966695467718 H 0.0 **** 0.06
3276 C 127.24237401588634 12.410333627200885 56.10699135303999 C 0.0 **** -0.24
3277 H 126.34229345098954 12.84125573154489 55.66837444535997 H 0.0 **** 0.06
3278 H 128.1185957131467 12.939345081069519 55.73304206644103 H 0.0 **** 0.06
3279 H 127.30933374800809 11.356061358936643 55.83531120205262 H 0.0 **** 0.06
3280 H 127.19700348439484 12.50328185340237 57.19219447766456 H 0.0 **** 0.06
3281 C 132.25243156041458 42.778999964584145 36.20596602184668 C 0.0 **** -0.24
3282 H 133.11181353019134 43.35562287259715 35.86436199558875 H 0.0 **** 0.06
3283 H 131.4852486602694 43.45651458636489 36.57919111035909 H 0.0 **** 0.06
3284 H 132.5617842182903 42.10326098029408 37.003686178317025 H 0.0 **** 0.06
3285 H 131.85205249332702 42.197960515580704 35.37424763002332 H 0.0 **** 0.06
3286 C 20.470745019228247 69.18783327910978 142.37523467392197 C 0.0 **** -0.24
3287 H 21.158651540686094 68.87118061210786 141.59158720181773 H 0.0 **** 0.06
3288 H 19.51193933087447 68.68681369913807 142.241030682693 H 0.0 **** 0.06
3289 H 20.328330771032455 70.26698255734415 142.31807972162562 H 0.0 **** 0.06
3290 H 20.884129581230837 68.92760804665383 143.34904608515063 H 0.0 **** 0.06
3291 C 140.8990584720359 101.64376905888794 59.80517869386439 C 0.0 **** -0.24
3292 H 141.64213524720833 101.46267608673152 60.58327251024741 H 0.0 **** 0.06
3293 H 139.92597575049638 101.28674929163098 60.144240064997106 H 0.0 **** 0.06
3294 H 141.18640690248452 101.1117103303399 58.89842952692669 H 0.0 **** 0.06
3295 H 140.84252285834094 102.71179990850585 59.597733613843516 H 0.0 **** 0.06
3296 C 51.3465037862743 88.19803270963651 46.56118154661806 C 0.0 **** -0.24
3297 H 51.3605484217168 89.16280248822547 47.06695882057264 H 0.0 **** 0.06
3298 H 51.19593360080708 87.40599777733989 47.29432678222794 H 0.0 **** 0.06
3299 H 52.295381287027936 88.04245549647615 46.04766825974566 H 0.0 **** 0.06
3300 H 50.53402808781101 88.1805807298189 45.83482465358435 H 0.0 **** 0.06
3301 C 14.016808298824003 17.911949471484718 110.40183016964914 C 0.0 **** -0.24
3302 H 13.697550822361166 16.978410215470234 109.93945071139734 H 0.0 **** 0.06
3303 H 13.142160466553719 18.468623933036923 110.73754637137722 H 0.0 **** 0.06
3304 H 14.570246112255717 18.506664661696107 109.67465197833445 H 0.0 **** 0.06
3305 H 14.658983330509727 17.692688510247365 111.25536374210856 H 0.0 **** 0.06
3306 C 105.83222800518172 76.19492285011228 52.46287985471167 C 0.0 **** -0.24
3307 H 105.62399976044276 76.56953570625791 53.46551383846361 H 0.0 **** 0.06
3308 H 104.89445037169793 76.05100520869007 51.92712574749095 H 0.0 **** 0.06
3309 H 106.36133778468292 75.2450530947279 52.53329952329574 H 0.0 **** 0.06
3310 H 106.45024744308631 76.91533938529824 51.92706210628603 H 0.0 **** 0.06
3311 C 41.0302348346782 132.80308287622438 62.64717282043321 C 0.0 **** -0.24
3312 H 41.06106417648027 133.02518586017345 63.71413322561742 H 0.0 **** 0.06
3313 H 39.99764213154788 132.63117629080662 62.3418252532 H 0.0 **** 0.06
3314 H 41.6227181111509 131.91001653111897 62.44615597783087 H 0.0 **** 0.06
3315 H 41.44005744080789 133.64447388771052 62.08966208232965 H 0.0 **** 0.06
3316 C 23.479894686205547 106.77942735395696 96.34551959075507 C 0.0 **** -0.24
3317 H 22.786568928126307 106.79187670302103 95.50511370871735 H 0.0 **** 0.06
3318 H 24.240035812680922 106.01706593463594 96.17796311634 H 0.0 **** 0.06
3319 H 22.935189685579218 106.55531219598176 97.26254768292124 H 0.0 **** 0.06
3320 H 23.957881444490155 107.75553854840071 96.43564898604221 H 0.0 **** 0.06
3321 C 145.4513043406403 147.02655401482522 61.67726446349525 C 0.0 **** -0.24
3322 H 146.41907408268418 146.538400625983 61.79050161794726 H 0.0 **** 0.06
3323 H 144.88985492299327 146.9427515945913 62.60791659254204 H 0.0 **** 0.06
3324 H 144.8945602950037 146.54694983917184 60.87227032061361 H 0.0 **** 0.06
3325 H 145.60175237518422 148.0799900614332 61.43715278539776 H 0.0 **** 0.06
3326 C 103.44816154681956 29.47400870459279 39.805185757849145 C 0.0 **** -0.24
3327 H 103.79257859578536 29.260730121352054 38.793028740043724 H 0.0 **** 0.06
3328 H 102.36606641414363 29.34640540802461 39.85533799128915 H 0.0 **** 0.06
3329 H 103.70481959795075 30.50058842872231 40.067756519276344 H 0.0 **** 0.06
3330 H 103.92837837193105 28.788581207840792 40.50408893004963 H 0.0 **** 0.06
3331 C 53.7375216585818 40.83568429195857 137.20414635597822 C 0.0 **** -0.24
3332 H 53.78207863015224 39.9189882448039 137.79166630012662 H 0.0 **** 0.06
3333 H 53.80288667224161 41.697198145928795 137.86846928630354 H 0.0 **** 0.06
3334 H 52.795973195254405 40.87003374012325 136.65572016269294 H 0.0 **** 0.06
3335 H 54.569686108891815 40.85616928231774 136.49946883471546 H 0.0 **** 0.06
3336 C 2.1127810209751487 102.64133523003623 105.390238125988 C 0.0 **** -0.24
3337 H 2.828620151227426 102.41697164606266 104.59939553992682 H 0.0 **** 0.06
3338 H 1.3996081451360851 103.38383996607696 105.03373454664388 H 0.0 **** 0.06
3339 H 2.6434810745686264 103.03306994433525 106.2582600454801 H 0.0 **** 0.06
3340 H 1.5821079882933873 101.73084471240271 105.66839242968375 H 0.0 **** 0.06
3341 C 96.90123674804073 16.364533171961227 36.25006519516012 C 0.0 **** -0.24
3342 H 96.19059016570357 15.56991263077623 36.02130478906332 H 0.0 **** 0.06
3343 H 97.28993408915234 16.22402904842164 37.25914233326404 H 0.0 **** 0.06
3344 H 96.39862467978216 17.33003986037798 36.18523738818732 H 0.0 **** 0.06
3345 H 97.72298270512869 16.333879468990176 35.53599059213724 H 0.0 **** 0.06
3346 C 97.23864158266093 145.28823679204584 105.76326982774492 C 0.0 **** -0.24
3347 H 97.46679266706832 146.15945650753645 105.14969102815894 H 0.0 **** 0.06
3348 H 98.07581993138695 144.59072229672802 105.72911390240705 H 0.0 **** 0.06
3349 H 96.34234190210577 144.80018806170062 105.38038734987248 H 0.0 **** 0.06
3350 H 97.0695825003852 145.60351680439305 106.7924302529006 H 0.0 **** 0.06
3351 C 75.88718345939833 140.8205542759721 107.76327322092651 C 0.0 **** -0.24
3352 H 74.92076466032228 140.46267521106512 108.11852799644412 H 0.0 **** 0.06
3353 H 76.47931467804563 141.166166273708 108.61084012027906 H 0.0 **** 0.06
3354 H 75.73574300484933 141.6434208656603 107.06511491885833 H 0.0 **** 0.06
3355 H 76.41252380048968 140.00939151807898 107.25984779984417 H 0.0 **** 0.06
3356 C 60.36111200010198 128.91426040881777 102.27299445291357 C 0.0 **** -0.24
3357 H 59.63239657178379 129.59995925936715 101.84156942230453 H 0.0 **** 0.06
3358 H 60.22504605029978 128.87205540464856 103.35357691675438 H 0.0 **** 0.06
3359 H 61.367810997236546 129.26390700718042 102.04610235007442 H 0.0 **** 0.06
3360 H 60.218820705005754 127.91949757506393 101.85025129647289 H 0.0 **** 0.06
3361 C 130.7190064886363 72.05938462275509 102.81227224340593 C 0.0 **** -0.24
3362 H 130.33974646895697 71.39915876216998 103.592430772627 H 0.0 **** 0.06
3363 H 131.45349736773872 71.52496975699978 102.21017876706092 H 0.0 **** 0.06
3364 H 131.18717448772762 72.93009200995863 103.26979600671304 H 0.0 **** 0.06
3365 H 129.893051200832 72.38196516197263 102.17830668312111 H 0.0 **** 0.06
3366 C 18.639002895836605 12.84314733123287 120.86903228910518 C 0.0 **** -0.24
3367 H 17.656890163442803 13.314769805069801 120.83877527078079 H 0.0 **** 0.06
3368 H 18.59329914502839 11.876699196591403 120.36575911939934 H 0.0 **** 0.06
3369 H 18.940860682836238 12.699481162374951 121.90582664373898 H 0.0 **** 0.06
3370 H 19.364420548445572 13.48226817880493 120.36424769297417 H 0.0 **** 0.06
3371 C 149.2465539988662 10.262798050631176 152.6229464573155 C 0.0 **** -0.24
3372 H 149.885732584451 9.540551786240655 152.11545091191266 H 0.0 **** 0.06
3373 H 148.44937523622818 9.73617936174628 153.1480164160562 H 0.0 **** 0.06
3374 H 148.81158386377405 10.942140829428439 151.89007605140665 H 0.0 **** 0.06
3375 H 149.83873102951318 10.83261509981881 153.33937550702032 H 0.0 **** 0.06
3376 C 26.32351253906635 62.53637302169409 1.9759540980471115 C 0.0 **** -0.24
3377 H 26.35370573515528 62.35798265000744 3.05086801070496 H 0.0 **** 0.06
3378 H 26.837039108410195 63.46952494234037 1.7479352969286879 H 0.0 **** 0.06
3379 H 25.285903348070377 62.602264702378505 1.647902059173731 H 0.0 **** 0.06
3380 H 26.816960238015227 61.71368342628119 1.457922354416013 H 0.0 **** 0.06
3381 C 60.56746688189321 153.16194622166662 40.39067420620789 C 0.0 **** -0.24
3382 H 60.05869325156738 153.04229612835726 41.347111822590875 H 0.0 **** 0.06
3383 H 59.94056040255818 152.76171265851895 39.59330975940915 H 0.0 **** 0.06
3384 H 61.515168919582436 152.6222014189022 40.41267708747836 H 0.0 **** 0.06
3385 H 60.7555543394496 154.2194669640678 40.208859421742844 H 0.0 **** 0.06
3386 C 70.52959243128768 149.20889889144388 155.2192358045085 C 0.0 **** -0.24
3387 H 70.39572971193088 148.96006662195333 154.16609385181843 H 0.0 **** 0.06
3388 H 71.59416546262 149.26375206427264 155.44728200347186 H 0.0 **** 0.06
3389 H 70.0650195396838 148.43877935303516 155.83649397996916 H 0.0 **** 0.06
3390 H 70.0624177181084 150.1711072019151 155.42648104900965 H 0.0 **** 0.06
3391 C 94.22664523763802 93.72845454877489 15.653257204149327 C 0.0 **** -0.24
3392 H 94.58189316894308 93.71000533120574 14.622551508730709 H 0.0 **** 0.06
3393 H 94.8703855036207 93.10175275306392 16.270684130251254 H 0.0 **** 0.06
3394 H 93.20513990467498 93.3504949635696 15.691113070235843 H 0.0 **** 0.06
3395 H 94.2490652499373 94.75297952092987 16.02623258320824 H 0.0 **** 0.06
3396 C 0.20997526703945368 30.059981149896743 84.21473242372878 C 0.0 **** -0.24
3397 H -0.5946546185181774 29.685015931198933 84.84595619548304 H 0.0 **** 0.06
3398 H 0.2662180693666869 31.144884876052572 84.30354865029929 H 0.0 **** 0.06
3399 H 0.014557028471756439 29.789645671211048 83.17666684950163 H 0.0 **** 0.06
3400 H 1.1550785657758524 29.61991565812167 84.53243948913125 H 0.0 **** 0.06
3401 C 129.8268474746063 31.98904561723384 26.472764877246505 C 0.0 **** -0.24
3402 H 129.05451354568476 31.867478082932678 25.712742947131346 H 0.0 **** 0.06
3403 H 129.35881298235944 32.16139794580761 27.441520280941177 H 0.0 **** 0.06
3404 H 130.45704445211933 32.84026705142139 26.21577946970001 H 0.0 **** 0.06
3405 H 130.4358152146056 31.08607201874031 26.518444733128575 H 0.0 **** 0.06
3406 C 39.34213279231339 156.8410239184314 67.49378900898114 C 0.0 **** -0.24
3407 H 39.70320232942504 157.3041534468527 66.5758677276196 H 0.0 **** 0.06
3408 H 39.898437619500385 157.2385804619291 68.34320906736492 H 0.0 **** 0.06
3409 H 39.484617496738906 155.76231199070227 67.43709398639008 H 0.0 **** 0.06
3410 H 38.281846072991044 157.0619115904097 67.61819315851162 H 0.0 **** 0.06
3411 C 34.60335480465936 73.32332670842307 51.87199756207315 C 0.0 **** -0.24
3412 H 34.856432721895075 72.49092293089485 52.529069254575404 H 0.0 **** 0.06
3413 H 33.721690390533496 73.06617560410288 51.283590481142994 H 0.0 **** 0.06
3414 H 35.44045982161194 73.52523969946962 51.202590320478635 H 0.0 **** 0.06
3415 H 34.39534846493905 74.20955984070811 52.471080905054066 H 0.0 **** 0.06
3416 C 116.97056518321567 11.923193496388137 90.75624884145469 C 0.0 **** -0.24
3417 H 117.4916929212343 11.527070866323612 91.62701480812832 H 0.0 **** 0.06
3418 H 117.60316490121987 12.657405929740065 90.2566105761478 H 0.0 **** 0.06
3419 H 116.04261259090238 12.399333914742073 91.07332133672661 H 0.0 **** 0.06
3420 H 116.74384259355698 11.109519912446842 90.06670996350759 H 0.0 **** 0.06
3421 C 73.89805738314604 2.526003918136084 92.45531651260919 C 0.0 **** -0.24
3422 H 73.2350422515444 1.8234506182960857 92.96010405530697 H 0.0 **** 0.06
3423 H 73.9173844237202 3.4665170797004414 93.00685723017531 H 0.0 **** 0.06
3424 H 73.53573504542699 2.7045783341495415 91.44373047100817 H 0.0 **** 0.06
3425 H 74.90485668150637 2.10900374675915 92.4128460384627 H 0.0 **** 0.06
3426 C 50.653533598427714 20.119738558675692 114.18450262790937 C 0.0 **** -0.24
3427 H 50.04412413858503 20.37041648592865 115.05218708976595 H 0.0 **** 0.06
3428 H 51.10966650076645 19.140164500410187 114.33117622636404 H 0.0 **** 0.06
3429 H 51.434084706124594 20.869047653878724 114.05953678517854 H 0.0 **** 0.06
3430 H 50.02506429473232 20.09803383325621 113.29373052636909 H 0.0 **** 0.06
3431 C 7.9999124162486055 58.11401122731557 143.55057015223153 C 0.0 **** -0.24
3432 H 8.997555262757373 57.91219998669244 143.94017332921186 H 0.0 **** 0.06
3433 H 7.556074426284937 58.94317830306916 144.10203682144825 H 0.0 **** 0.06
3434 H 7.378357670799346 57.22604902149317 143.66695528298396 H 0.0 **** 0.06
3435 H 8.067211135186199 58.37433130823126 142.49396046598653 H 0.0 **** 0.06
3436 C 112.99289053365284 152.30114140547514 136.21043566819196 C 0.0 **** -0.24
3437 H 113.5306055603724 152.9930877095556 136.8598604788686 H 0.0 **** 0.06
3438 H 112.52053879777561 152.8568919186214 135.40020058667335 H 0.0 **** 0.06
3439 H 112.22988710217778 151.78002912042467 136.78779464454922 H 0.0 **** 0.06
3440 H 113.6923646682864 151.57574199544388 135.79499698376017 H 0.0 **** 0.06
3441 C 38.80676520474253 57.120601358800585 84.984946462587 C 0.0 **** -0.24
3442 H 37.92298803308282 56.9293062290826 84.37716712674859 H 0.0 **** 0.06
3443 H 38.72354870216759 58.10380276114954 85.44757338780295 H 0.0 **** 0.06
3444 H 39.695027749452095 57.09044329849152 84.35303915076608 H 0.0 **** 0.06
3445 H 38.88752480380265 56.359040852233335 85.76004395714028 H 0.0 **** 0.06
3446 C 112.80724906026792 3.5592573614953267 123.8924056475971 C 0.0 **** -0.24
3447 H 113.10462348741713 4.606912526571136 123.84092949313525 H 0.0 **** 0.06
3448 H 113.58545197811777 2.9384704986773613 123.44854918786665 H 0.0 **** 0.06
3449 H 111.87420984741759 3.419281956277132 123.34653992691479 H 0.0 **** 0.06
3450 H 112.66423946975881 3.2735894292376884 124.93413053104145 H 0.0 **** 0.06
3451 C 36.02419333580606 100.28019541207912 0.10304703465904197 C 0.0 **** -0.24
3452 H 36.7246763887763 99.67083852007805 0.6743528642004897 H 0.0 **** 0.06
3453 H 36.57719328983343 100.91750554638905 -0.5870468125011143 H 0.0 **** 0.06
3454 H 35.44466292003308 100.90176842121143 0.7865096909414397 H 0.0 **** 0.06
3455 H 35.35178607395119 99.63205367976518 -0.45742096876741556 H 0.0 **** 0.06
3456 C 91.96240540793491 131.79098427220526 144.0284341896857 C 0.0 **** -0.24
3457 H 92.03745325301753 130.86514224373371 144.59880514925302 H 0.0 **** 0.06
3458 H 92.94583872914865 132.2573837798863 143.96238039861714 H 0.0 **** 0.06
3459 H 91.27095781709602 132.4698147645178 144.52758052238485 H 0.0 **** 0.06
3460 H 91.59640088565274 131.570945672717 143.02569027024907 H 0.0 **** 0.06
3461 C 21.20269149454998 73.01249858429244 139.5044467480687 C 0.0 **** -0.24
3462 H 21.14462525831277 74.08724473656974 139.33062008206105 H 0.0 **** 0.06
3463 H 21.065740827838653 72.48391977021666 138.56078863157492 H 0.0 **** 0.06
3464 H 20.421984143163286 72.71519017831679 140.20403190278054 H 0.0 **** 0.06
3465 H 22.178534997329223 72.764620138257 139.92218998152163 H 0.0 **** 0.06
3466 C 92.90983222905058 129.6536918083695 73.77213509511662 C 0.0 **** -0.24
3467 H 91.8675029698968 129.66397724133168 73.45443149649816 H 0.0 **** 0.06
3468 H 93.3302466779753 128.6619111860708 73.6026458859247 H 0.0 **** 0.06
3469 H 92.96921526157257 129.8976007864382 74.83294127169742 H 0.0 **** 0.06
3470 H 93.47237635836281 130.39028345560683 73.19862527525693 H 0.0 **** 0.06
3471 C 136.35314050972693 131.14853111437844 82.00776226270762 C 0.0 **** -0.24
3472 H 135.40770405895398 131.68957682158594 82.03056793589377 H 0.0 **** 0.06
3473 H 137.14044725259163 131.80767418772263 81.63991824369946 H 0.0 **** 0.06
3474 H 136.26277920512933 130.2856972584321 81.3479605963427 H 0.0 **** 0.06
3475 H 136.6033344583858 130.8116536445088 83.01429704353122 H 0.0 **** 0.06
3476 C 83.92915420343977 20.180239336472823 122.59837261813341 C 0.0 **** -0.24
3477 H 82.94640705480958 19.917639344889153 122.99131153387744 H 0.0 **** 0.06
3478 H 84.50039588903076 20.698623330804708 123.36895529769289 H 0.0 **** 0.06
3479 H 83.81075706115104 20.832477432320047 121.73287780735559 H 0.0 **** 0.06
3480 H 84.45562215071413 19.273787686881747 122.30200033272347 H 0.0 **** 0.06
3481 C 94.98740969055552 7.135750147732608 63.94401432982377 C 0.0 **** -0.24
3482 H 94.55796148076135 7.70578977709954 64.76767306788639 H 0.0 **** 0.06
3483 H 96.0669236197361 7.28672904748808 63.922111439461005 H 0.0 **** 0.06
3484 H 94.55274305754789 7.472560779436151 63.002794274202344 H 0.0 **** 0.06
3485 H 94.77078673774038 6.0762585689104185 64.08479714028235 H 0.0 **** 0.06
3486 C 131.21285978182325 28.599110548970657 147.60825472210678 C 0.0 **** -0.24
3487 H 131.40259133271388 28.287967724994303 146.5814812713358 H 0.0 **** 0.06
3488 H 130.2473889724368 28.21144965754212 147.9326646572885 H 0.0 **** 0.06
3489 H 131.20453612242633 29.687699943572795 147.66199961856535 H 0.0 **** 0.06
3490 H 131.9979788971235 28.20930495752026 148.25593306700193 H 0.0 **** 0.06
3491 C 124.01579913472568 4.159362798293898 32.19916825296291 C 0.0 **** -0.24
3492 H 124.58353170339348 3.7803196949675453 33.04813626357586 H 0.0 **** 0.06
3493 H 124.38781550777446 3.703213327579448 31.28133157067851 H 0.0 **** 0.06
3494 H 124.12999980916629 5.241432896696722 32.139719468350094 H 0.0 **** 0.06
3495 H 122.96199894030701 3.9103824018630746 32.32674021279808 H 0.0 **** 0.06
3496 C 138.57179031633143 101.50813419308048 64.43189518909456 C 0.0 **** -0.24
3497 H 138.02897132755822 101.146105275656 65.30534541475645 H 0.0 **** 0.06
3498 H 138.18692105767695 102.48758755053501 64.14619171134787 H 0.0 **** 0.06
3499 H 138.43806041950785 100.80911540247223 63.60578397115408 H 0.0 **** 0.06
3500 H 139.6323121417326 101.58990631230824 64.67066591442847 H 0.0 **** 0.06
3501 C 100.90502681320112 13.95515984383428 39.17053067110123 C 0.0 **** -0.24
3502 H 100.45877143757065 14.653105600577504 38.46253383999115 H 0.0 **** 0.06
3503 H 101.15806136967694 14.483180691909666 40.09047371372549 H 0.0 **** 0.06
3504 H 101.80915878596352 13.526549928397003 38.73707061747223 H 0.0 **** 0.06
3505 H 100.19498495477745 13.15891231965358 39.39216343983048 H 0.0 **** 0.06
3506 C 155.07435271959864 75.96606423901886 54.75070866928499 C 0.0 **** -0.24
3507 H 155.61794554511755 75.12536043829817 55.18217204137103 H 0.0 **** 0.06
3508 H 155.6663843944369 76.87442176809287 54.857356361172165 H 0.0 **** 0.06
3509 H 154.12349431740273 76.08831019019897 55.27058263276318 H 0.0 **** 0.06
3510 H 154.88891287611895 75.7747396472962 53.69430978660806 H 0.0 **** 0.06
3511 C 5.679117184531776 18.455015889299233 120.66691330031371 C 0.0 **** -0.24
3512 H 6.647772209393793 18.93476002432783 120.8097443300209 H 0.0 **** 0.06
3513 H 5.746444003508259 17.736903097402347 119.85054344400321 H 0.0 **** 0.06
3514 H 4.932243900896765 19.211766592450175 120.42641932967884 H 0.0 **** 0.06
3515 H 5.391799297153284 17.93965560871837 121.58332580525892 H 0.0 **** 0.06
3516 C 102.56041513224106 68.19188917953545 89.30447836360753 C 0.0 **** -0.24
3517 H 102.49632300964122 67.90217378368197 90.35294859935345 H 0.0 **** 0.06
3518 H 101.78963959844133 67.6718199885222 88.73650939146884 H 0.0 **** 0.06
3519 H 103.54292306332523 67.9253457074575 88.9132067723387 H 0.0 **** 0.06
3520 H 102.41338985786474 69.26828404412424 89.2160344037969 H 0.0 **** 0.06
3521 C 48.749332308905934 115.29356965370563 63.400622963086946 C 0.0 **** -0.24
3522 H 49.516314199618705 116.05491173213439 63.54567370371157 H 0.0 **** 0.06
3523 H 48.126153644588385 115.23140463197201 64.29299146749146 H 0.0 **** 0.06
3524 H 49.22480146208886 114.32854293716933 63.22057784127247 H 0.0 **** 0.06
3525 H 48.13155738018531 115.55976040997619 62.54244797046741 H 0.0 **** 0.06
3526 C 71.3262405329313 41.9691001002024 26.12082500928465 C 0.0 **** -0.24
3527 H 72.41429464919538 41.90618789698448 26.08131542250969 H 0.0 **** 0.06
3528 H 70.90152976248214 40.968856258950154 26.030394255418948 H 0.0 **** 0.06
3529 H 70.96802286419872 42.59168971946363 25.30077626126363 H 0.0 **** 0.06
3530 H 71.02191811814359 42.40785271342777 27.07106902140923 H 0.0 **** 0.06
3531 C 64.84545131468394 73.6305305802025 18.393670623729037 C 0.0 **** -0.24
3532 H 64.58678123612475 73.77422032994372 19.442079738679496 H 0.0 **** 0.06
3533 H 65.19671324305574 72.60883347031512 18.243408184685023 H 0.0 **** 0.06
3534 H 65.63335370420623 74.33002424706143 18.114374892999933 H 0.0 **** 0.06
3535 H 63.96574716766932 73.80674350351154 17.77510674462542 H 0.0 **** 0.06
3536 C 124.35619555024373 133.05377481247197 7.4188810885308385 C 0.0 **** -0.24
3537 H 124.50312759524148 132.18348472901744 8.058992669828967 H 0.0 **** 0.06
3538 H 124.55095544106636 133.96176393691044 7.990635445041107 H 0.0 **** 0.06
3539 H 123.32981129433558 133.06596269267453 7.053239925677872 H 0.0 **** 0.06
3540 H 125.0428189660458 133.00164757733066 6.574157053650424 H 0.0 **** 0.06
3541 C 109.80646318042555 150.39755875859356 135.63982409310364 C 0.0 **** -0.24
3542 H 109.5193997899655 149.3732705137737 135.4028855784273 H 0.0 **** 0.06
3543 H 110.87835627545628 150.51926528054156 135.4863921519086 H 0.0 **** 0.06
3544 H 109.56050818016847 150.61184164601323 136.67993401880835 H 0.0 **** 0.06
3545 H 109.26525162856986 151.08520147989975 134.9897546943526 H 0.0 **** 0.06
3546 C 101.59776109676176 53.49023139186784 80.03261177797623 C 0.0 **** -0.24
3547 H 102.1791054674822 53.46734041614258 79.11082308231408 H 0.0 **** 0.06
3548 H 101.59717324895496 52.498872192363024 80.48660989391593 H 0.0 **** 0.06
3549 H 100.57294259950163 53.7879085532353 79.80712546213732 H 0.0 **** 0.06
3550 H 102.0406467478532 54.20660571695112 80.72313602402926 H 0.0 **** 0.06
3551 C 0.4358878100251786 3.4253798340700428 93.77910750745447 C 0.0 **** -0.24
3552 H 0.12246371780565823 4.346513061869814 93.28728680576329 H 0.0 **** 0.06
3553 H 0.1580512629795976 3.4651128548446195 94.83312357183205 H 0.0 **** 0.06
3554 H 1.5159394741274355 3.316341652901542 93.6912970058439 H 0.0 **** 0.06
3555 H -0.05533184255341439 2.575576884070074 93.304691145837 H 0.0 **** 0.06
3556 C 19.295047936434933 145.1377399679754 116.53806050482244 C 0.0 **** -0.24
3557 H 20.326606694533154 144.96925696819545 116.84706483259917 H 0.0 **** 0.06
3558 H 19.25791345512878 145.9729074373799 115.83733583857462 H 0.0 **** 0.06
3559 H 18.687254490618628 145.36909475426324 117.41190300222068 H 0.0 **** 0.06
3560 H 18.90995462162178 144.23971441752718 116.05431476375769 H 0.0 **** 0.06
3561 C 0.3713582646533098 5.499982075487026 7.690871578591157 C 0.0 **** -0.24
3562 H -0.2439667459159125 5.121420367975475 6.874155064767926 H 0.0 **** 0.06
3563 H 0.14417309214746865 6.552735394160834 7.859338264878417 H 0.0 **** 0.06
3564 H 1.4242126738401168 5.391679672148598 7.431518857741764 H 0.0 **** 0.06
3565 H 0.16085131284324916 4.933473983149611 8.597705664319044 H 0.0 **** 0.06
3566 C 119.27478570985095 25.416617511991376 24.877651695628224 C 0.0 **** -0.24
3567 H 119.35466513866227 26.24920905283912 25.577221779929886 H 0.0 **** 0.06
3568 H 120.22044558113724 24.873156840615025 24.851144151172868 H 0.0 **** 0.06
3569 H 119.04674915517448 25.799120556739894 23.882710277596715 H 0.0 **** 0.06
3570 H 118.47869465439119 24.74636272015786 25.200981555616906 H 0.0 **** 0.06
3571 C 12.99741151762472 90.40423425175578 85.08569664257311 C 0.0 **** -0.24
3572 H 13.151999680747544 90.0091976499181 86.08963301782438 H 0.0 **** 0.06
3573 H 13.540638843023324 89.79175901654645 84.36595027384963 H 0.0 **** 0.06
3574 H 13.36224135252315 91.43068824917975 85.03901603231428 H 0.0 **** 0.06
3575 H 11.932953614180676 90.3860859463467 84.84847789754706 H 0.0 **** 0.06
3576 C 136.7701812855167 42.68225241683815 115.26389624956596 C 0.0 **** -0.24
3577 H 137.3092987028673 43.11018688361649 116.10855780610007 H 0.0 **** 0.06
3578 H 135.70497678468425 42.8875435871647 115.37105306874645 H 0.0 **** 0.06
3579 H 136.93239895830195 41.60478547235891 115.23715532995374 H 0.0 **** 0.06
3580 H 137.13560396941998 43.126741529409756 114.33758345337776 H 0.0 **** 0.06
3581 C 92.37068352478938 64.23969739657349 120.71216389982607 C 0.0 **** -0.24
3582 H 92.55770844060584 65.14951953173073 121.28333205644054 H 0.0 **** 0.06
3583 H 91.3205685771489 63.960633074565635 120.80810882165457 H 0.0 **** 0.06
3584 H 92.99800555786746 63.43545038613166 121.09492158205819 H 0.0 **** 0.06
3585 H 92.6047563744147 64.41651790278462 119.66212194907217 H 0.0 **** 0.06
3586 C 141.28324861743025 26.974791542006223 81.52660334886444 C 0.0 **** -0.24
3587 H 140.86355011743137 27.403995759544067 80.61705809730864 H 0.0 **** 0.06
3588 H 140.7864702677057 26.02907125280445 81.74475948231971 H 0.0 **** 0.06
3589 H 141.13253853627762 27.665568301484342 82.35666095917931 H 0.0 **** 0.06
3590 H 142.35051856350918 26.802085389549234 81.3871754977429 H 0.0 **** 0.06
3591 C 147.35199431242472 88.80938936566736 10.849696720446701 C 0.0 **** -0.24
3592 H 147.49289413192253 88.44564331768424 11.868195993966339 H 0.0 **** 0.06
3593 H 148.124423838003 89.54146833972206 10.615804333909693 H 0.0 **** 0.06
3594 H 146.37015658245252 89.2758732340132 10.76439039432762 H 0.0 **** 0.06
3595 H 147.41938373065068 87.97378389980503 10.153065654645928 H 0.0 **** 0.06
3596 C 76.59185911947077 23.571874034128058 45.69383371797386 C 0.0 **** -0.24
3597 H 76.22058706031294 22.621483621073168 45.30987564062701 H 0.0 **** 0.06
3598 H 76.23694045027628 23.71513429527235 46.71439332164152 H 0.0 **** 0.06
3599 H 76.229323401138 24.384565130539812 45.06418801286188 H 0.0 **** 0.06
3600 H 77.68211547706414 23.56600856513245 45.6856261908718 H 0.0 **** 0.06
3601 C 39.17327452722202 38.15540346940986 47.312675058344325 C 0.0 **** -0.24
3602 H 39.34227082494766 39.20823781470858 47.08744683577669 H 0.0 **** 0.06
3603 H 39.79501812093886 37.85953320454058 48.15806158724928 H 0.0 **** 0.06
3604 H 39.431321600533636 37.55166694728888 46.44229720447629 H 0.0 **** 0.06
3605 H 38.12305447028734 38.00148369857618 47.56221109561852 H 0.0 **** 0.06
3606 C 66.29093118715406 1.5321348813230387 97.6717240253513 C 0.0 **** -0.24
3607 H 67.2875098588517 1.8714300885905217 97.38820788287349 H 0.0 **** 0.06
3608 H 65.63924806091308 1.5481401251795646 96.79683164312961 H 0.0 **** 0.06
3609 H 65.88652007991811 2.1946796848527192 98.43725242144578 H 0.0 **** 0.06
3610 H 66.34987313204806 0.5171815225335585 98.0625285034261 H 0.0 **** 0.06
3611 C 56.748599481698875 74.3543224180505 105.58345892743789 C 0.0 **** -0.24
3612 H 57.39361538157709 74.69671586713467 104.77518308545659 H 0.0 **** 0.06
3613 H 55.70618117744763 74.51255243153737 105.3084134993948 H 0.0 **** 0.06
3614 H 56.97446162274298 74.91509379999162 106.49059972722303 H 0.0 **** 0.06
3615 H 56.92097865800011 73.29287221886162 105.7607765986197 H 0.0 **** 0.06
3616 C 51.530308531711455 88.17376243080581 64.63018713440778 C 0.0 **** -0.24
3617 H 51.11013934219642 88.01269734193657 65.62331833566157 H 0.0 **** 0.06
3618 H 51.72905095683085 87.21110254320769 64.15964272121104 H 0.0 **** 0.06
3619 H 52.46067459157514 88.73504016304656 64.71733629663368 H 0.0 **** 0.06
3620 H 50.82167846769157 88.73660076567094 64.02340951422312 H 0.0 **** 0.06
3621 C 89.74232044966516 53.80723360481781 42.91702653199326 C 0.0 **** -0.24
3622 H 89.7240768533932 54.62562417762501 42.196032931452294 H 0.0 **** 0.06
3623 H 90.5808696803399 53.14732950484547 42.693452261077795 H 0.0 **** 0.06
3624 H 88.81021555435109 53.24620626111712 42.854373239108924 H 0.0 **** 0.06
3625 H 89.85562416008628 54.21218704469099 43.92286333079244 H 0.0 **** 0.06
3626 C 146.18691164492867 29.447436910709726 89.03999895341389 C 0.0 **** -0.24
3627 H 146.92407583725577 29.226854495243785 88.26771465650643 H 0.0 **** 0.06
3628 H 146.69648656731113 29.78056405224786 89.94451727806182 H 0.0 **** 0.06
3629 H 145.6097220859382 28.548008314150287 89.25838425372842 H 0.0 **** 0.06
3630 H 145.51752292310198 30.23264746188695 88.68896221357812 H 0.0 **** 0.06
3631 C 45.95119487947986 11.34254896010546 120.08531020335317 C 0.0 **** -0.24
3632 H 45.807990964184626 11.087192205957251 121.13567026832635 H 0.0 **** 0.06
3633 H 46.387036100530565 12.338838378821151 120.01023358912096 H 0.0 **** 0.06
3634 H 44.98768072295732 11.328004396496993 119.57368761844538 H 0.0 **** 0.06
3635 H 46.619384331432485 10.61615831535812 119.62253146083236 H 0.0 **** 0.06
3636 C 68.01538707483988 121.42580352240923 16.86483014965404 C 0.0 **** -0.24
3637 H 68.80038390763366 121.01911243098236 16.227863922107304 H 0.0 **** 0.06
3638 H 67.10323937981735 120.84393731202893 16.732959142600606 H 0.0 **** 0.06
3639 H 67.82759359318229 122.46383273928795 16.59186019237393 H 0.0 **** 0.06
3640 H 68.33189468548301 121.3750844107342 17.90666611440301 H 0.0 **** 0.06
3641 C 49.295769691950596 77.53621723670113 149.8121323408518 C 0.0 **** -0.24
3642 H 49.31209754980529 76.87699164763467 148.94436008535712 H 0.0 **** 0.06
3643 H 49.797030474878326 78.47282265403874 149.56533154443983 H 0.0 **** 0.06
3644 H 49.81122088109055 77.0552345744668 150.6435211944281 H 0.0 **** 0.06
3645 H 48.26303533193095 77.74016483001071 150.09397941756043 H 0.0 **** 0.06
3646 C 105.38555103960176 48.8293148885094 137.47835035322487 C 0.0 **** -0.24
3647 H 105.94329474238772 48.98764234564804 136.55527394626864 H 0.0 **** 0.06
3648 H 104.67315573964329 48.01643179790403 137.33593650620531 H 0.0 **** 0.06
3649 H 104.84986633519817 49.74191158676744 137.7392293033363 H 0.0 **** 0.06
3650 H 106.07652011041073 48.57179655268199 138.2806537245021 H 0.0 **** 0.06
3651 C 78.47343687692421 58.28593706482593 96.82028039844049 C 0.0 **** -0.24
3652 H 78.83591596167936 59.077971740160876 97.474139402118 H 0.0 **** 0.06
3653 H 78.83249326660344 57.32149006686974 97.18273487108281 H 0.0 **** 0.06
3654 H 78.8411779906736 58.45368719439115 95.80762741623919 H 0.0 **** 0.06
3655 H 77.38253937966716 58.28910687270505 96.81623832470032 H 0.0 **** 0.06
3656 C 36.83002773316895 57.40430316991947 66.2152910908332 C 0.0 **** -0.24
3657 H 37.659026109599964 57.80200515391974 65.63086020711961 H 0.0 **** 0.06
3658 H 36.87606927738224 56.315533544758495 66.21602067349943 H 0.0 **** 0.06
3659 H 35.886561217425424 57.72807881238427 65.77509686263232 H 0.0 **** 0.06
3660 H 36.898947649574964 57.77235662109496 67.2396071634908 H 0.0 **** 0.06
3661 C 14.825580280040754 115.9463214081831 76.77180583939564 C 0.0 **** -0.24
3662 H 14.36172293333243 115.08154054741185 77.24483337800083 H 0.0 **** 0.06
3663 H 14.987304388151642 115.73915895549676 75.71417798077768 H 0.0 **** 0.06
3664 H 15.782475153374207 116.15303488763637 77.2520499851203 H 0.0 **** 0.06
3665 H 14.171473511310865 116.81261731489307 76.87801533563328 H 0.0 **** 0.06
3666 C 41.888118594259495 83.2612513336511 41.98126197669386 C 0.0 **** -0.24
3667 H 41.70025494947377 82.44634159989934 41.281687055907796 H 0.0 **** 0.06
3668 H 41.876391033213125 82.87557235215178 43.0004032034804 H 0.0 **** 0.06
3669 H 41.11232425037177 84.0198636822841 41.870527335801995 H 0.0 **** 0.06
3670 H 42.86132278912298 83.70378793245447 41.76961459603963 H 0.0 **** 0.06
3671 C 67.28688394073153 133.29472347546408 104.99669327320873 C 0.0 **** -0.24
3672 H 67.94592021914221 133.65901128861373 104.20719893080036 H 0.0 **** 0.06
3673 H 66.45234068528949 132.75255769516582 104.55068146553083 H 0.0 **** 0.06
3674 H 66.90708238593001 134.13999210136666 105.57057949814651 H 0.0 **** 0.06
3675 H 67.8437252763269 132.62776343718548 105.6546436480541 H 0.0 **** 0.06
3676 C 101.95060331522329 15.417726083202524 77.95744840546435 C 0.0 **** -0.24
3677 H 102.2240904465183 14.62762766105402 77.25885989280455 H 0.0 **** 0.06
3678 H 102.78620775004258 15.61481990749715 78.62944836254013 H 0.0 **** 0.06
3679 H 101.08259193221555 15.103695987922208 78.5386368996856 H 0.0 **** 0.06
3680 H 101.70712025582166 16.32445777311304 77.4032153044691 H 0.0 **** 0.06
3681 C 139.20469655496828 87.8546207037196 7.373729738339577 C 0.0 **** -0.24
3682 H 139.29022212529622 88.53828105364255 8.217763826038684 H 0.0 **** 0.06
3683 H 139.06156798005807 86.83940735791671 7.742028125285373 H 0.0 **** 0.06
3684 H 140.11472011456812 87.90026286839935 6.775698320093461 H 0.0 **** 0.06
3685 H 138.35218062668145 88.14246052753867 6.7589090458994505 H 0.0 **** 0.06
3686 C 137.2995694073847 8.5831233261204 147.2572596787284 C 0.0 **** -0.24
3687 H 136.66572996414396 7.717273325659015 147.0700086274929 H 0.0 **** 0.06
3688 H 138.33553989703415 8.329955798114497 147.03185111731122 H 0.0 **** 0.06
3689 H 137.21543556227908 8.875437499305484 148.30332590431553 H 0.0 **** 0.06
3690 H 136.98128484177045 9.409807449650941 146.6216355864497 H 0.0 **** 0.06
3691 C 97.15301664634916 106.81057752095602 130.08206311846197 C 0.0 **** -0.24
3692 H 97.23666751455997 107.0672701902986 131.13807499108015 H 0.0 **** 0.06
3693 H 96.179114617187 106.35860742552659 129.89451436184004 H 0.0 **** 0.06
3694 H 97.93944083707373 106.1047918248852 129.81611539949472 H 0.0 **** 0.06
3695 H 97.25721701613674 107.71325415082556 129.4800549327113 H 0.0 **** 0.06
3696 C 56.53029190200107 117.13242536085629 107.66769144310882 C 0.0 **** -0.24
3697 H 55.88350624176104 117.99815303924409 107.52585152561358 H 0.0 **** 0.06
3698 H 56.58907326539884 116.56625915310694 106.7381096832724 H 0.0 **** 0.06
3699 H 56.12179508852651 116.498428470641 108.45481911831001 H 0.0 **** 0.06
3700 H 57.52745434055268 117.4678498735175 107.95387872350301 H 0.0 **** 0.06
3701 C 17.961703976655627 112.68171785312573 146.99148118652874 C 0.0 **** -0.24
3702 H 17.95268796987049 113.75383011164685 146.79302788358376 H 0.0 **** 0.06
3703 H 18.263245091257858 112.50578570123899 148.02347802080902 H 0.0 **** 0.06
3704 H 18.66703848549909 112.19429460329148 146.31755499269497 H 0.0 **** 0.06
3705 H 16.96390986345793 112.27459148749342 146.82934640969415 H 0.0 **** 0.06
3706 C 24.88797224114513 52.515397944400036 128.40972149205652 C 0.0 **** -0.24
3707 H 24.25562075904466 52.45777769357764 127.52380548097985 H 0.0 **** 0.06
3708 H 25.483390531631137 53.42818027055921 128.37073185646278 H 0.0 **** 0.06
3709 H 25.550857991061953 51.64984500564685 128.43982646710072 H 0.0 **** 0.06
3710 H 24.262756000843304 52.52604064472132 129.30242583910763 H 0.0 **** 0.06
3711 C 67.21370231258958 82.99327930493837 149.21890793696733 C 0.0 **** -0.24
3712 H 66.98821958913125 83.87622094626323 148.62013310582168 H 0.0 **** 0.06
3713 H 67.61291942104062 83.30279066300946 150.18554806556457 H 0.0 **** 0.06
3714 H 67.95065886729243 82.38086944451413 148.70065430602256 H 0.0 **** 0.06
3715 H 66.30203293704217 82.41497533858922 149.3703052821656 H 0.0 **** 0.06
3716 C 68.32436331394173 41.78878418901388 53.68583834644116 C 0.0 **** -0.24
3717 H 67.52405366880447 41.0906148304864 53.929016586086405 H 0.0 **** 0.06
3718 H 67.96729553778326 42.506627240754824 52.94709370747401 H 0.0 **** 0.06
3719 H 69.17374749549182 41.240719517248976 53.27913050205238 H 0.0 **** 0.06
3720 H 68.63106898196556 42.31773556691337 54.588280449411016 H 0.0 **** 0.06
3721 C 105.1705838159218 149.02851592557496 147.94858222254342 C 0.0 **** -0.24
3722 H 105.70687003006007 149.30667272053918 147.0416320880439 H 0.0 **** 0.06
3723 H 105.22259670904837 149.84634760484946 148.66689528499543 H 0.0 **** 0.06
3724 H 105.62516596755471 148.13592221355017 148.3801285729062 H 0.0 **** 0.06
3725 H 104.12795884355837 148.82268678425748 147.70558178014363 H 0.0 **** 0.06
3726 C 45.87464301517559 23.699678408270245 96.83189396475525 C 0.0 **** -0.24
3727 H 46.65096717206097 24.407144999293962 97.12313182975916 H 0.0 **** 0.06
3728 H 46.125201391856535 23.262661197066564 95.86546284114787 H 0.0 **** 0.06
3729 H 44.9194080464091 24.218282455951567 96.7610517935274 H 0.0 **** 0.06
3730 H 45.80455608989439 22.909667478790197 97.58008528295365 H 0.0 **** 0.06
3731 C 50.71476618705721 92.33637038675049 95.50481225254991 C 0.0 **** -0.24
3732 H 51.675999945742205 92.46780330853726 95.00615928924863 H 0.0 **** 0.06
3733 H 50.32529358813419 93.30972684752896 95.80395767238576 H 0.0 **** 0.06
3734 H 50.84731977079936 91.71096312104605 96.38806929032167 H 0.0 **** 0.06
3735 H 50.01410369580837 91.85711687005112 94.82186585920714 H 0.0 **** 0.06
3736 C 152.92728050957572 35.237782157423055 31.285329122906944 C 0.0 **** -0.24
3737 H 152.23577946685688 34.582551937491985 30.755164664221297 H 0.0 **** 0.06
3738 H 152.78281248171533 36.265300745109585 30.95027354718752 H 0.0 **** 0.06
3739 H 153.95132382287406 34.92863593779862 31.079136168398975 H 0.0 **** 0.06
3740 H 152.73712513926253 35.17461202698803 32.35755960045935 H 0.0 **** 0.06
3741 C 95.30881511277634 102.93457101921793 20.314860736296197 C 0.0 **** -0.24
3742 H 94.5779455511742 103.7156250226693 20.523841576885047 H 0.0 **** 0.06
3743 H 95.33252215676183 102.22883035861294 21.145896117322053 H 0.0 **** 0.06
3744 H 96.2939728256115 103.38265452445894 20.190933024668084 H 0.0 **** 0.06
3745 H 95.03008277386432 102.41053017324019 19.401017684211695 H 0.0 **** 0.06
3746 C 149.3500357112299 5.305795762854586 56.55857760831579 C 0.0 **** -0.24
3747 H 149.39769806921413 5.505115122902623 55.48765427370353 H 0.0 **** 0.06
3748 H 150.27389682814638 4.8242032162146415 56.87913794621788 H 0.0 **** 0.06
3749 H 148.5050264559189 4.650243166811947 56.768188703213 H 0.0 **** 0.06
3750 H 149.22365786575176 6.245679134702698 57.09637178264384 H 0.0 **** 0.06
3751 C 42.256048412397206 111.02812926186978 29.86444592730612 C 0.0 **** -0.24
3752 H 41.67741791088413 111.79554213056308 30.378644239087862 H 0.0 **** 0.06
3753 H 43.18525361028536 111.46147119424701 29.493603425133927 H 0.0 **** 0.06
3754 H 41.677344034987044 110.63742720167234 29.027854155294335 H 0.0 **** 0.06
3755 H 42.48381291797358 110.21992184652505 30.55889084931397 H 0.0 **** 0.06
3756 C 59.98261042929704 133.5630811321858 14.272019965366326 C 0.0 **** -0.24
3757 H 59.41971408690057 134.18681370596556 14.967411293687576 H 0.0 **** 0.06
3758 H 60.997924151165876 133.94925226375778 14.180288922437967 H 0.0 **** 0.06
3759 H 59.49725812604504 133.57871840476702 13.296731160645663 H 0.0 **** 0.06
3760 H 60.01392706018669 132.5402975638665 14.646611327718745 H 0.0 **** 0.06
3761 C 93.97731267117757 126.2718116275001 17.613117399796238 C 0.0 **** -0.24
3762 H 92.92426816529742 126.55110393129466 17.62215689640618 H 0.0 **** 0.06
3763 H 94.55821932584283 127.05795577139249 17.131303640185365 H 0.0 **** 0.06
3764 H 94.10067553769916 125.33955340647246 17.061567857593673 H 0.0 **** 0.06
3765 H 94.3271751656359 126.13654308453359 18.636771805608305 H 0.0 **** 0.06
3766 C 83.00008928289994 7.987570402324764 19.88622581924043 C 0.0 **** -0.24
3767 H 82.39640654461482 8.056530437192123 18.981301880287013 H 0.0 **** 0.06
3768 H 83.96807223475739 7.546340764793399 19.644353641288177 H 0.0 **** 0.06
3769 H 82.4876118308139 7.3624863054514265 20.617414167526334 H 0.0 **** 0.06
3770 H 83.14820108057951 8.985173373250404 20.300443031722686 H 0.0 **** 0.06
3771 C 130.42872424446864 59.505708225677125 137.0529118059145 C 0.0 **** -0.24
3772 H 130.78686760346847 59.62913524353519 136.03068884209907 H 0.0 **** 0.06
3773 H 130.34867622257545 58.44378713324184 137.2847491841055 H 0.0 **** 0.06
3774 H 129.45016430162062 59.97534148583867 137.15468470496089 H 0.0 **** 0.06
3775 H 131.13028732288583 59.97647506165265 137.741925244713 H 0.0 **** 0.06
3776 C 89.28463227457598 37.41313744721029 22.37045623367414 C 0.0 **** -0.24
3777 H 89.41666396199858 36.76544525348997 21.502880198755314 H 0.0 **** 0.06
3778 H 88.43797625697906 37.06160528442031 22.9604599714511 H 0.0 **** 0.06
3779 H 89.09664373826807 38.433097271185474 22.035841644606812 H 0.0 **** 0.06
3780 H 90.18754729170844 37.39149610028589 22.979628420414784 H 0.0 **** 0.06
3781 C 50.64653399928858 69.47188867951627 52.37561762396963 C 0.0 **** -0.24
3782 H 50.76466627685079 69.81231444355825 51.34658372923563 H 0.0 **** 0.06
3783 H 50.62250354775716 68.38196589750618 52.39639176686978 H 0.0 **** 0.06
3784 H 49.714334362647946 69.86419126579665 52.78239421849655 H 0.0 **** 0.06
3785 H 51.484531480908686 69.82868787371257 52.97468543104999 H 0.0 **** 0.06
3786 C 74.22996236083787 100.96543760761655 71.8578091813063 C 0.0 **** -0.24
3787 H 73.38437899708306 100.43800645122359 71.41695455308434 H 0.0 **** 0.06
3788 H 75.07253439016993 100.9429060584523 71.16634957266882 H 0.0 **** 0.06
3789 H 74.51255189943173 100.4815280266965 72.79295160614299 H 0.0 **** 0.06
3790 H 73.94922561365432 102.00045945510318 72.05440100606734 H 0.0 **** 0.06
3791 C 39.96500199524121 138.06874883150704 48.39287994171315 C 0.0 **** -0.24
3792 H 40.86602875906232 138.39554996188735 48.91241288399425 H 0.0 **** 0.06
3793 H 39.955240851103326 138.48599771386625 47.385003052740785 H 0.0 **** 0.06
3794 H 39.08618667412833 138.4151795217319 48.93745234731807 H 0.0 **** 0.06
3795 H 39.95275593631334 136.98044132577684 48.33616603177336 H 0.0 **** 0.06
3796 C 3.8191370102042868 41.389970779271565 45.20369721716645 C 0.0 **** -0.24
3797 H 3.245662926183684 42.1901552206577 44.73514943369321 H 0.0 **** 0.06
3798 H 4.564442914035737 41.820700668838214 45.872785075427316 H 0.0 **** 0.06
3799 H 4.319148146263188 40.802712787187446 44.43302179320301 H 0.0 **** 0.06
3800 H 3.148074667894832 40.747009778460495 45.77288008928008 H 0.0 **** 0.06
3801 C 150.20807521763737 60.81189940993167 102.75918846177876 C 0.0 **** -0.24
3802 H 149.49596207904403 61.08786303889845 103.53650474502456 H 0.0 **** 0.06
3803 H 149.69828519536264 60.777644526535965 101.79530803711492 H 0.0 **** 0.06
3804 H 150.62768304825104 59.830964701461085 102.98385723870086 H 0.0 **** 0.06
3805 H 151.0089609756655 61.549389775166645 102.72111496520495 H 0.0 **** 0.06
3806 C 97.71044610329236 34.49680049575019 14.946647555905145 C 0.0 **** -0.24
3807 H 97.22430325708149 33.963316329209505 14.130390599218714 H 0.0 **** 0.06
3808 H 97.44957539249373 34.02506090036303 15.894078240010458 H 0.0 **** 0.06
3809 H 97.37800470338249 35.534305481540514 14.952872858089307 H 0.0 **** 0.06
3810 H 98.79108225570604 34.46243863165196 14.80977379643457 H 0.0 **** 0.06
3811 C 31.508500205812467 75.81266248096198 135.045818069847 C 0.0 **** -0.24
3812 H 32.30812885873573 75.86210506397823 134.30591932104056 H 0.0 **** 0.06
3813 H 30.544084447724373 75.83707870275875 134.5383264253138 H 0.0 **** 0.06
3814 H 31.585830657781003 76.6653963771826 135.72105625477354 H 0.0 **** 0.06
3815 H 31.597677394205903 74.88824959692504 135.61567058705438 H 0.0 **** 0.06
3816 C 82.79481920365492 72.93777141556322 97.1316109549511 C 0.0 **** -0.24
3817 H 82.31626435039715 72.16143113024523 97.72912305159207 H 0.0 **** 0.06
3818 H 82.03174440293321 73.58059799455143 96.6939815752543 H 0.0 **** 0.06
3819 H 83.37986882604554 72.47469707474161 96.33678721530117 H 0.0 **** 0.06
3820 H 83.4512177685769 73.53137290113516 97.76677063887533 H 0.0 **** 0.06
3821 C 100.46256886438478 106.49328073950424 94.45983908055068 C 0.0 **** -0.24
3822 H 99.77789682363097 106.67214120815835 95.28853491193095 H 0.0 **** 0.06
3823 H 100.32282871735715 105.47864564150673 94.08506711699559 H 0.0 **** 0.06
3824 H 101.48914510416556 106.61465346111912 94.8055478561289 H 0.0 **** 0.06
3825 H 100.26132109374349 107.20714794494351 93.66114163072827 H 0.0 **** 0.06
3826 C 29.67417453360565 60.20716839368532 51.16339975506904 C 0.0 **** -0.24
3827 H 29.28608179922412 60.82247675018459 51.97552065028272 H 0.0 **** 0.06
3828 H 28.965123848476196 60.210067370664774 50.33551063516643 H 0.0 **** 0.06
3829 H 29.815423450702838 59.185494937727185 51.51755762871966 H 0.0 **** 0.06
3830 H 30.629209777535948 60.61011819618642 50.827008918576325 H 0.0 **** 0.06
3831 C 104.21160535701965 71.04802298062141 70.55119426341483 C 0.0 **** -0.24
3832 H 104.16338740951478 71.00838150601965 69.46265750377265 H 0.0 **** 0.06
3833 H 104.08227472863412 72.07903257450855 70.88294346244038 H 0.0 **** 0.06
3834 H 105.1802772421001 70.67747732088218 70.88453390999601 H 0.0 **** 0.06
3835 H 103.42024115911143 70.4281830074973 70.97241128337964 H 0.0 **** 0.06
3836 C 138.5155029795515 74.71471274131056 88.1853400116915 C 0.0 **** -0.24
3837 H 138.66136748687222 75.23072162980334 89.13371072297497 H 0.0 **** 0.06
3838 H 139.31410400940018 73.98650473857343 88.04168351167124 H 0.0 **** 0.06
3839 H 138.5340686114418 75.43900310402513 87.37096942030792 H 0.0 **** 0.06
3840 H 137.5538624181653 74.20251909428636 88.19476019288118 H 0.0 **** 0.06
3841 C 150.23117970776516 147.05030391274633 113.05788706455233 C 0.0 **** -0.24
3842 H 151.205869965002 147.43053753446708 112.75289370278652 H 0.0 **** 0.06
3843 H 149.526556014506 147.8783413963751 113.13535995650408 H 0.0 **** 0.06
3844 H 150.3203008175715 146.55713674073695 114.02615937078325 H 0.0 **** 0.06
3845 H 149.87228195741818 146.33536083566415 112.31807868042092 H 0.0 **** 0.06
3846 C 136.1242168780551 26.350663830286436 124.00726698350151 C 0.0 **** -0.24
3847 H 135.39770295581255 26.44619009157637 124.81549714441518 H 0.0 **** 0.06
3848 H 136.6432000889495 25.396979145469743 124.09737571349227 H 0.0 **** 0.06
3849 H 136.84498293085255 27.165527824808407 124.06994566360031 H 0.0 **** 0.06
3850 H 135.60795642859853 26.394376523640204 123.04841140976318 H 0.0 **** 0.06
3851 C 35.44071397652114 21.672105288724453 88.72241402273289 C 0.0 **** -0.24
3852 H 34.72391114933964 20.919866104271932 89.05269210040439 H 0.0 **** 0.06
3853 H 35.47040690851177 21.691287475117235 87.63286455014253 H 0.0 **** 0.06
3854 H 36.42949440282915 21.42565664395721 89.10955871364197 H 0.0 **** 0.06
3855 H 35.13875965167915 22.64996786239817 89.09633515706426 H 0.0 **** 0.06
3856 C 127.9908807836319 61.08328542469589 73.81095760770488 C 0.0 **** -0.24
3857 H 128.2366889188067 60.053014269273206 74.0699101230719 H 0.0 **** 0.06
3858 H 127.56536456509525 61.114546344406335 72.80811995312676 H 0.0 **** 0.06
3859 H 128.89521223503522 61.69030132809431 73.8426587687458 H 0.0 **** 0.06
3860 H 127.26636641015972 61.47312890282643 74.52620139014381 H 0.0 **** 0.06
3861 C 48.25401667108008 138.88058210272897 108.91763926218619 C 0.0 **** -0.24
3862 H 47.53060427229059 138.08583170226828 108.736998855671 H 0.0 **** 0.06
3863 H 49.09592316958265 138.48266486000244 109.48501040860543 H 0.0 **** 0.06
3864 H 47.77943124245951 139.68138192475456 109.48424491799676 H 0.0 **** 0.06
3865 H 48.610054089663095 139.27104911971804 107.96411603380216 H 0.0 **** 0.06
3866 C 105.57339895446846 108.1283340651358 143.75695544942562 C 0.0 **** -0.24
3867 H 105.83595403171778 109.17717103529851 143.61815516980386 H 0.0 **** 0.06
3868 H 105.18916229287446 107.9805453850946 144.7663004697402 H 0.0 **** 0.06
3869 H 106.45930170119841 107.51051072102815 143.60996119443269 H 0.0 **** 0.06
3870 H 104.80889093462015 107.84572128042079 143.0326680757493 H 0.0 **** 0.06
3871 C 153.9494910208645 145.87034570410202 131.81906919929554 C 0.0 **** -0.24
3872 H 154.53749511821914 146.7745964636208 131.66409373421916 H 0.0 **** 0.06
3873 H 154.3328954425526 145.3329770217081 132.6877369682203 H 0.0 **** 0.06
3874 H 154.02186530573053 145.2344312946995 130.9367951513895 H 0.0 **** 0.06
3875 H 152.90745378021316 146.13964353920917 131.98986064413822 H 0.0 **** 0.06
3876 C 139.64666876021565 123.4322796351338 52.0218821495414 C 0.0 **** -0.24
3877 H 140.71538713763587 123.59615791032695 52.1595106604492 H 0.0 **** 0.06
3878 H 139.47326612514567 122.39704876524388 51.72826975324776 H 0.0 **** 0.06
3879 H 139.27422148297075 124.09809369423022 51.243481654980855 H 0.0 **** 0.06
3880 H 139.1251568321113 123.63743246556385 52.95616115403578 H 0.0 **** 0.06
3881 C 44.2532949052797 44.58751088797747 48.000914222220445 C 0.0 **** -0.24
3882 H 45.120554416982515 45.03705473951629 48.48518166573837 H 0.0 **** 0.06
3883 H 43.34630726177687 44.88839753490676 48.5275881163916 H 0.0 **** 0.06
3884 H 44.34524301540452 43.50208707848583 48.02684379735376 H 0.0 **** 0.06
3885 H 44.20133150515548 44.923546638141445 46.9660048524168 H 0.0 **** 0.06
3886 C 6.2124542042300845 80.71727252054127 128.23659110853004 C 0.0 **** -0.24
3887 H 5.203279999229295 81.02638066067877 127.965245873332 H 0.0 **** 0.06
3888 H 6.264946551885771 80.55004894155506 129.3130972847266 H 0.0 **** 0.06
3889 H 6.918838513855235 81.49845156568165 127.95494560086938 H 0.0 **** 0.06
3890 H 6.462525396412758 79.794930382178 127.71242124433327 H 0.0 **** 0.06
3891 C 122.99991194196552 9.316530244010401 102.2314546810885 C 0.0 **** -0.24
3892 H 122.47592833614173 10.080133872905947 102.80616621276327 H 0.0 **** 0.06
3893 H 123.28340045870611 8.496687881515633 102.89106397149077 H 0.0 **** 0.06
3894 H 123.89380468382238 9.749731109459248 101.78312284585037 H 0.0 **** 0.06
3895 H 122.34500706581322 8.941145314379291 101.44497490550087 H 0.0 **** 0.06
3896 C 154.07750384193895 11.909379799341714 93.18196244692791 C 0.0 **** -0.24
3897 H 153.550604981908 12.844147755522371 92.99410323109281 H 0.0 **** 0.06
3898 H 153.7181463743969 11.144760359734029 92.49256414040565 H 0.0 **** 0.06
3899 H 153.89315714578095 11.58915491085888 94.20849157884801 H 0.0 **** 0.06
3900 H 155.1470961123038 12.059258582733868 93.0346756545252 H 0.0 **** 0.06
3901 C 149.53385295190816 56.32545142742276 134.70829213176995 C 0.0 **** -0.24
3902 H 150.42284111312188 56.656525126583006 135.2468178834023 H 0.0 **** 0.06
3903 H 149.73723149220666 55.36964821513038 134.2245720825657 H 0.0 **** 0.06
3904 H 149.26891328826514 57.065972568532914 133.95470004582697 H 0.0 **** 0.06
3905 H 148.70802169238868 56.20956756991177 135.40998460255443 H 0.0 **** 0.06
3906 C 83.38345067658764 36.333022332754766 26.118542478298565 C 0.0 **** -0.24
3907 H 82.99034206905282 35.38160193291956 25.759629492713543 H 0.0 **** 0.06
3908 H 84.4556067435282 36.37774609938472 25.926030558072142 H 0.0 **** 0.06
3909 H 83.20124615105283 36.419992845888856 27.18971721392444 H 0.0 **** 0.06
3910 H 82.88651957778222 37.15114781333557 25.597233692771056 H 0.0 **** 0.06
3911 C 14.898434711597503 144.89768846435263 129.18093279033798 C 0.0 **** -0.24
3912 H 14.622615293238084 144.60069154301652 130.1925572928563 H 0.0 **** 0.06
3913 H 15.303122678222223 145.9101224847517 129.19833128097187 H 0.0 **** 0.06
3914 H 14.01555899172719 144.86990646725081 128.54137799750723 H 0.0 **** 0.06
3915 H 15.65072252046729 144.2109697372539 128.79254494026083 H 0.0 **** 0.06
3916 C 118.31837891871315 100.49163722608459 119.37085563455321 C 0.0 **** -0.24
3917 H 118.09610306088585 101.48012551711834 119.77351557847112 H 0.0 **** 0.06
3918 H 118.39872576436481 99.77524568065952 120.18877386234107 H 0.0 **** 0.06
3919 H 119.26152351463831 100.5274079592683 118.82453481779118 H 0.0 **** 0.06
3920 H 117.51895616525648 100.1869671764968 118.6958481718043 H 0.0 **** 0.06
3921 C 11.332505640419384 111.20526082925738 137.3597571237678 C 0.0 **** -0.24
3922 H 10.807449293026309 112.15997587650708 137.39495217308442 H 0.0 **** 0.06
3923 H 11.842628110592813 111.03764791860152 138.30891816660545 H 0.0 **** 0.06
3924 H 12.063805425761359 111.22193829045193 136.5514464357102 H 0.0 **** 0.06
3925 H 10.615696738986003 110.40312515906254 137.1854728142994 H 0.0 **** 0.06
3926 C 155.6984843419258 3.759617064192348 141.63075273955604 C 0.0 **** -0.24
3927 H 156.0427045717327 2.9952758424324877 142.3278607795939 H 0.0 **** 0.06
3928 H 155.17494906313635 4.543016611870499 142.17975243674397 H 0.0 **** 0.06
3929 H 155.02214880678332 3.310288832119241 140.9039219210237 H 0.0 **** 0.06
3930 H 156.55503628111865 4.190310752250788 141.11138637540944 H 0.0 **** 0.06
3931 C 60.980456197619446 37.376173342331185 22.05075178619657 C 0.0 **** -0.24
3932 H 59.91849135436948 37.129736648149276 22.078125786244385 H 0.0 **** 0.06
3933 H 61.10260244111869 38.41917508575321 21.75715451477585 H 0.0 **** 0.06
3934 H 61.483764077827445 36.73346128391108 21.32873651919939 H 0.0 **** 0.06
3935 H 61.41401590310721 37.2228316575185 23.03881603985704 H 0.0 **** 0.06
3936 C 73.61726171448322 65.37885554262573 62.81069867146506 C 0.0 **** -0.24
3937 H 74.58475754066143 65.34387693323004 63.31231507863697 H 0.0 **** 0.06
3938 H 73.6124333133179 66.19668392596202 62.090572938197525 H 0.0 **** 0.06
3939 H 72.83153858251059 65.53979945126025 63.54870197976038 H 0.0 **** 0.06
3940 H 73.44233353574225 64.43621109358827 62.29310596209015 H 0.0 **** 0.06
3941 C 22.68807804027125 10.831750429681733 56.986541999608335 C 0.0 **** -0.24
3942 H 23.48215663501361 10.241429672583479 56.52930435867029 H 0.0 **** 0.06
3943 H 21.93328152454592 10.164202087457767 57.401745672137395 H 0.0 **** 0.06
3944 H 22.233045345327184 11.472877772155414 56.23157865795531 H 0.0 **** 0.06
3945 H 23.106638658661268 11.447741326700168 57.7822981726232 H 0.0 **** 0.06
3946 C 122.8741644216169 19.56251720106144 154.4398641002685 C 0.0 **** -0.24
3947 H 122.93065912778762 20.293933905264574 153.63360444743907 H 0.0 **** 0.06
3948 H 123.10442384148622 18.57154585769858 154.04787291829854 H 0.0 **** 0.06
3949 H 121.86948849978445 19.563001842190396 154.86232915218787 H 0.0 **** 0.06
3950 H 123.59411271145568 19.822937816887176 155.2159132246565 H 0.0 **** 0.06
3951 C 11.240124137590612 41.756924396881544 72.04173751851901 C 0.0 **** -0.24
3952 H 11.525887371039005 41.88123674129187 73.08607916543563 H 0.0 **** 0.06
3953 H 12.01872413421134 42.16931004261701 71.40053569903887 H 0.0 **** 0.06
3954 H 10.301487223536014 42.28092713193237 71.8574779297152 H 0.0 **** 0.06
3955 H 11.112784814854962 40.6967687762793 71.82317534897965 H 0.0 **** 0.06
3956 C 2.7995680936594454 49.08607300049755 41.85104161186902 C 0.0 **** -0.24
3957 H 3.521040367012546 48.51725253700707 41.265268890517774 H 0.0 **** 0.06
3958 H 2.0929310906967658 48.40102887577808 42.32145783525834 H 0.0 **** 0.06
3959 H 2.2606090065405624 49.7730013860583 41.19851715433603 H 0.0 **** 0.06
3960 H 3.324117174086183 49.652109031726184 42.620924817335464 H 0.0 **** 0.06
3961 C 30.467036961424775 82.13086106682516 99.45591059006527 C 0.0 **** -0.24
3962 H 29.532930933631768 82.09103328888523 98.89616124696839 H 0.0 **** 0.06
3963 H 30.57564548162396 81.21985006499895 100.0455951322625 H 0.0 **** 0.06
3964 H 30.455839367899344 82.99438924101145 100.12006895870432 H 0.0 **** 0.06
3965 H 31.302209749588442 82.21688421695131 98.76165842875946 H 0.0 **** 0.06
3966 C 139.78659280319567 107.60708204053294 130.53855028123579 C 0.0 **** -0.24
3967 H 140.38398181176007 107.97045027484349 129.7015194476919 H 0.0 **** 0.06
3968 H 139.87763482730293 108.2989660807469 131.37543586001382 H 0.0 **** 0.06
3969 H 140.144533869114 106.62284826647418 130.83867975958913 H 0.0 **** 0.06
3970 H 138.74192473688424 107.53681634741706 130.23475421544518 H 0.0 **** 0.06
3971 C 146.0784361736914 74.24716312386806 87.64233819737403 C 0.0 **** -0.24
3972 H 146.99884139366924 73.67612071208117 87.7642088893903 H 0.0 **** 0.06
3973 H 145.3003473894122 73.82078817428285 88.27723188059964 H 0.0 **** 0.06
3974 H 145.76112028542047 74.20635356691781 86.60042511423123 H 0.0 **** 0.06
3975 H 146.25418332214977 75.2838908882083 87.9292739932691 H 0.0 **** 0.06
3976 C 78.17538540877521 151.5228321760212 132.74787136698785 C 0.0 **** -0.24
3977 H 77.35748580709978 152.1177457915594 132.34159350944003 H 0.0 **** 0.06
3978 H 79.06463004730878 152.14647469519565 132.8438905230803 H 0.0 **** 0.06
3979 H 78.38520654435297 150.6891482025453 132.07801034885605 H 0.0 **** 0.06
3980 H 77.8924309840549 151.13881987439572 133.72774023718685 H 0.0 **** 0.06
3981 C 87.46057174430783 1.290046568356928 129.35032597630055 C 0.0 **** -0.24
3982 H 88.28186784293827 1.4229139760226133 128.64542621551902 H 0.0 **** 0.06
3983 H 87.83608847254878 1.3885852939389736 130.36868198805686 H 0.0 **** 0.06
3984 H 87.0256031469575 0.2996834691064407 129.21664009417873 H 0.0 **** 0.06
3985 H 86.70033741559837 2.049101671344147 129.16765751384014 H 0.0 **** 0.06
3986 C 44.327086369632156 129.11236985469407 151.11820401953878 C 0.0 **** -0.24
3987 H 44.83399995408908 129.8124787226616 150.4551664509384 H 0.0 **** 0.06
3988 H 45.06124676565851 128.44217673013173 151.568025581354 H 0.0 **** 0.06
3989 H 43.605996667843144 128.5283786524783 150.54639672263977 H 0.0 **** 0.06
3990 H 43.80874805548166 129.66357207295795 151.90303851769568 H 0.0 **** 0.06
3991 C 151.89691801603405 142.6817185460676 111.95575484596371 C 0.0 **** -0.24
3992 H 151.23563918414212 143.22421897261296 112.63144728082578 H 0.0 **** 0.06
3993 H 152.81762724339507 142.42358421804374 112.47808216470035 H 0.0 **** 0.06
3994 H 152.13051271392615 143.3099549078795 111.09537800571401 H 0.0 **** 0.06
3995 H 151.40205695046487 141.77145511836966 111.61771390581946 H 0.0 **** 0.06
3996 C 120.8457647330763 25.43474642807047 144.0205512837851 C 0.0 **** -0.24
3997 H 120.3649448564181 25.053663817456567 144.92184700779006 H 0.0 **** 0.06
3998 H 120.81524749965536 26.52423865479176 144.02565544999737 H 0.0 **** 0.06
3999 H 120.32108222357658 25.059906219432435 143.14219388075895 H 0.0 **** 0.06
4000 H 121.883724301592 25.10037181857021 143.99376913111757 H 0.0 **** 0.06
4001 C 139.03662290669268 63.05908724200674 120.77127645989354 C 0.0 **** -0.24
4002 H 139.04418109778834 63.21557081378384 119.69271611019796 H 0.0 **** 0.06
4003 H 139.2487263016298 62.012332014656096 120.98808121417069 H 0.0 **** 0.06
4004 H 138.0557437799808 63.32164514115598 121.1694676309882 H 0.0 **** 0.06
4005 H 139.7969303993458 63.687770128498386 121.2343585310248 H 0.0 **** 0.06
4006 C 86.12788349764526 150.2425624617414 24.67028472012882 C 0.0 **** -0.24
4007 H 85.17027555102821 149.76119151029752 24.471494117946094 H 0.0 **** 0.06
4008 H 86.93666643774776 149.53717757831149 24.474524521141603 H 0.0 **** 0.06
4009 H 86.16573951793674 150.55792252372044 25.712554644436693 H 0.0 **** 0.06
4010 H 86.23933827399 151.11156363080647 24.022739020621287 H 0.0 **** 0.06
4011 C 108.93883478134262 121.9636920055189 111.95798983698955 C 0.0 **** -0.24
4012 H 110.01577082555747 122.0211361517871 111.8020200465948 H 0.0 **** 0.06
4013 H 108.7106732967984 121.12675114927536 112.617426708746 H 0.0 **** 0.06
4014 H 108.44077014789735 121.81785048183418 110.99928730062896 H 0.0 **** 0.06
4015 H 108.58847429222254 122.89081973539778 112.41193078059746 H 0.0 **** 0.06
4016 C 27.867476843438098 118.01200008397755 104.24866134233497 C 0.0 **** -0.24
4017 H 28.15640553109111 117.14370321106286 103.65682402380133 H 0.0 **** 0.06
4018 H 27.64298115921347 117.69697025219848 105.26815268280609 H 0.0 **** 0.06
4019 H 26.983391138123203 118.47296162159067 103.80774569223485 H 0.0 **** 0.06
4020 H 28.684522578219436 118.73176475075631 104.26125845835708 H 0.0 **** 0.06
4021 C 123.40331190504726 53.845123867462405 127.36392609416214 C 0.0 **** -0.24
4022 H 124.06035419444079 54.644305229669826 127.02263851557927 H 0.0 **** 0.06
4023 H 123.00034524652604 53.31220860639462 126.50266953014756 H 0.0 **** 0.06
4024 H 122.58389182225194 54.27131056543783 127.94379102441411 H 0.0 **** 0.06
4025 H 123.9684405595573 53.15290523496486 127.98881862081419 H 0.0 **** 0.06
4026 C 80.78034208740632 24.04075550743778 20.85245683234939 C 0.0 **** -0.24
4027 H 81.1146200398208 24.794497090418048 20.139548319405208 H 0.0 **** 0.06
4028 H 81.50590649855855 23.22813576347525 20.88895489880798 H 0.0 **** 0.06
4029 H 79.81174303402861 23.65032462422448 20.539734462667923 H 0.0 **** 0.06
4030 H 80.68767391270194 24.492264145086665 21.840525782854 H 0.0 **** 0.06
4031 C 99.43944730851445 30.265588682734034 28.021478196953638 C 0.0 **** -0.24
4032 H 98.68959654367018 30.014078791703156 28.77227797923365 H 0.0 **** 0.06
4033 H 100.34291018468355 29.68184285645556 28.202446057382502 H 0.0 **** 0.06
4034 H 99.67389932494751 31.327924660485834 28.083785265768427 H 0.0 **** 0.06
4035 H 99.05138692497815 30.0353502780779 27.029410116139417 H 0.0 **** 0.06
4036 C 18.50458473296024 43.956118665842894 78.01662699008511 C 0.0 **** -0.24
4037 H 17.491259895838567 43.567116303498835 77.91718049394126 H 0.0 **** 0.06
4038 H 18.580455748421038 44.90982161930833 77.49339284704016 H 0.0 **** 0.06
4039 H 19.209546547537343 43.245996255507976 77.58296501038973 H 0.0 **** 0.06
4040 H 18.737118154185083 44.09944604902239 79.07170003507738 H 0.0 **** 0.06
4041 C 45.038143254046005 152.7153201665681 1.6875225346478508 C 0.0 **** -0.24
4042 H 45.40824953918964 153.46208295040188 2.3904701679315465 H 0.0 **** 0.06
4043 H 45.03198688814469 153.1355551737535 0.6810930261270762 H 0.0 **** 0.06
4044 H 44.02620063835411 152.42464307089904 1.9666490029830008 H 0.0 **** 0.06
4045 H 45.687662796115745 151.8406725064241 1.7128106209958744 H 0.0 **** 0.06
4046 C 89.64933554852452 78.60696931605867 78.34239860100313 C 0.0 **** -0.24
4047 H 90.5135962981039 79.09042004656507 78.79629437438749 H 0.0 **** 0.06
4048 H 88.95500709065641 78.29676059300971 79.12367398886327 H 0.0 **** 0.06
4049 H 89.97658526872658 77.731796338502 77.77891689754927 H 0.0 **** 0.06
4050 H 89.1530444784633 79.30582537097501 77.66984226531957 H 0.0 **** 0.06
4051 C 22.352197171348223 23.260066403697763 3.3845680921622545 C 0.0 **** -0.24
4052 H 21.989421457419013 23.408575893527562 4.401792941359105 H 0.0 **** 0.06
4053 H 23.431377488464108 23.111680147070864 3.4013011391814416 H 0.0 **** 0.06
4054 H 22.11561253037837 24.138925446774415 2.7837934256078825 H 0.0 **** 0.06
4055 H 21.870305940177502 22.383427127072572 2.9518544613061692 H 0.0 **** 0.06
4056 C 111.30458749738786 48.15946435139438 117.53159833026945 C 0.0 **** -0.24
4057 H 111.80957243166439 47.31687862484813 118.00380503855632 H 0.0 **** 0.06
4058 H 111.90895284453744 49.05907801857765 117.65199550278197 H 0.0 **** 0.06
4059 H 110.33198422562772 48.30938487098203 117.99973438719041 H 0.0 **** 0.06
4060 H 111.16851954987892 47.953437493056185 116.46921837585734 H 0.0 **** 0.06
4061 C 122.17757217573717 130.89681516806144 138.49765420679006 C 0.0 **** -0.24
4062 H 121.19427205947113 131.3169067493664 138.28509214539918 H 0.0 **** 0.06
4063 H 122.46054462646947 130.21133747177373 137.6982671794873 H 0.0 **** 0.06
4064 H 122.1443099999945 130.35688136167573 139.4448689872737 H 0.0 **** 0.06
4065 H 122.9096403113362 131.70087262462775 138.5644111011792 H 0.0 **** 0.06
4066 C 6.865429065953094 81.3509390487558 53.40380997884267 C 0.0 **** -0.24
4067 H 7.738845617601612 81.96882736651054 53.196944796995126 H 0.0 **** 0.06
4068 H 7.1876960297172445 80.39023228663488 53.80723065240102 H 0.0 **** 0.06
4069 H 6.308453626955384 81.18932006200627 52.481106710060146 H 0.0 **** 0.06
4070 H 6.228154715074027 81.85490879397157 54.13080969407849 H 0.0 **** 0.06
4071 C 5.173037302651323 126.08335113443879 106.0786365264736 C 0.0 **** -0.24
4072 H 5.576360287785974 126.96642744573857 105.58231657651062 H 0.0 **** 0.06
4073 H 4.383675787076072 126.38305909280378 106.7680269897668 H 0.0 **** 0.06
4074 H 5.968334759818276 125.58279740286774 106.63146435320114 H 0.0 **** 0.06
4075 H 4.765007820121582 125.4019539458488 105.33184706733248 H 0.0 **** 0.06
4076 C 58.35832972025831 97.67170248253407 56.37164388272032 C 0.0 **** -0.24
4077 H 57.426135621298954 97.90430060148108 55.856318775870506 H 0.0 **** 0.06
4078 H 58.30043105359056 98.01989336750019 57.40293119691029 H 0.0 **** 0.06
4079 H 59.18546423122855 98.16996166502672 55.865650829434855 H 0.0 **** 0.06
4080 H 58.52114232281804 96.59377416919033 56.360361424649 H 0.0 **** 0.06
4081 C 143.36916537695524 30.88064696926517 63.47861404349982 C 0.0 **** -0.24
4082 H 144.32534539867115 30.503995508371673 63.11626325663343 H 0.0 **** 0.06
4083 H 143.13402429801627 30.416643062734295 64.43602184067558 H 0.0 **** 0.06
4084 H 142.5876813458017 30.64149141517737 62.757135691653616 H 0.0 **** 0.06
4085 H 143.42922498130298 31.96247662990038 63.603702609843936 H 0.0 **** 0.06
4086 C 4.381538196167526 78.65241730223488 46.23919836730546 C 0.0 **** -0.24
4087 H 4.102797777995079 78.22314373205893 47.20159363678481 H 0.0 **** 0.06
4088 H 4.414329331010265 79.73904934679393 46.321291168157785 H 0.0 **** 0.06
4089 H 3.646082798456746 78.36603780273822 45.487374044213354 H 0.0 **** 0.06
4090 H 5.364529444063237 78.28086744034866 45.94761027049506 H 0.0 **** 0.06
4091 C 137.39244874809802 25.123183123047383 119.7163412487373 C 0.0 **** -0.24
4092 H 137.65918299959822 25.512922719106413 120.69935986436109 H 0.0 **** 0.06
4093 H 136.35064409042778 24.800780419658764 119.72454273408532 H 0.0 **** 0.06
4094 H 138.0338283222943 24.275017828634688 119.47657146172442 H 0.0 **** 0.06
4095 H 137.52568017846627 25.90344958106106 118.96796883908273 H 0.0 **** 0.06
4096 C 63.77876509540563 94.83057694195575 2.41305336071251 C 0.0 **** -0.24
4097 H 63.19695235684965 94.30661374970704 3.170375704212379 H 0.0 **** 0.06
4098 H 64.65265120933853 94.23360993781473 2.1491742629752864 H 0.0 **** 0.06
4099 H 64.10197043649877 95.79443528564467 2.805460102758797 H 0.0 **** 0.06
4100 H 63.16405511831377 94.98732872341178 1.5264456642076425 H 0.0 **** 0.06
4101 C 142.840378680244 156.37759491226774 127.32443448942477 C 0.0 **** -0.24
4102 H 143.85283583394695 156.62889132451886 127.64159741169887 H 0.0 **** 0.06
4103 H 142.81678383175276 155.34634194202584 126.97138593121606 H 0.0 **** 0.06
4104 H 142.5364438496383 157.04439449406738 126.51802170343892 H 0.0 **** 0.06
4105 H 142.15714971753988 156.48935886661582 128.16631492783836 H 0.0 **** 0.06
4106 C 46.84150219916516 154.6163873727126 84.98264626687592 C 0.0 **** -0.24
4107 H 45.98053281576995 154.12499332667727 84.53003686924211 H 0.0 **** 0.06
4108 H 46.98594282157272 154.2359733096472 85.99442181324133 H 0.0 **** 0.06
4109 H 46.666688495948435 155.6919244455832 85.0205654849812 H 0.0 **** 0.06
4110 H 47.731120388211366 154.41339557685353 84.38713686131638 H 0.0 **** 0.06
4111 C 82.725408913097 42.84137513170214 19.909558585635295 C 0.0 **** -0.24
4112 H 82.69483928708314 43.010711114020495 18.833177845627404 H 0.0 **** 0.06
4113 H 82.46844321664196 41.803759003376285 20.121190462875063 H 0.0 **** 0.06
4114 H 82.0106248246106 43.50142471541537 20.40095040809331 H 0.0 **** 0.06
4115 H 83.7286627287443 43.0512504380614 20.281359380421918 H 0.0 **** 0.06
4116 C 56.4735376799037 46.777073668988336 44.717783213159464 C 0.0 **** -0.24
4117 H 57.14621783725039 46.168959194953715 44.11179071330537 H 0.0 **** 0.06
4118 H 56.870777499141084 46.85933719677581 45.729605290978725 H 0.0 **** 0.06
4119 H 55.490749746046276 46.308265213467365 44.749691418994416 H 0.0 **** 0.06
4120 H 56.38838954744642 47.771465386347614 44.27904913229071 H 0.0 **** 0.06
4121 C 89.92863511390445 137.69719387834573 108.29104781403993 C 0.0 **** -0.24
4122 H 89.87901274814179 136.65132390953704 107.9902002474023 H 0.0 **** 0.06
4123 H 89.0795022372813 138.23710228183654 107.86907622062824 H 0.0 **** 0.06
4124 H 90.85690648202444 138.13671349572292 107.9247044290504 H 0.0 **** 0.06
4125 H 89.89830804918641 137.76505212501218 109.37790022135965 H 0.0 **** 0.06
4126 C 140.59060936313915 132.64852386920887 114.59030522688404 C 0.0 **** -0.24
4127 H 139.77343256547306 133.27541814677474 114.23475173221225 H 0.0 **** 0.06
4128 H 141.16705939450412 133.19281250189007 115.33842815861856 H 0.0 **** 0.06
4129 H 141.23711742910314 132.38459236602574 113.75403546370954 H 0.0 **** 0.06
4130 H 140.18419023625012 131.74046583635902 115.03539933523147 H 0.0 **** 0.06
4131 C 119.28557975731235 86.15850641910046 113.300116646061 C 0.0 **** -0.24
4132 H 119.6041539151712 86.78190499711008 112.46451961542276 H 0.0 **** 0.06
4133 H 118.61414692301213 85.37991978838463 112.93731849815951 H 0.0 **** 0.06
4134 H 118.76615027967756 86.77413772413396 114.0343889256804 H 0.0 **** 0.06
4135 H 120.15882415420623 85.6980708269902 113.76319762075492 H 0.0 **** 0.06
4136 C 32.38834129224665 93.2858043543536 80.17169725761892 C 0.0 **** -0.24
4137 H 31.8886794492185 92.36575975595551 79.86818999937651 H 0.0 **** 0.06
4138 H 33.03083565458547 93.63326047788522 79.36251006396645 H 0.0 **** 0.06
4139 H 32.99131550966513 93.09561061603503 81.05935771791349 H 0.0 **** 0.06
4140 H 31.641304814924354 94.04754833391542 80.39554384060563 H 0.0 **** 0.06
4141 C 126.09485720181978 41.56883863746987 149.02858102690865 C 0.0 **** -0.24
4142 H 126.70564847221421 40.66839133950441 148.96181002970638 H 0.0 **** 0.06
4143 H 126.56391687444714 42.27603599426163 149.7127027962298 H 0.0 **** 0.06
4144 H 125.10265260922789 41.30813918219832 149.39826405870028 H 0.0 **** 0.06
4145 H 126.0066012998554 42.02172001777984 148.04084875785162 H 0.0 **** 0.06
4146 C 128.76990270935897 60.19241122730858 103.19561933486158 C 0.0 **** -0.24
4147 H 129.2022905026899 60.25433969342757 102.19745787478512 H 0.0 **** 0.06
4148 H 127.78991946447813 60.6727540304266 103.19680247249012 H 0.0 **** 0.06
4149 H 129.42358989881566 60.69798052966121 103.90643957389541 H 0.0 **** 0.06
4150 H 128.66159970175627 59.14569212821151 103.48041622535145 H 0.0 **** 0.06
4151 C 60.60890657247005 93.84522272948708 18.854858032918287 C 0.0 **** -0.24
4152 H 60.7068996787702 94.8123050139232 18.361386771487332 H 0.0 **** 0.06
4153 H 61.55928981035389 93.31279999124831 18.80253744846766 H 0.0 **** 0.06
4154 H 59.835847409613805 93.26062047013691 18.356182388130776 H 0.0 **** 0.06
4155 H 60.33369231864208 93.99604949167755 19.898869567691406 H 0.0 **** 0.06
4156 C 124.54591530634126 74.10033694643141 19.590476977683984 C 0.0 **** -0.24
4157 H 125.23457638131985 73.25976729198396 19.679937997628592 H 0.0 **** 0.06
4158 H 123.79122743005199 74.03684955182877 20.374412709996093 H 0.0 **** 0.06
4159 H 124.06110674254408 74.06910941789556 18.61457730122241 H 0.0 **** 0.06
4160 H 125.09909968308374 75.03430832469604 19.691041343164365 H 0.0 **** 0.06
4161 C 78.28817275453464 26.692435025923714 67.55422430307264 C 0.0 **** -0.24
4162 H 78.5123813170078 25.649383171207234 67.33536828742561 H 0.0 **** 0.06
4163 H 77.6466220987997 26.749339577067786 68.4341148244093 H 0.0 **** 0.06
4164 H 77.77685499895337 27.14099019346827 66.7023069974594 H 0.0 **** 0.06
4165 H 79.21595044859261 27.23075265647384 67.74594108484987 H 0.0 **** 0.06
4166 C 153.43525513054567 41.91616776803771 25.880229238565875 C 0.0 **** -0.24
4167 H 153.3212979443894 41.743085530671095 24.810114772978977 H 0.0 **** 0.06
4168 H 154.4005038181985 42.38472860627927 26.072214611078238 H 0.0 **** 0.06
4169 H 153.38138989679936 40.96413658405045 26.409436071635184 H 0.0 **** 0.06
4170 H 152.63649025686715 42.571235264044574 26.229098766637975 H 0.0 **** 0.06
4171 C 125.59341851534684 16.846496386874975 33.87737601912363 C 0.0 **** -0.24
4172 H 126.58366011560263 16.994999359433777 33.447759815962485 H 0.0 **** 0.06
4173 H 125.25829812298146 17.772573670973998 34.344208804609096 H 0.0 **** 0.06
4174 H 125.63761017607318 16.05694729160689 34.627289335185026 H 0.0 **** 0.06
4175 H 124.89487166979414 16.562649135375416 33.09035396848367 H 0.0 **** 0.06
4176 C 80.53742499561918 144.2304648838449 81.35584285427406 C 0.0 **** -0.24
4177 H 80.81988669833596 144.21543334661249 80.30269939603248 H 0.0 **** 0.06
4178 H 79.47424711424848 144.4536477211263 81.44376257783614 H 0.0 **** 0.06
4179 H 81.1144605685126 144.99631916540392 81.87439550134359 H 0.0 **** 0.06
4180 H 80.74372128535268 143.25655282202666 81.8000340478244 H 0.0 **** 0.06
4181 C 2.619931826998311 30.917433150173494 1.1086228826413844 C 0.0 **** -0.24
4182 H 3.264873952438222 31.697289277834543 0.7023572293361156 H 0.0 **** 0.06
4183 H 3.22971640727755 30.06949707384703 1.4234353776183468 H 0.0 **** 0.06
4184 H 1.9143128525719249 30.594230852250888 0.3434491766363408 H 0.0 **** 0.06
4185 H 2.0720597882139487 31.309918757716247 1.9654081265380512 H 0.0 **** 0.06
4186 C 50.605491865830004 69.99827878803754 124.26664746494741 C 0.0 **** -0.24
4187 H 51.65072791800162 70.30074648312953 124.20752437171699 H 0.0 **** 0.06
4188 H 50.02601326053741 70.54368192331351 123.521520865505 H 0.0 **** 0.06
4189 H 50.21888085585135 70.21944940854182 125.26143797107936 H 0.0 **** 0.06
4190 H 50.525793820427396 68.92798929160041 124.07647837104365 H 0.0 **** 0.06
4191 C 127.51580229336331 94.3288324605546 143.45220433674683 C 0.0 **** -0.24
4192 H 127.14717258567201 94.33924434144473 144.47811047996717 H 0.0 **** 0.06
4193 H 127.77669301688086 95.34272672547317 143.14947160365577 H 0.0 **** 0.06
4194 H 126.73936733186987 93.94072264396797 142.79207387285803 H 0.0 **** 0.06
4195 H 128.39717399983334 93.6908752156282 143.38937816091362 H 0.0 **** 0.06
4196 C 39.17887337633448 141.33721935637854 88.15056161564613 C 0.0 **** -0.24
4197 H 39.20872406032231 141.6760289394294 87.11537967629681 H 0.0 **** 0.06
4198 H 39.3703006899658 142.18195722869137 88.81448199988533 H 0.0 **** 0.06
4199 H 39.9406698746169 140.57318846946993 88.30613338653603 H 0.0 **** 0.06
4200 H 38.19555182818101 140.92030430485983 88.3685254854872 H 0.0 **** 0.06
4201 C 88.82156244253332 4.491636682370995 5.235755656148584 C 0.0 **** -0.24
4202 H 89.44702099539919 4.606742523227325 6.121065160768893 H 0.0 **** 0.06
4203 H 88.30906898262178 3.5300839291698196 5.2765288489794955 H 0.0 **** 0.06
4204 H 89.44408229298627 4.534961372964858 4.342310826637821 H 0.0 **** 0.06
4205 H 88.08524593407975 5.294869136762372 5.2054192102983095 H 0.0 **** 0.06
4206 C 60.40658613531565 152.43231181141806 52.043284379140005 C 0.0 **** -0.24
4207 H 60.58569724353458 151.48570763496073 52.5538717263172 H 0.0 **** 0.06
4208 H 61.21462209529881 153.12730865283484 52.27570858065917 H 0.0 **** 0.06
4209 H 59.45874332902599 152.85177632865535 52.377482131135196 H 0.0 **** 0.06
4210 H 60.37070860088687 152.2635928306283 50.967306052710455 H 0.0 **** 0.06
4211 C 25.66323643826962 26.040772079917303 113.54561715940497 C 0.0 **** -0.24
4212 H 26.630225461123814 25.572342307649684 113.36154255994518 H 0.0 **** 0.06
4213 H 25.07580969010087 25.410524077663503 114.21219790753264 H 0.0 **** 0.06
4214 H 25.133519615048442 26.163457759854197 112.60037485406264 H 0.0 **** 0.06
4215 H 25.815358026994744 27.01710870548939 114.00590130123675 H 0.0 **** 0.06
4216 C 62.09864328662687 33.292971987204254 5.933403594033678 C 0.0 **** -0.24
4217 H 62.2187568915175 33.558051560088074 4.883107824404789 H 0.0 **** 0.06
4218 H 62.09758186224502 34.199450573832195 6.538383018056464 H 0.0 **** 0.06
4219 H 62.923947345464455 32.65007961321493 6.241984746560348 H 0.0 **** 0.06
4220 H 61.15541301975222 32.76364349778254 6.068624475476639 H 0.0 **** 0.06
4221 C 2.1706100207466896 105.00611961563806 49.44846631777237 C 0.0 **** -0.24
4222 H 2.608764205866432 105.75817371154079 48.79147525713854 H 0.0 **** 0.06
4223 H 2.829593566244469 104.84106006743127 50.30113783602485 H 0.0 **** 0.06
4224 H 2.044347700144197 104.0729268890297 48.899629520942455 H 0.0 **** 0.06
4225 H 1.1993641237917672 105.35525580141615 49.801141878416175 H 0.0 **** 0.06
4226 C 5.269852521689387 94.863343897538 117.49250941607971 C 0.0 **** -0.24
4227 H 5.263909437067213 93.97858469987663 116.85578850571096 H 0.0 **** 0.06
4228 H 5.261348027981796 95.7588318871229 116.87040200251067 H 0.0 **** 0.06
4229 H 6.1671539449673105 94.85821358400551 118.11183447409297 H 0.0 **** 0.06
4230 H 4.3872315188215225 94.85576269078621 118.13189142603358 H 0.0 **** 0.06
4231 C 11.064008023798067 77.4334762114637 33.09912192602616 C 0.0 **** -0.24
4232 H 11.5084740265751 76.46662808092822 33.335328058692966 H 0.0 **** 0.06
4233 H 10.026052127174012 77.29152183182293 32.79601761513328 H 0.0 **** 0.06
4234 H 11.619535777983543 77.8990390197223 32.284293173382196 H 0.0 **** 0.06
4235 H 11.10204029664709 78.07515904795628 33.97895902973963 H 0.0 **** 0.06
4236 C 116.68642013546092 3.3793768454888777 22.337038706799092 C 0.0 **** -0.24
4237 H 116.43900275185312 4.284162796351076 22.892749702627697 H 0.0 **** 0.06
4238 H 117.0407352426066 2.6144557716101318 23.027551708470952 H 0.0 **** 0.06
4239 H 117.46594619616125 3.601664329715071 21.60859855624028 H 0.0 **** 0.06
4240 H 115.79757247635673 3.017287140660539 21.818906865446593 H 0.0 **** 0.06
4241 C 4.68168520985401 42.65075347776883 11.355015214871763 C 0.0 **** -0.24
4242 H 4.731868721616195 43.516086297003085 10.694154112453866 H 0.0 **** 0.06
4243 H 3.9158225395533464 41.96340438659024 10.995790680589401 H 0.0 **** 0.06
4244 H 4.430912556802554 42.978924534763905 12.364011509685149 H 0.0 **** 0.06
4245 H 5.646982824288983 42.146275738252655 11.367029494566985 H 0.0 **** 0.06
4246 C 121.97866450470947 67.41617177017369 49.494631620578616 C 0.0 **** -0.24
4247 H 121.01062376776984 67.12547743095156 49.901828847350316 H 0.0 **** 0.06
4248 H 122.09187451154362 68.49849236109955 49.564024233423936 H 0.0 **** 0.06
4249 H 122.03946368418259 67.1092940739227 48.45008280024092 H 0.0 **** 0.06
4250 H 122.77248904892404 66.93008273565331 50.062190189870876 H 0.0 **** 0.06
4251 C 71.17257913228907 118.12949191487678 132.3627708537841 C 0.0 **** -0.24
4252 H 70.47127409031978 118.14740181853324 133.19698134463448 H 0.0 **** 0.06
4253 H 71.2402899339242 119.12520211722915 131.92375931341377 H 0.0 **** 0.06
4254 H 70.82167298892301 117.4228134829894 131.60988827029863 H 0.0 **** 0.06
4255 H 72.15523367861958 117.82144716616273 132.71984107534877 H 0.0 **** 0.06
4256 C 108.07894112093732 10.939486203673738 6.927416235446913 C 0.0 **** -0.24
4257 H 107.55526626499017 11.855952920284416 7.198543620930025 H 0.0 **** 0.06
4258 H 109.04805735593249 11.188995577926 6.495810565873796 H 0.0 **** 0.06
4259 H 107.48740401481643 10.384951911893893 6.19777845030174 H 0.0 **** 0.06
4260 H 108.22437592746161 10.326794105389375 7.817531287045938 H 0.0 **** 0.06
4261 C 55.171825563346715 105.10890257929032 138.31489957262022 C 0.0 **** -0.24
4262 H 55.00701040211362 105.92293804088496 137.6087105649304 H 0.0 **** 0.06
4263 H 55.340625259600586 105.51985623001048 139.30993344639043 H 0.0 **** 0.06
4264 H 56.04326980140246 104.53140113857472 138.00708683249377 H 0.0 **** 0.06
4265 H 54.29535176815 104.46083491269087 138.33311140455965 H 0.0 **** 0.06
4266 C 119.18147258473287 129.1885223776292 119.49083407796037 C 0.0 **** -0.24
4267 H 120.06815696924208 129.77650547676586 119.72814896019382 H 0.0 **** 0.06
4268 H 118.28779426152066 129.77876968437266 119.69767435207008 H 0.0 **** 0.06
4269 H 119.16961880804085 128.28599572641428 120.1026713385176 H 0.0 **** 0.06
4270 H 119.19897916173444 128.91265575812503 118.4368849471761 H 0.0 **** 0.06
4271 C 29.5827036907329 132.95634304517006 124.59562149973692 C 0.0 **** -0.24
4272 H 29.97708644046054 132.11647610061917 125.16834783942176 H 0.0 **** 0.06
4273 H 29.2501689354267 133.73783237208312 125.27947365289509 H 0.0 **** 0.06
4274 H 28.742139229340893 132.62028829332831 123.98937548885527 H 0.0 **** 0.06
4275 H 30.36439803565699 133.35052166380382 123.94555006633453 H 0.0 **** 0.06
4276 C 17.97575371881276 116.81586808850346 154.4296001501751 C 0.0 **** -0.24
4277 H 18.464057260430174 117.58612883856142 155.02646001259953 H 0.0 **** 0.06
4278 H 17.788969451812697 115.93934936972926 155.0499961874654 H 0.0 **** 0.06
4279 H 18.621116612489914 116.54040603239957 153.5952380727826 H 0.0 **** 0.06
4280 H 17.02960298088204 117.19848511100679 154.04589363487347 H 0.0 **** 0.06
4281 C 100.52943379920207 68.56995463856822 78.33035236248371 C 0.0 **** -0.24
4282 H 100.74884318612202 67.73827699499469 77.66023855534523 H 0.0 **** 0.06
4283 H 100.9249998256826 68.35001368755002 79.32267147181615 H 0.0 **** 0.06
4284 H 99.44989926516617 68.71105436369285 78.39238269877832 H 0.0 **** 0.06
4285 H 100.99288340580405 69.47829731681043 77.94629938669085 H 0.0 **** 0.06
4286 C 110.58154607080945 141.1226895837296 37.25018653508839 C 0.0 **** -0.24
4287 H 111.51692797682472 141.61869260415529 36.988264004174255 H 0.0 **** 0.06
4288 H 110.3366666716106 141.3358197391049 38.29024338711419 H 0.0 **** 0.06
4289 H 110.69248100571468 140.0462912649524 37.11545419725593 H 0.0 **** 0.06
4290 H 109.78423169276601 141.49003245972781 36.60537213475796 H 0.0 **** 0.06
4291 C 106.95692031887484 63.40523699923199 75.7190539184445 C 0.0 **** -0.24
4292 H 107.95487194375914 63.33682258394629 76.1504848494991 H 0.0 **** 0.06
4293 H 106.91683170130409 64.24744360744415 75.02885932531916 H 0.0 **** 0.06
4294 H 106.22640560707504 63.5509449945514 76.5146273580558 H 0.0 **** 0.06
4295 H 106.73005173191257 62.48366229117585 75.18156119873254 H 0.0 **** 0.06
4296 C 44.35939260249734 91.39622994323703 46.79909961696349 C 0.0 **** -0.24
4297 H 44.157830792823134 91.56925124233238 45.74216389320523 H 0.0 **** 0.06
4298 H 44.44566221768608 90.32519224289216 46.982141874135905 H 0.0 **** 0.06
4299 H 43.54281531506193 91.80183764917535 47.39586386870806 H 0.0 **** 0.06
4300 H 45.29223709649568 91.88921486465253 47.07707581470024 H 0.0 **** 0.06
4301 C 58.783620541384266 29.584241881385132 77.42176027262434 C 0.0 **** -0.24
4302 H 58.25676767345385 29.48350307961706 76.47322593013922 H 0.0 **** 0.06
4303 H 58.480326133292806 28.78022131976875 78.0923817096376 H 0.0 **** 0.06
4304 H 58.539555846664655 30.545972453687178 77.87313085903293 H 0.0 **** 0.06
4305 H 59.85834501385219 29.526963821625927 77.24667677429625 H 0.0 **** 0.06
4306 C 33.30307668497785 68.08596660006911 57.58245578376864 C 0.0 **** -0.24
4307 H 34.33545445899038 67.75244888827208 57.47954940270216 H 0.0 **** 0.06
4308 H 32.6639602313117 67.49290423934468 56.92853158595153 H 0.0 **** 0.06
4309 H 33.232313239309704 69.13808712951294 57.30444025370346 H 0.0 **** 0.06
4310 H 32.98164851621744 67.96072696389375 58.616427077750274 H 0.0 **** 0.06
4311 C 101.76516493514568 7.029159874670199 48.293801683790036 C 0.0 **** -0.24
4312 H 101.77638565656834 8.047858134053342 47.9058627304988 H 0.0 **** 0.06
4313 H 100.93639391345157 6.916277817693924 48.993655917264306 H 0.0 **** 0.06
4314 H 102.70480581223815 6.82534650082124 48.80726911428316 H 0.0 **** 0.06
4315 H 101.64232293424213 6.327226184214908 47.469615069627764 H 0.0 **** 0.06
4316 C 145.6237785479707 154.7247407350913 89.47126173646487 C 0.0 **** -0.24
4317 H 144.67735938521105 154.9915353153517 89.00295091065016 H 0.0 **** 0.06
4318 H 146.37678238007817 155.47301633846342 89.22221244594414 H 0.0 **** 0.06
4319 H 145.9462265827389 153.74850551856085 89.10854455569222 H 0.0 **** 0.06
4320 H 145.49458633994763 154.6851776837475 90.55367241034008 H 0.0 **** 0.06
4321 C 41.08718909960798 132.04830385417696 43.43523170618192 C 0.0 **** -0.24
4322 H 40.48560115781804 131.56448925210097 42.66648986874145 H 0.0 **** 0.06
4323 H 41.899796332415264 132.6041299317851 42.96599022045726 H 0.0 **** 0.06
4324 H 41.50201954755401 131.2911324012411 44.101207522480166 H 0.0 **** 0.06
4325 H 40.46252199519036 132.73319077405736 44.0091172380404 H 0.0 **** 0.06
4326 C 69.11326825368324 88.722942139834 14.208832562423417 C 0.0 **** -0.24
4327 H 70.15267450674074 88.87925319382657 13.920022642113203 H 0.0 **** 0.06
4328 H 68.72472710646849 87.8379695487136 13.70354452076701 H 0.0 **** 0.06
4329 H 68.52247669959708 89.59332837222607 13.924477509016164 H 0.0 **** 0.06
4330 H 69.05319290797657 88.58058784655555 15.288551938023375 H 0.0 **** 0.06
4331 C 100.87470531703424 95.20345016839326 69.635154363446 C 0.0 **** -0.24
4332 H 101.45226589317674 95.66912530859119 70.43367055883922 H 0.0 **** 0.06
4333 H 100.87228066265907 95.85394850651662 68.7602448132107 H 0.0 **** 0.06
4334 H 99.84970529290665 95.04422026485435 69.97310632364685 H 0.0 **** 0.06
4335 H 101.32345841922849 94.2448349817196 69.3745814330158 H 0.0 **** 0.06
4336 C 34.49859452063798 38.67541011845634 25.897859192602425 C 0.0 **** -0.24
4337 H 33.473981979894575 38.81729611412544 26.24157444781713 H 0.0 **** 0.06
4338 H 35.187077968248985 39.12751058314285 26.61218642970681 H 0.0 **** 0.06
4339 H 34.62289405703811 39.14564481212324 24.923280015217642 H 0.0 **** 0.06
4340 H 34.708638917191735 37.60874950325274 25.815760645168552 H 0.0 **** 0.06
4341 C 126.0141500322424 150.37768564042216 143.09033816968292 C 0.0 **** -0.24
4342 H 126.52650185045464 151.2587858248048 142.70386597948962 H 0.0 **** 0.06
4343 H 125.4801723772298 150.6411538694934 144.00390538750378 H 0.0 **** 0.06
4344 H 126.74465071966297 149.5983339022088 143.30780607936097 H 0.0 **** 0.06
4345 H 125.30473251305578 150.01456033762324 142.34635128349117 H 0.0 **** 0.06
4346 C 1.9725959067971246 68.95214628992407 96.92565951891652 C 0.0 **** -0.24
4347 H 1.5480323594951813 69.72408637816714 96.2837865042315 H 0.0 **** 0.06
4348 H 1.3520421087097247 68.05702665612357 96.87609624540701 H 0.0 **** 0.06
4349 H 2.0090793609176956 69.31370527786358 97.95296118063959 H 0.0 **** 0.06
4350 H 2.9813224725271255 68.71426795609658 96.58813873024084 H 0.0 **** 0.06
4351 C 69.09112827252001 89.62020462787092 64.7967058673872 C 0.0 **** -0.24
4352 H 69.15577323653999 88.68632510000765 65.35534325994053 H 0.0 **** 0.06
4353 H 68.8601639697037 90.4367443761841 65.48000519036236 H 0.0 **** 0.06
4354 H 68.30491015619482 89.5400982074554 64.04538919891527 H 0.0 **** 0.06
4355 H 70.04509019958657 89.81467820547923 64.30571873172539 H 0.0 **** 0.06
4356 C 76.30055853013799 72.75296757344917 11.302003407593048 C 0.0 **** -0.24
4357 H 77.25509369379141 72.77487847868063 10.776118242426598 H 0.0 **** 0.06
4358 H 75.58447676649575 72.16407865516183 10.728048313891286 H 0.0 **** 0.06
4359 H 75.92552213168113 73.76954220301891 11.41763805685546 H 0.0 **** 0.06
4360 H 76.4383074232729 72.30198474162037 12.284897811866806 H 0.0 **** 0.06
4361 C 45.53166021378897 51.81939242082916 148.139885125815 C 0.0 **** -0.24
4362 H 46.47193432466061 52.16237704667253 147.7086232539097 H 0.0 **** 0.06
4363 H 44.780053756032274 51.740866931848984 147.35312581362723 H 0.0 **** 0.06
4364 H 45.19656679749282 52.531359995481466 148.89408618845795 H 0.0 **** 0.06
4365 H 45.678405854682694 50.842684562721274 148.60073557930605 H 0.0 **** 0.06
4366 C 149.45663523108914 31.523274632014477 3.8766358695560825 C 0.0 **** -0.24
4367 H 149.0940053169911 30.497229257577146 3.8142330806404345 H 0.0 **** 0.06
4368 H 149.7009613247351 31.7606337645729 4.911392860073704 H 0.0 **** 0.06
4369 H 148.68385611244722 32.20386216259945 3.5197931790760606 H 0.0 **** 0.06
4370 H 150.34900420410793 31.630737951539174 3.2584894605251975 H 0.0 **** 0.06
4371 C 93.94773619092621 26.632293398183357 144.2821249028466 C 0.0 **** -0.24
4372 H 93.85395816548896 26.813626171865465 145.35327979781192 H 0.0 **** 0.06
4373 H 93.0338674613983 26.16896009034418 143.9099208313871 H 0.0 **** 0.06
4374 H 94.79269247300056 25.968625927587432 144.099491308439 H 0.0 **** 0.06
4375 H 94.11156900794617 27.579314211559463 143.7671733682484 H 0.0 **** 0.06
4376 C 110.35802854562708 153.4863274566685 76.45169355149466 C 0.0 **** -0.24
4377 H 109.45408737736305 153.98925619067535 76.10798913427448 H 0.0 **** 0.06
4378 H 110.9576754083153 154.18039161936878 77.04197170809908 H 0.0 **** 0.06
4379 H 110.93526030671383 153.148097811737 75.5906773496892 H 0.0 **** 0.06
4380 H 110.08471711925513 152.6289073351091 77.06589892296915 H 0.0 **** 0.06
4381 C 54.15749240081112 87.87701659882009 94.49403214350755 C 0.0 **** -0.24
4382 H 53.69193457383716 88.04656248180214 95.46551287528354 H 0.0 **** 0.06
4383 H 53.95778675482052 86.85501975722775 94.17027171216161 H 0.0 **** 0.06
4384 H 55.233894851270065 88.02808025400435 94.57675586693632 H 0.0 **** 0.06
4385 H 53.74612481744629 88.57669245356777 93.76690762841844 H 0.0 **** 0.06
4386 C 26.80821661909721 11.850379422058332 56.777639925395135 C 0.0 **** -0.24
4387 H 26.052630085896965 11.077482696438473 56.64108123749335 H 0.0 **** 0.06
4388 H 27.588265169118756 11.732239912104838 56.024852425467216 H 0.0 **** 0.06
4389 H 27.24616382803572 11.758399826132276 57.772059203447384 H 0.0 **** 0.06
4390 H 26.347838901937877 12.832143445820513 56.673120139332624 H 0.0 **** 0.06
4391 C 120.76974456510645 104.94678724915974 96.13629278041341 C 0.0 **** -0.24
4392 H 119.7697534310516 105.1803246533321 96.50107445070887 H 0.0 **** 0.06
4393 H 121.34845155993413 105.86641518077153 96.04714477057958 H 0.0 **** 0.06
4394 H 120.69744545483137 104.46667687706633 95.16023051240963 H 0.0 **** 0.06
4395 H 121.26263610888536 104.27224145100212 96.83726824573793 H 0.0 **** 0.06
4396 C 64.79676432780917 27.983074136022594 25.580548887279292 C 0.0 **** -0.24
4397 H 63.823388100116176 28.457289884691022 25.452627685803094 H 0.0 **** 0.06
4398 H 65.4729233949434 28.67382367038772 26.086235283181566 H 0.0 **** 0.06
4399 H 65.20572473699946 27.72420058740147 24.603944802749538 H 0.0 **** 0.06
4400 H 64.68532057593052 27.07941353079235 26.17939816450351 H 0.0 **** 0.06
4401 C 64.64049862886239 92.93003282267343 88.88828494581243 C 0.0 **** -0.24
4402 H 63.99981196294169 92.28830505219226 89.49405616766052 H 0.0 **** 0.06
4403 H 65.47054970309068 93.29189697335353 89.4957717769129 H 0.0 **** 0.06
4404 H 64.06164024750382 93.77721397046186 88.5208672842543 H 0.0 **** 0.06
4405 H 65.02899250177381 92.36170133178342 88.04384876563913 H 0.0 **** 0.06
4406 C 107.18494342091454 115.01057946199724 93.47355484770296 C 0.0 **** -0.24
4407 H 107.41372853151516 115.13859145204809 92.41518629197711 H 0.0 **** 0.06
4408 H 108.0741601118642 115.22746307676518 94.06549052515533 H 0.0 **** 0.06
4409 H 106.86949218789205 113.98282349439701 93.6553263677237 H 0.0 **** 0.06
4410 H 106.38357240445548 115.6925739221637 93.75685275453479 H 0.0 **** 0.06
4411 C 30.312550862952833 14.673198197829812 27.68046355246804 C 0.0 **** -0.24
4412 H 30.153247977726295 13.796791722378977 28.30789236919162 H 0.0 **** 0.06
4413 H 30.480573255624677 15.545960848271953 28.310991492688913 H 0.0 **** 0.06
4414 H 29.43342649807761 14.83832781656411 27.05672861997715 H 0.0 **** 0.06
4415 H 31.18308111550357 14.511281754336196 27.044051070672822 H 0.0 **** 0.06
4416 C 126.1314517794274 64.62010093704947 75.95564939665259 C 0.0 **** -0.24
4417 H 126.83900819070932 64.620399862619 76.78565334450506 H 0.0 **** 0.06
4418 H 125.17952655410595 65.03251906197968 76.29082448918939 H 0.0 **** 0.06
4419 H 125.98394655883321 63.599477496161114 75.60503477033598 H 0.0 **** 0.06
4420 H 126.52589832613175 65.23092318158342 75.14305490508893 H 0.0 **** 0.06
4421 C 1.444564894518578 37.31065841888072 57.99468288000739 C 0.0 **** -0.24
4422 H 0.4006151301115324 37.321709919977366 57.67950600357722 H 0.0 **** 0.06
4423 H 1.4990978575179952 37.08424593747888 59.059973566687546 H 0.0 **** 0.06
4424 H 1.8910727559705833 38.28645508046925 57.80760742652345 H 0.0 **** 0.06
4425 H 1.9850561425689364 36.54860183539023 57.432370976842066 H 0.0 **** 0.06
4426 C 26.27890049853623 11.587448751992184 141.72208265145684 C 0.0 **** -0.24
4427 H 26.486109317152156 12.178616219666715 140.83002312182748 H 0.0 **** 0.06
4428 H 25.574241425781338 12.125442781883649 142.3576129370775 H 0.0 **** 0.06
4429 H 27.206880045077007 11.41927709958135 142.26978692393166 H 0.0 **** 0.06
4430 H 25.849932668590355 10.628884630552506 141.43173102593013 H 0.0 **** 0.06
4431 C 155.45112249692272 140.48760427652354 68.21088430963397 C 0.0 **** -0.24
4432 H 156.1057725667182 141.32451596817575 67.9678251062066 H 0.0 **** 0.06
4433 H 155.00273166032827 140.10076662417484 67.29621336661017 H 0.0 **** 0.06
4434 H 154.666095178608 140.82570562435185 68.88617921586886 H 0.0 **** 0.06
4435 H 156.03166534204183 139.70077079830793 68.69309668188077 H 0.0 **** 0.06
4436 C 46.37816687569793 10.742966017321109 0.40772970832489364 C 0.0 **** -0.24
4437 H 47.1588918799161 11.266044433640708 -0.1441743571321581 H 0.0 **** 0.06
4438 H 46.75259993536203 9.772913754388227 0.7360073198778423 H 0.0 **** 0.06
4439 H 45.51159234493542 10.598865779201823 -0.238672969799552 H 0.0 **** 0.06
4440 H 46.08856012214531 11.334245038648838 1.276052630772142 H 0.0 **** 0.06
4441 C 129.920619561936 34.82972036207667 43.9314227743628 C 0.0 **** -0.24
4442 H 130.8108291883475 35.40390707243898 43.67332950502879 H 0.0 **** 0.06
4443 H 129.98504049182225 34.509619111738914 44.97142316286511 H 0.0 **** 0.06
4444 H 129.85199170421942 33.95575982978721 43.28382037333634 H 0.0 **** 0.06
4445 H 129.0357533089329 35.4523588802295 43.79738666601159 H 0.0 **** 0.06
4446 C 17.04315866712235 141.13728598903896 120.32492224233233 C 0.0 **** -0.24
4447 H 16.74428304530076 140.4147436961782 121.0833816161013 H 0.0 **** 0.06
4448 H 17.98619852791353 141.60035945085116 120.61541228072566 H 0.0 **** 0.06
4449 H 16.274683660885408 141.90522597904118 120.2326507390748 H 0.0 **** 0.06
4450 H 17.167033652162893 140.6297075170822 119.36812928419407 H 0.0 **** 0.06
4451 C 88.56056103954323 144.5850118300516 149.50026720876934 C 0.0 **** -0.24
4452 H 89.17132670654469 144.59323041178686 150.4034341086941 H 0.0 **** 0.06
4453 H 88.14077413242613 143.58932442855502 149.35566348844088 H 0.0 **** 0.06
4454 H 89.17954066738326 144.8476277337125 148.64174183742364 H 0.0 **** 0.06
4455 H 87.75359954866312 145.31001099442426 149.6016427577964 H 0.0 **** 0.06
4456 C 21.307932515065886 16.858747799935202 107.25583956752668 C 0.0 **** -0.24
4457 H 21.343165038654348 17.709685490913017 107.9357685133492 H 0.0 **** 0.06
4458 H 21.83971643103024 16.016927658259988 107.70072655142305 H 0.0 **** 0.06
4459 H 21.780611283058818 17.129064735349175 106.31148147098425 H 0.0 **** 0.06
4460 H 20.269449087045246 16.57987609786943 107.07648398827702 H 0.0 **** 0.06
4461 C 22.623826684040324 123.62010653080573 146.0974831095465 C 0.0 **** -0.24
4462 H 21.610524462643752 123.81467272412068 145.74794879994025 H 0.0 **** 0.06
4463 H 22.737895693252653 122.55679053461829 146.31005791636255 H 0.0 **** 0.06
4464 H 22.812246711204068 124.19417357214151 147.0051865991707 H 0.0 **** 0.06
4465 H 23.337105055845683 123.91567198229667 145.3278086894278 H 0.0 **** 0.06
4466 C 114.16903920097349 15.036305256170628 87.19602231599761 C 0.0 **** -0.24
4467 H 115.2412165916636 14.91519436236728 87.35600206928028 H 0.0 **** 0.06
4468 H 113.9544527190265 16.07703040745138 86.95338581847305 H 0.0 **** 0.06
4469 H 113.63198054499742 14.755438717319286 88.10091324576638 H 0.0 **** 0.06
4470 H 113.85157595020814 14.39746118628969 86.371649813646 H 0.0 **** 0.06
4471 C 87.1071092197671 27.66274941682434 2.216839640691987 C 0.0 **** -0.24
4472 H 86.24141498289424 27.724314459297574 1.5574399877246279 H 0.0 **** 0.06
4473 H 87.96696388911363 28.126114516455345 1.7323652606290878 H 0.0 **** 0.06
4474 H 87.3288421228684 26.616680954430933 2.428166312296746 H 0.0 **** 0.06
4475 H 86.8909897891364 28.183240201673215 3.1501147461855474 H 0.0 **** 0.06
4476 C 123.73394359366357 57.59351686096271 142.67335403383382 C 0.0 **** -0.24
4477 H 123.58405834673106 56.66429891802511 143.22315136117882 H 0.0 **** 0.06
4478 H 123.64132436171236 57.40144635000884 141.6041191259287 H 0.0 **** 0.06
4479 H 124.72727326803276 57.985952234165666 142.88791233070498 H 0.0 **** 0.06
4480 H 122.98155367113957 58.32100744313432 142.97906721789636 H 0.0 **** 0.06
4481 C 79.1877858574131 75.13896848160576 81.25297760166754 C 0.0 **** -0.24
4482 H 78.33664355677281 75.6879010685231 81.65525667614004 H 0.0 **** 0.06
4483 H 78.89079048948699 74.62985044950429 80.33553807534896 H 0.0 **** 0.06
4484 H 79.52409120305225 74.40359528760096 81.98435826423348 H 0.0 **** 0.06
4485 H 79.99932243418915 75.8335749409319 81.03683433425874 H 0.0 **** 0.06
4486 C 82.95193628172291 142.05990522204502 152.21626119564922 C 0.0 **** -0.24
4487 H 82.51594384668974 141.18534914962154 151.73278838072088 H 0.0 **** 0.06
4488 H 84.02910986052564 142.0690869345276 152.04664550452617 H 0.0 **** 0.06
4489 H 82.75258092133413 142.01974546206617 153.2874760805288 H 0.0 **** 0.06
4490 H 82.50968477028155 142.96377397479804 151.79834790240778 H 0.0 **** 0.06
4491 C 114.72370599765678 38.857749917144616 14.0043390663931 C 0.0 **** -0.24
4492 H 115.55603317060688 38.762300852137344 14.701749726895514 H 0.0 **** 0.06
4493 H 114.55471733302709 39.912906114731356 13.784746336371228 H 0.0 **** 0.06
4494 H 113.82623291203795 38.43053326065663 14.449760893181718 H 0.0 **** 0.06
4495 H 114.9605065480077 38.327481520021934 13.082497668317643 H 0.0 **** 0.06
4496 C 144.75556568337302 73.32610918973243 56.41282890936428 C 0.0 **** -0.24
4497 H 145.6518321480534 73.93802947726286 56.51565723206316 H 0.0 **** 0.06
4498 H 145.04216697075637 72.29214936722539 56.219175924583055 H 0.0 **** 0.06
4499 H 144.15545277567264 73.69941638609916 55.582648853328635 H 0.0 **** 0.06
4500 H 144.17372761631884 73.37578049993883 57.33330644932839 H 0.0 **** 0.06
4501 C 80.75225729699368 142.3714630172696 58.33010862672813 C 0.0 **** -0.24
4502 H 80.04846514739504 142.24335397531053 59.1531787268226 H 0.0 **** 0.06
4503 H 80.94304370345526 141.40603882733734 57.86213818951592 H 0.0 **** 0.06
4504 H 81.68695411828084 142.78097639266633 58.71365045036532 H 0.0 **** 0.06
4505 H 80.3301903315283 143.05561256698707 57.5946043704983 H 0.0 **** 0.06
4506 C 12.696723192261743 96.0820031196622 41.420910285639096 C 0.0 **** -0.24
4507 H 12.225269631943263 96.57515508560147 40.571356096097034 H 0.0 **** 0.06
4508 H 13.766779433077573 95.98312467848439 41.23533172180511 H 0.0 **** 0.06
4509 H 12.258056282496113 95.09428250009375 41.557229551505415 H 0.0 **** 0.06
4510 H 12.537712494004836 96.6774670402067 42.32000093304657 H 0.0 **** 0.06
4511 C 137.74260875031916 138.7272591021395 42.224083874398445 C 0.0 **** -0.24
4512 H 137.14318932601145 138.19489189157196 41.48626130403153 H 0.0 **** 0.06
4513 H 138.03518935136924 138.03995943338026 43.018149011524144 H 0.0 **** 0.06
4514 H 137.1565744548471 139.54367154549996 42.64771961560831 H 0.0 **** 0.06
4515 H 138.63442798523346 139.13127110667105 41.74476724594035 H 0.0 **** 0.06
4516 C 58.696431812975334 147.0668292872939 39.94271639702221 C 0.0 **** -0.24
4517 H 59.328567808410924 146.2502731409228 39.593821264220864 H 0.0 **** 0.06
4518 H 59.18610701590251 147.5766428384241 40.771472065804616 H 0.0 **** 0.06
4519 H 57.73827153326198 146.66700621726835 40.2763016157258 H 0.0 **** 0.06
4520 H 58.53135913390099 147.7716565297664 39.12829254276062 H 0.0 **** 0.06
4521 C 105.202739695794 47.39621435620171 133.4734863432866 C 0.0 **** -0.24
4522 H 104.59299269192171 47.39462609164096 132.5698316808306 H 0.0 **** 0.06
4523 H 105.60763347185095 46.39789528068536 133.64062621912706 H 0.0 **** 0.06
4524 H 104.5886304795025 47.68771145329707 134.3250795314853 H 0.0 **** 0.06
4525 H 106.02227823992833 48.10601639288062 133.3564763065511 H 0.0 **** 0.06
4526 C 36.31882236313686 44.0908760416479 150.11293083629897 C 0.0 **** -0.24
4527 H 35.63847842345672 44.673402213773414 150.7342102070666 H 0.0 **** 0.06
4528 H 36.31028524413375 43.05153229302992 150.44081854824714 H 0.0 **** 0.06
4529 H 37.327282068945806 44.492783594640755 150.20401854053907 H 0.0 **** 0.06
4530 H 35.99811952834591 44.146623664967436 149.07248978680354 H 0.0 **** 0.06
4531 C 107.36085991375705 148.50974854186583 33.133145288130066 C 0.0 **** -0.24
4532 H 107.43564008251712 147.67759897296716 32.4334927491023 H 0.0 **** 0.06
4533 H 107.57674502266343 148.1570744032975 34.14173799454912 H 0.0 **** 0.06
4534 H 106.35340411669802 148.9233554308476 33.10057541307228 H 0.0 **** 0.06
4535 H 108.07926438681477 149.2823011575527 32.855993355117334 H 0.0 **** 0.06
4536 C 101.65063364390261 59.08885584602801 73.02137310084741 C 0.0 **** -0.24
4537 H 102.02558397922928 59.3725337813527 74.00531353697055 H 0.0 **** 0.06
4538 H 102.41766668814887 58.52432230411641 72.48970223222061 H 0.0 **** 0.06
4539 H 101.40011698765841 59.98580804537802 72.45543422541392 H 0.0 **** 0.06
4540 H 100.759458603062 58.471355388173066 73.1374805114336 H 0.0 **** 0.06
4541 C 104.18365523152232 68.19164457299956 60.50131958038969 C 0.0 **** -0.24
4542 H 105.23748097583109 68.36466221131718 60.71989879643638 H 0.0 **** 0.06
4543 H 103.78647258505663 67.44983905033575 61.19397402028835 H 0.0 **** 0.06
4544 H 104.07978932624263 67.82754676045818 59.47927832785706 H 0.0 **** 0.06
4545 H 103.63174187615755 69.1250098731677 60.61228144472062 H 0.0 **** 0.06
4546 C 65.94268588846444 118.22188645793595 154.4297576402423 C 0.0 **** -0.24
4547 H 66.908915255914 117.74054434717384 154.27646290681545 H 0.0 **** 0.06
4548 H 66.05108292060316 119.03288049109234 155.1493564215309 H 0.0 **** 0.06
4549 H 65.22927936435241 117.49092104835871 154.81000540701766 H 0.0 **** 0.06
4550 H 65.58251366865261 118.62178381722394 153.4818284505135 H 0.0 **** 0.06
4551 C 14.229834710041871 6.897187871342396 146.18959803364532 C 0.0 **** -0.24
4552 H 13.657157678109343 6.682961966051437 145.28755982443909 H 0.0 **** 0.06
4553 H 14.651317795469907 5.970138538554437 146.58033997905466 H 0.0 **** 0.06
4554 H 13.574499031616341 7.342089090454039 146.9389068816736 H 0.0 **** 0.06
4555 H 15.0362167468476 7.591712343042786 145.95283347000753 H 0.0 **** 0.06
4556 C 42.49261679262577 66.10748097719824 66.37010433994352 C 0.0 **** -0.24
4557 H 41.990040387874615 66.03113819071768 67.33471692176379 H 0.0 **** 0.06
4558 H 42.95869011781235 67.08874299385175 66.28114829250852 H 0.0 **** 0.06
4559 H 41.76423928999242 65.975456548745 65.5705529612512 H 0.0 **** 0.06
4560 H 43.25656554808677 65.33335555733129 66.29740766391231 H 0.0 **** 0.06
4561 C 65.68546594440335 12.803517187309978 24.311910802708155 C 0.0 **** -0.24
4562 H 66.08321528194858 13.787071350242002 24.06064129754168 H 0.0 **** 0.06
4563 H 64.9613660881484 12.901104095132666 25.12104854077242 H 0.0 **** 0.06
4564 H 66.50028921987209 12.152715180300504 24.629363875651705 H 0.0 **** 0.06
4565 H 65.19679344712097 12.375403803101108 23.436508151466654 H 0.0 **** 0.06
4566 C 92.44522636801914 74.73829462110989 136.03871402227423 C 0.0 **** -0.24
4567 H 93.29022469043349 74.32596696217978 135.4880885785268 H 0.0 **** 0.06
4568 H 92.61789069879252 74.61929984951355 137.10908545090754 H 0.0 **** 0.06
4569 H 91.53463836230347 74.21062058990205 135.75608661430925 H 0.0 **** 0.06
4570 H 92.3401295547769 75.79691578112566 135.8025688328032 H 0.0 **** 0.06
4571 C 142.3961194857529 151.66855803798046 51.01269745680385 C 0.0 **** -0.24
4572 H 142.2670793881918 151.90234007015954 49.95610563762486 H 0.0 **** 0.06
4573 H 141.50266843586422 151.1651943688134 51.384066486253474 H 0.0 **** 0.06
4574 H 142.5527919133266 152.59041484241686 51.57213148202182 H 0.0 **** 0.06
4575 H 143.26043213581423 151.01539690584755 51.13676953392704 H 0.0 **** 0.06
4576 C 79.78002956703888 145.36208015494805 40.99495924650904 C 0.0 **** -0.24
4577 H 80.79934134797384 144.99816817443104 41.12141165851381 H 0.0 **** 0.06
4578 H 79.77047235392655 146.171910066627 40.26530669109974 H 0.0 **** 0.06
4579 H 79.40515781702014 145.72938961343635 41.950232820018016 H 0.0 **** 0.06
4580 H 79.14523111319163 144.54903681614167 40.644285485332716 H 0.0 **** 0.06
4581 C 49.33638370451172 15.191615234183644 130.92148022342954 C 0.0 **** -0.24
4582 H 49.87860726983466 14.546868124489322 130.2306217685804 H 0.0 **** 0.06
4583 H 49.75230475137495 15.079975877811648 131.92372922857476 H 0.0 **** 0.06
4584 H 48.28348668840442 14.909254805947853 130.9318794397492 H 0.0 **** 0.06
4585 H 49.43199254834394 16.229522500288 130.60129097715617 H 0.0 **** 0.06
4586 C 30.771011969484505 50.64991737198653 111.45700928162664 C 0.0 **** -0.24
4587 H 30.908638946181554 50.96187296946351 112.4919199856814 H 0.0 **** 0.06
4588 H 30.963376603079496 51.49492112080702 110.79531735305751 H 0.0 **** 0.06
4589 H 29.747061172387134 50.30243830605974 111.31508051112765 H 0.0 **** 0.06
4590 H 31.464187945874244 49.84227577815841 111.22564218292273 H 0.0 **** 0.06
4591 C 133.2882718938829 15.98534233751991 25.734104923302255 C 0.0 **** -0.24
4592 H 133.4021311533448 16.862915697174117 26.370690146392207 H 0.0 **** 0.06
4593 H 133.63769953760686 15.102344036994936 26.26808896408472 H 0.0 **** 0.06
4594 H 133.87628810883257 16.11825956907734 24.825429158927776 H 0.0 **** 0.06
4595 H 132.23739307613232 15.860816532188238 25.47206920296088 H 0.0 **** 0.06
4596 C 115.79921520930066 43.16488064599042 21.225181652746414 C 0.0 **** -0.24
4597 H 114.71713450027534 43.097724399407355 21.336568543538192 H 0.0 **** 0.06
4598 H 116.25602149341262 43.32267950141875 22.20204305655443 H 0.0 **** 0.06
4599 H 116.04572375416512 43.99994795991637 20.56951421693708 H 0.0 **** 0.06
4600 H 116.17720184091957 42.23908242052539 20.79198030457809 H 0.0 **** 0.06
4601 C 38.69553658176004 88.06548001108314 3.667253117410219 C 0.0 **** -0.24
4602 H 39.74015139931632 88.32437503989513 3.8405330170346517 H 0.0 **** 0.06
4603 H 38.56708320925202 86.98779074822937 3.7710956629790644 H 0.0 **** 0.06
4604 H 38.40810064688294 88.37012296143533 2.660906790801185 H 0.0 **** 0.06
4605 H 38.06828095173245 88.57829367185488 4.395045072643889 H 0.0 **** 0.06
4606 C 54.753845916160685 142.56516820193934 39.733962813763625 C 0.0 **** -0.24
4607 H 55.40628993132668 143.09720801894642 40.426899418061424 H 0.0 **** 0.06
4608 H 54.72346200985152 143.09555120744267 38.78258574224138 H 0.0 **** 0.06
4609 H 53.74911196745359 142.50967992356118 40.15256931697449 H 0.0 **** 0.06
4610 H 55.137970826674234 141.55684081839036 39.57661720024291 H 0.0 **** 0.06
4611 C 8.807011031729331 50.50817450784473 154.9896523070725 C 0.0 **** -0.24
4612 H 9.654394058275813 50.161050620826586 155.58073324808947 H 0.0 **** 0.06
4613 H 8.471852010510332 51.47440964640245 155.3683220822462 H 0.0 **** 0.06
4614 H 7.993504690442279 49.78608871422517 155.06391690411493 H 0.0 **** 0.06
4615 H 9.108330330137846 50.6102835909937 153.9479282402063 H 0.0 **** 0.06
4616 C 33.68768620687125 140.6579242699309 108.88980108571025 C 0.0 **** -0.24
4617 H 33.415792797603565 141.06180829264133 109.86489663660194 H 0.0 **** 0.06
4618 H 33.80550749605197 141.47666725332934 108.17915153832035 H 0.0 **** 0.06
4619 H 32.903211513796336 139.98595964628902 108.54453074528237 H 0.0 **** 0.06
4620 H 34.62611249700275 140.10981204267142 108.97220101000693 H 0.0 **** 0.06
4621 C 107.29827277636429 13.560066211070875 11.531227288630248 C 0.0 **** -0.24
4622 H 108.05866171439891 14.33437039069463 11.43066206976998 H 0.0 **** 0.06
4623 H 107.66106387036285 12.77948929646135 12.201312382562335 H 0.0 **** 0.06
4624 H 107.08555855757783 13.130049108856895 10.552283655571358 H 0.0 **** 0.06
4625 H 106.38769836422682 13.997267557962914 11.941726881856333 H 0.0 **** 0.06
4626 C 62.9322577810741 66.44750884140268 2.0530638695279713 C 0.0 **** -0.24
4627 H 62.49805989520553 66.58909639306393 1.0633099430537776 H 0.0 **** 0.06
4628 H 62.40332113604994 65.64513005105485 2.5698056376967067 H 0.0 **** 0.06
4629 H 62.841586101718676 67.37019746712322 2.6260856945749502 H 0.0 **** 0.06
4630 H 63.985609820630245 66.18342528089383 1.9529336321878503 H 0.0 **** 0.06
4631 C 18.092499178168573 104.5837885178068 64.7832733983011 C 0.0 **** -0.24
4632 H 18.579548492816222 104.02116423534551 63.9858415180251 H 0.0 **** 0.06
4633 H 17.9860943026625 105.62508276791732 64.47891511761509 H 0.0 **** 0.06
4634 H 18.6972330492328 104.52880805060323 65.68805720690483 H 0.0 **** 0.06
4635 H 17.108209632786426 104.15933319956463 64.97759118092665 H 0.0 **** 0.06
4636 C 45.539877361835536 76.8627572921705 113.25868261479332 C 0.0 **** -0.24
4637 H 46.08351546554073 76.85920181479696 114.2034495929775 H 0.0 **** 0.06
4638 H 44.69448263390825 77.54659459975801 113.32884623805484 H 0.0 **** 0.06
4639 H 45.17795818143293 75.85769206808385 113.04380812222558 H 0.0 **** 0.06
4640 H 46.2052213062761 77.18719056995386 112.45893444410319 H 0.0 **** 0.06
4641 C 40.76897837213434 127.39438553437999 32.76385043339462 C 0.0 **** -0.24
4642 H 41.56857230315558 127.90167797601005 32.22252922743951 H 0.0 **** 0.06
4643 H 40.35929558431786 126.59802530260309 32.14252518460614 H 0.0 **** 0.06
4644 H 39.98297416885981 128.109909754795 33.00313294157468 H 0.0 **** 0.06
4645 H 41.167364956775515 126.96994256492987 33.685049622172926 H 0.0 **** 0.06
4646 C 25.749155055310098 46.80443791164102 74.88512779907362 C 0.0 **** -0.24
4647 H 25.295481566673345 45.99620264313451 75.45890806498949 H 0.0 **** 0.06
4648 H 26.70502834185413 47.076096936641434 75.33256191919287 H 0.0 **** 0.06
4649 H 25.085400242011815 47.669950067344416 74.89069373481146 H 0.0 **** 0.06
4650 H 25.907733104244585 46.4756152970851 73.85799374391513 H 0.0 **** 0.06
4651 C 65.95561729476368 47.75657884039754 59.02941094765828 C 0.0 **** -0.24
4652 H 65.2729067701187 48.581995332759675 59.232862778352185 H 0.0 **** 0.06
4653 H 66.49716737923939 47.50077223599777 59.94085057902228 H 0.0 **** 0.06
4654 H 66.66478379067162 48.054740128526305 58.256595685381384 H 0.0 **** 0.06
4655 H 65.38859880364475 46.8914554594584 58.68875398092776 H 0.0 **** 0.06
4656 C 57.631504951904375 42.472709094411215 28.39568794883951 C 0.0 **** -0.24
4657 H 58.580189331479076 42.98785400336209 28.545178180891014 H 0.0 **** 0.06
4658 H 56.93827795474979 42.74997631288221 29.190528767613714 H 0.0 **** 0.06
4659 H 57.79627340387255 41.394631161235864 28.416085353295372 H 0.0 **** 0.06
4660 H 57.21089882222812 42.757014170357834 27.430897405028503 H 0.0 **** 0.06
4661 C 70.39956603340352 155.6239832428256 27.261895145540166 C 0.0 **** -0.24
4662 H 69.51547385929541 156.24946940055423 27.381731435050938 H 0.0 **** 0.06
4663 H 70.9572046370391 155.6001334946174 28.1989880435128 H 0.0 **** 0.06
4664 H 71.03029211471838 156.03401146201554 26.47384622339456 H 0.0 **** 0.06
4665 H 70.09467014963333 154.61245949850894 26.9951577102305 H 0.0 **** 0.06
4666 C 104.66916669258586 80.39750901261728 137.53234471358863 C 0.0 **** -0.24
4667 H 104.47225825251894 81.45270697810582 137.34376852121474 H 0.0 **** 0.06
4668 H 105.72421798500602 80.18679477457079 137.3536326661782 H 0.0 **** 0.06
4669 H 104.05932683680271 79.78906182731288 136.86439333094438 H 0.0 **** 0.06
4670 H 104.42220635619611 80.16107040640831 138.56739546245663 H 0.0 **** 0.06
4671 C 50.66264862864779 112.80136706723376 122.76662572837 C 0.0 **** -0.24
4672 H 49.67969777352596 113.23929203960098 122.59775609371815 H 0.0 **** 0.06
4673 H 51.3942061071628 113.29190501760614 122.12445375081637 H 0.0 **** 0.06
4674 H 50.630543401491195 111.73671995407385 122.53557282754588 H 0.0 **** 0.06
4675 H 50.94656574987238 112.93748763346657 123.81091590937217 H 0.0 **** 0.06
4676 C 140.2961102379225 148.30573722629748 73.01882730856173 C 0.0 **** -0.24
4677 H 140.266176613312 148.87822397732697 73.94510346662008 H 0.0 **** 0.06
4678 H 140.80430031773673 148.8863752977976 72.24910921990455 H 0.0 **** 0.06
4679 H 139.27937306778307 148.0842012813922 72.69506194825105 H 0.0 **** 0.06
4680 H 140.83475595755004 147.37246835393864 73.18564667062094 H 0.0 **** 0.06
4681 C 134.87789089710455 119.89200061918393 70.7768237411808 C 0.0 **** -0.24
4682 H 134.3074271147446 120.80590434608132 70.61100539651375 H 0.0 **** 0.06
4683 H 134.94784504365037 119.69628843902319 71.84759490466274 H 0.0 **** 0.06
4684 H 135.87880113953756 120.00853608805642 70.36175527871762 H 0.0 **** 0.06
4685 H 134.3761923023989 119.05770322445727 70.28657783549181 H 0.0 **** 0.06
4686 C 49.1208026397635 42.80104083340423 80.97110193000807 C 0.0 **** -0.24
4687 H 48.74725330884871 43.73116912296936 81.39883305825882 H 0.0 **** 0.06
4688 H 49.283848798526265 42.074742144409896 81.76804852285639 H 0.0 **** 0.06
4689 H 50.06224754034031 42.99143519952952 80.45427971033953 H 0.0 **** 0.06
4690 H 48.39196759221829 42.40756527897304 80.26329044564386 H 0.0 **** 0.06
4691 C 111.14935662260432 112.07591352183299 84.23183704483984 C 0.0 **** -0.24
4692 H 110.17491870370371 111.63016666527234 84.03137966053546 H 0.0 **** 0.06
4693 H 111.92612742537794 111.48104245292937 83.75109573114872 H 0.0 **** 0.06
4694 H 111.32306987924254 112.101274625859 85.30706546334794 H 0.0 **** 0.06
4695 H 111.1722578755491 113.09174072936797 83.8359187158676 H 0.0 **** 0.06
4696 C 105.87194011291786 40.55454811902922 103.8948116459585 C 0.0 **** -0.24
4697 H 105.16815486578037 41.32100009723763 103.56938672319609 H 0.0 **** 0.06
4698 H 106.79642346707408 41.02849032771917 104.22591738201658 H 0.0 **** 0.06
4699 H 106.08436690804928 39.88123969890671 103.06515011434891 H 0.0 **** 0.06
4700 H 105.43670265779815 39.98979578607725 104.7198376224166 H 0.0 **** 0.06
4701 C 106.10300185425025 46.903814220386835 30.877211582756615 C 0.0 **** -0.24
4702 H 106.76824429081323 46.35959825532717 31.547609342782494 H 0.0 **** 0.06
4703 H 105.07978384234299 46.833855357857715 31.247053909494866 H 0.0 **** 0.06
4704 H 106.15876051125379 46.470296103857464 29.878253268335925 H 0.0 **** 0.06
4705 H 106.40470769840574 47.950459431858064 30.837210886963305 H 0.0 **** 0.06
4706 C 23.89892696589603 111.38233186599938 22.21504037288514 C 0.0 **** -0.24
4707 H 24.050609775212926 112.4614275818531 22.19540815604796 H 0.0 **** 0.06
4708 H 22.86546853442912 111.16636129953712 22.487402412469976 H 0.0 **** 0.06
4709 H 24.570154586332173 110.93484602285865 22.94824878937635 H 0.0 **** 0.06
4710 H 24.109632429938735 110.96809740961017 21.2291429696663 H 0.0 **** 0.06
4711 C 57.295716729518006 68.10064621146944 61.60148817661063 C 0.0 **** -0.24
4712 H 58.07675794328776 67.6004109128234 62.17356240327463 H 0.0 **** 0.06
4713 H 57.725190392035586 68.94071301685611 61.05626089834436 H 0.0 **** 0.06
4714 H 56.5246076839544 68.46429749077431 62.281045588311 H 0.0 **** 0.06
4715 H 56.85435757353048 67.3959556627932 60.89593588759956 H 0.0 **** 0.06
4716 C 143.52453953172275 96.17344247746274 0.03338934780617819 C 0.0 **** -0.24
4717 H 144.24153703318436 95.99038977610225 -0.7665824919932618 H 0.0 **** 0.06
4718 H 143.18971409552026 95.22146518465149 0.4465162809909202 H 0.0 **** 0.06
4719 H 142.66832533642406 96.71895301023702 -0.3648068584230657 H 0.0 **** 0.06
4720 H 143.99793328655196 96.7631444439456 0.8176913165299595 H 0.0 **** 0.06
4721 C 101.90750534163435 0.33282355267772346 1.4370511388111638 C 0.0 **** -0.24
4722 H 102.08083053553734 1.2154309100081377 2.0520464830938003 H 0.0 **** 0.06
4723 H 101.36508106928527 0.6191886818548369 0.5350962362167166 H 0.0 **** 0.06
4724 H 101.32089079506646 -0.39250908889795255 1.9996767341926045 H 0.0 **** 0.06
4725 H 102.86457261488785 -0.11014810831997579 1.1594560185472425 H 0.0 **** 0.06
4726 C 21.87806355570183 26.359910734376655 124.07651020450653 C 0.0 **** -0.24
4727 H 20.820218644247348 26.099520100226073 124.06376280468969 H 0.0 **** 0.06
4728 H 22.379657523573826 25.80143340567662 124.86714238937797 H 0.0 **** 0.06
4729 H 21.987176151958693 27.42867936057607 124.26206545866988 H 0.0 **** 0.06
4730 H 22.325558960706672 26.110260285885715 123.11441551559166 H 0.0 **** 0.06
4731 C 156.60339748451864 1.2113094227968304 52.97640058039663 C 0.0 **** -0.24
4732 H 156.6925155553755 0.8545066139840856 51.95065920307951 H 0.0 **** 0.06
4733 H 157.0061265393753 2.22181146207447 53.04569421793157 H 0.0 **** 0.06
4734 H 157.16079290157475 0.5504344161865333 53.64017406867964 H 0.0 **** 0.06
4735 H 155.55273282732887 1.2178887986971176 53.26828616531651 H 0.0 **** 0.06
4736 C 67.36973545688605 59.066599932243776 38.95728106418811 C 0.0 **** -0.24
4737 H 67.56044765203688 58.20561428944683 38.31647433900062 H 0.0 **** 0.06
4738 H 67.81403697454482 59.95726071628047 38.51076649126006 H 0.0 **** 0.06
4739 H 67.81070164117969 58.89332245475185 39.93889830600288 H 0.0 **** 0.06
4740 H 66.29420020170096 59.21003675592431 39.061652842644946 H 0.0 **** 0.06
4741 C 60.30359002730877 45.82110658183032 119.96864365536688 C 0.0 **** -0.24
4742 H 59.93974167128812 44.83563449895388 119.67969247613671 H 0.0 **** 0.06
4743 H 61.39162885680888 45.84031367941624 119.9043064841455 H 0.0 **** 0.06
4744 H 59.996336632958304 46.03666499286402 120.99159065680156 H 0.0 **** 0.06
4745 H 59.88759283065765 46.57348052653788 119.29782886448884 H 0.0 **** 0.06
4746 C 1.379211755292772 94.78312909840656 80.26798358389215 C 0.0 **** -0.24
4747 H 0.7209162344145454 94.8759391684063 79.40389042563925 H 0.0 **** 0.06
4748 H 1.8157084978778641 93.78442280684702 80.28760539193732 H 0.0 **** 0.06
4749 H 0.8057982498444005 94.94750518363118 81.18067474143487 H 0.0 **** 0.06
4750 H 2.1735135576600726 95.5264848291325 80.2006591980485 H 0.0 **** 0.06
4751 C 142.74189921047633 2.0216643864856962 16.374285887613837 C 0.0 **** -0.24
4752 H 143.5899503649737 2.4347579102980035 16.919471743295816 H 0.0 **** 0.06
4753 H 141.81670477000998 2.4366416352794715 16.773380839632466 H 0.0 **** 0.06
4754 H 142.73129871381377 0.9365642297578063 16.485937187884332 H 0.0 **** 0.06
4755 H 142.8302837571551 2.276805019900422 15.318204875641072 H 0.0 **** 0.06
4756 C 137.95238573154433 95.12037508951758 33.337681118042724 C 0.0 **** -0.24
4757 H 138.93464600287643 94.78203612678658 33.005128512828605 H 0.0 **** 0.06
4758 H 137.39591530449582 95.5129482938393 32.48731732840116 H 0.0 **** 0.06
4759 H 138.073535731954 95.9031584742095 34.08737476585054 H 0.0 **** 0.06
4760 H 137.4081918373925 94.28242319559013 33.773045668708505 H 0.0 **** 0.06
4761 C 7.695157736283875 21.57705180914396 149.82940657228613 C 0.0 **** -0.24
4762 H 7.893663600860364 22.631507831061228 150.0196657912687 H 0.0 **** 0.06
4763 H 6.684084136719605 21.462293305077097 149.43842915656882 H 0.0 **** 0.06
4764 H 7.7905696210237565 21.016047132710874 150.7591699843647 H 0.0 **** 0.06
4765 H 8.411645233740195 21.19859987608178 149.10158419495696 H 0.0 **** 0.06
4766 C 40.78875686146125 101.42965231267944 0.23440753207333387 C 0.0 **** -0.24
4767 H 39.74956185138262 101.19134444309636 0.46399586917516444 H 0.0 **** 0.06
4768 H 41.44163288424119 100.68854565630325 0.6942482175082603 H 0.0 **** 0.06
4769 H 41.02812935818935 102.41876095479189 0.624541566003586 H 0.0 **** 0.06
4770 H 40.9331394154039 101.42093739551633 -0.8458393801548709 H 0.0 **** 0.06
4771 C 15.736874311834356 110.06552991276543 32.03507115749858 C 0.0 **** -0.24
4772 H 15.489377755083979 109.73130389796661 31.027933594907296 H 0.0 **** 0.06
4773 H 14.94978584642189 109.75591847690994 32.72303350793231 H 0.0 **** 0.06
4774 H 15.823727579545846 111.15139083008039 32.046170956426124 H 0.0 **** 0.06
4775 H 16.683579577040405 109.62167947581914 32.34187822743861 H 0.0 **** 0.06
4776 C 130.7858549910674 84.08115431164074 130.3892125118736 C 0.0 **** -0.24
4777 H 131.20175846379001 84.87318294178878 131.01206371849284 H 0.0 **** 0.06
4778 H 130.41549980330097 83.2753521246302 131.0244420790657 H 0.0 **** 0.06
4779 H 131.56051982429943 83.69418969544314 129.72700675718508 H 0.0 **** 0.06
4780 H 129.96460111915425 84.48052412463002 129.79312649500497 H 0.0 **** 0.06
4781 C 2.351361883487982 24.014181105291726 56.30576232159018 C 0.0 **** -0.24
4782 H 2.471910635216517 23.05897577310219 55.793169408148856 H 0.0 **** 0.06
4783 H 3.2578348341165224 24.606969525024823 56.18464940267893 H 0.0 **** 0.06
4784 H 2.1709239523361816 23.83645281107249 57.36556298781454 H 0.0 **** 0.06
4785 H 1.505157299478384 24.551218135049083 55.876804615173626 H 0.0 **** 0.06
4786 C 46.001276354055676 155.02365553194923 103.83851426235559 C 0.0 **** -0.24
4787 H 45.82105761715559 155.5355859235464 104.78440600556381 H 0.0 **** 0.06
4788 H 45.091252905424426 154.5111395049209 103.5242017346854 H 0.0 **** 0.06
4789 H 46.80240943385331 154.2953381052296 103.96682718344859 H 0.0 **** 0.06
4790 H 46.2896685228165 155.752004464146 103.08040512083637 H 0.0 **** 0.06
4791 C 141.5229704674209 122.00990430875612 31.242145234674894 C 0.0 **** -0.24
4792 H 140.7128433909138 121.42343586042489 31.67678598821655 H 0.0 **** 0.06
4793 H 141.98979169468834 121.44239825672474 30.43606859612933 H 0.0 **** 0.06
4794 H 142.26561885192362 122.22849501886174 32.00963475091622 H 0.0 **** 0.06
4795 H 141.1237568606296 122.94334213021517 30.84564807994829 H 0.0 **** 0.06
4796 C 66.3977978190899 134.06381765536645 132.65232181524135 C 0.0 **** -0.24
4797 H 65.94819224436579 134.8832271781648 132.09177697140296 H 0.0 **** 0.06
4798 H 66.30627229262448 133.13930692001514 132.08114785796192 H 0.0 **** 0.06
4799 H 65.88575370887689 133.9531457404114 133.60726797643835 H 0.0 **** 0.06
4800 H 67.45166891932709 134.2791872832417 132.82700804927535 H 0.0 **** 0.06
4801 C 17.101026351446706 55.92820297806006 64.5911687771769 C 0.0 **** -0.24
4802 H 17.33490529509362 56.939146959576675 64.92363915040698 H 0.0 **** 0.06
4803 H 16.31376016840352 55.96637363128988 63.83781052784104 H 0.0 **** 0.06
4804 H 16.762162558789385 55.33521874959027 65.44088974215776 H 0.0 **** 0.06
4805 H 17.992823945569853 55.471276219473 64.1627360001687 H 0.0 **** 0.06
4806 C 4.345667522270489 103.58259190777603 153.89810134954942 C 0.0 **** -0.24
4807 H 4.050255750489846 102.54921416828144 153.7123944481318 H 0.0 **** 0.06
4808 H 5.36815651721988 103.73560332281103 153.55123758778672 H 0.0 **** 0.06
4809 H 4.28915577944889 103.78877995905661 154.96687661955332 H 0.0 **** 0.06
4810 H 3.674744721926885 104.25320836511766 153.36232826735832 H 0.0 **** 0.06
4811 C 75.2997214112393 108.40657591493006 3.566598647418431 C 0.0 **** -0.24
4812 H 75.2474151598729 107.33131076351133 3.734147283709035 H 0.0 **** 0.06
4813 H 74.29572625136348 108.79920580050954 3.4048730463483707 H 0.0 **** 0.06
4814 H 75.91407340759864 108.60828305211062 2.689481491518137 H 0.0 **** 0.06
4815 H 75.7419242555538 108.88920557154556 4.438094445523063 H 0.0 **** 0.06
4816 C 147.43085697504083 153.35534873317005 18.586379792686273 C 0.0 **** -0.24
4817 H 147.02223684963826 153.17301566336374 19.58078008764437 H 0.0 **** 0.06
4818 H 147.93229705707415 154.32343010218517 18.57220228657704 H 0.0 **** 0.06
4819 H 146.6216440593068 153.35467464076726 17.855611226057135 H 0.0 **** 0.06
4820 H 148.14590489535874 152.57141182694647 18.33830309752608 H 0.0 **** 0.06
4821 C 78.39058703075186 82.53427094534277 123.03474303978466 C 0.0 **** -0.24
4822 H 78.38960010360638 83.59902100038357 123.26960266117463 H 0.0 **** 0.06
4823 H 77.91776455449634 81.98180159238092 123.84758695869319 H 0.0 **** 0.06
4824 H 79.4178362769127 82.19105958641364 122.91177710071808 H 0.0 **** 0.06
4825 H 77.83809907810522 82.36539648515213 122.109768883287 H 0.0 **** 0.06
4826 C 65.13016450737142 53.587849844763525 7.455521971593441 C 0.0 **** -0.24
4827 H 65.17373146188834 54.385861201759724 8.197143496255507 H 0.0 **** 0.06
4828 H 66.08746299704562 53.06547680811866 7.428956108486375 H 0.0 **** 0.06
4829 H 64.92061009922654 54.01389954420563 6.474636526039177 H 0.0 **** 0.06
4830 H 64.3405178559471 52.885802835864126 7.723112762676919 H 0.0 **** 0.06
4831 C 130.98203347587662 131.7461213425488 18.7499113819579 C 0.0 **** -0.24
4832 H 130.78653602285198 131.86528566204055 17.684048213298553 H 0.0 **** 0.06
4833 H 131.97255784985657 132.13703931400073 18.982946315760728 H 0.0 **** 0.06
4834 H 130.93699264646892 130.68881322974113 19.011214946438116 H 0.0 **** 0.06
4835 H 130.2314995750677 132.29397300287638 19.319916733776637 H 0.0 **** 0.06
4836 C 103.59593070619394 79.13374910769654 103.36787466004141 C 0.0 **** -0.24
4837 H 102.74534139438634 79.60514897092601 102.8762939048503 H 0.0 **** 0.06
4838 H 103.27537713804304 78.71353305274897 104.32191218259779 H 0.0 **** 0.06
4839 H 104.3736068927447 79.87777808059477 103.54099980234064 H 0.0 **** 0.06
4840 H 103.98798298018858 78.33901711470878 102.73362255887334 H 0.0 **** 0.06
4841 C 50.66917862542512 151.16886266871603 23.856878504975953 C 0.0 **** -0.24
4842 H 51.19248665110156 150.21672829047267 23.948057051563808 H 0.0 **** 0.06
4843 H 49.5991724002336 150.98581593196536 23.75150162159275 H 0.0 **** 0.06
4844 H 51.03599728548862 151.70169924406483 22.980345629008696 H 0.0 **** 0.06
4845 H 50.849638016541746 151.7684698646683 24.749883732843784 H 0.0 **** 0.06
4846 C 110.24492732819398 71.23917925917695 155.82646181140848 C 0.0 **** -0.24
4847 H 109.89508962412897 70.33662215383731 156.3280841198831 H 0.0 **** 0.06
4848 H 111.10425369414834 70.99800682566465 155.20118850482862 H 0.0 **** 0.06
4849 H 110.5344380503531 71.97948734265991 156.5728445431642 H 0.0 **** 0.06
4850 H 109.44463448238382 71.64259676325267 155.2055541127926 H 0.0 **** 0.06
4851 C 155.49485207018617 138.33355216325248 122.51757698083912 C 0.0 **** -0.24
4852 H 156.2682925728162 139.09728770863705 122.59503959865935 H 0.0 **** 0.06
4853 H 155.78748310878757 137.59515201186616 121.77002764154537 H 0.0 **** 0.06
4854 H 154.5538328169465 138.7980351431116 122.22183889111085 H 0.0 **** 0.06
4855 H 155.36979978219435 137.8437337893949 123.48340179204064 H 0.0 **** 0.06
4856 C 137.0473187942665 38.246761114130564 129.70573889465464 C 0.0 **** -0.24
4857 H 137.3261495405735 37.985868882586075 130.72753749882628 H 0.0 **** 0.06
4858 H 137.79371323839797 38.92132152767107 129.2870800468508 H 0.0 **** 0.06
4859 H 136.07390267161435 38.73717842547882 129.70968638803356 H 0.0 **** 0.06
4860 H 136.99544898715254 37.340950042269 129.10197115469265 H 0.0 **** 0.06
4861 C 97.62109492534876 156.0989895277627 100.37819880196541 C 0.0 **** -0.24
4862 H 97.60321395052812 157.10033456407706 99.94732401926903 H 0.0 **** 0.06
4863 H 98.47753440638445 156.00738865853583 101.04694718495027 H 0.0 **** 0.06
4864 H 97.70126835956866 155.36157923477606 99.58094672339386 H 0.0 **** 0.06
4865 H 96.70186917430442 155.930271448333 100.93974125018165 H 0.0 **** 0.06
4866 C 116.57367589733302 150.48982576259766 129.8148977006132 C 0.0 **** -0.24
4867 H 115.85914114362664 149.68619640208198 129.63431077782667 H 0.0 **** 0.06
4868 H 117.58822870283801 150.09667329552767 129.73999470377885 H 0.0 **** 0.06
4869 H 116.41480873490816 150.900537144922 130.8111009925969 H 0.0 **** 0.06
4870 H 116.43263033622468 151.27420953205853 129.07084599237805 H 0.0 **** 0.06
4871 C 115.33324193824306 148.36930182371455 14.471115763202675 C 0.0 **** -0.24
4872 H 114.69923576535096 149.0298199794242 13.879842051917592 H 0.0 **** 0.06
4873 H 116.30984571048369 148.8335224557477 14.61144029916727 H 0.0 **** 0.06
4874 H 115.45458415101565 147.41937753980957 13.950581815080284 H 0.0 **** 0.06
4875 H 114.87053411773233 148.19516460868147 15.442445453772791 H 0.0 **** 0.06
4876 C 151.3494566498909 72.97026458267966 31.766872616042377 C 0.0 **** -0.24
4877 H 150.5274826423532 72.43730708654553 31.28982997462915 H 0.0 **** 0.06
4878 H 151.10785295271577 74.03194918482146 31.827462767561144 H 0.0 **** 0.06
4879 H 152.2583989478894 72.8375187333764 31.1797004737774 H 0.0 **** 0.06
4880 H 151.50409205660537 72.57428332597534 32.77049724820179 H 0.0 **** 0.06
4881 C 129.14066196231047 103.48782820890766 86.72722301049085 C 0.0 **** -0.24
4882 H 128.20415239129852 102.99087709268501 86.97942544257833 H 0.0 **** 0.06
4883 H 128.9286297994288 104.47466470882763 86.31399328874532 H 0.0 **** 0.06
4884 H 129.6799698765538 102.8929401743324 85.98915667466164 H 0.0 **** 0.06
4885 H 129.74901310243575 103.59246239290344 87.62527491907225 H 0.0 **** 0.06
4886 C 97.80227776270965 97.40330034835492 91.03393970496376 C 0.0 **** -0.24
4887 H 97.13001690927261 96.55770654400997 91.18392696522892 H 0.0 **** 0.06
4888 H 97.6121075036039 98.1576531428286 91.79731890331914 H 0.0 **** 0.06
4889 H 97.63054111137829 97.83180894076497 90.04706608333106 H 0.0 **** 0.06
4890 H 98.83544949509731 97.06314515139773 91.10826536033665 H 0.0 **** 0.06
4891 C 155.16196447926467 100.94149360364747 121.29863368578047 C 0.0 **** -0.24
4892 H 155.69668704181112 100.05810757961842 120.94851854753715 H 0.0 **** 0.06
4893 H 155.24200264410268 101.00732734113922 122.38406655259651 H 0.0 **** 0.06
4894 H 154.1121794099355 100.86670940306215 121.01422848809209 H 0.0 **** 0.06
4895 H 155.5979641591988 101.83205636985889 120.84677100086502 H 0.0 **** 0.06
4896 C 123.35240967176689 41.22927763356441 126.87115722539171 C 0.0 **** -0.24
4897 H 123.83066526409748 42.0632045923918 126.35837164196427 H 0.0 **** 0.06
4898 H 122.27081270429925 41.302288406724585 126.75459342414847 H 0.0 **** 0.06
4899 H 123.6064535794623 41.260855484791364 127.93135166528997 H 0.0 **** 0.06
4900 H 123.70094832285771 40.29018977072252 126.44233623946177 H 0.0 **** 0.06
4901 C 125.56183492502606 144.00519115849949 149.78964737713557 C 0.0 **** -0.24
4902 H 125.62295419477954 142.95617213205688 149.4973936577797 H 0.0 **** 0.06
4903 H 126.2456424233722 144.5931227359998 149.17711211451308 H 0.0 **** 0.06
4904 H 125.83637069423946 144.10605479771704 150.8394455925403 H 0.0 **** 0.06
4905 H 124.54260310451366 144.36323826484173 149.64418109350254 H 0.0 **** 0.06
4906 C 35.185784629343004 45.021255202276194 81.52020112133971 C 0.0 **** -0.24
4907 H 35.513109068263674 44.054745064804706 81.90358153577533 H 0.0 **** 0.06
4908 H 34.51118379720455 44.86707721486161 80.67714265038609 H 0.0 **** 0.06
4909 H 36.052998129037974 45.594422599474626 81.19180416292096 H 0.0 **** 0.06
4910 H 34.665021115736295 45.56747006425462 82.30637562021415 H 0.0 **** 0.06
4911 C 145.48750539334202 140.2134959581504 45.474043932126435 C 0.0 **** -0.24
4912 H 145.74948459640905 139.92766023610397 46.49303192359906 H 0.0 **** 0.06
4913 H 144.66088631702638 139.59479256338193 45.12478230782632 H 0.0 **** 0.06
4914 H 146.3500407550572 140.0701986099575 44.82333486883658 H 0.0 **** 0.06
4915 H 145.18942652876956 141.26189910208876 45.45630932590589 H 0.0 **** 0.06
4916 C 91.15447368577126 22.519669543539408 3.1463732666666147 C 0.0 **** -0.24
4917 H 91.52522483806541 23.122133105974086 3.9760026596222815 H 0.0 **** 0.06
4918 H 91.43874856229522 21.478705043727246 3.2981242286754195 H 0.0 **** 0.06
4919 H 91.58604285598415 22.882977586430002 2.212873915166881 H 0.0 **** 0.06
4920 H 90.06821280198982 22.597158237564543 3.09770630322015 H 0.0 **** 0.06
4921 C 10.161717438756405 7.791194013619112 8.234817349688086 C 0.0 **** -0.24
4922 H 9.152671365752077 7.390214122976303 8.331423907892543 H 0.0 **** 0.06
4923 H 10.619209010806735 7.408099816116099 7.322126821795905 H 0.0 **** 0.06
4924 H 10.75710412905557 7.487526730341841 9.095724158380847 H 0.0 **** 0.06
4925 H 10.116902611278896 8.879121003892052 8.18999380809845 H 0.0 **** 0.06
4926 C 29.07098973447728 8.313671256395025 5.669912468875381 C 0.0 **** -0.24
4927 H 29.036070662107278 8.13187455327602 6.744229134814823 H 0.0 **** 0.06
4928 H 30.110647993052282 8.344239716720324 5.340980852745794 H 0.0 **** 0.06
4929 H 28.59123836539112 9.265959697574033 5.446885618710844 H 0.0 **** 0.06
4930 H 28.547857106838705 7.51219459687843 5.149098622627584 H 0.0 **** 0.06
4931 C 78.20219164908096 105.8907029152043 88.57882242744958 C 0.0 **** -0.24
4932 H 78.58170179619783 106.48637342888175 89.4082326487288 H 0.0 **** 0.06
4933 H 78.44402050423982 106.38396350636044 87.63656953424842 H 0.0 **** 0.06
4934 H 77.12083561774176 105.78927969130585 88.66910046087551 H 0.0 **** 0.06
4935 H 78.66248194061079 104.90256941213129 88.60065634225315 H 0.0 **** 0.06
4936 C 76.61765458975033 93.43456086488331 55.542058930894214 C 0.0 **** -0.24
4937 H 76.91748707523787 92.47888605550196 55.973228089784726 H 0.0 **** 0.06
4938 H 76.48165558734162 94.16551875131285 56.33846113862785 H 0.0 **** 0.06
4939 H 75.68071649854976 93.30907566636579 54.9992199539784 H 0.0 **** 0.06
4940 H 77.3905011763361 93.78166383966094 54.856752920956524 H 0.0 **** 0.06
4941 C 61.81171909132172 142.59241406415362 154.55080269397732 C 0.0 **** -0.24
4942 H 62.58723452163275 142.15732770101906 153.92035099241068 H 0.0 **** 0.06
4943 H 60.91607200071269 141.97148822645923 154.50411090493486 H 0.0 **** 0.06
4944 H 61.576576411042964 143.59662139023428 154.19681079071452 H 0.0 **** 0.06
4945 H 62.166391760831914 142.64317669001247 155.58005344678836 H 0.0 **** 0.06
4946 C 109.81652723911695 17.211559069090548 85.18639029553708 C 0.0 **** -0.24
4947 H 110.06886949358004 16.982435794850282 86.22244272227017 H 0.0 **** 0.06
4948 H 110.35466372415736 18.105696292854994 84.87097400790371 H 0.0 **** 0.06
4949 H 108.74345800768295 17.385611993508547 85.10482629848937 H 0.0 **** 0.06
4950 H 110.09925988399475 16.373723773126642 84.55005005779734 H 0.0 **** 0.06
4951 C 46.99316126595059 107.5501855274703 43.14334443738488 C 0.0 **** -0.24
4952 H 46.455296737408446 108.41842271194061 42.762316067723134 H 0.0 **** 0.06
4953 H 48.005901481985134 107.84310329952176 43.41872794803294 H 0.0 **** 0.06
4954 H 47.035081973796366 106.78164118498016 42.37117998795537 H 0.0 **** 0.06
4955 H 46.475832300759606 107.15798753707578 44.018798686087166 H 0.0 **** 0.06
4956 C 89.85648091116664 76.85047629753387 104.55173292066634 C 0.0 **** -0.24
4957 H 88.84592402228002 76.55865641077793 104.83774096560369 H 0.0 **** 0.06
4958 H 90.47191200516377 76.95221595787336 105.44614798823925 H 0.0 **** 0.06
4959 H 89.82378928497509 77.80245423719029 104.02328435951183 H 0.0 **** 0.06
4960 H 90.28370270753356 76.08720716551215 103.90108674121804 H 0.0 **** 0.06
4961 C 145.2785134673977 98.96086947319719 120.45754782440251 C 0.0 **** -0.24
4962 H 144.3999705669068 99.40245387466553 119.98656451515514 H 0.0 **** 0.06
4963 H 145.18216189455876 97.87503645090575 120.45919107082854 H 0.0 **** 0.06
4964 H 145.36033023380247 99.32030998329651 121.48274057152402 H 0.0 **** 0.06
4965 H 146.17057540298475 99.24547550822626 119.90030680597424 H 0.0 **** 0.06
4966 C 23.093192006012444 38.35891903653743 124.35707134333802 C 0.0 **** -0.24
4967 H 24.085010619305564 37.959079923263744 124.56746189527394 H 0.0 **** 0.06
4968 H 22.33701248988097 37.65879687618508 124.7129325350229 H 0.0 **** 0.06
4969 H 22.979457766372505 38.502849842037904 123.28292140231991 H 0.0 **** 0.06
4970 H 22.97262027585468 39.31553737462923 124.86666581402773 H 0.0 **** 0.06
4971 C 111.64094249026813 146.58169412113048 98.84997835742487 C 0.0 **** -0.24
4972 H 111.95427416254414 145.57335661265526 99.11707074451942 H 0.0 **** 0.06
4973 H 112.52077224942879 147.20280932810346 98.67773953260246 H 0.0 **** 0.06
4974 H 111.05030759074823 147.00618772802716 99.66257192430925 H 0.0 **** 0.06
4975 H 111.0377639883058 146.5465613342318 97.94248837444059 H 0.0 **** 0.06
4976 C 56.847673746757096 70.43108745176258 76.96311591842607 C 0.0 **** -0.24
4977 H 55.864820434355806 70.42015346651515 77.43559081303727 H 0.0 **** 0.06
4978 H 56.96462206945637 71.35014857333526 76.38977362785693 H 0.0 **** 0.06
4979 H 56.93936110134746 69.57179140622452 76.29766009280615 H 0.0 **** 0.06
4980 H 57.619726996916654 70.37963729362846 77.73064593209745 H 0.0 **** 0.06
4981 C 60.746379810496876 89.67949589204534 126.66688402623423 C 0.0 **** -0.24
4982 H 61.326643591335085 90.17513161862507 127.4448035743181 H 0.0 **** 0.06
4983 H 61.39751092349803 89.01705993789312 126.0952481291214 H 0.0 **** 0.06
4984 H 60.31563523495481 90.42865687851696 126.00272622035776 H 0.0 **** 0.06
4985 H 59.94704577004427 89.09702012038844 127.12526241303085 H 0.0 **** 0.06
4986 C 120.51400954252547 121.7211181827551 1.5544543087649458 C 0.0 **** -0.24
4987 H 121.40323794173297 121.35197407628613 1.0430629056033922 H 0.0 **** 0.06
4988 H 120.0389958469734 120.90096177842537 2.093990382238303 H 0.0 **** 0.06
4989 H 119.81629131818882 122.1279939812 0.8220568369652028 H 0.0 **** 0.06
4990 H 120.79869979661201 122.50233172599678 2.2583537961493505 H 0.0 **** 0.06
4991 C 101.75280557948554 7.080465904724917 28.266201952300513 C 0.0 **** -0.24
4992 H 101.78985163188247 7.8633988520079185 29.02349202403284 H 0.0 **** 0.06
4993 H 102.65237252034137 6.467787809122854 28.33169673548276 H 0.0 **** 0.06
4994 H 101.6934425550703 7.534869043644363 27.276733144939044 H 0.0 **** 0.06
4995 H 100.87407572642576 6.456110318348436 28.432038206674463 H 0.0 **** 0.06
4996 C 4.9945376388172065 48.676657659759 3.9442836776637904 C 0.0 **** -0.24
4997 H 4.6486572157441515 49.58000422838876 4.446294999571478 H 0.0 **** 0.06
4998 H 5.315942938853141 48.923207671486296 2.932013250384429 H 0.0 **** 0.06
4999 H 4.182411894127938 47.95146502319005 3.9004081473223877 H 0.0 **** 0.06
5000 H 5.831138506543681 48.251953715970785 4.4984183133769164 H 0.0 **** 0.06
5001 C 12.055180548911324 108.38754164432753 71.83331683728412 C 0.0 **** -0.24
5002 H 11.94719984432328 109.46843851958401 71.73993159417597 H 0.0 **** 0.06
5003 H 11.758869385057096 107.91141655877793 70.89790820296884 H 0.0 **** 0.06
5004 H 11.419566907571038 108.02715331703565 72.64252709624236 H 0.0 **** 0.06
5005 H 13.094887221448687 108.14357992847557 72.05156529332976 H 0.0 **** 0.06
5006 C 72.10485551543141 12.550318497007993 71.10172103212716 C 0.0 **** -0.24
5007 H 71.18223847082801 12.66389345954613 71.67039947281238 H 0.0 **** 0.06
5008 H 72.13759805375136 11.554147357150725 70.65957322414204 H 0.0 **** 0.06
5009 H 72.95955260624763 12.682062354508872 71.76630297334277 H 0.0 **** 0.06
5010 H 72.13989448568518 13.300672853187734 70.31146455264967 H 0.0 **** 0.06
5011 C 154.03016730175744 83.18810611839392 60.38344884193609 C 0.0 **** -0.24
5012 H 153.24916120099866 82.6509860638649 59.843507872392664 H 0.0 **** 0.06
5013 H 153.7890005776985 83.20727806544112 61.446038933759425 H 0.0 **** 0.06
5014 H 154.09648340608314 84.20787544010571 60.0060891579099 H 0.0 **** 0.06
5015 H 154.98422108579234 82.68304725224623 60.236351757827435 H 0.0 **** 0.06
5016 C 153.93966632415584 88.9742839744595 109.54901790378172 C 0.0 **** -0.24
5017 H 154.9489425536118 88.57626016475969 109.44111873690541 H 0.0 **** 0.06
5018 H 153.32063184560957 88.25392829629997 110.08446977453976 H 0.0 **** 0.06
5019 H 153.51450113552227 89.15640879419406 108.5620661418226 H 0.0 **** 0.06
5020 H 153.9763128728153 89.9089067773884 110.10781024941919 H 0.0 **** 0.06
5021 C 147.61465417981918 71.75767952631826 40.011016852368726 C 0.0 **** -0.24
5022 H 147.52010598649525 72.84044176700834 40.10495995551511 H 0.0 **** 0.06
5023 H 147.07106922478658 71.42137443045378 39.12806331272472 H 0.0 **** 0.06
5024 H 147.20130158731078 71.27848669743194 40.89822681772772 H 0.0 **** 0.06
5025 H 148.66774573541682 71.49367790571506 39.91193605517009 H 0.0 **** 0.06
5026 C 146.782493636063 147.26815856033858 77.93634254781236 C 0.0 **** -0.24
5027 H 146.01618973891777 146.64915022102247 77.4686549197686 H 0.0 **** 0.06
5028 H 147.62897078051742 147.37130183065148 77.25736494651318 H 0.0 **** 0.06
5029 H 147.11377602238753 146.7978105718899 78.86215755176889 H 0.0 **** 0.06
5030 H 146.3691173410536 148.25210286535622 78.1554139497481 H 0.0 **** 0.06
5031 C 77.49805529461008 148.35707193087094 41.0553701587549 C 0.0 **** -0.24
5032 H 77.3409428761754 147.27899179114291 41.040452356778474 H 0.0 **** 0.06
5033 H 78.53039872131603 148.57797215283395 40.78534276951723 H 0.0 **** 0.06
5034 H 77.2945277057554 148.73992224285723 42.056273193853315 H 0.0 **** 0.06
5035 H 76.82537858002758 148.8327081858564 40.341241401984405 H 0.0 **** 0.06
5036 C 74.79614179696931 53.824030885377354 28.022182109371755 C 0.0 **** -0.24
5037 H 74.26608470847015 53.03833803483303 28.560221036822668 H 0.0 **** 0.06
5038 H 74.08170646216873 54.566002996224654 27.664042128268278 H 0.0 **** 0.06
5039 H 75.32547479185251 53.389560435450676 27.17396003309284 H 0.0 **** 0.06
5040 H 75.51218299506368 54.3018963884179 28.691561873385467 H 0.0 **** 0.06
5041 C 111.75594828021815 36.728315543863744 44.34141873062572 C 0.0 **** -0.24
5042 H 111.27482548568173 35.77833853511923 44.571853484484166 H 0.0 **** 0.06
5043 H 112.80073232221417 36.55351850747462 44.0867582975215 H 0.0 **** 0.06
5044 H 111.69777894748336 37.38487593746696 45.20888251188708 H 0.0 **** 0.06
5045 H 111.24891802864391 37.19644571284003 43.49738901756308 H 0.0 **** 0.06
5046 C 23.297102688722326 69.07041146559122 29.613198056941656 C 0.0 **** -0.24
5047 H 24.374943765060053 69.09889158767028 29.771546256786422 H 0.0 **** 0.06
5048 H 23.04285675919784 69.66656286536862 28.735861610198867 H 0.0 **** 0.06
5049 H 22.79037468798574 69.47775553901812 30.488763160009995 H 0.0 **** 0.06
5050 H 22.979889992191886 68.03994032265658 29.4558355063879 H 0.0 **** 0.06
5051 C 142.52950925209734 144.2800276840364 41.91265229945526 C 0.0 **** -0.24
5052 H 143.56961720181113 143.96115361406638 41.98461388946669 H 0.0 **** 0.06
5053 H 142.39667888687697 145.21439963016005 42.45774845831755 H 0.0 **** 0.06
5054 H 141.88481407417183 143.51243155962408 42.34262095029396 H 0.0 **** 0.06
5055 H 142.26721543371997 144.4285362709845 40.865448497160344 H 0.0 **** 0.06
5056 C 85.46952011539936 33.03681876915533 110.2669869042008 C 0.0 **** -0.24
5057 H 85.90515112143322 33.187884966012916 111.25442464218862 H 0.0 **** 0.06
5058 H 85.12857947504652 33.99336755328801 109.87019149978484 H 0.0 **** 0.06
5059 H 84.6235230749671 32.3526979302149 110.34359242064177 H 0.0 **** 0.06
5060 H 86.21957048750227 32.61299832914284 109.59917753981107 H 0.0 **** 0.06
5061 C 54.46713666582053 121.23019880321952 13.555253923863859 C 0.0 **** -0.24
5062 H 55.45414768101193 121.62902800267226 13.786461950092793 H 0.0 **** 0.06
5063 H 54.156234366728256 121.57719947018388 12.568800663145268 H 0.0 **** 0.06
5064 H 53.751183896811426 121.57260273327039 14.30355259879375 H 0.0 **** 0.06
5065 H 54.50559620583283 120.14006377431171 13.5615159145487 H 0.0 **** 0.06
5066 C 138.08321695531183 68.54028113079737 97.60947427361245 C 0.0 **** -0.24
5067 H 139.01758157554607 68.24439176842425 97.13304180660654 H 0.0 **** 0.06
5068 H 137.64009854521203 69.36987559043953 97.05683258155949 H 0.0 **** 0.06
5069 H 138.28059521001254 68.85052192621829 98.63518774151777 H 0.0 **** 0.06
5070 H 137.39346701829783 67.69602568844944 97.61068143587534 H 0.0 **** 0.06
5071 C 15.760242690378064 83.83597144914688 6.060054235462218 C 0.0 **** -0.24
5072 H 15.386481846247761 84.85350393893322 5.947964452517681 H 0.0 **** 0.06
5073 H 15.270107013974702 83.1866902717885 5.333500249953943 H 0.0 **** 0.06
5074 H 15.548611860183343 83.47948621357483 7.068165013784892 H 0.0 **** 0.06
5075 H 16.83743928641077 83.82326722554899 5.889432382073096 H 0.0 **** 0.06
5076 C 17.990619210052394 51.93517594524508 20.612593920239362 C 0.0 **** -0.24
5077 H 17.25922142048792 51.4261016033019 19.984361255708734 H 0.0 **** 0.06
5078 H 17.82622963461187 51.661067900991014 21.654972708635853 H 0.0 **** 0.06
5079 H 17.878591541416547 53.01319183964341 20.49872913770872 H 0.0 **** 0.06
5080 H 18.995445228279586 51.639438962156845 20.312812424362733 H 0.0 **** 0.06
5081 C 113.72324169156985 16.621065070041993 108.20482958419056 C 0.0 **** -0.24
5082 H 113.21831594636126 15.808419015055485 108.72761641457846 H 0.0 **** 0.06
5083 H 113.02960792881169 17.088784697417772 107.50547970540497 H 0.0 **** 0.06
5084 H 114.5796112116451 16.225281692415763 107.65865155336512 H 0.0 **** 0.06
5085 H 114.06442681711542 17.36107630758142 108.92915255627865 H 0.0 **** 0.06
5086 C 19.901144605275263 37.96144275700675 0.8548755813775699 C 0.0 **** -0.24
5087 H 19.221400663913833 37.11342649565643 0.9373635320563665 H 0.0 **** 0.06
5088 H 19.701858327383015 38.49773904806375 -0.07314540617579723 H 0.0 **** 0.06
5089 H 20.930143989753255 37.6021526941542 0.8532684111505091 H 0.0 **** 0.06
5090 H 19.7514193328646 38.63158340327675 1.7015860032940964 H 0.0 **** 0.06
5091 C 89.39712253022253 125.1292887047593 90.14566830376033 C 0.0 **** -0.24
5092 H 88.86904809809016 125.1132326579192 91.09971248943296 H 0.0 **** 0.06
5093 H 88.96352068906435 125.89729926009504 89.50382411936296 H 0.0 **** 0.06
5094 H 89.30298249049667 124.15652765726658 89.6618023038018 H 0.0 **** 0.06
5095 H 90.45013169844265 125.35032384927327 90.31707365323952 H 0.0 **** 0.06
5096 C 67.8871112069365 16.04867891105485 22.107509810511203 C 0.0 **** -0.24
5097 H 67.09864062038594 15.896943017972674 22.845608766918616 H 0.0 **** 0.06
5098 H 68.85821791341658 16.010644643251844 22.600184958629825 H 0.0 **** 0.06
5099 H 67.7572134106651 17.021752799867286 21.633109701668218 H 0.0 **** 0.06
5100 H 67.83167926756383 15.266224975677254 21.350985656903674 H 0.0 **** 0.06
5101 C 86.46580583154434 80.11121604637586 93.98829410787886 C 0.0 **** -0.24
5102 H 87.50038844090382 80.13058408922429 94.3325155641106 H 0.0 **** 0.06
5103 H 86.38967571926153 80.63758974916732 93.03725279572507 H 0.0 **** 0.06
5104 H 85.829006174908 80.5974851565736 94.72647848952747 H 0.0 **** 0.06
5105 H 86.14693698469473 79.07726892783808 93.85851094932542 H 0.0 **** 0.06
5106 C 76.9531670176064 20.382996810814348 52.981692442205514 C 0.0 **** -0.24
5107 H 77.37246505725571 20.731656329470127 52.03785857539481 H 0.0 **** 0.06
5108 H 77.75695044831325 20.230868225372035 53.70189293823917 H 0.0 **** 0.06
5109 H 76.42634924392898 19.442378175720933 52.8198520874446 H 0.0 **** 0.06
5110 H 76.25687266633489 21.128451392494696 53.36680455329849 H 0.0 **** 0.06
5111 C 105.67919307541149 18.889993542283605 119.63004943499631 C 0.0 **** -0.24
5112 H 106.60540181806783 19.035187408843342 119.07390666407356 H 0.0 **** 0.06
5113 H 105.91292548723777 18.601155730348182 120.65552425171443 H 0.0 **** 0.06
5114 H 105.09116185570656 18.10361424905409 119.15640444530449 H 0.0 **** 0.06
5115 H 105.10905306465344 19.81833852103489 119.63458822867814 H 0.0 **** 0.06
5116 C 146.64148669573842 71.51045468143393 120.75804817433698 C 0.0 **** -0.24
5117 H 146.99647051099993 72.02276216218435 119.86295027005235 H 0.0 **** 0.06
5118 H 147.35096837851802 70.72994614010915 121.0332459867438 H 0.0 **** 0.06
5119 H 145.66801774027408 71.06345987711711 120.55794198063558 H 0.0 **** 0.06
5120 H 146.5527112824165 72.22605047608263 121.57446179698815 H 0.0 **** 0.06
5121 C 119.65778867071106 109.41147919483917 145.56024603684207 C 0.0 **** -0.24
5122 H 120.54596176462553 110.02009632843759 145.73360823186962 H 0.0 **** 0.06
5123 H 118.87690469352998 110.02889756131252 145.1148310757423 H 0.0 **** 0.06
5124 H 119.30506861441268 109.00582811569028 146.50808115469647 H 0.0 **** 0.06
5125 H 119.90513661971715 108.59358276536567 144.884095855144 H 0.0 **** 0.06
5126 C 121.50984084914916 60.632099258113186 114.82158831956532 C 0.0 **** -0.24
5127 H 121.56779033074389 61.61411535644693 115.2910709199805 H 0.0 **** 0.06
5128 H 122.41872586665619 60.44990976719279 114.24749189054693 H 0.0 **** 0.06
5129 H 120.64660577467754 60.597032900447076 114.15753997507319 H 0.0 **** 0.06
5130 H 121.40697796204 59.86745337639839 115.59181399196758 H 0.0 **** 0.06
5131 C 44.611378743801026 143.77674940092334 13.328614330305896 C 0.0 **** -0.24
5132 H 44.310710939302965 143.17355889121808 12.471931919613723 H 0.0 **** 0.06
5133 H 45.669898916545264 144.02323014236956 13.245050209644774 H 0.0 **** 0.06
5134 H 44.43971872593943 143.2140290888424 14.246001024811136 H 0.0 **** 0.06
5135 H 44.02418807923823 144.69592782041062 13.349251504130791 H 0.0 **** 0.06
5136 C 136.42439863343554 83.40384053512543 84.6424637026281 C 0.0 **** -0.24
5137 H 136.7016337467157 82.95964529233589 83.68668394991747 H 0.0 **** 0.06
5138 H 135.8342825285907 82.68945677336364 85.21687514812217 H 0.0 **** 0.06
5139 H 135.83470686778494 84.30376111279702 84.46660222277781 H 0.0 **** 0.06
5140 H 137.32595868797225 83.66134244861314 85.19806958304548 H 0.0 **** 0.06
5141 C 56.53820960563344 79.21876093755793 47.47997996282301 C 0.0 **** -0.24
5142 H 55.64878461938733 79.3671574536528 48.09139169032403 H 0.0 **** 0.06
5143 H 57.42747841769466 79.32362504610109 48.10068370540924 H 0.0 **** 0.06
5144 H 56.55974773148506 79.96316280510064 46.68347091088009 H 0.0 **** 0.06
5145 H 56.51599558504279 78.219929539129 47.04265846968377 H 0.0 **** 0.06
5146 C 31.65401899751396 89.01152940626953 132.35399418373365 C 0.0 **** -0.24
5147 H 30.671928755126032 88.58639270133095 132.14621974090323 H 0.0 **** 0.06
5148 H 31.538151630629727 90.0373426345373 132.7046302676515 H 0.0 **** 0.06
5149 H 32.25384766645277 89.0029344961761 131.4440604728392 H 0.0 **** 0.06
5150 H 32.15154215862049 88.41903027819718 133.12292605005868 H 0.0 **** 0.06
5151 C 84.67640635990952 69.92590127055705 14.710196644635118 C 0.0 **** -0.24
5152 H 84.42219729478705 70.37188289322468 15.67202086538623 H 0.0 **** 0.06
5153 H 84.32155838256375 68.8950690561373 14.682545810379565 H 0.0 **** 0.06
5154 H 85.75769398641953 69.94136239748346 14.576324807837011 H 0.0 **** 0.06
5155 H 84.20312877659492 70.49470400340853 13.90914702862193 H 0.0 **** 0.06
5156 C 97.21548831793439 8.549977570327798 134.26325914062966 C 0.0 **** -0.24
5157 H 97.09128447324127 9.036712643159035 133.296234309263 H 0.0 **** 0.06
5158 H 97.66263345017579 9.250907280614655 134.96833392516484 H 0.0 **** 0.06
5159 H 97.86667639618676 7.681573123735404 134.15220711162365 H 0.0 **** 0.06
5160 H 96.24270830334007 8.228877870461417 134.6353689221647 H 0.0 **** 0.06
5161 C 137.25147447716378 42.11467752575345 133.93497555603489 C 0.0 **** -0.24
5162 H 136.48649800486066 42.813012701441494 133.5956532211057 H 0.0 **** 0.06
5163 H 138.05019363256858 42.66476069642056 134.43294734318147 H 0.0 **** 0.06
5164 H 137.65937288004685 41.578768150353085 133.0769943454374 H 0.0 **** 0.06
5165 H 136.8102060099218 41.40241849116666 134.6313410069409 H 0.0 **** 0.06
5166 C 40.19308592450946 65.2824528308779 43.5242757693631 C 0.0 **** -0.24
5167 H 39.41525559686204 64.84282231947088 42.89972419080405 H 0.0 **** 0.06
5168 H 41.044093547717665 65.56195706832284 42.90224030783554 H 0.0 **** 0.06
5169 H 40.51174366238112 64.55678156854978 44.272879236310644 H 0.0 **** 0.06
5170 H 39.79995859907781 66.16868691444544 44.02263280329433 H 0.0 **** 0.06
5171 C 7.832856306651223 27.158677203000963 23.269971667046136 C 0.0 **** -0.24
5172 H 7.929588737573567 27.666001067972047 24.230223731467824 H 0.0 **** 0.06
5173 H 8.466121765912476 27.653797282407368 22.53392912040848 H 0.0 **** 0.06
5174 H 6.794965044378387 27.19719919405557 22.941018150192576 H 0.0 **** 0.06
5175 H 8.142885662078925 26.119010301621984 23.376038672580357 H 0.0 **** 0.06
5176 C 34.17382071699288 42.315766384940645 94.24402692007504 C 0.0 **** -0.24
5177 H 33.8050857184312 42.858303723926085 95.11457698176353 H 0.0 **** 0.06
5178 H 34.52181131581784 41.32951782066523 94.5521908451281 H 0.0 **** 0.06
5179 H 34.997958490568095 42.86848012197623 93.7938801652104 H 0.0 **** 0.06
5180 H 33.36946119936357 42.2068032412062 93.51649171602453 H 0.0 **** 0.06
5181 C 56.6354449083377 24.094474411136083 78.42854757304855 C 0.0 **** -0.24
5182 H 57.60639639511078 23.921643497179794 78.89188366099587 H 0.0 **** 0.06
5183 H 56.76756139246069 24.667191916218357 77.51074663829537 H 0.0 **** 0.06
5184 H 55.99817146540214 24.6515505859931 79.11633272183423 H 0.0 **** 0.06
5185 H 56.16833513269691 23.137229278261366 78.19566368552485 H 0.0 **** 0.06
5186 C 15.873094872708663 86.85789292647482 24.32308654285606 C 0.0 **** -0.24
5187 H 14.930918728913753 86.3129477177057 24.25975785183428 H 0.0 **** 0.06
5188 H 16.135321362192542 87.00880197940799 25.369944878902942 H 0.0 **** 0.06
5189 H 15.76797048375255 87.82490398082169 23.83131205035201 H 0.0 **** 0.06
5190 H 16.658220569011405 86.28350430712388 23.830331979008918 H 0.0 **** 0.06
5191 C 50.34594984732033 65.57678409636304 61.216231363070676 C 0.0 **** -0.24
5192 H 49.4903186019132 65.36189686886621 61.856639305105546 H 0.0 **** 0.06
5193 H 50.98774043613173 64.69780010081149 61.16229042812279 H 0.0 **** 0.06
5194 H 50.90883741264301 66.41295299187695 61.63068018722356 H 0.0 **** 0.06
5195 H 49.99416486873838 65.83402581424895 60.216829182291235 H 0.0 **** 0.06
5196 C 21.65052234589814 55.53046498170865 5.844968489526032 C 0.0 **** -0.24
5197 H 22.655971399033604 55.33049688979902 5.474287168291141 H 0.0 **** 0.06
5198 H 21.544706265324294 56.595018952750365 6.0530296820009255 H 0.0 **** 0.06
5199 H 21.480901677326813 54.961768182721315 6.75968455280001 H 0.0 **** 0.06
5200 H 20.91984090334313 55.23224397657573 5.092534066121225 H 0.0 **** 0.06
5201 C 149.29238088719035 63.243427974830524 38.93349761702899 C 0.0 **** -0.24
5202 H 148.5176290369251 62.88011014903246 39.60846160846904 H 0.0 **** 0.06
5203 H 148.85244548859214 63.93412466944551 38.21460710408519 H 0.0 **** 0.06
5204 H 149.73661321685432 62.400656417744074 38.404087186704885 H 0.0 **** 0.06
5205 H 150.062541849237 63.758325356985594 39.508995222413944 H 0.0 **** 0.06
5206 C 151.31454099837595 110.55068546966868 71.70399358616157 C 0.0 **** -0.24
5207 H 150.57737178905495 111.18801737930363 72.19147511101572 H 0.0 **** 0.06
5208 H 151.45398112835738 109.64300941247154 72.29247752496072 H 0.0 **** 0.06
5209 H 152.2627016644824 111.0834413997494 71.62817039018528 H 0.0 **** 0.06
5210 H 150.96504136695222 110.28636646841233 70.7065889025512 H 0.0 **** 0.06
5211 C 24.033637254717235 100.5959558995453 49.228417219292865 C 0.0 **** -0.24
5212 H 24.01371325157652 101.14165612857762 48.28520994822307 H 0.0 **** 0.06
5213 H 25.053443227330092 100.57661804033388 49.61416653114577 H 0.0 **** 0.06
5214 H 23.686735728441874 99.57625480868732 49.06460741979488 H 0.0 **** 0.06
5215 H 23.381566008935465 101.09141637921478 49.94776878560772 H 0.0 **** 0.06
5216 C 78.34413627364117 76.64347172560372 115.41609363200824 C 0.0 **** -0.24
5217 H 77.9694503543447 75.66866536253525 115.10501861731673 H 0.0 **** 0.06
5218 H 79.24276702246891 76.8859682879048 114.84999044027352 H 0.0 **** 0.06
5219 H 78.58029675125692 76.61826796191023 116.47997411164077 H 0.0 **** 0.06
5220 H 77.58159322205722 77.4009324691255 115.23222950391884 H 0.0 **** 0.06
5221 C 78.91087575295035 150.6363437311845 55.346125149492636 C 0.0 **** -0.24
5222 H 79.96379454984735 150.90359628980195 55.43225138160169 H 0.0 **** 0.06
5223 H 78.35494244818925 151.47980439021015 54.93707143788927 H 0.0 **** 0.06
5224 H 78.51759008198823 150.38578904316154 56.332263303886194 H 0.0 **** 0.06
5225 H 78.80678989057684 149.77605231720565 54.6845977486614 H 0.0 **** 0.06
5226 C 15.027971266488294 71.56830583532502 23.009004838311995 C 0.0 **** -0.24
5227 H 15.64630731844835 71.93891429596749 22.1915786585011 H 0.0 **** 0.06
5228 H 14.651719514866102 72.41169827950219 23.59013525096202 H 0.0 **** 0.06
5229 H 15.624990319329754 70.92153212432828 23.652312466386803 H 0.0 **** 0.06
5230 H 14.189300574679748 71.00338280021492 22.603575354458883 H 0.0 **** 0.06
5231 C 76.84575578308677 81.56238744483626 60.55630274610981 C 0.0 **** -0.24
5232 H 76.75885401199751 82.5423096246803 60.08640351110974 H 0.0 **** 0.06
5233 H 77.88620027979788 81.38108833162852 60.827974584184574 H 0.0 **** 0.06
5234 H 76.51426485154613 80.79389302582426 59.85742164932668 H 0.0 **** 0.06
5235 H 76.22552279090222 81.53221006568226 61.45211133688076 H 0.0 **** 0.06
5236 C 19.09549347939719 64.8453110433797 135.15992840126097 C 0.0 **** -0.24
5237 H 18.955622263241253 65.85208035264343 134.76323160208878 H 0.0 **** 0.06
5238 H 18.305926253187295 64.19408110747077 134.78389135045427 H 0.0 **** 0.06
5239 H 19.054396396642233 64.87533923798388 136.2481843311704 H 0.0 **** 0.06
5240 H 20.065733616852413 64.4624274581002 134.84309892848538 H 0.0 **** 0.06
5241 C 82.79368234226881 57.693027129079496 88.59173939224529 C 0.0 **** -0.24
5242 H 81.85971623168281 58.0917650697439 88.19645340516935 H 0.0 **** 0.06
5243 H 82.8678829836242 56.632861862578125 88.34717941705613 H 0.0 **** 0.06
5244 H 82.81216087253641 57.818768690850675 89.67477923823823 H 0.0 **** 0.06
5245 H 83.6331883903483 58.22813695370564 88.15012567202811 H 0.0 **** 0.06
5246 C 34.790843806400815 37.49479198683969 91.98282637453747 C 0.0 **** -0.24
5247 H 33.905222299478886 37.637426699806156 91.36266946371629 H 0.0 **** 0.06
5248 H 34.593068575886626 37.86459479519172 92.98880823550488 H 0.0 **** 0.06
5249 H 35.627497879538694 38.042879512097684 91.5515554136324 H 0.0 **** 0.06
5250 H 35.03505827490737 36.43303967181437 92.02722246570764 H 0.0 **** 0.06
5251 C 148.72841784002514 25.344564334569156 43.04634607158454 C 0.0 **** -0.24
5252 H 149.77991603911093 25.448110225458947 42.77795369704397 H 0.0 **** 0.06
5253 H 148.62894961127301 25.3459574738244 44.131598478901694 H 0.0 **** 0.06
5254 H 148.34349533019514 24.4068152914665 42.64619853610341 H 0.0 **** 0.06
5255 H 148.16401403839757 26.177554264576912 42.62800318046129 H 0.0 **** 0.06
5256 C 42.68202472905726 116.36059746976504 25.73008744356696 C 0.0 **** -0.24
5257 H 42.75209713417148 115.33423284706784 25.369686008584523 H 0.0 **** 0.06
5258 H 41.910519621014046 116.88964299000453 25.170825099285537 H 0.0 **** 0.06
5259 H 43.6404975235515 116.86075571108547 25.589989911734875 H 0.0 **** 0.06
5260 H 42.42527700826919 116.35681628772365 26.790013395264793 H 0.0 **** 0.06
5261 C 12.540149019333171 46.55994602766788 52.39713865013208 C 0.0 **** -0.24
5262 H 12.730207605713531 47.242393365030864 51.568728705053516 H 0.0 **** 0.06
5263 H 12.328203981193553 45.56434087681828 52.00632106982624 H 0.0 **** 0.06
5264 H 11.68432246186336 46.91446374137291 52.971412765077844 H 0.0 **** 0.06
5265 H 13.417862028562354 46.51858612744962 53.042092060570695 H 0.0 **** 0.06
5266 C 23.31969982343322 7.0380927901666155 131.27510117973694 C 0.0 **** -0.24
5267 H 22.765493242795145 6.984789384705607 130.33804062517336 H 0.0 **** 0.06
5268 H 23.212448778647868 8.034487221295763 131.7031128646582 H 0.0 **** 0.06
5269 H 24.373565357629268 6.835156605181908 131.08448897331562 H 0.0 **** 0.06
5270 H 22.926887378816772 6.297302788045272 131.9716908967861 H 0.0 **** 0.06
5271 C 38.50078993504414 129.16372677364285 82.36571264875597 C 0.0 **** -0.24
5272 H 38.84517399458946 128.3446349211178 81.73381404083834 H 0.0 **** 0.06
5273 H 39.112781990268445 129.2085877507002 83.26720525828823 H 0.0 **** 0.06
5274 H 37.45940976042962 128.99812644198568 82.64006370602726 H 0.0 **** 0.06
5275 H 38.5884568176985 130.10335021529013 81.82007450579408 H 0.0 **** 0.06
5276 C 89.53776663771971 75.67116257144966 24.138423096288932 C 0.0 **** -0.24
5277 H 90.50404648655179 75.63505611664588 23.636352169709767 H 0.0 **** 0.06
5278 H 89.20788336072061 74.65669593556579 24.365357412004812 H 0.0 **** 0.06
5279 H 88.80792029998527 76.15290736522795 23.487684322516714 H 0.0 **** 0.06
5280 H 89.63033882831914 76.23832268743476 25.063629777558447 H 0.0 **** 0.06
5281 C 3.450566798037528 104.67004590424789 122.35121807650928 C 0.0 **** -0.24
5282 H 4.185927580266082 104.906221063333 123.1199868759211 H 0.0 **** 0.06
5283 H 2.763297853668945 103.91061054778366 122.7264407652621 H 0.0 **** 0.06
5284 H 3.959476069451 104.29307331020435 121.46383388554271 H 0.0 **** 0.06
5285 H 2.892163500342974 105.57046158954306 122.09463274661651 H 0.0 **** 0.06
5286 C 139.7754207730477 46.33192103375046 43.3716252355988 C 0.0 **** -0.24
5287 H 139.17051744004672 45.54215098683457 43.816762171471595 H 0.0 **** 0.06
5288 H 139.3880060533359 46.57196946591799 42.38164834428119 H 0.0 **** 0.06
5289 H 140.80774053008156 45.992155885045165 43.285810046912474 H 0.0 **** 0.06
5290 H 139.73588089036542 47.21861384882939 44.003270766623416 H 0.0 **** 0.06
5291 C 112.43347051672949 78.99694085490607 148.53058124136302 C 0.0 **** -0.24
5292 H 113.19452801369412 78.33159699616591 148.93586711997006 H 0.0 **** 0.06
5293 H 111.8606275673548 78.47120620461426 147.76633604468387 H 0.0 **** 0.06
5294 H 112.91287714972746 79.87074010852645 148.08885867254787 H 0.0 **** 0.06
5295 H 111.76548134043965 79.31558082769712 149.33137755060736 H 0.0 **** 0.06
5296 C 108.65103963492896 102.09293072050362 132.06825506484353 C 0.0 **** -0.24
5297 H 109.45769525616453 102.01757616358297 132.79744096017106 H 0.0 **** 0.06
5298 H 109.07400609065013 102.21527328031904 131.0709455044588 H 0.0 **** 0.06
5299 H 108.02676306508636 102.95409129791933 132.306166580767 H 0.0 **** 0.06
5300 H 108.04669298903593 101.18672541966659 132.09894271781263 H 0.0 **** 0.06
5301 C 152.88961334728987 91.76006952411507 137.77575248082573 C 0.0 **** -0.24
5302 H 152.22925666658978 90.9880296885093 138.1718436911982 H 0.0 **** 0.06
5303 H 152.3512194259978 92.70693882076324 137.72448628584897 H 0.0 **** 0.06
5304 H 153.22153195498248 91.47604696744457 136.77631616538383 H 0.0 **** 0.06
5305 H 153.7556472431438 91.8676540187517 138.4286977565563 H 0.0 **** 0.06
5306 C 136.80124527580074 142.71117319070194 136.80144324651874 C 0.0 **** -0.24
5307 H 135.75797317777622 142.93390945673875 137.0236853085297 H 0.0 **** 0.06
5308 H 137.42903745059158 143.05511511773554 137.62319965456348 H 0.0 **** 0.06
5309 H 137.0929652937676 143.22258243390536 135.8828553278279 H 0.0 **** 0.06
5310 H 136.92414839527618 141.6366974241524 136.67316520914645 H 0.0 **** 0.06
5311 C 70.41711841543565 117.22046728025644 27.969357812226676 C 0.0 **** -0.24
5312 H 69.72762043867317 117.41666979979114 28.79084658476942 H 0.0 **** 0.06
5313 H 70.27369747256137 116.20050386062549 27.611583088805055 H 0.0 **** 0.06
5314 H 71.4425719973031 117.34343135463372 28.318126311135245 H 0.0 **** 0.06
5315 H 70.22314993640083 117.92183636028805 27.15766062527583 H 0.0 **** 0.06
5316 C 147.33451726002343 11.743061785033035 10.225675388043499 C 0.0 **** -0.24
5317 H 147.1547523108716 12.167831500613204 11.213624751722364 H 0.0 **** 0.06
5318 H 146.38846476570203 11.412274799538977 9.795557540565483 H 0.0 **** 0.06
5319 H 148.01106526150963 10.892753224474802 10.31345827839283 H 0.0 **** 0.06
5320 H 147.78189330982542 12.499178961061773 9.580670620365822 H 0.0 **** 0.06
5321 C 47.82908009181651 124.85928778027721 35.7382166542822 C 0.0 **** -0.24
5322 H 48.32210028749891 125.83204764954644 35.75536436584636 H 0.0 **** 0.06
5323 H 46.82614368787999 124.96768978165323 35.32328617567664 H 0.0 **** 0.06
5324 H 47.76202907974117 124.46795387518989 36.75313467775818 H 0.0 **** 0.06
5325 H 48.40462985936804 124.17127938956276 35.1202566734641 H 0.0 **** 0.06
5326 C 102.39317448443053 105.4019113265084 127.63586551918571 C 0.0 **** -0.24
5327 H 101.80424567149778 104.70683050263376 128.23498253540572 H 0.0 **** 0.06
5328 H 103.44966552183497 105.28160725526926 127.87424812950634 H 0.0 **** 0.06
5329 H 102.08466612478422 106.42358509521613 127.85771451511091 H 0.0 **** 0.06
5330 H 102.23233619891245 105.19584428756879 126.57784610510309 H 0.0 **** 0.06
5331 C 56.14770095363427 63.433465573848835 139.31309572430928 C 0.0 **** -0.24
5332 H 55.11908373758007 63.42384930493334 139.67392092996653 H 0.0 **** 0.06
5333 H 56.514796111121015 64.4605978262341 139.2906408165772 H 0.0 **** 0.06
5334 H 56.18419158609906 63.012106790549296 138.30838238820093 H 0.0 **** 0.06
5335 H 56.77286479978821 62.83951289104448 139.9797890921404 H 0.0 **** 0.06
5336 C 86.13376010752 93.85480638121118 77.66131833709426 C 0.0 **** -0.24
5337 H 86.17010834124049 93.55919407742488 76.61221973242431 H 0.0 **** 0.06
5338 H 87.01524821726929 93.47239980219427 78.17691859332916 H 0.0 **** 0.06
5339 H 85.23581843796504 93.44492757519646 78.12322393245086 H 0.0 **** 0.06
5340 H 86.1148811622271 94.94248846813349 77.73152476090513 H 0.0 **** 0.06
5341 C 153.77635333465975 128.44303544170788 105.68902344369855 C 0.0 **** -0.24
5342 H 153.91550174552813 127.45702728120479 105.24471462433382 H 0.0 **** 0.06
5343 H 153.9971146727917 128.39466649278268 106.7557851689532 H 0.0 **** 0.06
5344 H 152.74522437087137 128.76416425827946 105.54500267640697 H 0.0 **** 0.06
5345 H 154.44928823129885 129.15488884560676 105.2102583136143 H 0.0 **** 0.06
5346 C 87.8328132317263 116.9250421919798 69.36024001332765 C 0.0 **** -0.24
5347 H 88.60851636677194 116.16680858420631 69.25196664784505 H 0.0 **** 0.06
5348 H 86.86656501522441 116.49733195757165 69.0930958477532 H 0.0 **** 0.06
5349 H 88.05251795564115 117.765862402724 68.70325840127762 H 0.0 **** 0.06
5350 H 87.80508469850204 117.26971930545562 70.39429828597122 H 0.0 **** 0.06
5351 C 92.89642949140682 61.30830159285945 124.66044603689754 C 0.0 **** -0.24
5352 H 92.44646559747935 60.503411244463294 124.080522210614 H 0.0 **** 0.06
5353 H 93.2847449735927 60.907168864330544 125.59805329977267 H 0.0 **** 0.06
5354 H 92.14458237059455 62.06799541400355 124.87337528469699 H 0.0 **** 0.06
5355 H 93.71230989095193 61.754283048187816 124.09027111908476 H 0.0 **** 0.06
5356 C 87.41378909001557 74.02711653294074 55.500022318822175 C 0.0 **** -0.24
5357 H 86.52579336626505 74.3595042463619 54.96249309276524 H 0.0 **** 0.06
5358 H 87.96655068759416 73.3177497906905 54.88504583589216 H 0.0 **** 0.06
5359 H 87.11544974495646 73.54619005369531 56.431504483465375 H 0.0 **** 0.06
5360 H 88.04675510140049 74.88737697854678 55.72133819355338 H 0.0 **** 0.06
5361 C 28.324578464409512 149.79772868936053 86.30842214931803 C 0.0 **** -0.24
5362 H 28.17904403794404 150.80889134846177 86.69074208581048 H 0.0 **** 0.06
5363 H 29.255464790539264 149.39078625375032 86.70391322133476 H 0.0 **** 0.06
5364 H 28.371725012751085 149.82478192975822 85.22034220914357 H 0.0 **** 0.06
5365 H 27.490368218474202 149.16886043156833 86.62099003447925 H 0.0 **** 0.06
5366 C 11.63589191518313 97.81363507668947 76.85139552628644 C 0.0 **** -0.24
5367 H 12.464738275421176 98.3386545457286 77.32691625186733 H 0.0 **** 0.06
5368 H 11.972635935003268 96.83198335619818 76.51757065004846 H 0.0 **** 0.06
5369 H 11.28579590714098 98.38907947376345 75.99485120267119 H 0.0 **** 0.06
5370 H 10.822397109379878 97.69651692632496 77.56770427723656 H 0.0 **** 0.06
5371 C 116.62124418120744 128.51896119555283 24.389598174551793 C 0.0 **** -0.24
5372 H 117.43054981102641 128.7826428315502 23.708266329230582 H 0.0 **** 0.06
5373 H 116.88823563542063 127.61416202884239 24.93636935931221 H 0.0 **** 0.06
5374 H 115.70875625990784 128.34469436122112 23.82021385294695 H 0.0 **** 0.06
5375 H 116.4593422397764 129.3354867515855 25.09378882475528 H 0.0 **** 0.06
5376 C 14.249135976843405 73.32347899678103 134.49211187521158 C 0.0 **** -0.24
5377 H 14.16551018127035 73.26734180937689 135.5780331683209 H 0.0 **** 0.06
5378 H 14.07720877769458 74.34926456082326 134.16763282712859 H 0.0 **** 0.06
5379 H 13.506568897385563 72.66751231663096 134.0368783689371 H 0.0 **** 0.06
5380 H 15.247125887693585 73.00817308365285 134.1887919659563 H 0.0 **** 0.06
5381 C 155.31215560510194 67.10889091487266 10.73059592722575 C 0.0 **** -0.24
5382 H 154.3546827102141 67.53499604267938 11.032464756977333 H 0.0 **** 0.06
5383 H 155.222572035838 66.68751490568422 9.729693489003068 H 0.0 **** 0.06
5384 H 155.5973893704903 66.32456660583571 11.432116964961438 H 0.0 **** 0.06
5385 H 156.07283657246415 67.88985963737701 10.730518923642023 H 0.0 **** 0.06
5386 C 130.44029292273026 8.691151948129828 108.66016544892373 C 0.0 **** -0.24
5387 H 129.45497548960407 9.062719658901955 108.3811750919236 H 0.0 **** 0.06
5388 H 131.20128677047603 9.194318886023325 108.06251746562036 H 0.0 **** 0.06
5389 H 130.4887573506548 7.617789307232243 108.48087668032973 H 0.0 **** 0.06
5390 H 130.6175635772652 8.891409378429557 109.71668650253828 H 0.0 **** 0.06
5391 C 154.14487425299185 88.7346960287596 51.84433890569126 C 0.0 **** -0.24
5392 H 153.57282779858645 88.33911763362472 52.68391991731846 H 0.0 **** 0.06
5393 H 153.50591438029127 89.38294376333006 51.24372766417473 H 0.0 **** 0.06
5394 H 154.5054618196745 87.90901705992758 51.230528240859485 H 0.0 **** 0.06
5395 H 154.9932025335145 89.30540418817141 52.21975725620423 H 0.0 **** 0.06
5396 C 23.12648793637902 29.271718852273807 137.95675512182194 C 0.0 **** -0.24
5397 H 23.93502917932244 29.9919382626108 137.830621307785 H 0.0 **** 0.06
5398 H 23.48669447353538 28.27430667882072 137.70497570707954 H 0.0 **** 0.06
5399 H 22.29918641292744 29.53646457095911 137.29731626467492 H 0.0 **** 0.06
5400 H 22.78583362729941 29.285916402217936 138.9914037086188 H 0.0 **** 0.06
5401 C 65.46048014699858 43.70303026047384 75.16062698571716 C 0.0 **** -0.24
5402 H 65.60133428219984 44.78041569306413 75.24458172657154 H 0.0 **** 0.06
5403 H 64.76812660728754 43.490118409106856 74.34553446221895 H 0.0 **** 0.06
5404 H 65.0534003139 43.316472782345386 76.09419431089788 H 0.0 **** 0.06
5405 H 66.41964350601168 43.22688522273529 74.9566092602605 H 0.0 **** 0.06
5406 C 75.22951099468307 71.19651490176791 98.9361659401774 C 0.0 **** -0.24
5407 H 75.46122105159627 70.3340643299536 99.56083554838261 H 0.0 **** 0.06
5408 H 74.92545991375053 70.85562284012933 97.94614864946647 H 0.0 **** 0.06
5409 H 76.11305199342036 71.82826665432935 98.84849795160784 H 0.0 **** 0.06
5410 H 74.41807165331977 71.76639115048616 99.38912834053988 H 0.0 **** 0.06
5411 C 143.3344077999899 122.8020119278629 38.38090628186907 C 0.0 **** -0.24
5412 H 143.3524578881558 122.57243938988097 37.315266881351874 H 0.0 **** 0.06
5413 H 144.1173357552574 123.52494079264773 38.609336433092665 H 0.0 **** 0.06
5414 H 143.5052314512875 121.88849598840369 38.95173955565855 H 0.0 **** 0.06
5415 H 142.3633827007739 123.22012023968887 38.64619172557275 H 0.0 **** 0.06
5416 C 12.96838862233097 23.77019415078277 104.06343820602045 C 0.0 **** -0.24
5417 H 12.304247929610163 23.6752658393657 104.92226322493606 H 0.0 **** 0.06
5418 H 12.40184112551848 24.130254701083132 103.20436427314608 H 0.0 **** 0.06
5419 H 13.402887602251113 22.79775913340282 103.83106253010403 H 0.0 **** 0.06
5420 H 13.76370878011494 24.477838626683855 104.2964206008025 H 0.0 **** 0.06
5421 C 51.049136419745494 85.2128420372348 36.16936110734562 C 0.0 **** -0.24
5422 H 51.916141034322436 84.67665490369671 36.55508642819446 H 0.0 **** 0.06
5423 H 50.1408930663753 84.67140969809091 36.433529038233644 H 0.0 **** 0.06
5424 H 51.12367063768873 85.2924457886923 35.08480978743208 H 0.0 **** 0.06
5425 H 51.017530440364524 86.21179436441798 36.60514546258945 H 0.0 **** 0.06
5426 C 2.1720529710341054 84.33507812129885 70.19052870933103 C 0.0 **** -0.24
5427 H 2.410351901803722 83.89809037618345 69.22072253967707 H 0.0 **** 0.06
5428 H 2.889756191176218 83.98289057488338 70.93230207904048 H 0.0 **** 0.06
5429 H 1.1672013520822588 84.03653351726207 70.48670764972775 H 0.0 **** 0.06
5430 H 2.2232578093725124 85.42123225021308 70.12235314196192 H 0.0 **** 0.06
5431 C 38.210379161556034 106.69353060338862 73.90282422681702 C 0.0 **** -0.24
5432 H 38.302509323281825 105.73297396692784 73.39581766264439 H 0.0 **** 0.06
5433 H 38.26748445873088 107.49749775592899 73.16848064292265 H 0.0 **** 0.06
5434 H 39.02053359231006 106.80259816647323 74.62448742161342 H 0.0 **** 0.06
5435 H 37.253712093291995 106.74013656025188 74.42164657230188 H 0.0 **** 0.06
5436 C 16.403583360171396 7.911273192402696 139.92483515899085 C 0.0 **** -0.24
5437 H 15.551883012205018 8.582654479808014 139.81115848274482 H 0.0 **** 0.06
5438 H 16.887903564486273 8.098163869521244 140.8833968383488 H 0.0 **** 0.06
5439 H 17.114091278443198 8.08879427081957 139.11801460299716 H 0.0 **** 0.06
5440 H 16.05962472317303 6.878355662239031 139.88697414964008 H 0.0 **** 0.06
5441 C 35.0656112613367 44.258394220928736 116.56634546822909 C 0.0 **** -0.24
5442 H 35.84062488376067 43.720998491610516 117.11293067592999 H 0.0 **** 0.06
5443 H 34.13207999930185 43.6966970357084 116.61553254324537 H 0.0 **** 0.06
5444 H 35.36719200517663 44.372174996745926 115.52514680444358 H 0.0 **** 0.06
5445 H 34.92171657476112 45.241870346303855 117.01316386980437 H 0.0 **** 0.06
5446 C 129.21631960595326 33.231849100872836 49.70260665584125 C 0.0 **** -0.24
5447 H 128.56447667137797 33.54216904981723 48.88569662209335 H 0.0 **** 0.06
5448 H 129.74424763620203 34.101569857566574 50.09501142635031 H 0.0 **** 0.06
5449 H 129.93851621450403 32.50333496673325 49.33433925279388 H 0.0 **** 0.06
5450 H 128.61681368398476 32.78219026090336 50.49337603413073 H 0.0 **** 0.06
5451 C 153.4492934527708 54.31232914841898 6.5205099555442985 C 0.0 **** -0.24
5452 H 154.2006373299685 53.69545182073378 6.026346572339918 H 0.0 **** 0.06
5453 H 152.9410652329264 54.929633593391245 5.779616592269321 H 0.0 **** 0.06
5454 H 153.9337706528863 54.95266716130119 7.257820440930004 H 0.0 **** 0.06
5455 H 152.7225826921371 53.66933921203689 7.017734356706569 H 0.0 **** 0.06
5456 C 116.08193562016798 123.85659599901498 57.791408481176745 C 0.0 **** -0.24
5457 H 115.02250708391638 123.6345112225813 57.67001183433257 H 0.0 **** 0.06
5458 H 116.55590398264711 123.91442779349444 56.81069537283287 H 0.0 **** 0.06
5459 H 116.55389306507813 123.06730979325306 58.376294040126595 H 0.0 **** 0.06
5460 H 116.19749801321292 124.80998727525804 58.30777473312776 H 0.0 **** 0.06
5461 C 101.19099722882316 33.08383348027849 120.32659435808108 C 0.0 **** -0.24
5462 H 100.58249922331572 33.77035957100385 119.7368089577144 H 0.0 **** 0.06
5463 H 102.24126760513337 33.211944981813026 120.06200543922097 H 0.0 **** 0.06
5464 H 100.88585529799263 32.05919492510212 120.12046862186634 H 0.0 **** 0.06
5465 H 101.05546066212503 33.29838418721467 121.38677194382177 H 0.0 **** 0.06
5466 C 65.3886815245527 139.0847793370742 103.64462881896092 C 0.0 **** -0.24
5467 H 64.4994545954813 139.3088546518606 104.23280001274004 H 0.0 **** 0.06
5468 H 65.37693949917131 138.03407689794943 103.35315118360536 H 0.0 **** 0.06
5469 H 66.27873374222204 139.28714785211764 104.24071162921119 H 0.0 **** 0.06
5470 H 65.39970910860137 139.71001304425502 102.75083413692867 H 0.0 **** 0.06
5471 C 104.69848622151363 82.31764503711767 9.116837040599876 C 0.0 **** -0.24
5472 H 104.23461133614956 81.35598914154049 9.33275982981445 H 0.0 **** 0.06
5473 H 103.9246406244294 83.0795095100507 9.018200246422282 H 0.0 **** 0.06
5474 H 105.26024672696872 82.24842820539894 8.185198246449659 H 0.0 **** 0.06
5475 H 105.3734193384874 82.58666310060366 9.92920347997034 H 0.0 **** 0.06
5476 C 129.4296879048957 148.42887278604485 71.98831376274737 C 0.0 **** -0.24
5477 H 128.5367753821315 148.5903091673621 71.38456366134395 H 0.0 **** 0.06
5478 H 130.29002978599345 148.87834931424766 71.49177837543347 H 0.0 **** 0.06
5479 H 129.59765256448966 147.35793790594525 72.10782555679373 H 0.0 **** 0.06
5480 H 129.2941676036889 148.88674225293965 72.96792514260778 H 0.0 **** 0.06
5481 C 90.58633613608026 99.60283192388346 139.0609706476025 C 0.0 **** -0.24
5482 H 90.79990902320287 99.1075095265146 140.0081443462475 H 0.0 **** 0.06
5483 H 89.53950619637845 99.90491794478288 139.03739586984528 H 0.0 **** 0.06
5484 H 90.78598342396799 98.91618570202394 138.23780017609508 H 0.0 **** 0.06
5485 H 91.22082591311647 100.48448834618853 138.9608237243734 H 0.0 **** 0.06
5486 C 115.63187270537496 26.273801667154153 98.29777399050653 C 0.0 **** -0.24
5487 H 115.28697879679164 25.307884173251672 98.66748100301281 H 0.0 **** 0.06
5488 H 116.60981601314698 26.49729364955342 98.72375624512941 H 0.0 **** 0.06
5489 H 114.92130065372264 27.047184190009865 98.58872843767324 H 0.0 **** 0.06
5490 H 115.707312487646 26.24027837962005 97.21085416687237 H 0.0 **** 0.06
5491 C 87.26549390797695 91.45493705212147 149.76407645021038 C 0.0 **** -0.24
5492 H 86.69500048313262 91.09232544409335 148.90876612165562 H 0.0 **** 0.06
5493 H 88.07446836386197 90.75659809298224 149.98170628221231 H 0.0 **** 0.06
5494 H 86.61009897183112 91.53262879468363 150.63052037992392 H 0.0 **** 0.06
5495 H 87.68295858800815 92.43488735910165 149.5336544593018 H 0.0 **** 0.06
5496 C 84.61483020180344 59.10813299135589 20.881867141622592 C 0.0 **** -0.24
5497 H 83.68710225349918 58.82013413985766 20.386038309246203 H 0.0 **** 0.06
5498 H 85.46400555965147 58.77066883415307 20.287590415922608 H 0.0 **** 0.06
5499 H 84.65635592139063 58.64838669087766 21.86956428258881 H 0.0 **** 0.06
5500 H 84.64986295185355 60.192359427944325 20.9840355454441 H 0.0 **** 0.06
5501 C 127.43354510058833 68.3328085156044 86.10767652062215 C 0.0 **** -0.24
5502 H 127.05699239490053 69.26092606139804 86.53827560168733 H 0.0 **** 0.06
5503 H 128.08882466125613 68.56250235977262 85.26696067439084 H 0.0 **** 0.06
5504 H 126.59529451555318 67.72810705053254 85.76074744292441 H 0.0 **** 0.06
5505 H 127.99102383760368 67.78189182715397 86.8646328630184 H 0.0 **** 0.06
5506 C 0.4754941239535846 106.67129119129648 18.181815383198675 C 0.0 **** -0.24
5507 H 1.431390282180466 107.10293216613918 18.480451133657446 H 0.0 **** 0.06
5508 H -0.13303311114557204 107.43438066504855 17.698381135097726 H 0.0 **** 0.06
5509 H -0.043434247320739416 106.29609539914615 19.06376159874864 H 0.0 **** 0.06
5510 H 0.6500910934132094 105.84990641890103 17.48582998664834 H 0.0 **** 0.06
5511 C 102.58801782656052 71.15092220971785 18.340170968338157 C 0.0 **** -0.24
5512 H 102.59951673876505 70.06690753314024 18.459605770838884 H 0.0 **** 0.06
5513 H 101.56096589841532 71.5113742507437 18.390343742579958 H 0.0 **** 0.06
5514 H 103.01959682238821 71.41341026735553 17.373964840764636 H 0.0 **** 0.06
5515 H 103.17432087398426 71.61010683211985 19.136832708516522 H 0.0 **** 0.06
5516 C 21.427817489799274 134.92453849276893 98.80963035628888 C 0.0 **** -0.24
5517 H 22.320928713555205 134.85770937915527 98.18819983825463 H 0.0 **** 0.06
5518 H 21.32267839997708 134.0091519923433 99.39283703553544 H 0.0 **** 0.06
5519 H 20.552064103775535 135.05310302436342 98.17404336954648 H 0.0 **** 0.06
5520 H 21.51757285188345 135.77597202979356 99.48301028161274 H 0.0 **** 0.06
5521 C 30.749576225959537 16.52835615009934 60.90058891209475 C 0.0 **** -0.24
5522 H 29.67317989804524 16.691451622856505 60.966213067293154 H 0.0 **** 0.06
5523 H 31.26950770560218 17.329134836166986 61.42679936005513 H 0.0 **** 0.06
5524 H 31.052178259442726 16.523846999172378 59.85340251477123 H 0.0 **** 0.06
5525 H 30.999824546307394 15.570859450284672 61.35660809534397 H 0.0 **** 0.06
5526 C 86.12219992441601 130.43241837252543 68.59826130802077 C 0.0 **** -0.24
5527 H 85.64687188182029 129.94991145163544 69.45180566408538 H 0.0 **** 0.06
5528 H 85.40044023794678 130.52937881698904 67.78727777181228 H 0.0 **** 0.06
5529 H 86.96627179610903 129.82880875731354 68.26383972318825 H 0.0 **** 0.06
5530 H 86.47654309717825 131.42114035594125 68.88989880408974 H 0.0 **** 0.06
5531 C 18.42342840522646 43.34922607005977 144.84368200522795 C 0.0 **** -0.24
5532 H 18.912738180442155 43.106770098125594 143.90103272043336 H 0.0 **** 0.06
5533 H 17.726299894517155 42.55419187539336 145.10695584830472 H 0.0 **** 0.06
5534 H 17.88052370469054 44.28866899918533 144.74017771946274 H 0.0 **** 0.06
5535 H 19.174963537290814 43.44905431746842 145.62803460353427 H 0.0 **** 0.06
5536 C 91.93078234229216 44.06131927987576 141.01257571866648 C 0.0 **** -0.24
5537 H 91.97805901070319 42.99732659324158 141.2455395920076 H 0.0 **** 0.06
5538 H 90.91771048622579 44.42551993982775 141.18694889846182 H 0.0 **** 0.06
5539 H 92.19913984595269 44.21728645495159 139.9683965604848 H 0.0 **** 0.06
5540 H 92.62737642782167 44.60395735859805 141.65239780186562 H 0.0 **** 0.06
5541 C 7.3376936777535775 88.12885553513085 20.35169539353228 C 0.0 **** -0.24
5542 H 8.33554668008179 88.01114982086695 20.77558035292074 H 0.0 **** 0.06
5543 H 7.09475834969831 89.18954657794224 20.28489252245589 H 0.0 **** 0.06
5544 H 6.610982376257169 87.62882400804463 20.991934275088624 H 0.0 **** 0.06
5545 H 7.311289619113893 87.68570218059352 19.35715150853281 H 0.0 **** 0.06
5546 C 103.13043957289212 36.18816548709867 118.55828985236337 C 0.0 **** -0.24
5547 H 102.42099430431348 35.43922629300113 118.911550655788 H 0.0 **** 0.06
5548 H 104.14671176836545 35.84285505248454 118.74882648315793 H 0.0 **** 0.06
5549 H 102.95989136412162 37.12656337108086 119.08559562583088 H 0.0 **** 0.06
5550 H 102.99285250953828 36.34218825978792 117.48815787551064 H 0.0 **** 0.06
5551 C 135.23785466847352 65.21802933187524 139.6151140708713 C 0.0 **** -0.24
5552 H 134.43408459629828 64.51827457081008 139.84315486459528 H 0.0 **** 0.06
5553 H 135.46796541952773 65.80825935129855 140.5023830563946 H 0.0 **** 0.06
5554 H 134.92344465489504 65.8803169728038 138.80796778726304 H 0.0 **** 0.06
5555 H 136.12461203586204 64.66481130067461 139.30721827247714 H 0.0 **** 0.06
5556 C 28.014039052078147 116.09653873536735 129.8835815175629 C 0.0 **** -0.24
5557 H 27.984580374906216 116.36749384324213 128.8279948553593 H 0.0 **** 0.06
5558 H 29.0426607889745 116.15048600514905 130.24311837952257 H 0.0 **** 0.06
5559 H 27.638244281755135 115.08090534056362 130.00866859945097 H 0.0 **** 0.06
5560 H 27.39284024294855 116.78646546078835 130.4537400807921 H 0.0 **** 0.06
5561 C 148.3630605974986 154.55281955982656 130.79825712385264 C 0.0 **** -0.24
5562 H 149.21402119907543 154.57532343938624 130.11737291516482 H 0.0 **** 0.06
5563 H 147.76478041854506 155.45451365449128 130.6626241631592 H 0.0 **** 0.06
5564 H 148.72256401422663 154.50562159552553 131.82635552776702 H 0.0 **** 0.06
5565 H 147.75175406183683 153.67472818826687 130.58647756354145 H 0.0 **** 0.06
5566 C 145.3963532867963 99.66934985152788 155.07150765317763 C 0.0 **** -0.24
5567 H 145.82863757901157 99.69774961290322 154.07096558171963 H 0.0 **** 0.06
5568 H 144.47528629294203 100.25157310854742 155.08504738411102 H 0.0 **** 0.06
5569 H 146.1050143787106 100.09264975876401 155.78373608165055 H 0.0 **** 0.06
5570 H 145.178264274447 98.63683625692039 155.34432907818683 H 0.0 **** 0.06
5571 C 126.85488342498053 16.751033882157458 75.50820988243274 C 0.0 **** -0.24
5572 H 126.44143892190164 16.228205221111466 74.64658730912885 H 0.0 **** 0.06
5573 H 126.14503071085528 16.70855831422523 76.33404134714863 H 0.0 **** 0.06
5574 H 127.04490539433255 17.791980630308842 75.24510112951145 H 0.0 **** 0.06
5575 H 127.78936645379434 16.276041756119042 75.80676576862601 H 0.0 **** 0.06
5576 C 45.11398356821962 27.825809535831127 149.27590970765783 C 0.0 **** -0.24
5577 H 44.39036634734772 27.15274885982373 149.7340232994745 H 0.0 **** 0.06
5578 H 44.89155783522588 27.93112706894283 148.21442647375522 H 0.0 **** 0.06
5579 H 46.117044480547065 27.41809677890194 149.39883962498206 H 0.0 **** 0.06
5580 H 45.057447276423645 28.80211289356069 149.75836188740556 H 0.0 **** 0.06
5581 C 71.2852663844373 80.7543300813569 155.7896172446483 C 0.0 **** -0.24
5582 H 70.26290403950077 81.13070017880355 155.76617722443498 H 0.0 **** 0.06
5583 H 71.35117507767544 79.92707173271596 156.4967836762897 H 0.0 **** 0.06
5584 H 71.9596035869003 81.55302999470071 156.09971477767834 H 0.0 **** 0.06
5585 H 71.56738283367261 80.40651841920744 154.79579330019035 H 0.0 **** 0.06
5586 C 81.51063949600736 135.6308812210941 49.056585632824735 C 0.0 **** -0.24
5587 H 80.54942773642877 136.050241584128 49.356174613234074 H 0.0 **** 0.06
5588 H 81.46686302274784 134.5436427479646 49.116916214438305 H 0.0 **** 0.06
5589 H 82.29045069333664 136.00180101375838 49.72125220666129 H 0.0 **** 0.06
5590 H 81.73329124148677 135.9294591607631 48.03200469516079 H 0.0 **** 0.06
5591 C 71.40897925494241 73.32917021130928 87.23398874233382 C 0.0 **** -0.24
5592 H 71.54028858765841 72.73922181481251 88.14114166390338 H 0.0 **** 0.06
5593 H 70.40644971107142 73.16770182714684 86.8384497064176 H 0.0 **** 0.06
5594 H 72.1469583240068 73.02375257697445 86.49296809646562 H 0.0 **** 0.06
5595 H 71.5428759637365 74.38534538539456 87.46657920978474 H 0.0 **** 0.06
5596 C 89.01266796647121 138.05882577797206 144.80034639105372 C 0.0 **** -0.24
5597 H 88.32378500611661 137.4510132189576 144.21383396361577 H 0.0 **** 0.06
5598 H 89.88945889754494 137.46549877912287 145.05999501981236 H 0.0 **** 0.06
5599 H 88.51619502980058 138.39361016759267 145.71067912124272 H 0.0 **** 0.06
5600 H 89.32009018954439 138.92563378745666 144.214330042436 H 0.0 **** 0.06
5601 C 14.904181618153537 90.71146290635279 132.81691126670734 C 0.0 **** -0.24
5602 H 14.754691808760235 90.86795578395834 131.7490824347072 H 0.0 **** 0.06
5603 H 15.543320795676621 89.84149552272476 132.97093258202875 H 0.0 **** 0.06
5604 H 13.940518537685769 90.54348297768277 133.29772711523884 H 0.0 **** 0.06
5605 H 15.377593698358773 91.592194485488 133.25095914682169 H 0.0 **** 0.06
5606 C 143.49006896400985 34.225161581626914 13.825719695501135 C 0.0 **** -0.24
5607 H 142.90302277219124 33.98004677243184 12.940806050304182 H 0.0 **** 0.06
5608 H 144.3303075522329 34.85926814465999 13.539377737097197 H 0.0 **** 0.06
5609 H 143.86571164373993 33.30753613596622 14.279128793267425 H 0.0 **** 0.06
5610 H 142.8629030967702 34.75384722549799 14.543106701282248 H 0.0 **** 0.06
5611 C 101.54824009305577 14.069477959063931 32.49085462902885 C 0.0 **** -0.24
5612 H 101.64840980718697 15.11912373085488 32.214471822660805 H 0.0 **** 0.06
5613 H 100.91087056381417 13.563039793578184 31.76537191422579 H 0.0 **** 0.06
5614 H 101.10151130999043 13.995681882788858 33.48167406772324 H 0.0 **** 0.06
5615 H 102.53279984558287 13.601560680779073 32.49958357614014 H 0.0 **** 0.06
5616 C 49.63239852954992 31.929520624259993 150.0814329189444 C 0.0 **** -0.24
5617 H 49.99269444138592 32.87647668592197 150.48543514432836 H 0.0 **** 0.06
5618 H 48.85136501380168 32.12290634933089 149.34621303683815 H 0.0 **** 0.06
5619 H 49.22894557780869 31.319367541134227 150.88943514437562 H 0.0 **** 0.06
5620 H 50.45829419670402 31.40174305437057 149.605176859378 H 0.0 **** 0.06
5621 C 99.65831480429257 55.21399986822166 136.8543918551278 C 0.0 **** -0.24
5622 H 100.62551276925696 55.6244716899013 137.14167150759806 H 0.0 **** 0.06
5623 H 99.76700257485531 54.15276483135834 136.63034757323766 H 0.0 **** 0.06
5624 H 99.28997347437586 55.73596274273453 135.97151016597113 H 0.0 **** 0.06
5625 H 98.9514669775759 55.342186865981645 137.6736658554692 H 0.0 **** 0.06
5626 C 146.68531038424558 46.83697559901118 28.205335535126153 C 0.0 **** -0.24
5627 H 147.53491980309525 47.21261679622448 27.636142985076702 H 0.0 **** 0.06
5628 H 145.7759277613884 46.93974321417949 27.612560063107964 H 0.0 **** 0.06
5629 H 146.58386595878395 47.409352095415244 29.127464512036795 H 0.0 **** 0.06
5630 H 146.84525038456118 45.786282394125294 28.44577395138532 H 0.0 **** 0.06
5631 C 9.197150272898753 124.97031448658738 101.93117133489481 C 0.0 **** -0.24
5632 H 8.690822243378129 124.40697664220632 101.14742005622357 H 0.0 **** 0.06
5633 H 10.12405814473172 124.46358126630837 102.20133413477338 H 0.0 **** 0.06
5634 H 8.550180160804842 125.03586855401734 102.80548934525807 H 0.0 **** 0.06
5635 H 9.422095158943748 125.9733193919357 101.56965148266615 H 0.0 **** 0.06
5636 C 88.21409206529017 66.87668634056394 143.71466824389802 C 0.0 **** -0.24
5637 H 88.58653762394579 67.79775167778786 144.16259637308985 H 0.0 **** 0.06
5638 H 88.12732754999251 66.10780518425032 144.48371338148098 H 0.0 **** 0.06
5639 H 88.90615048768967 66.54217800597073 142.94223639236094 H 0.0 **** 0.06
5640 H 87.23494287130114 67.0590107840146 143.27113319036346 H 0.0 **** 0.06
5641 C 116.36253797410025 75.43899094046019 74.73209190519734 C 0.0 **** -0.24
5642 H 116.03789850850553 76.14287821048889 73.96585656598332 H 0.0 **** 0.06
5643 H 115.50368125346573 74.87099180761226 75.08993795644008 H 0.0 **** 0.06
5644 H 116.80798516904714 75.98668602865428 75.56235604743658 H 0.0 **** 0.06
5645 H 117.09917476318843 74.75688043775031 74.30930220905063 H 0.0 **** 0.06
5646 C 74.89678008493901 83.3040779534074 112.07482314628645 C 0.0 **** -0.24
5647 H 74.11617472687738 83.46230796685997 111.32991828879541 H 0.0 **** 0.06
5648 H 75.23218170885181 84.26701766373544 112.45918302420556 H 0.0 **** 0.06
5649 H 75.73649518940921 82.78280748818463 111.61534048923419 H 0.0 **** 0.06
5650 H 74.49999889368236 82.70308686842571 112.8932210219066 H 0.0 **** 0.06
5651 C 99.98310474672934 67.38162029153439 0.48933734178557486 C 0.0 **** -0.24
5652 H 100.2085486616528 67.95519596434146 -0.40990771455897956 H 0.0 **** 0.06
5653 H 99.98490056616049 66.31806099493838 0.251713577727422 H 0.0 **** 0.06
5654 H 99.00222357509648 67.66821854275433 0.8666782929409571 H 0.0 **** 0.06
5655 H 100.73811084196103 67.58605842258591 1.249036983838618 H 0.0 **** 0.06
5656 C 36.19321725767679 80.57308726878648 98.25026302909153 C 0.0 **** -0.24
5657 H 36.18888051928715 81.44144143160517 98.90767374644079 H 0.0 **** 0.06
5658 H 35.17896807483403 80.37185203658757 97.90676394938902 H 0.0 **** 0.06
5659 H 36.570507249647065 79.70723562631093 98.79516016998943 H 0.0 **** 0.06
5660 H 36.836259613836745 80.77046629838036 97.39251147934056 H 0.0 **** 0.06
5661 C 100.73148017349797 27.03942953226155 62.51915751938027 C 0.0 **** -0.24
5662 H 101.32131010528525 26.33010748959211 61.936966293356235 H 0.0 **** 0.06
5663 H 101.22634964323328 27.224835549118637 63.47290618340142 H 0.0 **** 0.06
5664 H 99.73960517850213 26.625097640755484 62.69892330950877 H 0.0 **** 0.06
5665 H 100.64051783947235 27.974433311598318 61.96792762106628 H 0.0 **** 0.06
5666 C 13.025772016131214 50.79640994783061 5.700142501196069 C 0.0 **** -0.24
5667 H 13.292580359530916 51.1949913593043 6.679132720525956 H 0.0 **** 0.06
5668 H 12.076414271957333 51.22528051683223 5.3801197455283045 H 0.0 **** 0.06
5669 H 12.932096418230515 49.71202029386036 5.763290344096902 H 0.0 **** 0.06
5670 H 13.802070996314114 51.05262967858519 4.979601736663881 H 0.0 **** 0.06
5671 C 143.15285363917704 144.40065964947186 34.232377078671135 C 0.0 **** -0.24
5672 H 142.2879228063353 144.31681875903172 33.57355231760758 H 0.0 **** 0.06
5673 H 142.86086734783456 144.13340713249016 35.24886359025045 H 0.0 **** 0.06
5674 H 143.52287702012057 145.42561043432806 34.21805079453556 H 0.0 **** 0.06
5675 H 143.9362858634149 143.72559388587067 33.88978870315481 H 0.0 **** 0.06
5676 C 126.80264135335638 144.6269289976404 93.2594673781922 C 0.0 **** -0.24
5677 H 126.27330513494799 143.78009165156493 92.82235142337609 H 0.0 **** 0.06
5678 H 127.80487771220082 144.31538524657526 93.55465623612913 H 0.0 **** 0.06
5679 H 126.25911790999119 144.98053561510983 94.13567928231774 H 0.0 **** 0.06
5680 H 126.87212415028615 145.4295691928139 92.5255624012327 H 0.0 **** 0.06
5681 C 73.34124233703176 4.684723539980887 110.40535135663093 C 0.0 **** -0.24
5682 H 72.39025118357978 4.16196196600886 110.29569787739764 H 0.0 **** 0.06
5683 H 73.22375814866984 5.720533467838244 110.08627935342129 H 0.0 **** 0.06
5684 H 74.09672297488885 4.196850976400405 109.78875905501816 H 0.0 **** 0.06
5685 H 73.65188133486504 4.657787116155575 111.44950675358977 H 0.0 **** 0.06
5686 C 39.333568942466854 75.26553342258777 150.45330666594126 C 0.0 **** -0.24
5687 H 39.565106376792414 74.66837495227455 149.5714740059297 H 0.0 **** 0.06
5688 H 40.21829810874681 75.82593325345195 150.75549700878577 H 0.0 **** 0.06
5689 H 39.02296930528837 74.6089574706906 151.26632300694075 H 0.0 **** 0.06
5690 H 38.52596242650134 75.96047740767145 150.21864880094077 H 0.0 **** 0.06
5691 C 37.210060668454275 13.441853605287662 150.60834281324253 C 0.0 **** -0.24
5692 H 38.02647141795353 14.105312941817488 150.89484567585453 H 0.0 **** 0.06
5693 H 37.413813300483014 13.021041747485896 149.62373785973614 H 0.0 **** 0.06
5694 H 36.27813080011259 14.006110601088494 150.57748142241206 H 0.0 **** 0.06
5695 H 37.12355824187489 12.636677857212874 151.3371836601276 H 0.0 **** 0.06
5696 C 0.7339501857307766 138.5726295488617 28.14505936007933 C 0.0 **** -0.24
5697 H 0.3315738176031857 137.56030051308963 28.181608657749365 H 0.0 **** 0.06
5698 H 0.7201974563142244 138.93152390537932 27.11651799729509 H 0.0 **** 0.06
5699 H 1.758594284772272 138.56965998325626 28.516133889954375 H 0.0 **** 0.06
5700 H 0.12394466085561362 139.22765783144098 28.76691776226525 H 0.0 **** 0.06
5701 C 74.70256066247624 9.121856104142807 0.6216621661009754 C 0.0 **** -0.24
5702 H 74.28755115224389 8.119022444096402 0.5198661286269441 H 0.0 **** 0.06
5703 H 75.63583893899889 9.073182883760694 1.18463758243891 H 0.0 **** 0.06
5704 H 73.99201992737146 9.756676859937443 1.1498203819725177 H 0.0 **** 0.06
5705 H 74.89608084772902 9.536449893256304 -0.3679289697382728 H 0.0 **** 0.06
5706 C 81.96590149174776 131.17213388647696 123.68639239703884 C 0.0 **** -0.24
5707 H 80.94106921034864 131.21102031676983 123.31841647088186 H 0.0 **** 0.06
5708 H 81.95798171891795 131.0667811043155 124.77225832338928 H 0.0 **** 0.06
5709 H 82.48538788015725 132.09081435778225 123.41444985735166 H 0.0 **** 0.06
5710 H 82.47975449407346 130.31908779460636 123.24267272759005 H 0.0 **** 0.06
5711 C 101.33357985466556 87.77452776444085 72.97727189321269 C 0.0 **** -0.24
5712 H 102.35993680835959 88.13878450776616 73.02372729561802 H 0.0 **** 0.06
5713 H 100.89038819089613 87.81201759786273 73.97270112334378 H 0.0 **** 0.06
5714 H 101.32988533627217 86.74512623695148 72.61624754608938 H 0.0 **** 0.06
5715 H 100.75566340194213 88.40035459975007 72.29821226877691 H 0.0 **** 0.06
5716 C 107.19648666755644 60.07406898427287 147.41384525289743 C 0.0 **** -0.24
5717 H 107.88618435050945 59.248426568214214 147.24108429343954 H 0.0 **** 0.06
5718 H 106.68437822902028 59.9256260102634 148.36505360746096 H 0.0 **** 0.06
5719 H 106.46321955461643 60.10893469687075 146.60789711218945 H 0.0 **** 0.06
5720 H 107.75215966034698 61.011130056012874 147.44192957392548 H 0.0 **** 0.06
5721 C 145.8570455283311 14.038232404762049 64.39622064294025 C 0.0 **** -0.24
5722 H 146.68831034937543 14.49881568588048 64.93032879633452 H 0.0 **** 0.06
5723 H 146.23686412645463 13.257887159671526 63.736212442125236 H 0.0 **** 0.06
5724 H 145.34181320281144 14.794986762043528 63.805014967788026 H 0.0 **** 0.06
5725 H 145.16204178355284 13.601768355559628 65.1132726538147 H 0.0 **** 0.06
5726 C 36.7183748483708 131.28979696837388 37.214003566172096 C 0.0 **** -0.24
5727 H 36.73012961589632 130.63907919989424 36.33907904735912 H 0.0 **** 0.06
5728 H 37.38833168689855 130.88747121530886 37.97434067389683 H 0.0 **** 0.06
5729 H 35.70488803752856 131.34164708995877 37.612953123863676 H 0.0 **** 0.06
5730 H 37.04855438316683 132.28755788802638 36.92800665060662 H 0.0 **** 0.06
5731 C 63.826842043538505 70.40306022866181 66.3708112727834 C 0.0 **** -0.24
5732 H 63.302979806464805 69.94672818980148 67.21032248575487 H 0.0 **** 0.06
5733 H 63.50085301855455 71.43712063771338 66.25873140216743 H 0.0 **** 0.06
5734 H 63.60251979215616 69.85007980242665 65.45843807018805 H 0.0 **** 0.06
5735 H 64.90014495081778 70.3778888190505 66.55550262493668 H 0.0 **** 0.06
5736 C 0.5925442893076536 78.22391198059898 44.13356542683259 C 0.0 **** -0.24
5737 H 0.825349651780698 79.23983586296737 44.45097362644262 H 0.0 **** 0.06
5738 H -0.148506237823824 78.25349477317536 43.334017001183184 H 0.0 **** 0.06
5739 H 0.19377445988314435 77.66238307452306 44.978318394604116 H 0.0 **** 0.06
5740 H 1.4995592833905675 77.73993421173014 43.77095268510081 H 0.0 **** 0.06
5741 C 134.9430440502461 48.14426432223239 135.71745076818067 C 0.0 **** -0.24
5742 H 134.1391177228466 47.75914497271957 136.34528692537938 H 0.0 **** 0.06
5743 H 135.48326777914826 48.92301443547029 136.25614851971602 H 0.0 **** 0.06
5744 H 134.5212832515207 48.559759025462284 134.80275922385954 H 0.0 **** 0.06
5745 H 135.62682684510236 47.332950980832024 135.4671540772758 H 0.0 **** 0.06
5746 C 2.944180584076925 117.0203655073812 115.46495548587329 C 0.0 **** -0.24
5747 H 2.4162949712943735 117.17554610401623 114.52353556732204 H 0.0 **** 0.06
5748 H 2.8639743447264543 117.91898765926993 116.07818376332263 H 0.0 **** 0.06
5749 H 3.9949959871845593 116.81221971180429 115.26148555041247 H 0.0 **** 0.06
5750 H 2.502180854612785 116.17703790943767 115.99436972050906 H 0.0 **** 0.06
5751 C 95.81216535145315 40.06179203824382 71.01255872084764 C 0.0 **** -0.24
5752 H 95.30938676983322 39.39178738673638 70.31458224511601 H 0.0 **** 0.06
5753 H 95.18774404388724 40.93886008361716 71.18665176970916 H 0.0 **** 0.06
5754 H 96.76840743835473 40.373774501623416 70.59272103628285 H 0.0 **** 0.06
5755 H 95.98092930731583 39.542618632212395 71.95586639312819 H 0.0 **** 0.06
5756 C 45.25334887620656 19.328199039666103 102.72634547523676 C 0.0 **** -0.24
5757 H 44.80270474679702 19.709867864714347 103.64242267868865 H 0.0 **** 0.06
5758 H 45.238370251567005 20.10658380095179 101.96288787741786 H 0.0 **** 0.06
5759 H 44.68874582121987 18.464908759956337 102.37590016730921 H 0.0 **** 0.06
5760 H 46.28374908973251 19.033422310496114 102.92401878563054 H 0.0 **** 0.06
5761 C 35.69038803170395 49.05314515807254 20.94752305763359 C 0.0 **** -0.24
5762 H 35.98543744381902 48.485811079925156 21.830504130322254 H 0.0 **** 0.06
5763 H 34.792725915779044 48.61050339840426 20.51506763764786 H 0.0 **** 0.06
5764 H 36.49710445965377 49.0291946981385 20.21542359278692 H 0.0 **** 0.06
5765 H 35.487134013398986 50.08612934782576 21.23093822668619 H 0.0 **** 0.06
5766 C 83.9544679599525 139.24385768462167 48.651227650375176 C 0.0 **** -0.24
5767 H 83.21418964929238 138.6283440517484 49.16184849338913 H 0.0 **** 0.06
5768 H 83.81825898381439 140.28711810529165 48.936659762768386 H 0.0 **** 0.06
5769 H 83.82937873080797 139.14286585761988 47.57261602237969 H 0.0 **** 0.06
5770 H 84.95504584290701 138.9177232226591 48.93300033412541 H 0.0 **** 0.06
5771 C 89.33162799683592 69.45963323279425 17.674310595521412 C 0.0 **** -0.24
5772 H 88.63112096529109 68.90692726093198 18.30086362598955 H 0.0 **** 0.06
5773 H 88.81772503424583 70.30187032583468 17.210633868997313 H 0.0 **** 0.06
5774 H 89.72253571978145 68.80127380589465 16.89925017775078 H 0.0 **** 0.06
5775 H 90.15452606929043 69.82883257010957 18.287199912860608 H 0.0 **** 0.06
5776 C 125.42644649392452 25.43605544142389 86.94577800614812 C 0.0 **** -0.24
5777 H 124.7255535995161 26.192965107745408 87.29855781765879 H 0.0 **** 0.06
5778 H 126.20005037130795 25.27900213303724 87.69763436245874 H 0.0 **** 0.06
5779 H 125.88550169254222 25.7719156446214 86.01548614438614 H 0.0 **** 0.06
5780 H 124.89399662382863 24.50106856675751 86.77142104141481 H 0.0 **** 0.06
5781 C 45.79501567672027 34.16377312608779 133.52408856454355 C 0.0 **** -0.24
5782 H 45.67002355519372 33.855776423651264 134.56194725276964 H 0.0 **** 0.06
5783 H 46.543847824150376 33.53210704988652 133.04598704632704 H 0.0 **** 0.06
5784 H 46.121954806020995 35.20288166143786 133.49157833181508 H 0.0 **** 0.06
5785 H 44.84563742265665 34.06409436267998 132.99883746772966 H 0.0 **** 0.06
5786 C 39.68935341344803 19.988448941780206 153.1475425093846 C 0.0 **** -0.24
5787 H 38.69573078811487 20.177560422628062 152.74243688534884 H 0.0 **** 0.06
5788 H 39.60057300667731 19.45941526742496 154.0964845975222 H 0.0 **** 0.06
5789 H 40.202924384956816 20.936655264577922 153.30663147684507 H 0.0 **** 0.06
5790 H 40.259027079545604 19.38047029549972 152.44417164223955 H 0.0 **** 0.06
5791 C 106.28997759541215 13.588197522207338 81.03944486765444 C 0.0 **** -0.24
5792 H 106.66573723171257 12.851443582185993 80.32967167278234 H 0.0 **** 0.06
5793 H 105.87263853862356 14.435394568819333 80.49620927261155 H 0.0 **** 0.06
5794 H 107.1081892649795 13.930438816321612 81.67442540806951 H 0.0 **** 0.06
5795 H 105.51595462043537 13.134084236122021 81.6578607615473 H 0.0 **** 0.06
5796 C 143.78236572328512 8.44081086229916 52.17459899901462 C 0.0 **** -0.24
5797 H 144.56185849782491 8.118315450557013 52.86512662766489 H 0.0 **** 0.06
5798 H 144.1481438948898 9.276592076105672 51.5775095694508 H 0.0 **** 0.06
5799 H 142.90468247260293 8.753159162322262 52.73998232381436 H 0.0 **** 0.06
5800 H 143.5157425758897 7.613172819880809 51.516804152037224 H 0.0 **** 0.06
5801 C 130.82032861801275 151.63413519729613 97.28949967811849 C 0.0 **** -0.24
5802 H 131.59296138116326 151.46527119577866 98.0391217234343 H 0.0 **** 0.06
5803 H 129.9420276766967 152.0712260073441 97.76592259408305 H 0.0 **** 0.06
5804 H 130.54927886295982 150.68583365128075 96.82642101380243 H 0.0 **** 0.06
5805 H 131.19795534882616 152.3168895634825 96.52753036154598 H 0.0 **** 0.06
5806 C 122.48008153040207 144.77277462111164 114.9931681545072 C 0.0 **** -0.24
5807 H 122.35648100966033 143.9644059361786 114.27140524130573 H 0.0 **** 0.06
5808 H 121.6870415842978 145.50748001485664 114.85342444767531 H 0.0 **** 0.06
5809 H 123.44888287054162 145.24922713044066 114.84038835369375 H 0.0 **** 0.06
5810 H 122.42913871283228 144.36812350720777 116.00344828430542 H 0.0 **** 0.06
5811 C 34.163936143758946 104.73445747058126 106.77434241648486 C 0.0 **** -0.24
5812 H 35.09727654618888 104.18267834657574 106.88843088564745 H 0.0 **** 0.06
5813 H 33.67800940386621 104.83183464275281 107.74515782656884 H 0.0 **** 0.06
5814 H 33.50666789821949 104.19685974833622 106.09067961696117 H 0.0 **** 0.06
5815 H 34.37584424162583 105.72498179300506 106.37183379007972 H 0.0 **** 0.06
5816 C 118.49370071516186 12.799091361707553 51.06603858832011 C 0.0 **** -0.24
5817 H 118.78511993788142 12.075162084557206 51.82759681827838 H 0.0 **** 0.06
5818 H 117.71290974198295 12.36911752965986 50.43753904393486 H 0.0 **** 0.06
5819 H 119.35894837850724 13.04774331911915 50.45171754137937 H 0.0 **** 0.06
5820 H 118.11756621978718 13.701910565076815 51.547438635169726 H 0.0 **** 0.06
5821 C 88.59590678808375 73.91122468567491 109.69475573184206 C 0.0 **** -0.24
5822 H 88.85347582190356 73.63626186296669 108.67197799090383 H 0.0 **** 0.06
5823 H 88.86676841041927 74.95255710542251 109.87026772164597 H 0.0 **** 0.06
5824 H 89.14010699029524 73.27195788382643 110.38966777991033 H 0.0 **** 0.06
5825 H 87.523923237521 73.7828124145919 109.84574327397536 H 0.0 **** 0.06
5826 C 53.38287792972079 113.38229407598101 132.94087049173828 C 0.0 **** -0.24
5827 H 54.28890824222 113.96409630141505 132.773766067647 H 0.0 **** 0.06
5828 H 53.44381878339334 112.88558827219447 133.91066290244993 H 0.0 **** 0.06
5829 H 53.28184348605413 112.63374848492089 132.15481182942312 H 0.0 **** 0.06
5830 H 52.51768814115562 114.04455029366761 132.92525064923967 H 0.0 **** 0.06
5831 C 81.33061340990149 55.48217153906421 14.75021501493876 C 0.0 **** -0.24
5832 H 81.9043633883048 56.327676806726345 14.370203846822506 H 0.0 **** 0.06
5833 H 81.20305652110083 55.58589884728666 15.828746714506508 H 0.0 **** 0.06
5834 H 81.86277254221343 54.55568447835981 14.535096333680826 H 0.0 **** 0.06
5835 H 80.35386185554147 55.46036951612999 14.269168579508914 H 0.0 **** 0.06
5836 C 126.96104701493886 38.467572615914946 29.531561755558165 C 0.0 **** -0.24
5837 H 127.11312618993873 37.96243737451812 28.57779082962719 H 0.0 **** 0.06
5838 H 126.90059099374162 37.726263324432296 30.32999482047422 H 0.0 **** 0.06
5839 H 126.03371279827701 39.039619464964176 29.49631498556529 H 0.0 **** 0.06
5840 H 127.79642629210866 39.14074270921964 29.723322412674065 H 0.0 **** 0.06
5841 C 88.44567231644753 3.9101389927745913 144.63816770600522 C 0.0 **** -0.24
5842 H 87.9967613090625 2.982912094809876 144.28319047936435 H 0.0 **** 0.06
5843 H 87.69626607239361 4.702277175228971 144.6334682067092 H 0.0 **** 0.06
5844 H 89.27122905988244 4.188459362548372 143.98270945146913 H 0.0 **** 0.06
5845 H 88.81971966166726 3.7694934940407165 145.65249266024176 H 0.0 **** 0.06
5846 C 98.8448239452961 108.53166809608949 117.3603394358014 C 0.0 **** -0.24
5847 H 99.24888812706516 107.64098758383362 117.84371103441839 H 0.0 **** 0.06
5848 H 98.981368924701 109.39268135367884 118.01429990501168 H 0.0 **** 0.06
5849 H 97.78227083199936 108.38764953263332 117.16501611494846 H 0.0 **** 0.06
5850 H 99.36714437266474 108.7018497007236 116.41909172585781 H 0.0 **** 0.06
5851 C 125.80708416868606 115.23975963088856 22.339237892785377 C 0.0 **** -0.24
5852 H 126.71260040389114 115.51598637861173 22.879332142104715 H 0.0 **** 0.06
5853 H 125.69986619207629 114.15413935678754 22.340526701368333 H 0.0 **** 0.06
5854 H 125.87395057185523 115.59668860765379 21.311719403187425 H 0.0 **** 0.06
5855 H 124.94235971537046 115.69098288407179 22.825888557239438 H 0.0 **** 0.06
5856 C 142.44918664271387 112.31804822892752 26.75346234549238 C 0.0 **** -0.24
5857 H 141.73780138945054 112.99945019760293 26.2854451530622 H 0.0 **** 0.06
5858 H 142.83203102173545 111.62353011284955 26.005953532371592 H 0.0 **** 0.06
5859 H 141.95129660556753 111.76163058691816 27.547021770679294 H 0.0 **** 0.06
5860 H 143.2762007066809 112.89106361335223 27.174694860203118 H 0.0 **** 0.06
5861 C 39.502025885655996 104.32520234524868 69.39371160202825 C 0.0 **** -0.24
5862 H 39.814763555231025 103.67179002464214 68.5795131333725 H 0.0 **** 0.06
5863 H 40.380318842051224 104.77732700716119 69.85430734603236 H 0.0 **** 0.06
5864 H 38.95995315847591 103.74273958459374 70.13936232083984 H 0.0 **** 0.06
5865 H 38.852389584839784 105.10821893483428 69.00169962340308 H 0.0 **** 0.06
5866 C 44.92534216797867 126.09290658566789 0.30074097948247314 C 0.0 **** -0.24
5867 H 45.944030946695875 126.27495864532352 -0.04125153776695001 H 0.0 **** 0.06
5868 H 44.458651831592135 127.03953937310752 0.5736771930521023 H 0.0 **** 0.06
5869 H 44.94558609384819 125.43294565927954 1.168128111747631 H 0.0 **** 0.06
5870 H 44.35264900911045 125.62331848528686 -0.49983710889238253 H 0.0 **** 0.06
5871 C 108.0637535622303 4.926042732018104 30.607252351069135 C 0.0 **** -0.24
5872 H 107.20436659892228 4.67030677280615 31.226799627091047 H 0.0 **** 0.06
5873 H 107.84532348897581 4.686400326354921 29.566648926077 H 0.0 **** 0.06
5874 H 108.93225717488123 4.355483767068428 30.937544101338766 H 0.0 **** 0.06
5875 H 108.27287352975561 5.992287771575583 30.69998347790198 H 0.0 **** 0.06
5876 C 93.09315206072247 117.81068299139662 25.623101080715294 C 0.0 **** -0.24
5877 H 93.9994111490486 117.81351820035707 26.22899059843892 H 0.0 **** 0.06
5878 H 92.51348732988214 118.70998550851021 25.8325944486895 H 0.0 **** 0.06
5879 H 92.49786830189794 116.9295506348954 25.8628586507336 H 0.0 **** 0.06
5880 H 93.36278756575342 117.79032191669131 24.567130060717204 H 0.0 **** 0.06
5881 C 123.7572881352772 155.96023911057094 102.17758622473805 C 0.0 **** -0.24
5882 H 124.47067275676902 156.74586326692514 101.9283057740512 H 0.0 **** 0.06
5883 H 122.88948134535467 156.40071108816426 102.67063850576015 H 0.0 **** 0.06
5884 H 124.22897313890134 155.24047138468774 102.84663506577216 H 0.0 **** 0.06
5885 H 123.4398099293763 155.4543869653191 101.26561809177919 H 0.0 **** 0.06
5886 C 150.4887577194849 118.74174208948038 0.7461630821176932 C 0.0 **** -0.24
5887 H 149.52446604280186 119.24601129204912 0.8128925422384548 H 0.0 **** 0.06
5888 H 151.28568863453992 119.48508244691608 0.7112356456901345 H 0.0 **** 0.06
5889 H 150.51878690886605 118.13356032737234 -0.157795355760328 H 0.0 **** 0.06
5890 H 150.62529084088467 118.10291344716153 1.6183788375929815 H 0.0 **** 0.06
5891 C 63.920010666209194 36.027744940008276 25.047744249567515 C 0.0 **** -0.24
5892 H 63.779441673364616 36.18245743104805 23.97794189551925 H 0.0 **** 0.06
5893 H 63.15762701834264 36.57996970185198 25.597860309989535 H 0.0 **** 0.06
5894 H 64.90797174600408 36.38265186592855 25.339248304352985 H 0.0 **** 0.06
5895 H 63.83368440340793 34.96482986038416 25.274869775447613 H 0.0 **** 0.06
5896 C 83.95043687531867 8.98345571688543 1.2933420590360782 C 0.0 **** -0.24
5897 H 84.21731265922816 7.945435794659318 1.0931605159922135 H 0.0 **** 0.06
5898 H 82.86499637526774 9.08548209357059 1.2948341520029132 H 0.0 **** 0.06
5899 H 84.37479382722985 9.622316321897898 0.5183775448568397 H 0.0 **** 0.06
5900 H 84.3451503817275 9.279847018435817 2.2647169024588045 H 0.0 **** 0.06
5901 C 40.73129188131304 48.22494041978382 128.36459678094536 C 0.0 **** -0.24
5902 H 41.035459929974934 48.78856530264892 129.2468424809563 H 0.0 **** 0.06
5903 H 41.25880424555777 47.27080416930795 128.34306947447993 H 0.0 **** 0.06
5904 H 40.97403313212311 48.795488803832654 127.46810924680538 H 0.0 **** 0.06
5905 H 39.65655062299555 48.046222844732085 128.400762152305 H 0.0 **** 0.06
5906 C 156.18350378371048 77.96705187237524 63.0200317349308 C 0.0 **** -0.24
5907 H 157.17619943386285 78.08262465191277 63.455461361369316 H 0.0 **** 0.06
5908 H 155.5185733255968 77.50397836799128 63.74910792238376 H 0.0 **** 0.06
5909 H 156.24649994069117 77.33704129023953 62.13267170215289 H 0.0 **** 0.06
5910 H 155.79285076760976 78.94700865899955 62.742796017190415 H 0.0 **** 0.06
5911 C 138.97720763233926 8.267940593192037 18.055059752231678 C 0.0 **** -0.24
5912 H 139.86892363133109 7.646396023371267 18.128275561384065 H 0.0 **** 0.06
5913 H 138.9663091800747 8.98592624470703 18.875736626869262 H 0.0 **** 0.06
5914 H 138.09017805722016 7.638278069925491 18.110379313942936 H 0.0 **** 0.06
5915 H 138.98483195524588 8.802423913582885 17.10465870531774 H 0.0 **** 0.06
5916 C 46.73398651712792 22.071316192290226 148.4774694356123 C 0.0 **** -0.24
5917 H 46.91635622596485 22.08437415044233 149.55278683214954 H 0.0 **** 0.06
5918 H 45.703548588632856 22.36489436126169 148.28032693711344 H 0.0 **** 0.06
5919 H 46.905978799352766 21.06593288306584 148.09314310701728 H 0.0 **** 0.06
5920 H 47.41273244051253 22.76936616142575 147.98614782576453 H 0.0 **** 0.06
5921 C 150.59420981019275 71.136189104684 70.104317257679 C 0.0 **** -0.24
5922 H 149.55474776069542 71.17101546811735 70.43011233819549 H 0.0 **** 0.06
5923 H 151.24018533291647 70.96765147496266 70.96691068237507 H 0.0 **** 0.06
5924 H 150.8597057062895 72.0820628776148 69.63152509902311 H 0.0 **** 0.06
5925 H 150.72389922910875 70.32382652933103 69.3889932871097 H 0.0 **** 0.06
5926 C 39.80841710458196 55.322038413622295 102.29563976132896 C 0.0 **** -0.24
5927 H 40.598034538996686 54.868859394696756 101.69615935318778 H 0.0 **** 0.06
5928 H 39.112896032427656 55.84879786480957 101.64164005404125 H 0.0 **** 0.06
5929 H 40.24847882454324 56.02542271249956 103.00186341639493 H 0.0 **** 0.06
5930 H 39.27623961555136 54.5436667143432 102.84258335340958 H 0.0 **** 0.06
5931 C 152.38537189147758 140.35675171999054 99.03322932570747 C 0.0 **** -0.24
5932 H 151.38915421884792 140.18685125944558 98.62604899578915 H 0.0 **** 0.06
5933 H 153.06176557080335 139.57905156149687 98.6770780097482 H 0.0 **** 0.06
5934 H 152.3418145742757 140.32920909322186 100.12225772403211 H 0.0 **** 0.06
5935 H 152.74895489945362 141.33114191248998 98.70815888100871 H 0.0 **** 0.06
5936 C 38.14113776840908 65.12770635362305 64.71108076232099 C 0.0 **** -0.24
5937 H 37.98665126061263 64.55056128312141 63.7996417111774 H 0.0 **** 0.06
5938 H 38.26117211899334 66.18160309554754 64.45721833831726 H 0.0 **** 0.06
5939 H 39.03835875153548 64.77182101988993 65.21780338697192 H 0.0 **** 0.06
5940 H 37.27994282027669 65.00768069960166 65.36831190274211 H 0.0 **** 0.06
5941 C 57.14734042410319 67.11044989806801 53.34798651870409 C 0.0 **** -0.24
5942 H 56.216743976915225 66.85345272743157 52.84373328856498 H 0.0 **** 0.06
5943 H 57.673166074383175 67.87293202319756 52.77387150830111 H 0.0 **** 0.06
5944 H 57.77231592867477 66.22161122788873 53.431287723666884 H 0.0 **** 0.06
5945 H 56.92661229294447 67.49421757866439 54.3449389696477 H 0.0 **** 0.06
5946 C 81.81640458173712 65.2378396807708 93.36234611390208 C 0.0 **** -0.24
5947 H 82.0478102486208 65.72298199522712 94.31008183180089 H 0.0 **** 0.06
5948 H 81.5234308651539 65.99106114930925 92.63074478665695 H 0.0 **** 0.06
5949 H 80.99685804671293 64.53199045993343 93.50651306162274 H 0.0 **** 0.06
5950 H 82.6964388343604 64.70409532393491 93.0026109780105 H 0.0 **** 0.06
5951 C 28.001818516457632 71.80053623096357 3.2687611345449454 C 0.0 **** -0.24
5952 H 27.126979925478395 71.16290758852853 3.398929677997785 H 0.0 **** 0.06
5953 H 27.73339621789154 72.8342931137867 3.4855717320053827 H 0.0 **** 0.06
5954 H 28.357647588752428 71.72452090195424 2.241804476589209 H 0.0 **** 0.06
5955 H 28.789121305305088 71.47860201841087 3.9511190941200027 H 0.0 **** 0.06
5956 C 29.795391863409662 25.60071584891186 145.8276755390504 C 0.0 **** -0.24
5957 H 30.358838687507557 25.489140117401213 146.75420196199937 H 0.0 **** 0.06
5958 H 30.442150565946406 25.375567532106743 144.9797179430905 H 0.0 **** 0.06
5959 H 29.43062623382923 26.624693200509633 145.74487396332296 H 0.0 **** 0.06
5960 H 28.94913800652003 24.913708336349472 145.83303838575253 H 0.0 **** 0.06
5961 C 71.78071071182713 108.87523355898026 8.00258489463863 C 0.0 **** -0.24
5962 H 71.9347908765318 107.79581056635573 8.002636856054721 H 0.0 **** 0.06
5963 H 70.71735588862808 109.09016364313288 8.107990053806418 H 0.0 **** 0.06
5964 H 72.14510641462272 109.29483216252834 7.0656257651127135 H 0.0 **** 0.06
5965 H 72.32511097735629 109.31904423515311 8.835983418067599 H 0.0 **** 0.06
5966 C 91.24701686693045 41.95884270797296 36.23191471771395 C 0.0 **** -0.24
5967 H 91.71933892310578 41.303806676151 36.96423387949176 H 0.0 **** 0.06
5968 H 91.88547312163844 42.82458706490337 36.054680395519256 H 0.0 **** 0.06
5969 H 90.28015469452549 42.29022362665495 36.610638754775664 H 0.0 **** 0.06
5970 H 91.10462003503483 41.41499903416184 35.297322337330684 H 0.0 **** 0.06
5971 C 151.00167133964936 81.2375837162733 148.8394359382435 C 0.0 **** -0.24
5972 H 151.31596847502553 81.71081741720624 147.91017828513452 H 0.0 **** 0.06
5973 H 150.09357873911972 80.65947267718606 148.66390481000394 H 0.0 **** 0.06
5974 H 150.80609695317497 82.00368481157197 149.5890754584289 H 0.0 **** 0.06
5975 H 151.79076733036632 80.57512565119376 149.19521887852213 H 0.0 **** 0.06
5976 C 53.31560115174672 75.87873945774626 22.06733870686898 C 0.0 **** -0.24
5977 H 54.174479360048 76.52739841491422 22.238272720149183 H 0.0 **** 0.06
5978 H 53.33258419825836 75.05761351424675 22.78477613937318 H 0.0 **** 0.06
5979 H 53.3575218775151 75.47860800750726 21.054983975803765 H 0.0 **** 0.06
5980 H 52.39746777391625 76.45222276473793 22.193345278352638 H 0.0 **** 0.06
5981 C 57.14399739155482 12.957135567682599 98.3670023926224 C 0.0 **** -0.24
5982 H 56.70239968454587 12.502024226159648 99.25314898314171 H 0.0 **** 0.06
5983 H 56.74968924605071 12.470599692381 97.47403450526441 H 0.0 **** 0.06
5984 H 58.226366244933274 12.838367545073453 98.39821848302718 H 0.0 **** 0.06
5985 H 56.89610773733858 14.01892881112613 98.34157516120673 H 0.0 **** 0.06
5986 C 90.05375158047416 94.1524569141395 56.5791755702686 C 0.0 **** -0.24
5987 H 89.26584180129089 94.1430347327399 57.33149334449138 H 0.0 **** 0.06
5988 H 90.39107860743879 95.17788927952009 56.42092360355596 H 0.0 **** 0.06
5989 H 89.66855044249587 93.74762676039221 55.64291688526248 H 0.0 **** 0.06
5990 H 90.89070822731493 93.54403702149742 56.921449535850655 H 0.0 **** 0.06
5991 C 115.46379739131055 81.9932778528465 99.21386770382163 C 0.0 **** -0.24
5992 H 116.09833854183557 82.46386767589382 98.46205425790431 H 0.0 **** 0.06
5993 H 114.7369305842247 81.34738926990123 98.72164900855098 H 0.0 **** 0.06
5994 H 114.9408195221252 82.76331273381189 99.7806552201482 H 0.0 **** 0.06
5995 H 116.08015307817243 81.3996806615811 99.8887467301774 H 0.0 **** 0.06
5996 C 96.02435271282866 110.6334118322357 70.37666365751423 C 0.0 **** -0.24
5997 H 96.91341147065398 111.05877643902751 69.90947611803412 H 0.0 **** 0.06
5998 H 95.34400325814204 110.27728560400838 69.60320493537554 H 0.0 **** 0.06
5999 H 95.52742696870081 111.397257745022 70.97475052198884 H 0.0 **** 0.06
6000 H 96.31488839797419 109.80132307892153 71.01760123361159 H 0.0 **** 0.06
6001 C 119.75495813240377 84.30253917490063 0.6698887117781283 C 0.0 **** -0.24
6002 H 119.66213690367692 85.02041514667158 -0.1455608613574384 H 0.0 **** 0.06
6003 H 119.4877148776223 84.78492905700034 1.610829602917363 H 0.0 **** 0.06
6004 H 120.78326424709434 83.94487646273649 0.723223432540891 H 0.0 **** 0.06
6005 H 119.08603352446056 83.46068262370949 0.49007463938616525 H 0.0 **** 0.06
6006 C 154.49447505947185 156.4481920368945 145.80079684486282 C 0.0 **** -0.24
6007 H 153.68275182295125 156.52296591186217 146.5244880287542 H 0.0 **** 0.06
6008 H 154.91876028102945 157.43762309942082 145.6285821179593 H 0.0 **** 0.06
6009 H 154.1089531475458 156.04939658372908 144.8625091963862 H 0.0 **** 0.06
6010 H 155.26739517398698 155.784419196493 146.18817364158426 H 0.0 **** 0.06
6011 C 141.5667689328448 53.627996656677965 25.986151319803923 C 0.0 **** -0.24
6012 H 142.55597226957798 53.93127151361273 25.642829605537315 H 0.0 **** 0.06
6013 H 141.33812901440228 52.63328727482167 25.602482541846484 H 0.0 **** 0.06
6014 H 140.82327511494947 54.33677325443574 25.622409203402157 H 0.0 **** 0.06
6015 H 141.5495990464742 53.610320655344424 27.075187304685187 H 0.0 **** 0.06
6016 C 137.32277714741392 111.50298136127289 122.57745714162006 C 0.0 **** -0.24
6017 H 138.10332169897583 112.26215510266722 122.63099326157489 H 0.0 **** 0.06
6018 H 136.6118088011816 111.76706527530398 121.7952561866369 H 0.0 **** 0.06
6019 H 136.8054150278754 111.44720198177872 123.53528842783409 H 0.0 **** 0.06
6020 H 137.77241251358905 110.53608170212733 122.34978899792544 H 0.0 **** 0.06
6021 C 43.80231175198638 105.1489044684073 35.917703491918175 C 0.0 **** -0.24
6022 H 43.72864431438114 105.35739688175221 36.98557695381864 H 0.0 **** 0.06
6023 H 44.052936107636214 106.06709738952054 35.385200997182466 H 0.0 **** 0.06
6024 H 42.8479988586471 104.76780873599978 35.55584498930335 H 0.0 **** 0.06
6025 H 44.580071984483325 104.40526470902228 35.74561752131889 H 0.0 **** 0.06
6026 C 110.25517628656058 28.033410025324287 62.07516420894831 C 0.0 **** -0.24
6027 H 110.39888386208685 27.09796844131054 62.615757255094195 H 0.0 **** 0.06
6028 H 109.19145262416947 28.191564557688423 61.898080110888145 H 0.0 **** 0.06
6029 H 110.78045723940494 27.98572177677238 61.12144810247844 H 0.0 **** 0.06
6030 H 110.65196967552765 28.858177155528324 62.66754404880351 H 0.0 **** 0.06
6031 C 15.292396203410007 62.12667480483948 102.12842949566664 C 0.0 **** -0.24
6032 H 15.940206732496193 61.40804829321327 102.63090948675381 H 0.0 **** 0.06
6033 H 14.257363020194923 61.94854477701284 102.42033475108951 H 0.0 **** 0.06
6034 H 15.39193912163929 62.01001166753905 101.04854170420828 H 0.0 **** 0.06
6035 H 15.581545666557325 63.13784065505632 102.41260521707454 H 0.0 **** 0.06
6036 C 125.78576366503785 49.58902952022038 22.78638452600103 C 0.0 **** -0.24
6037 H 124.99212030872184 50.05625043825495 23.369717637418603 H 0.0 **** 0.06
6038 H 125.35816345712033 48.829091045110886 22.13350230191449 H 0.0 **** 0.06
6039 H 126.50732435038509 49.12569510697898 23.460319326983665 H 0.0 **** 0.06
6040 H 126.28725277796048 50.34616973980255 22.1832452033795 H 0.0 **** 0.06
6041 C 32.21215555830764 9.001713379026512 82.24671350058048 C 0.0 **** -0.24
6042 H 33.23101985866478 8.75194273532776 82.5436745284726 H 0.0 **** 0.06
6043 H 31.51484905934626 8.645416869695055 83.0060198735192 H 0.0 **** 0.06
6044 H 31.985057556161678 8.527387863723334 81.2922972112184 H 0.0 **** 0.06
6045 H 32.1190701164208 10.083145704033257 82.14587746843858 H 0.0 **** 0.06
6046 C 41.9102954874694 42.240747938673906 117.14418933694424 C 0.0 **** -0.24
6047 H 42.9145606515317 42.48326560155641 116.79601646277166 H 0.0 **** 0.06
6048 H 41.18562368635813 42.86800383301488 116.6250617086626 H 0.0 **** 0.06
6049 H 41.84474190293005 42.420339055912734 118.21717275751257 H 0.0 **** 0.06
6050 H 41.697016678876366 41.19210266784296 116.9371267518415 H 0.0 **** 0.06
6051 C 74.65920942444846 83.6795990596951 70.02179375788691 C 0.0 **** -0.24
6052 H 73.85516387780521 83.39181154551473 69.343584487111 H 0.0 **** 0.06
6053 H 75.6106365442815 83.64701873501679 69.49048627238943 H 0.0 **** 0.06
6054 H 74.68882822472831 82.98872084942427 70.8634722284603 H 0.0 **** 0.06
6055 H 74.48054977579402 84.69033019707297 70.38740001936054 H 0.0 **** 0.06
6056 C 63.78486683155461 9.499630274017818 16.476178537525584 C 0.0 **** -0.24
6057 H 63.47707098801126 10.4977568039576 16.78525420557736 H 0.0 **** 0.06
6058 H 64.85456384854012 9.497093874987314 16.26638212395244 H 0.0 **** 0.06
6059 H 63.237005061839 9.21230979520493 15.578792281931555 H 0.0 **** 0.06
6060 H 63.569129700653065 8.789748417801718 17.27500575778356 H 0.0 **** 0.06
6061 C 37.51371411100638 46.60911716392809 99.93205737356885 C 0.0 **** -0.24
6062 H 37.67119789233942 47.649853096452006 99.64767686913387 H 0.0 **** 0.06
6063 H 37.99406940901463 45.957117114202106 99.20294327223922 H 0.0 **** 0.06
6064 H 36.44429485937985 46.39931630592679 99.96005285302499 H 0.0 **** 0.06
6065 H 37.943857173083416 46.4327543312956 100.9181211543443 H 0.0 **** 0.06
6066 C 147.21721041926045 94.74151679571355 156.3587933822845 C 0.0 **** -0.24
6067 H 146.4635072983463 95.33993804291674 155.84567806210623 H 0.0 **** 0.06
6068 H 146.7242805907967 94.01519814615222 157.00564815874975 H 0.0 **** 0.06
6069 H 147.8512699618638 95.39278177935222 156.96005794583888 H 0.0 **** 0.06
6070 H 147.82680678750225 94.21845952257627 155.62276893315735 H 0.0 **** 0.06
6071 C 63.60859729162365 119.90896355043338 97.38082859567547 C 0.0 **** -0.24
6072 H 63.82900342328105 119.47310987091089 98.35556568658086 H 0.0 **** 0.06
6073 H 64.4132249981763 119.66969225672295 96.6861602252439 H 0.0 **** 0.06
6074 H 63.52166779445838 120.9909364125084 97.47949294883924 H 0.0 **** 0.06
6075 H 62.66950046146735 119.50168042733861 97.00538579970174 H 0.0 **** 0.06
6076 C 47.32784045442142 33.845141256995305 25.590583811225372 C 0.0 **** -0.24
6077 H 46.410453361848454 33.80123730639275 25.00400302365935 H 0.0 **** 0.06
6078 H 48.17822530413642 33.603214071033065 24.952561447664067 H 0.0 **** 0.06
6079 H 47.270489831538896 33.1271944438041 26.408411992166748 H 0.0 **** 0.06
6080 H 47.45182316795385 34.84946189791188 25.996604787912077 H 0.0 **** 0.06
6081 C 101.05348044182291 79.36820880338496 152.8930966955872 C 0.0 **** -0.24
6082 H 100.93661752577712 80.30120007700842 153.44491553412257 H 0.0 **** 0.06
6083 H 101.87012284784264 79.46926410499435 152.17807873328434 H 0.0 **** 0.06
6084 H 100.12872698333386 79.14377160295797 152.36118066151704 H 0.0 **** 0.06
6085 H 101.27799668670174 78.56045117385668 153.58937876869516 H 0.0 **** 0.06
6086 C 111.07333930794182 137.54242304099557 119.7980070947661 C 0.0 **** -0.24
6087 H 111.20727237895626 138.47407335118726 120.34781643106429 H 0.0 **** 0.06
6088 H 110.27822243071715 137.66451220218664 119.06350725769322 H 0.0 **** 0.06
6089 H 110.80877796373589 136.74593654076398 120.49274890789387 H 0.0 **** 0.06
6090 H 112.00274002750454 137.2859683606685 119.28795707498973 H 0.0 **** 0.06
6091 C 64.08320093363142 14.938621234100992 147.43431132821104 C 0.0 **** -0.24
6092 H 63.76197287244361 15.97371632412873 147.55923701478187 H 0.0 **** 0.06
6093 H 63.22078248357259 14.277432997902736 147.52839777377756 H 0.0 **** 0.06
6094 H 64.81584991482633 14.69187161793684 148.20179860666846 H 0.0 **** 0.06
6095 H 64.53179109304031 14.814626899729177 146.44890789329418 H 0.0 **** 0.06
6096 C 51.07552942007338 137.31523459810998 141.48016110594705 C 0.0 **** -0.24
6097 H 51.50740672651608 136.32904406038384 141.651525915786 H 0.0 **** 0.06
6098 H 51.596955188509355 137.8000786521205 140.65490897536458 H 0.0 **** 0.06
6099 H 51.180967916646864 137.91831521568963 142.38197436978356 H 0.0 **** 0.06
6100 H 50.019307440258146 137.21111869698962 141.23364203826216 H 0.0 **** 0.06
6101 C 59.49392325322171 111.55375226942482 61.2014909895843 C 0.0 **** -0.24
6102 H 59.34099898167486 112.56417409788759 61.57982754140609 H 0.0 **** 0.06
6103 H 59.16923502154381 110.83218095148663 61.951608365690774 H 0.0 **** 0.06
6104 H 60.551858196924115 111.40262242390475 60.986060936103584 H 0.0 **** 0.06
6105 H 58.9141730402207 111.41574496902189 60.28972824992843 H 0.0 **** 0.06
6106 C 124.62808978417995 69.4473027837943 3.9942305543630994 C 0.0 **** -0.24
6107 H 125.69254517539197 69.38051983396737 4.2174152399521745 H 0.0 **** 0.06
6108 H 124.4128730480782 70.41230610570074 3.5352272640070908 H 0.0 **** 0.06
6109 H 124.05667384588635 69.34755937724708 4.917617137603884 H 0.0 **** 0.06
6110 H 124.35009634719329 68.64791713241718 3.3070435971597476 H 0.0 **** 0.06
6111 C 111.12870826846425 137.98434781979637 27.36027415149561 C 0.0 **** -0.24
6112 H 110.39221511920009 138.06011863051282 26.560115850511934 H 0.0 **** 0.06
6113 H 111.13459972347395 136.96733940034818 27.752680629277258 H 0.0 **** 0.06
6114 H 110.87003760778329 138.68098383863338 28.158904529166833 H 0.0 **** 0.06
6115 H 112.11598448751518 138.22955603159988 26.970679203932292 H 0.0 **** 0.06
6116 C 105.38934667004703 38.624943111905736 66.31795146832417 C 0.0 **** -0.24
6117 H 105.38001350119085 38.05306182593915 67.24674876216119 H 0.0 **** 0.06
6118 H 104.69577638958076 39.46122750600881 66.39959285439357 H 0.0 **** 0.06
6119 H 105.08693209678974 37.98040984254726 65.49273819069157 H 0.0 **** 0.06
6120 H 106.39479953965837 39.00187493717169 66.13466331128166 H 0.0 **** 0.06
6121 C 55.39291245574705 38.195889157465786 75.20964013222522 C 0.0 **** -0.24
6122 H 55.63251873293771 38.36183767570782 76.25948086308878 H 0.0 **** 0.06
6123 H 55.28498640033615 39.157396995646195 74.70625721481787 H 0.0 **** 0.06
6124 H 54.4581445347398 37.63998549628815 75.13411703555124 H 0.0 **** 0.06
6125 H 56.19359464752617 37.62638875897744 74.73866139914682 H 0.0 **** 0.06
6126 C 119.12490313071406 88.09151113958004 132.11025701254067 C 0.0 **** -0.24
6127 H 119.07320285952783 87.00810571714337 132.00589505308824 H 0.0 **** 0.06
6128 H 118.86034294535803 88.37145472915776 133.13041150953225 H 0.0 **** 0.06
6129 H 118.4270437331834 88.55746332316826 131.41385660530776 H 0.0 **** 0.06
6130 H 120.13767128520426 88.43006445530636 131.89115430617412 H 0.0 **** 0.06
6131 C 56.427471048494894 18.50551476384743 22.646727742447474 C 0.0 **** -0.24
6132 H 56.217414244462034 18.177822156336845 21.628833666788744 H 0.0 **** 0.06
6133 H 56.23420894130713 17.685542256250955 23.339121812854266 H 0.0 **** 0.06
6134 H 55.785366473455184 19.35029855152078 22.89585769911446 H 0.0 **** 0.06
6135 H 57.47203606712361 18.808075380633454 22.72349805414057 H 0.0 **** 0.06
6136 C 68.09907195458138 130.00072893853084 89.89868072761354 C 0.0 **** -0.24
6137 H 68.00248354901197 129.9159230457417 90.9811562779788 H 0.0 **** 0.06
6138 H 69.06018839058962 130.45378063947882 89.65397059458603 H 0.0 **** 0.06
6139 H 67.29389188248334 130.6239478877138 89.50961021519673 H 0.0 **** 0.06
6140 H 68.0400713532448 129.00843660357356 89.45042683397554 H 0.0 **** 0.06
6141 C 156.30121998792518 129.32520821329055 149.49427726345212 C 0.0 **** -0.24
6142 H 156.67424516179548 130.22647058888748 149.98150518156123 H 0.0 **** 0.06
6143 H 156.59127579333284 129.33371484322814 148.4439316459502 H 0.0 **** 0.06
6144 H 155.2142952676417 129.29423848264838 149.57165431048722 H 0.0 **** 0.06
6145 H 156.7251289249465 128.44761990162476 149.98189660692103 H 0.0 **** 0.06
6146 C 43.523647516948756 106.31119651127962 11.96720397378067 C 0.0 **** -0.24
6147 H 42.47594472457405 106.61130052114926 11.961195423268208 H 0.0 **** 0.06
6148 H 44.028730803283906 106.77093742628303 12.817129770642254 H 0.0 **** 0.06
6149 H 43.999877464929625 106.63687901291082 11.042198228511097 H 0.0 **** 0.06
6150 H 43.59083399930904 105.22657370172085 12.047553118294644 H 0.0 **** 0.06
6151 C 73.43087576382626 118.24640025902727 121.14432821176155 C 0.0 **** -0.24
6152 H 73.060537025097 119.20314824110795 121.51118125561317 H 0.0 **** 0.06
6153 H 74.43437851728231 118.07357213104694 121.53327979651283 H 0.0 **** 0.06
6154 H 73.45984910692255 118.26123750591205 120.05516061770783 H 0.0 **** 0.06
6155 H 72.76893201376149 117.44828863661377 121.47982332078118 H 0.0 **** 0.06
6156 C 101.28978940363523 50.87238756608782 147.5283019144038 C 0.0 **** -0.24
6157 H 101.19416605993943 51.8894010473651 147.1485619878743 H 0.0 **** 0.06
6158 H 102.11084474725307 50.36905271911179 147.0166214824766 H 0.0 **** 0.06
6159 H 100.36160639963181 50.329390461770174 147.3499732036559 H 0.0 **** 0.06
6160 H 101.49294908418024 50.90281513718618 148.59882747793358 H 0.0 **** 0.06
6161 C 155.52034508009334 27.749059186441798 130.38051432298298 C 0.0 **** -0.24
6162 H 155.5095687036331 28.552050019539024 129.6431661835645 H 0.0 **** 0.06
6163 H 155.057958885954 28.0978771492137 131.3033732917233 H 0.0 **** 0.06
6164 H 156.5506068880993 27.452017008520784 130.57859069407533 H 0.0 **** 0.06
6165 H 154.9645737630463 26.894940037763718 129.99451513760616 H 0.0 **** 0.06
6166 C 102.8235461837051 128.5360321074429 55.67822466229828 C 0.0 **** -0.24
6167 H 103.2658375642169 127.57666838999874 55.4104052245183 H 0.0 **** 0.06
6168 H 102.2946454455298 128.43982274022287 56.62744039106768 H 0.0 **** 0.06
6169 H 102.12432576821936 128.84325824344296 54.90153390509275 H 0.0 **** 0.06
6170 H 103.61013410016574 129.28415710124455 55.77561104569902 H 0.0 **** 0.06
6171 C 56.20889413241028 41.61540841460997 90.38782491011308 C 0.0 **** -0.24
6172 H 55.908969739446476 40.83637820287886 89.68746076598154 H 0.0 **** 0.06
6173 H 56.98901485696305 42.22826579377673 89.93742383935955 H 0.0 **** 0.06
6174 H 56.588162380095966 41.155127982563684 91.30115466923631 H 0.0 **** 0.06
6175 H 55.34769573927038 42.23963473452012 90.62726909616515 H 0.0 **** 0.06
6176 C 65.49141656881831 0.9991422054360406 111.81972813925218 C 0.0 **** -0.24
6177 H 65.50993794787304 1.6929332504889203 112.66067679453762 H 0.0 **** 0.06
6178 H 65.15495629630766 0.020702408641263048 112.16258921926179 H 0.0 **** 0.06
6179 H 66.4930876982598 0.9129717950335312 111.39925190617767 H 0.0 **** 0.06
6180 H 64.80797379171301 1.3729469325873573 111.05644856378036 H 0.0 **** 0.06
6181 C 12.313816356678245 151.8073115658522 79.48371536972533 C 0.0 **** -0.24
6182 H 12.08636618425161 152.21053183207812 80.47054692009633 H 0.0 **** 0.06
6183 H 12.673525899142383 150.78234156109804 79.58478105502188 H 0.0 **** 0.06
6184 H 13.082445070255872 152.4172349479224 79.01070798220628 H 0.0 **** 0.06
6185 H 11.412936152095718 151.8176900779428 78.87052958946155 H 0.0 **** 0.06
6186 C 16.111470204057042 124.32245283247215 38.1279481435339 C 0.0 **** -0.24
6187 H 15.404256709944889 125.11031480217889 37.867618968661645 H 0.0 **** 0.06
6188 H 15.62771921475266 123.60431398624502 38.790670012933276 H 0.0 **** 0.06
6189 H 16.973138880851252 124.76025496035976 38.63205533917949 H 0.0 **** 0.06
6190 H 16.43980068165041 123.81570804418243 37.220240315076666 H 0.0 **** 0.06
6191 C 154.97584754909093 106.91926577432663 51.872304721577805 C 0.0 **** -0.24
6192 H 154.452790155115 107.0350323181584 50.9226959800355 H 0.0 **** 0.06
6193 H 154.43710105769816 107.46017017565013 52.650380760144756 H 0.0 **** 0.06
6194 H 155.98504425394106 107.32094457367306 51.782033907210874 H 0.0 **** 0.06
6195 H 155.026775368642 105.86193992803432 52.13184291948471 H 0.0 **** 0.06
6196 C 67.13735629093578 53.3495661096901 35.542461928310175 C 0.0 **** -0.24
6197 H 66.22784618025318 53.4168680065053 36.138070383392986 H 0.0 **** 0.06
6198 H 67.9669676345273 53.04197785111478 36.17997521558924 H 0.0 **** 0.06
6199 H 67.35814250851907 54.3231323445697 35.104287398158455 H 0.0 **** 0.06
6200 H 66.99768793407621 52.61751205564127 34.74762090446969 H 0.0 **** 0.06
6201 C 129.69474616670325 24.674096543219818 147.60122240627263 C 0.0 **** -0.24
6202 H 130.59247980459506 24.287158197459327 147.12073031316936 H 0.0 **** 0.06
6203 H 129.73180096532266 25.763410080851443 147.6167669709358 H 0.0 **** 0.06
6204 H 129.63986939702747 24.297643251828397 148.622815348536 H 0.0 **** 0.06
6205 H 128.81574859756788 24.347902808098688 147.04562130869536 H 0.0 **** 0.06
6206 C 64.90804369312113 150.0710862024132 124.31242448698254 C 0.0 **** -0.24
6207 H 64.449105349583 149.9791860942438 125.2967570700356 H 0.0 **** 0.06
6208 H 64.259273163682 150.6595716371075 123.66289435136281 H 0.0 **** 0.06
6209 H 65.04934165198975 149.07851000254556 123.88390602987994 H 0.0 **** 0.06
6210 H 65.87471194864247 150.56676905193564 124.40749657991739 H 0.0 **** 0.06
6211 C 96.63748990025667 25.09627156920382 74.89894569805043 C 0.0 **** -0.24
6212 H 96.56638250044222 24.459572675608996 74.01653425214737 H 0.0 **** 0.06
6213 H 97.57165682306335 24.88951165399527 75.42132503840219 H 0.0 **** 0.06
6214 H 95.79676779481115 24.890831802653622 75.56252128189278 H 0.0 **** 0.06
6215 H 96.61394066320258 26.14208625922035 74.59525558157809 H 0.0 **** 0.06
6216 C 152.06166470478496 46.87994509714565 112.04062433227044 C 0.0 **** -0.24
6217 H 153.1378368092933 46.72546867306501 111.96941145634396 H 0.0 **** 0.06
6218 H 151.5657514013048 46.36344728405649 111.21835083799878 H 0.0 **** 0.06
6219 H 151.84262463734905 47.94580910272039 111.9854971303446 H 0.0 **** 0.06
6220 H 151.7005130419235 46.48306549744521 112.98942817559886 H 0.0 **** 0.06
6221 C 124.29181643615033 51.74800353510231 148.88890173130153 C 0.0 **** -0.24
6222 H 125.07197718202536 51.120641390004394 148.4590534036276 H 0.0 **** 0.06
6223 H 124.74605973240477 52.51039172470959 149.5211460838231 H 0.0 **** 0.06
6224 H 123.62027957732704 51.13218087466504 149.4876198514915 H 0.0 **** 0.06
6225 H 123.72777933950175 52.22701084705311 148.08844322091682 H 0.0 **** 0.06
6226 C 22.526136138309525 92.0314045204197 101.26504007657964 C 0.0 **** -0.24
6227 H 21.622843765596592 92.27043386979422 101.82569996289841 H 0.0 **** 0.06
6228 H 23.396028649869507 92.41808136385241 101.79557254019737 H 0.0 **** 0.06
6229 H 22.47125164009495 92.4867244819027 100.27635605902672 H 0.0 **** 0.06
6230 H 22.613678204460683 90.94917523945077 101.1625711405746 H 0.0 **** 0.06
6231 C 71.24613948375504 31.60988295733287 25.882761256070182 C 0.0 **** -0.24
6232 H 70.56357412132358 31.494718851335335 25.040946896342632 H 0.0 **** 0.06
6233 H 71.56126296312708 32.65038870275052 25.954883560466953 H 0.0 **** 0.06
6234 H 72.11974403873667 30.97481563909747 25.73175366408904 H 0.0 **** 0.06
6235 H 70.73951776400989 31.318301757358853 26.80317558246645 H 0.0 **** 0.06
6236 C 105.28308372632442 88.22369959062762 94.64897630346482 C 0.0 **** -0.24
6237 H 104.399812330465 88.86185692947704 94.63900113395462 H 0.0 **** 0.06
6238 H 106.08461676721383 88.70488575135465 94.08729545189279 H 0.0 **** 0.06
6239 H 105.0429004322305 87.26373787748784 94.19106999062325 H 0.0 **** 0.06
6240 H 105.60500537538839 88.0643178041909 95.67853863738847 H 0.0 **** 0.06
6241 C 137.56889021921523 101.68830055373934 57.15940970584849 C 0.0 **** -0.24
6242 H 136.85791680513557 102.46982684556133 56.893554307022086 H 0.0 **** 0.06
6243 H 137.65515285631676 100.98034559931983 56.3354016988048 H 0.0 **** 0.06
6244 H 137.21925750001995 101.16801211182752 58.05191495273958 H 0.0 **** 0.06
6245 H 138.54290005368932 102.13623826449128 57.35861148979441 H 0.0 **** 0.06
6246 C 153.47290752247807 85.38986602522264 100.83714654658694 C 0.0 **** -0.24
6247 H 153.85793773061846 84.84804800508338 99.97296042068241 H 0.0 **** 0.06
6248 H 154.28993083300685 85.91710634718524 101.32944240913825 H 0.0 **** 0.06
6249 H 153.02051121777947 84.68586615072365 101.53581488097116 H 0.0 **** 0.06
6250 H 152.7216789402662 86.10854842803109 100.50878103256731 H 0.0 **** 0.06
6251 C 142.76617281633162 118.98272599340476 59.46279347295757 C 0.0 **** -0.24
6252 H 142.2017899633647 118.05299480845184 59.38506562527505 H 0.0 **** 0.06
6253 H 143.16495401517798 119.24786936039504 58.483936383549576 H 0.0 **** 0.06
6254 H 143.58738205434014 118.84991656645889 60.167219280997244 H 0.0 **** 0.06
6255 H 142.10961575788386 119.77744865696474 59.81634739165807 H 0.0 **** 0.06
6256 C 47.62072690133736 99.03872709392942 44.570735905074514 C 0.0 **** -0.24
6257 H 46.7902936228906 98.42451562498638 44.91703991920406 H 0.0 **** 0.06
6258 H 48.06753955350506 99.55840647967983 45.41822599700845 H 0.0 **** 0.06
6259 H 47.25725120716328 99.76782346113009 43.84750182500227 H 0.0 **** 0.06
6260 H 48.3706721495233 98.40206679222405 44.099475348047406 H 0.0 **** 0.06
6261 C 126.37672714971404 10.850767317229575 64.0482647995943 C 0.0 **** -0.24
6262 H 126.35297761035565 9.764802686878227 63.95991074679867 H 0.0 **** 0.06
6263 H 127.13054714894412 11.139574872028902 64.78082010964643 H 0.0 **** 0.06
6264 H 125.39863838759578 11.209510958110833 64.3717599409866 H 0.0 **** 0.06
6265 H 126.62243663465773 11.28841115395425 63.08084638828748 H 0.0 **** 0.06
6266 C 140.9134875734112 17.062086626386616 73.87312324668025 C 0.0 **** -0.24
6267 H 141.2651668290155 16.257886235629172 74.51987136086217 H 0.0 **** 0.06
6268 H 141.27732052579677 16.89700186106063 72.85850937651031 H 0.0 **** 0.06
6269 H 141.2885012354266 18.015875340861214 74.24443917209112 H 0.0 **** 0.06
6270 H 139.82337280496876 17.075833839032157 73.8710040003534 H 0.0 **** 0.06
6271 C 19.080111587696514 68.21920638560232 129.0600584346476 C 0.0 **** -0.24
6272 H 18.778976285901784 68.28723637628946 128.01490384942582 H 0.0 **** 0.06
6273 H 20.05460988792565 68.69106504721753 129.189217893989 H 0.0 **** 0.06
6274 H 19.141025779308492 67.17188076005539 129.35353266127072 H 0.0 **** 0.06
6275 H 18.34496528264333 68.72860474579056 129.68321001854054 H 0.0 **** 0.06
6276 C 129.29866473881503 40.429756065762206 62.56907838231902 C 0.0 **** -0.24
6277 H 129.52749439849453 39.95766998239344 63.52455072077174 H 0.0 **** 0.06
6278 H 129.41799294256737 39.70162984950019 61.767157785304846 H 0.0 **** 0.06
6279 H 129.979841388429 41.26527543419718 62.405022118910836 H 0.0 **** 0.06
6280 H 128.27241379447912 40.79414538654913 62.580215162328074 H 0.0 **** 0.06
6281 C 50.406918305946306 129.85046840711007 126.7040790403416 C 0.0 **** -0.24
6282 H 50.534583269267046 128.79391582948793 126.93959969322198 H 0.0 **** 0.06
6283 H 49.98230514006093 129.95100692045528 125.70440689841219 H 0.0 **** 0.06
6284 H 51.37476364526731 130.35017477640827 126.73986454009095 H 0.0 **** 0.06
6285 H 49.73434958221742 130.305624046907 127.43150762439312 H 0.0 **** 0.06
6286 C 144.3368121202874 80.50413186595512 128.36586892939664 C 0.0 **** -0.24
6287 H 145.15739505635645 80.78128265246198 127.70352477218911 H 0.0 **** 0.06
6288 H 143.90636484085053 79.55855625752537 128.0355500037109 H 0.0 **** 0.06
6289 H 143.5728086781504 81.28101270313766 128.34105827790705 H 0.0 **** 0.06
6290 H 144.71302040720974 80.39636397111548 129.38356343221054 H 0.0 **** 0.06
6291 C 106.84928473807183 69.15534642814043 81.16950677552126 C 0.0 **** -0.24
6292 H 106.11456758846627 68.69146576509107 80.51150593437279 H 0.0 **** 0.06
6293 H 106.37385624268565 69.95755060818522 81.7354077614479 H 0.0 **** 0.06
6294 H 107.66302365831804 69.56502883847935 80.5718330059454 H 0.0 **** 0.06
6295 H 107.24418366084946 68.40893862486445 81.85819747464404 H 0.0 **** 0.06
6296 C 149.13057404865833 61.076624849443704 140.18153563474596 C 0.0 **** -0.24
6297 H 148.9483503169244 61.40321308570401 141.20519929787912 H 0.0 **** 0.06
6298 H 148.20785940733572 60.68116547832295 139.75751649527479 H 0.0 **** 0.06
6299 H 149.8943646802756 60.299002797039066 140.17941787559735 H 0.0 **** 0.06
6300 H 149.4726511570306 61.92306989287479 139.5850737760384 H 0.0 **** 0.06
6301 C 23.97474601385408 47.25912180029991 78.3747216060707 C 0.0 **** -0.24
6302 H 23.790036405258533 47.42814657354313 79.43474075676045 H 0.0 **** 0.06
6303 H 23.525333519156405 48.06484225741474 77.79425056828256 H 0.0 **** 0.06
6304 H 23.535851226360535 46.30625522357883 78.07613932816048 H 0.0 **** 0.06
6305 H 25.04970568480818 47.23632123664669 78.19258279092526 H 0.0 **** 0.06
6306 C 10.81412342736769 148.15440274222158 75.70213546250139 C 0.0 **** -0.24
6307 H 11.193309860658985 147.1319875665059 75.6803277393157 H 0.0 **** 0.06
6308 H 10.148751420945388 148.27573386907022 76.55678832438375 H 0.0 **** 0.06
6309 H 10.267065460345663 148.35803753778467 74.78248929722848 H 0.0 **** 0.06
6310 H 11.649417774770313 148.84979895849105 75.78969775217675 H 0.0 **** 0.06
6311 C 59.746120818366194 32.45820073985385 105.65817038821713 C 0.0 **** -0.24
6312 H 60.80820856348997 32.22384004161847 105.73026308889224 H 0.0 **** 0.06
6313 H 59.16315990196979 31.60756536975225 106.01041559907743 H 0.0 **** 0.06
6314 H 59.49113014452057 32.66968599193899 104.61986050830221 H 0.0 **** 0.06
6315 H 59.52506866919188 33.331039298461974 106.27194921428101 H 0.0 **** 0.06
6316 C 95.64765725263433 20.304042037842635 56.65599029363743 C 0.0 **** -0.24
6317 H 95.35247450679486 20.48684872618088 57.689280444949645 H 0.0 **** 0.06
6318 H 96.41135833532948 21.025033040107417 56.36276626190586 H 0.0 **** 0.06
6319 H 94.77829490782145 20.411184353469082 56.00576927556729 H 0.0 **** 0.06
6320 H 96.04648674543019 19.293753110793034 56.56542547877147 H 0.0 **** 0.06
6321 C 129.0574309023857 17.156582716530636 52.14431537529822 C 0.0 **** -0.24
6322 H 129.98427493816558 17.72769338985887 52.090935587601564 H 0.0 **** 0.06
6323 H 128.2451877864109 17.811698882313237 52.46037173721976 H 0.0 **** 0.06
6324 H 129.17215684443693 16.345895914150958 52.86445742121413 H 0.0 **** 0.06
6325 H 128.83017650903207 16.741563381186012 51.1621554714246 H 0.0 **** 0.06
6326 C 77.31302417826896 23.770325333637977 119.48245523058885 C 0.0 **** -0.24
6327 H 76.89454332575781 23.420254472774026 120.42636616767338 H 0.0 **** 0.06
6328 H 76.56602535560873 24.361135207276384 118.95086029662089 H 0.0 **** 0.06
6329 H 77.59962584554063 22.913129756270067 118.87276767523745 H 0.0 **** 0.06
6330 H 78.19042101943688 24.38511290839297 119.67968262741907 H 0.0 **** 0.06
6331 C 53.96972554841783 88.64318149731088 103.443012879467 C 0.0 **** -0.24
6332 H 54.13769331394376 87.56742103159803 103.4022220738251 H 0.0 **** 0.06
6333 H 54.882976371002215 89.1644025879582 103.15698113019613 H 0.0 **** 0.06
6334 H 53.690666561456496 88.92871837172058 104.45722855877159 H 0.0 **** 0.06
6335 H 53.167090869419496 88.91145262722335 102.75610907135564 H 0.0 **** 0.06
6336 C 89.46144593679213 11.479811218224825 39.23296767672235 C 0.0 **** -0.24
6337 H 89.78007015795106 11.717121881123212 40.248488705152056 H 0.0 **** 0.06
6338 H 88.49578152406298 11.94635589064076 39.03845295075446 H 0.0 **** 0.06
6339 H 89.37163623770113 10.398525966198527 39.12404051974876 H 0.0 **** 0.06
6340 H 90.197963511333 11.856835406455701 38.52459331275152 H 0.0 **** 0.06
6341 C 131.78415320186355 90.50081379964143 46.797887181794565 C 0.0 **** -0.24
6342 H 132.6740283381277 89.96959973272942 47.135683763089204 H 0.0 **** 0.06
6343 H 131.31674081158965 89.94452683856508 45.98451998871457 H 0.0 **** 0.06
6344 H 132.065454987133 91.49263439135734 46.44509706799134 H 0.0 **** 0.06
6345 H 131.08102013723732 90.59423987518147 47.625527280657735 H 0.0 **** 0.06
6346 C 46.10301013947594 73.70801882392198 107.3092728430115 C 0.0 **** -0.24
6347 H 45.82649691787606 73.41316259949537 106.2965710387587 H 0.0 **** 0.06
6348 H 45.21965173014303 73.68562797360505 107.94764362031218 H 0.0 **** 0.06
6349 H 46.516041808298496 74.7163694152311 107.29372998207803 H 0.0 **** 0.06
6350 H 46.8500234815333 73.01506005621587 107.69701876402799 H 0.0 **** 0.06
6351 C 139.34097165895326 105.28111627777632 133.37630805616783 C 0.0 **** -0.24
6352 H 140.01189358967372 104.42206227131432 133.3732018534127 H 0.0 **** 0.06
6353 H 139.73904085094688 106.05068204294382 134.03843127350513 H 0.0 **** 0.06
6354 H 138.35646054349633 104.97148988316151 133.72740354177932 H 0.0 **** 0.06
6355 H 139.25778363143115 105.67916246731933 132.36510498689134 H 0.0 **** 0.06
6356 C 110.76734598767786 116.42290199045897 43.5908322099785 C 0.0 **** -0.24
6357 H 110.19619636859971 115.52088662909927 43.37028497237564 H 0.0 **** 0.06
6358 H 111.68411052462125 116.4254219706948 43.00135354236431 H 0.0 **** 0.06
6359 H 111.01642845089037 116.4443644604545 44.65230571253744 H 0.0 **** 0.06
6360 H 110.17032909431077 117.3002148006629 43.33970322320771 H 0.0 **** 0.06
6361 C 39.30793647756333 57.63521843078844 12.571812637692517 C 0.0 **** -0.24
6362 H 39.4656955649953 58.16372404529598 11.63128162826331 H 0.0 **** 0.06
6363 H 38.940851852649104 56.62995551959635 12.364614585231067 H 0.0 **** 0.06
6364 H 38.5748954307351 58.17361463230601 13.172036766624643 H 0.0 **** 0.06
6365 H 40.249712991328835 57.573989474931494 13.116404831126971 H 0.0 **** 0.06
6366 C 35.62953912808888 152.75517656874433 14.013429770972664 C 0.0 **** -0.24
6367 H 36.012938975158576 151.84233841258765 14.470706241268886 H 0.0 **** 0.06
6368 H 36.40158227038944 153.52425339857484 14.038186358549922 H 0.0 **** 0.06
6369 H 34.75460742145863 153.0984989180228 14.565234932741305 H 0.0 **** 0.06
6370 H 35.35044157649331 152.55317611490563 12.978566449312012 H 0.0 **** 0.06
6371 C 67.10523724452494 154.14818925253198 64.42912883839188 C 0.0 **** -0.24
6372 H 66.73673969071513 155.0486630089638 64.91964204925682 H 0.0 **** 0.06
6373 H 66.28197116527477 153.65102195708346 63.91553139445355 H 0.0 **** 0.06
6374 H 67.52810896109659 153.47506470702987 65.1756638780227 H 0.0 **** 0.06
6375 H 67.87494769284524 154.4175255215194 63.705990908780564 H 0.0 **** 0.06
6376 C 18.289769407752495 59.64182451767897 32.37730791467254 C 0.0 **** -0.24
6377 H 17.37897823619158 60.20559227075371 32.17318524564004 H 0.0 **** 0.06
6378 H 18.113585229750328 58.5853325607076 32.1751976721778 H 0.0 **** 0.06
6379 H 18.57020810159436 59.77102051518034 33.42172073548733 H 0.0 **** 0.06
6380 H 19.09367867173321 60.005610375633054 31.736885056675675 H 0.0 **** 0.06
6381 C 94.44916161333427 27.5353053517114 150.51038559452894 C 0.0 **** -0.24
6382 H 95.41277589213327 27.146814341572394 150.83988510291658 H 0.0 **** 0.06
6383 H 94.12142690830062 28.31961460162583 151.1930514354449 H 0.0 **** 0.06
6384 H 93.71494825821375 26.729546477749295 150.50481197357047 H 0.0 **** 0.06
6385 H 94.54709261138562 27.945218886390336 149.50514926144945 H 0.0 **** 0.06
6386 C 60.39942766324049 123.05813237179258 61.468695024159786 C 0.0 **** -0.24
6387 H 61.40285392714591 123.41758775260568 61.69480827852476 H 0.0 **** 0.06
6388 H 60.12596249711498 122.27540174331794 62.17693740380906 H 0.0 **** 0.06
6389 H 60.377791351123165 122.65571018990933 60.45580611769279 H 0.0 **** 0.06
6390 H 59.69151665895794 123.88370370610978 61.54632667722893 H 0.0 **** 0.06
6391 C 102.95579064634222 81.21325736436279 98.99537123973208 C 0.0 **** -0.24
6392 H 102.80984792419656 80.32968643900483 98.37460172666559 H 0.0 **** 0.06
6393 H 102.09259929771065 81.34399650510488 99.64993959122596 H 0.0 **** 0.06
6394 H 103.06501192249942 82.09114150482748 98.3584616503254 H 0.0 **** 0.06
6395 H 103.85440136853424 81.08886317802828 99.5994155419588 H 0.0 **** 0.06
6396 C 129.41052213458158 39.98269108919294 68.9558244974523 C 0.0 **** -0.24
6397 H 128.74326817816592 39.96070857408802 69.81716623106959 H 0.0 **** 0.06
6398 H 129.70075490426734 41.012228816396885 68.74737866888162 H 0.0 **** 0.06
6399 H 128.89747652208763 39.56731059400431 68.08839212670108 H 0.0 **** 0.06
6400 H 130.30002703775017 39.390087636175565 69.16965350946708 H 0.0 **** 0.06
6401 C 16.662964208725732 53.08328967844399 153.52490386586533 C 0.0 **** -0.24
6402 H 16.84776601025957 52.46740554324717 154.40530588343637 H 0.0 **** 0.06
6403 H 16.123146787919616 52.49855070902977 152.7796487543309 H 0.0 **** 0.06
6404 H 17.61356159012516 53.41684807354136 153.1080980314808 H 0.0 **** 0.06
6405 H 16.066712589410514 53.95076535380264 153.80810632784434 H 0.0 **** 0.06
6406 C 93.64046717040308 8.460021657350723 93.58295645609175 C 0.0 **** -0.24
6407 H 93.24441584200075 9.05518231361674 92.76001003228615 H 0.0 **** 0.06
6408 H 94.72606890209937 8.55762895009255 93.6107843447214 H 0.0 **** 0.06
6409 H 93.37236943098569 7.414496119224054 93.4369647984687 H 0.0 **** 0.06
6410 H 93.21989997451318 8.815775184539973 94.5235761114102 H 0.0 **** 0.06
6411 C 23.666414105995898 69.00803725712716 16.503222348917433 C 0.0 **** -0.24
6412 H 23.340488218779427 68.04931784933987 16.90730043798075 H 0.0 **** 0.06
6413 H 24.059143033661655 68.86345485211838 15.496680946925238 H 0.0 **** 0.06
6414 H 24.446672396357428 69.42424664236452 17.14144680793632 H 0.0 **** 0.06
6415 H 22.82057019883254 69.69417507453356 16.47003159035978 H 0.0 **** 0.06
6416 C 94.07656833584969 40.470216584769275 29.84360890859176 C 0.0 **** -0.24
6417 H 93.3479743386992 39.958516855603705 30.472642178163937 H 0.0 **** 0.06
6418 H 94.32251813346485 41.4361166798048 30.28531286977318 H 0.0 **** 0.06
6419 H 93.65627116441613 40.62133414822108 28.84944673249271 H 0.0 **** 0.06
6420 H 94.97962345762255 39.86372545836764 29.767815348956958 H 0.0 **** 0.06
6421 C 134.5033483611648 147.2138665557417 70.24326041913761 C 0.0 **** -0.24
6422 H 135.32219356446828 146.52935201809996 70.02127605089572 H 0.0 **** 0.06
6423 H 134.82254772378786 147.92871987574955 71.00159884285523 H 0.0 **** 0.06
6424 H 133.64791888087638 146.64865691239996 70.61463242687552 H 0.0 **** 0.06
6425 H 134.21954914748252 147.74722807909654 69.33609992724632 H 0.0 **** 0.06
6426 C 131.22715777742263 114.90351401665664 88.51158870831011 C 0.0 **** -0.24
6427 H 130.28845951134952 114.45540078040962 88.186658338033 H 0.0 **** 0.06
6428 H 131.56749156248247 115.61865039886167 87.76120972892147 H 0.0 **** 0.06
6429 H 131.97725141330727 114.12283874859124 88.63623749084593 H 0.0 **** 0.06
6430 H 131.07520668564814 115.4172387376418 89.46085444981895 H 0.0 **** 0.06
6431 C 148.66614129060423 74.47079115941995 115.50890131069131 C 0.0 **** -0.24
6432 H 149.25644629123815 74.0227024868733 116.30723154881893 H 0.0 **** 0.06
6433 H 147.9843830572581 75.20923281188675 115.93250767843811 H 0.0 **** 0.06
6434 H 148.09299682184303 73.6950804477998 115.00161247448015 H 0.0 **** 0.06
6435 H 149.329669834229 74.95832826884782 114.79458127493247 H 0.0 **** 0.06
6436 C 26.82681013354943 59.24578277039981 43.716010701719824 C 0.0 **** -0.24
6437 H 26.321842554724924 58.280809506861516 43.70562048801841 H 0.0 **** 0.06
6438 H 26.36162190962193 59.891306758731744 44.461371947145096 H 0.0 **** 0.06
6439 H 26.745220076519132 59.70932629739717 42.7324995651675 H 0.0 **** 0.06
6440 H 27.877956764980354 59.10327932195132 43.96421859011673 H 0.0 **** 0.06
6441 C 137.15824422732504 75.75370839976632 150.95355047038214 C 0.0 **** -0.24
6442 H 136.34374803537324 76.39289661255319 150.61220157929435 H 0.0 **** 0.06
6443 H 137.81440292660082 76.32442209675814 151.6122388446979 H 0.0 **** 0.06
6444 H 137.72560966521104 75.39753757796962 150.0934530976728 H 0.0 **** 0.06
6445 H 136.74800479750644 74.9028140402082 151.49700521163462 H 0.0 **** 0.06
6446 C 125.41165390704617 62.15197670608097 87.0515718891711 C 0.0 **** -0.24
6447 H 124.49658015211236 62.629845792009164 87.40059454226349 H 0.0 **** 0.06
6448 H 125.24713501446928 61.733753766370555 86.05815213780363 H 0.0 **** 0.06
6449 H 125.689993386315 61.35341234057091 87.74072341442664 H 0.0 **** 0.06
6450 H 126.21279994391153 62.88856316330953 87.00756016256435 H 0.0 **** 0.06
6451 C 121.48138638985193 91.40428029723903 100.76820249008364 C 0.0 **** -0.24
6452 H 120.84363699268766 92.04376424771235 101.37807759090742 H 0.0 **** 0.06
6453 H 122.3209107741315 91.05185122630996 101.36695136054612 H 0.0 **** 0.06
6454 H 121.85444569008757 91.97066859565132 99.91533808092771 H 0.0 **** 0.06
6455 H 120.90458298978729 90.54938516175915 100.4125637988318 H 0.0 **** 0.06
6456 C 41.15111169213458 65.58782879082568 106.17269167525434 C 0.0 **** -0.24
6457 H 41.76254222788532 65.3445233588 107.04132037621837 H 0.0 **** 0.06
6458 H 40.62897246534038 64.69275330130756 105.83412384269802 H 0.0 **** 0.06
6459 H 41.79055455020148 65.96200946877403 105.37286023068584 H 0.0 **** 0.06
6460 H 40.423722460249564 66.35341010622368 106.44397353743945 H 0.0 **** 0.06
6461 C 17.069705551834005 35.834328824084906 101.99929745326027 C 0.0 **** -0.24
6462 H 17.19826218790996 36.31466783183163 102.96930791831632 H 0.0 **** 0.06
6463 H 17.505134049938448 34.83566805396754 102.02838953886821 H 0.0 **** 0.06
6464 H 17.568279061226605 36.42529827306436 101.23170107357988 H 0.0 **** 0.06
6465 H 16.006701401902006 35.76141364626483 101.76864568562722 H 0.0 **** 0.06
6466 C 55.97021601662061 143.57761895552267 108.71130805608333 C 0.0 **** -0.24
6467 H 55.8674603314584 143.8580769875976 107.66317627882337 H 0.0 **** 0.06
6468 H 56.493134571391124 144.36933258288235 109.24908629344795 H 0.0 **** 0.06
6469 H 56.53834400342248 142.65119983750367 108.78486636701244 H 0.0 **** 0.06
6470 H 54.98145010159365 143.4340118354233 109.1470208424485 H 0.0 **** 0.06
6471 C 11.710615121477446 51.4737169701567 124.26124263306697 C 0.0 **** -0.24
6472 H 10.856273003679632 51.798141825430434 124.85611048391091 H 0.0 **** 0.06
6473 H 11.95894970476158 52.24513269306209 123.53161230121576 H 0.0 **** 0.06
6474 H 11.460520522047148 50.549052505856864 123.741989360852 H 0.0 **** 0.06
6475 H 12.56496974509841 51.30375343665051 124.91647331501404 H 0.0 **** 0.06
6476 C 54.52580141465336 102.42523548130993 17.441683509586767 C 0.0 **** -0.24
6477 H 55.25195105634617 102.2670783452021 18.23919820968078 H 0.0 **** 0.06
6478 H 53.54786184428889 102.63244041868006 17.876328175267616 H 0.0 **** 0.06
6479 H 54.467070803596016 101.52957019921934 16.822748852459 H 0.0 **** 0.06
6480 H 54.837903088920314 103.27120945077019 16.828165535971948 H 0.0 **** 0.06
6481 C 46.74979669582102 72.04495426070355 42.57448953260156 C 0.0 **** -0.24
6482 H 46.369543544603985 72.42963610519743 43.52114105810479 H 0.0 **** 0.06
6483 H 46.9093025289264 70.97004076117403 42.6577212528062 H 0.0 **** 0.06
6484 H 47.69253451867036 72.53605921618657 42.33542477524037 H 0.0 **** 0.06
6485 H 46.02502798467009 72.24498994896777 41.78434602691655 H 0.0 **** 0.06
6486 C 98.40553765872141 8.397391419593163 146.4510936962774 C 0.0 **** -0.24
6487 H 99.15784339318668 9.003895819189125 146.95526446386629 H 0.0 **** 0.06
6488 H 97.78242732260912 7.899380495210664 147.1956676569611 H 0.0 **** 0.06
6489 H 98.89711394786764 7.649914891037241 145.82920364959452 H 0.0 **** 0.06
6490 H 97.78199501622242 9.037588946879225 145.82644067704257 H 0.0 **** 0.06
6491 C 124.45489550773068 122.12775077471893 77.41650550116789 C 0.0 **** -0.24
6492 H 124.41483853493087 121.24117934461746 78.04914536792285 H 0.0 **** 0.06
6493 H 123.45225180929692 122.36120472001254 77.05535510372799 H 0.0 **** 0.06
6494 H 125.11192948938957 121.93931276906143 76.5673116813962 H 0.0 **** 0.06
6495 H 124.83838417630004 122.96880211522766 77.99425696923933 H 0.0 **** 0.06
6496 C 55.96686206112349 1.7785593862882472 153.4607817579596 C 0.0 **** -0.24
6497 H 56.786145831070655 1.1965312264631116 153.04070088148168 H 0.0 **** 0.06
6498 H 55.45979945643404 1.1926607764773358 154.22739183114797 H 0.0 **** 0.06
6499 H 55.25970653196623 2.0329516689790204 152.671467951326 H 0.0 **** 0.06
6500 H 56.360878997006466 2.693089904930794 153.9031585544548 H 0.0 **** 0.06
6501 C 92.08915481278898 48.77169141614115 109.25621827868804 C 0.0 **** -0.24
6502 H 92.97822148505666 49.353440773857045 109.4982281681439 H 0.0 **** 0.06
6503 H 92.16603150752456 48.397814161520614 108.23502218710706 H 0.0 **** 0.06
6504 H 91.20613327406708 49.405075058887405 109.3449528054694 H 0.0 **** 0.06
6505 H 92.00506732605297 47.93258832899318 109.94658337334721 H 0.0 **** 0.06
6506 C 109.15635825572703 93.11202455232342 85.1098648241962 C 0.0 **** -0.24
6507 H 109.3178438721712 92.36536382728295 84.33189833936302 H 0.0 **** 0.06
6508 H 108.98548562022997 92.61026324532935 86.06321673242738 H 0.0 **** 0.06
6509 H 108.28763689675425 93.71849034805422 84.85685482890403 H 0.0 **** 0.06
6510 H 110.03607993703535 93.75060720502893 85.18761839965538 H 0.0 **** 0.06
6511 C 152.37236885043382 81.00018764841171 18.057125683199956 C 0.0 **** -0.24
6512 H 151.3157103668411 80.83667523140669 17.84232286206725 H 0.0 **** 0.06
6513 H 152.48755546865226 81.31098201770828 19.095283454823004 H 0.0 **** 0.06
6514 H 152.76057514898346 81.77688248706517 17.398866888234693 H 0.0 **** 0.06
6515 H 152.92303359739853 80.07420749213003 17.891557699921066 H 0.0 **** 0.06
6516 C 155.72208618999144 65.81364617718724 6.276825008846856 C 0.0 **** -0.24
6517 H 154.71368172910832 65.67799142099979 5.886922616530171 H 0.0 **** 0.06
6518 H 156.33502537566744 66.31860572644231 5.528484068055548 H 0.0 **** 0.06
6519 H 156.15681193482504 64.84179304347369 6.506841592361354 H 0.0 **** 0.06
6520 H 155.68316753100237 66.41835462077506 7.182998124169899 H 0.0 **** 0.06
6521 C 31.25344262361648 33.440905541584016 135.04039835941884 C 0.0 **** -0.24
6522 H 32.26083670851466 33.51418526123557 135.44890647264856 H 0.0 **** 0.06
6523 H 30.535691689601663 33.7932110374715 135.78133432890053 H 0.0 **** 0.06
6524 H 31.03764070062175 32.40186014672884 134.79118585024463 H 0.0 **** 0.06
6525 H 31.179907036587053 34.053303457491324 134.14235273542656 H 0.0 **** 0.06
6526 C 99.9048986742268 135.77577075816106 74.07101896323815 C 0.0 **** -0.24
6527 H 99.01348703416052 135.6409279623943 74.68456473687353 H 0.0 **** 0.06
6528 H 100.30663181120765 134.8001093614509 73.79608074742264 H 0.0 **** 0.06
6529 H 100.65316737524104 136.33124167796058 74.63635220822954 H 0.0 **** 0.06
6530 H 99.64381680801885 136.32945608822368 73.16907190827706 H 0.0 **** 0.06
6531 C 28.526908105741768 83.37853654344102 152.03304303414723 C 0.0 **** -0.24
6532 H 28.88287365239117 83.70383211799525 151.05536210502703 H 0.0 **** 0.06
6533 H 27.818932980344357 82.5584338742951 151.90696545202292 H 0.0 **** 0.06
6534 H 28.03306720056821 84.21128394599906 152.5342551747625 H 0.0 **** 0.06
6535 H 29.371595459241803 83.0416148873641 152.63265515291295 H 0.0 **** 0.06
6536 C 33.066255202840125 76.60721527957293 144.5292243221569 C 0.0 **** -0.24
6537 H 33.62313849896259 77.54319253442613 144.59630134951738 H 0.0 **** 0.06
6538 H 33.37806427410436 75.94108484936461 145.3335053768862 H 0.0 **** 0.06
6539 H 33.26500355248302 76.13525294305818 143.56687546335553 H 0.0 **** 0.06
6540 H 32.000088110792944 76.8128401448212 144.61996455154153 H 0.0 **** 0.06
6541 C 40.3286566181942 156.0887111602029 92.42159508595333 C 0.0 **** -0.24
6542 H 40.82533805951991 155.1604101498682 92.70495611276023 H 0.0 **** 0.06
6543 H 40.31501847246477 156.7674545473856 93.27424629224119 H 0.0 **** 0.06
6544 H 39.30548326477479 155.87291625009112 92.1120913640947 H 0.0 **** 0.06
6545 H 40.8689209029219 156.55211021311075 91.59616641747724 H 0.0 **** 0.06
6546 C 92.76770734450838 67.89038246082163 23.152697912496308 C 0.0 **** -0.24
6547 H 91.99804819980676 67.23080854404262 23.55398176639457 H 0.0 **** 0.06
6548 H 92.42208665287376 68.32164156851019 22.21318655482895 H 0.0 **** 0.06
6549 H 93.67970587454616 67.31903187410427 22.977595418312973 H 0.0 **** 0.06
6550 H 92.97009362269233 68.6885707381469 23.867448195072313 H 0.0 **** 0.06
6551 C 32.95803869079353 68.7616569726869 153.0053246071423 C 0.0 **** -0.24
6552 H 32.545360907440546 67.8304572124163 153.39170742239833 H 0.0 **** 0.06
6553 H 32.213555702544596 69.25956534964035 152.38313248398543 H 0.0 **** 0.06
6554 H 33.843956187290715 68.5455488698281 152.40834877611775 H 0.0 **** 0.06
6555 H 33.230098184499326 69.41245686155837 153.83656934928962 H 0.0 **** 0.06
6556 C 109.0304317075051 42.667074508888305 66.90189678849913 C 0.0 **** -0.24
6557 H 108.307136848053 43.27743983108735 66.35966856788163 H 0.0 **** 0.06
6558 H 108.52515906904421 42.13796033230065 67.71054161457329 H 0.0 **** 0.06
6559 H 109.80863958484406 43.308102318993505 67.31611957573621 H 0.0 **** 0.06
6560 H 109.47899154241907 41.94469154558453 66.21907789714791 H 0.0 **** 0.06
6561 C 37.388431394921 23.323619243448775 23.365613107557067 C 0.0 **** -0.24
6562 H 37.82214278734057 22.537137037279933 22.747195877041037 H 0.0 **** 0.06
6563 H 36.38885085588194 23.560527858386337 23.002919457324452 H 0.0 **** 0.06
6564 H 38.0151910284812 24.213609177959142 23.310686396725572 H 0.0 **** 0.06
6565 H 37.330609801315205 22.982686078969948 24.39894601008092 H 0.0 **** 0.06
6566 C 40.943542235154666 5.503743128839282 117.63503819913693 C 0.0 **** -0.24
6567 H 41.623810915517666 6.028883753939596 118.30641183267632 H 0.0 **** 0.06
6568 H 39.968418541173165 5.404207950489841 118.11140065306098 H 0.0 **** 0.06
6569 H 41.34272813579153 4.513747842520694 117.41543945917577 H 0.0 **** 0.06
6570 H 40.84002299466323 6.068516527378208 116.70838213826464 H 0.0 **** 0.06
6571 C 17.196156964791527 22.892574922173225 78.91415817585212 C 0.0 **** -0.24
6572 H 16.91573882081184 23.249053513373056 79.90579943200576 H 0.0 **** 0.06
6573 H 17.720224893305556 21.940926108897322 79.00533399294885 H 0.0 **** 0.06
6574 H 17.84744128133292 23.623429990939613 78.43625940711381 H 0.0 **** 0.06
6575 H 16.298231541890885 22.756458288562996 78.31204452945474 H 0.0 **** 0.06
6576 C 91.61899660688056 121.01488935905984 69.60079178617178 C 0.0 **** -0.24
6577 H 91.85296798272758 120.49446058261715 70.52908803717577 H 0.0 **** 0.06
6578 H 90.57667546625676 121.33280467121533 69.61667114048595 H 0.0 **** 0.06
6579 H 91.78192935393143 120.34337111179865 68.75795323298448 H 0.0 **** 0.06
6580 H 92.26488174613466 121.88708488998834 69.50100698990371 H 0.0 **** 0.06
6581 C 82.75334265142668 56.690793645851215 135.3468411554014 C 0.0 **** -0.24
6582 H 83.68096345217292 56.1209308149314 135.2918077117174 H 0.0 **** 0.06
6583 H 82.74809663066507 57.45250057974113 134.56679005655758 H 0.0 **** 0.06
6584 H 82.67763207993401 57.167763436271684 136.32366221218754 H 0.0 **** 0.06
6585 H 81.90558211448315 56.01920987270253 135.20474950314207 H 0.0 **** 0.06
6586 C 44.56510630468847 140.05588233611405 87.83069016092152 C 0.0 **** -0.24
6587 H 44.86728291427937 140.87982384048095 87.18465738540039 H 0.0 **** 0.06
6588 H 43.484485983496484 139.92098191981853 87.76558764406934 H 0.0 **** 0.06
6589 H 44.84204452835468 140.2804553795105 88.86069396545511 H 0.0 **** 0.06
6590 H 45.065746058743855 139.14126078878922 87.51133617657835 H 0.0 **** 0.06
6591 C 75.37473251868424 143.63096447356688 14.990410843781717 C 0.0 **** -0.24
6592 H 74.77989498918613 144.50550596086902 14.72524259576113 H 0.0 **** 0.06
6593 H 76.36582141668964 143.95065719806928 15.313649233529986 H 0.0 **** 0.06
6594 H 75.46926325195476 142.97931367013283 14.122116064925137 H 0.0 **** 0.06
6595 H 74.88547602087961 143.0898712250706 15.799963083100636 H 0.0 **** 0.06
6596 C 107.64353675704054 53.78053910909972 31.307641186341243 C 0.0 **** -0.24
6597 H 108.14326766695889 53.32493098745829 30.45296702757031 H 0.0 **** 0.06
6598 H 107.59151571156077 53.06039981846607 32.124230363781066 H 0.0 **** 0.06
6599 H 106.63469034666407 54.078829063492094 31.02003774623313 H 0.0 **** 0.06
6600 H 108.20375062534676 54.658384950438176 31.63050151350592 H 0.0 **** 0.06
6601 C 117.02290721821295 95.62107082664181 58.595978384209715 C 0.0 **** -0.24
6602 H 116.89291805556816 95.62755518168913 59.67799891495726 H 0.0 **** 0.06
6603 H 117.23372392577876 96.63314221679866 58.249927086682504 H 0.0 **** 0.06
6604 H 116.11037013616412 95.25718873505127 58.12295661535691 H 0.0 **** 0.06
6605 H 117.85379919172088 94.96703630880734 58.33399173214545 H 0.0 **** 0.06
6606 C 15.037786727633119 50.76003261223728 23.614243095408945 C 0.0 **** -0.24
6607 H 14.478240826312742 51.56917628920132 23.14532566989388 H 0.0 **** 0.06
6608 H 15.943093626008107 50.56297755278726 23.0401661055823 H 0.0 **** 0.06
6609 H 14.421305674578718 49.86134095284588 23.640398260555486 H 0.0 **** 0.06
6610 H 15.306366907932784 51.04600359650357 24.63122930788513 H 0.0 **** 0.06
6611 C 65.65909226079455 13.854014284360517 39.37903351788725 C 0.0 **** -0.24
6612 H 65.93778643046247 14.694243858834852 38.74267551370076 H 0.0 **** 0.06
6613 H 66.52969588800617 13.21839979855497 39.543046460502524 H 0.0 **** 0.06
6614 H 64.8733417615742 13.275940348397398 38.89388991986971 H 0.0 **** 0.06
6615 H 65.29687945492023 14.227912463391533 40.33636036152757 H 0.0 **** 0.06
6616 C 36.307796109399504 58.728645468919055 101.49660407493327 C 0.0 **** -0.24
6617 H 36.19281098457441 58.670667541903626 102.5789273394919 H 0.0 **** 0.06
6618 H 35.33678067099939 58.914322575025906 101.03754340234237 H 0.0 **** 0.06
6619 H 36.713092326391575 57.78804017368276 101.12362106365744 H 0.0 **** 0.06
6620 H 36.988947669123974 59.54271394078202 101.24752824958473 H 0.0 **** 0.06
6621 C 124.19825885116398 65.86600442219898 130.21466679671323 C 0.0 **** -0.24
6622 H 124.73573929420121 66.37643896040518 131.01480308316584 H 0.0 **** 0.06
6623 H 123.13341939251728 66.08227657464273 130.29750359686952 H 0.0 **** 0.06
6624 H 124.35913054360992 64.79108532340716 130.29908191518965 H 0.0 **** 0.06
6625 H 124.567005999576 66.21409407582604 129.2502582857181 H 0.0 **** 0.06
6626 C 33.71943384558642 135.23300568972888 53.37586508268993 C 0.0 **** -0.24
6627 H 33.76991179783968 136.3072700057158 53.554685780554195 H 0.0 **** 0.06
6628 H 34.2065258518587 134.99924206499674 52.42854536061023 H 0.0 **** 0.06
6629 H 32.676374798410976 134.91998364542974 53.335545385514905 H 0.0 **** 0.06
6630 H 34.225535480916506 134.7062996447472 54.18451675527237 H 0.0 **** 0.06
6631 C 37.688001159115345 25.807039288290127 19.75954036762061 C 0.0 **** -0.24
6632 H 36.689806886263 25.498737919641634 19.45132927671642 H 0.0 **** 0.06
6633 H 37.684560185211524 26.038007463057383 20.82547168844333 H 0.0 **** 0.06
6634 H 37.98494310152205 26.691412462474936 19.19600666425646 H 0.0 **** 0.06
6635 H 38.393171792333135 24.99915128654392 19.56558416547692 H 0.0 **** 0.06
6636 C 55.24724170798129 70.29415373563889 109.41465501088844 C 0.0 **** -0.24
6637 H 55.58848498649513 71.04285966386229 110.12853180767037 H 0.0 **** 0.06
6638 H 54.26197194183787 70.57283104479428 109.03926034310656 H 0.0 **** 0.06
6639 H 55.18856400929552 69.32329991284338 109.90547006196688 H 0.0 **** 0.06
6640 H 55.95038096836498 70.23820011028734 108.5834925406143 H 0.0 **** 0.06
6641 C 15.76019714670366 76.85626512910412 23.91222810637573 C 0.0 **** -0.24
6642 H 16.69512026695645 77.31129184923724 24.24103222947995 H 0.0 **** 0.06
6643 H 15.847518046682325 76.5619934311934 22.86626878395078 H 0.0 **** 0.06
6644 H 14.947929482956141 77.57478592857069 24.02268524329346 H 0.0 **** 0.06
6645 H 15.55172020567639 75.97660521368651 24.52149609450582 H 0.0 **** 0.06
6646 C 62.36524765507204 113.03460471152734 131.55264125290114 C 0.0 **** -0.24
6647 H 62.06458030811541 112.24181793317881 132.23709206797977 H 0.0 **** 0.06
6648 H 61.481049642504104 113.56543852543423 131.20032180240193 H 0.0 **** 0.06
6649 H 62.89058187820194 112.59932327906985 130.70134649416863 H 0.0 **** 0.06
6650 H 63.02577743146344 113.72960444865446 132.07006991168328 H 0.0 **** 0.06
6651 C 60.58045781845979 50.56745858054781 4.171544140705237 C 0.0 **** -0.24
6652 H 60.20970381525524 51.26613484227033 3.421711750463544 H 0.0 **** 0.06
6653 H 60.330827957385 50.93674000265436 5.167024369374417 H 0.0 **** 0.06
6654 H 61.66281482694504 50.47605207713461 4.078684889646524 H 0.0 **** 0.06
6655 H 60.11902796521582 49.59139436670155 4.019439461985371 H 0.0 **** 0.06
6656 C 62.93491010730101 113.17154273157314 29.305463070194875 C 0.0 **** -0.24
6657 H 63.31796678156002 112.20944303435812 28.965181672139295 H 0.0 **** 0.06
6658 H 63.678584230745585 113.65414065756732 29.940005209910424 H 0.0 **** 0.06
6659 H 62.01784614212643 113.01661964256118 29.873019375433387 H 0.0 **** 0.06
6660 H 62.72593079668917 113.80421933601076 28.442433143237167 H 0.0 **** 0.06
6661 C 14.614443317404977 151.35238227784765 114.26859358208513 C 0.0 **** -0.24
6662 H 14.700449736296406 152.09683030165576 115.05982217855235 H 0.0 **** 0.06
6663 H 15.466054236841984 150.67356360953318 114.3160038596369 H 0.0 **** 0.06
6664 H 14.601256812819884 151.85189645347992 113.2993400500779 H 0.0 **** 0.06
6665 H 13.691157348844342 150.788027974846 114.39895042661219 H 0.0 **** 0.06
6666 C 78.86436166562754 146.1638025608495 100.93435449733751 C 0.0 **** -0.24
6667 H 79.85357103510177 145.7243230174215 100.81224317085766 H 0.0 **** 0.06
6668 H 78.44674045370482 146.3957438192826 99.95471250121803 H 0.0 **** 0.06
6669 H 78.94353396553004 147.0782299973735 101.52270039680617 H 0.0 **** 0.06
6670 H 78.21436034787575 145.45564191671215 101.44866031409477 H 0.0 **** 0.06
6671 C 110.62376985272192 51.642531413344614 96.11115609917773 C 0.0 **** -0.24
6672 H 111.68540021789141 51.68196089726273 96.35521747903282 H 0.0 **** 0.06
6673 H 110.0849216185917 51.140571597646314 96.91430152251453 H 0.0 **** 0.06
6674 H 110.48603858205217 51.09079319068225 95.1811793756306 H 0.0 **** 0.06
6675 H 110.24108559020169 52.65644313190428 95.99340440849885 H 0.0 **** 0.06
6676 C 101.83306611393336 120.33051238223617 81.86687022240368 C 0.0 **** -0.24
6677 H 101.80191806347243 121.20247627051423 81.21402381784415 H 0.0 **** 0.06
6678 H 101.74636506720434 119.42430828966847 81.26754582276072 H 0.0 **** 0.06
6679 H 101.0067040532084 120.37891911008519 82.57572506722744 H 0.0 **** 0.06
6680 H 102.77720804829009 120.31789584919387 82.41095613966766 H 0.0 **** 0.06
6681 C 78.6832368299142 49.8087261971438 21.188830461974703 C 0.0 **** -0.24
6682 H 78.17764472863689 49.07207055503102 20.56485310032332 H 0.0 **** 0.06
6683 H 78.78197830374064 50.7453249075901 20.639068982886812 H 0.0 **** 0.06
6684 H 79.67298267277901 49.437940225207456 21.457243639548324 H 0.0 **** 0.06
6685 H 78.10163962589476 49.977872120853434 22.094816116360533 H 0.0 **** 0.06
6686 C 113.83672326752816 123.9088005965524 41.079369160068154 C 0.0 **** -0.24
6687 H 114.85776112598438 124.28609387632395 41.13296143504664 H 0.0 **** 0.06
6688 H 113.7708089424973 122.96344233429971 41.61850434600581 H 0.0 **** 0.06
6689 H 113.56180415158013 123.75261428934914 40.03655087925759 H 0.0 **** 0.06
6690 H 113.15741311627653 124.63285919475993 41.52986394835477 H 0.0 **** 0.06
6691 C 29.627541887550763 147.27816600383835 150.03834641477405 C 0.0 **** -0.24
6692 H 28.961920442746305 148.1151757300978 149.82965656908013 H 0.0 **** 0.06
6693 H 30.34529639885102 147.56626181121771 150.80656835272237 H 0.0 **** 0.06
6694 H 30.161014203754178 147.00256746647443 149.12757670267789 H 0.0 **** 0.06
6695 H 29.042828938879495 146.42680024124775 150.38740485076937 H 0.0 **** 0.06
6696 C 153.37861219826488 23.468674438219523 133.88580123921543 C 0.0 **** -0.24
6697 H 153.2397570235496 24.537497380589457 133.7195379883425 H 0.0 **** 0.06
6698 H 152.4497586244011 22.943878064944897 133.6615458313007 H 0.0 **** 0.06
6699 H 153.65305168091612 23.2955016710888 134.92605832889134 H 0.0 **** 0.06
6700 H 154.17060084961219 23.099706564373548 133.23365372977426 H 0.0 **** 0.06
6701 C 140.83892523962885 52.713841578205574 14.952439955371233 C 0.0 **** -0.24
6702 H 140.9866284029904 51.80327390059148 15.532563158875433 H 0.0 **** 0.06
6703 H 141.76104325145485 53.295035799246136 14.947508312405489 H 0.0 **** 0.06
6704 H 140.03975454618933 53.30430581077144 15.40068750819131 H 0.0 **** 0.06
6705 H 140.56755166499772 52.452718381800366 13.929690855163813 H 0.0 **** 0.06
6706 C 15.444938618879533 113.36674384628714 44.39346358488913 C 0.0 **** -0.24
6707 H 16.33435117771902 112.78996878942598 44.64945292556621 H 0.0 **** 0.06
6708 H 14.640511260724189 112.68703274338111 44.11194605154151 H 0.0 **** 0.06
6709 H 15.67132892289846 114.02950878771912 43.55762821401902 H 0.0 **** 0.06
6710 H 15.136597527960113 113.95919708176729 45.25439713620307 H 0.0 **** 0.06
6711 C 2.342686536311625 44.65038664690155 16.441024557083466 C 0.0 **** -0.24
6712 H 2.334880879347512 43.6726870591819 15.957149238691727 H 0.0 **** 0.06
6713 H 1.8081703976396746 44.59028881008575 17.389010007978726 H 0.0 **** 0.06
6714 H 1.8545024882369816 45.378751508720825 15.793616934158564 H 0.0 **** 0.06
6715 H 3.3720025504647886 44.957484887106574 16.621650774450018 H 0.0 **** 0.06
6716 C 117.98532380111226 35.53430908119003 63.15414375534232 C 0.0 **** -0.24
6717 H 117.1904124848183 35.572056198382086 63.89912619280457 H 0.0 **** 0.06
6718 H 118.78229396790772 36.22236253100414 63.43937828033637 H 0.0 **** 0.06
6719 H 117.58573475458877 35.82275066548084 62.18269192012184 H 0.0 **** 0.06
6720 H 118.38287310283727 34.52140371029611 63.098064320954336 H 0.0 **** 0.06
6721 C 114.89389487579398 156.3970822594502 21.578767944418985 C 0.0 **** -0.24
6722 H 114.27835450963472 155.60598663423343 21.15025254393862 H 0.0 **** 0.06
6723 H 114.25880595022367 157.23461291228978 21.868348936815153 H 0.0 **** 0.06
6724 H 115.62088405407529 156.73137457734344 20.838898335694978 H 0.0 **** 0.06
6725 H 115.4162804020552 156.01577222447105 22.455815075707903 H 0.0 **** 0.06
6726 C 56.29507391714428 26.45939045860831 25.097976045208377 C 0.0 **** -0.24
6727 H 56.090821238392266 26.422777698988313 24.027862488901043 H 0.0 **** 0.06
6728 H 56.07028328051872 27.45700668608447 25.47700077607002 H 0.0 **** 0.06
6729 H 57.34601430070694 26.230922508782868 25.275267830916256 H 0.0 **** 0.06
6730 H 55.67227608772917 25.726992008609017 25.611360927074955 H 0.0 **** 0.06
6731 C 150.77958870501283 100.8636301195725 116.28295455988645 C 0.0 **** -0.24
6732 H 150.51056344886842 99.81333308614471 116.16975459943275 H 0.0 **** 0.06
6733 H 150.24502859981794 101.28617289927963 117.13324318018287 H 0.0 **** 0.06
6734 H 150.51072863345468 101.40587812684204 115.37700478324489 H 0.0 **** 0.06
6735 H 151.85409909148507 100.94721062197273 116.45007560926435 H 0.0 **** 0.06
6736 C 36.343672294110945 122.3204695655856 23.060060077133798 C 0.0 **** -0.24
6737 H 36.05631114250224 123.11946667081827 23.742775121593546 H 0.0 **** 0.06
6738 H 35.98504632174502 122.55353068933846 22.05721531710848 H 0.0 **** 0.06
6739 H 35.902212232433556 121.3808115877626 23.394423083260214 H 0.0 **** 0.06
6740 H 37.42958588867032 122.22650156391211 23.046263157338792 H 0.0 **** 0.06
6741 C 56.70606361808245 94.7753455132709 37.227602677294385 C 0.0 **** -0.24
6742 H 57.71824318151985 95.16728076775071 37.125270010529874 H 0.0 **** 0.06
6743 H 56.514722556010156 94.05106594566946 36.434920254308224 H 0.0 **** 0.06
6744 H 55.989950009275816 95.5940526461736 37.15328163143869 H 0.0 **** 0.06
6745 H 56.60196328761582 94.28831497140605 38.19734390790376 H 0.0 **** 0.06
6746 C 137.76670686449677 88.90073712100559 25.6323164399019 C 0.0 **** -0.24
6747 H 137.08382477190088 88.46164266457284 24.905187999580562 H 0.0 **** 0.06
6748 H 137.31590686356532 88.86117336434388 26.623962919701285 H 0.0 **** 0.06
6749 H 137.9651136013576 89.93811743837355 25.364444290981794 H 0.0 **** 0.06
6750 H 138.70223438479155 88.34062535435329 25.63559763105536 H 0.0 **** 0.06
6751 C 43.22978440059532 71.87753372974221 104.0383111856005 C 0.0 **** -0.24
6752 H 42.847381128096416 72.46773772344366 103.20500951025046 H 0.0 **** 0.06
6753 H 42.496533611424084 71.11767826995008 104.31017265570175 H 0.0 **** 0.06
6754 H 43.41158971303787 72.52971921678063 104.892358947723 H 0.0 **** 0.06
6755 H 44.16106350658393 71.3946146822627 103.7442039683856 H 0.0 **** 0.06
6756 C 122.55578904526953 13.606922492953665 123.00501668166656 C 0.0 **** -0.24
6757 H 122.52884803242148 14.696163949215013 122.9749018660131 H 0.0 **** 0.06
6758 H 123.29871618553653 13.282454005724603 123.73346649340566 H 0.0 **** 0.06
6759 H 122.82067340311067 13.223230745615162 122.0197428148952 H 0.0 **** 0.06
6760 H 121.57518809193022 13.227158821789338 123.29151797007982 H 0.0 **** 0.06
6761 C 146.23966640859584 78.69823790473822 108.16436038813589 C 0.0 **** -0.24
6762 H 145.20383961103295 78.55383837170129 107.85875400489385 H 0.0 **** 0.06
6763 H 146.47765353373472 79.76265886783898 108.15072703127333 H 0.0 **** 0.06
6764 H 146.89842596788003 78.1698416794354 107.47532777810505 H 0.0 **** 0.06
6765 H 146.37919201905066 78.30750518447906 109.17270370379782 H 0.0 **** 0.06
6766 C 112.07814583324006 27.805582397726425 12.962132599087447 C 0.0 **** -0.24
6767 H 112.66382430804902 27.80494898241659 12.0417494941643 H 0.0 **** 0.06
6768 H 111.9294514351036 26.77921905902383 13.297872005315739 H 0.0 **** 0.06
6769 H 111.11043737074436 28.27200071800928 12.777084070444552 H 0.0 **** 0.06
6770 H 112.6105164151532 28.365988809944497 13.730321293990599 H 0.0 **** 0.06
6771 C 130.74734221284595 144.37022741023765 145.55729037234192 C 0.0 **** -0.24
6772 H 131.35441548054143 145.0701046445999 146.1323535052534 H 0.0 **** 0.06
6773 H 130.15878560244568 143.75522283289018 146.23795266135176 H 0.0 **** 0.06
6774 H 131.3982567613807 143.73171374859697 144.95953771040388 H 0.0 **** 0.06
6775 H 130.07921906225138 144.9259044592398 144.89893852121364 H 0.0 **** 0.06
6776 C 56.980982775850975 32.50604655764556 48.22339716387009 C 0.0 **** -0.24
6777 H 57.446683734249845 31.815363188553874 48.926948013626614 H 0.0 **** 0.06
6778 H 55.90883593792033 32.312034313964205 48.18036104838882 H 0.0 **** 0.06
6779 H 57.41638462879615 32.3636392893672 47.23399426854186 H 0.0 **** 0.06
6780 H 57.15259717336694 33.52991727861337 48.55276300289218 H 0.0 **** 0.06
6781 C 92.9990636474216 149.54116550365086 35.029954757196954 C 0.0 **** -0.24
6782 H 92.04931239400372 149.02903019764312 34.874459842109324 H 0.0 **** 0.06
6783 H 93.67014051120414 149.32118960953142 34.199086445335546 H 0.0 **** 0.06
6784 H 93.44848898138821 149.19663245327013 35.96190247761736 H 0.0 **** 0.06
6785 H 92.8268832867947 150.61609980196278 35.0845519097792 H 0.0 **** 0.06
6786 C 85.7467141685043 101.21200377582007 14.419295212704867 C 0.0 **** -0.24
6787 H 85.81171308400279 101.82955627154162 15.315192378211606 H 0.0 **** 0.06
6788 H 86.09600124660713 100.20437394952104 14.646315841459938 H 0.0 **** 0.06
6789 H 86.3668756346623 101.6446042665033 13.634053052321917 H 0.0 **** 0.06
6790 H 84.71101880820117 101.17011298207676 14.08182675535889 H 0.0 **** 0.06
6791 C 128.91132460434136 90.04811230768883 71.79125585727812 C 0.0 **** -0.24
6792 H 128.23611022348837 89.6668553547405 72.5580885547372 H 0.0 **** 0.06
6793 H 129.29185853486138 89.21613357059118 71.1973054939076 H 0.0 **** 0.06
6794 H 129.74397926799855 90.56693267878234 72.26643825457404 H 0.0 **** 0.06
6795 H 128.37168110510999 90.7405896982981 71.14530258897486 H 0.0 **** 0.06
6796 C 139.25785809343301 61.708095493246574 10.037638239346734 C 0.0 **** -0.24
6797 H 139.7364787992825 61.77215581120416 9.06079938689166 H 0.0 **** 0.06
6798 H 139.98529641587527 61.945069221921344 10.814145558071175 H 0.0 **** 0.06
6799 H 138.87910915260784 60.69777527390586 10.18988784262956 H 0.0 **** 0.06
6800 H 138.4322686420258 62.41695693396056 10.084029250049866 H 0.0 **** 0.06
6801 C 66.70444854281236 51.25911318691182 12.392334730257005 C 0.0 **** -0.24
6802 H 67.45293627173234 50.9296892656905 13.113687420310782 H 0.0 **** 0.06
6803 H 66.68626925243044 52.34840248621441 12.360459971660475 H 0.0 **** 0.06
6804 H 65.72402787785438 50.88788043755011 12.692145109268097 H 0.0 **** 0.06
6805 H 66.95400168650457 50.8696756154298 11.40588187153395 H 0.0 **** 0.06
6806 C 100.1381891412144 153.52785662057866 77.39118107463086 C 0.0 **** -0.24
6807 H 100.8101010328461 153.15464578882728 78.16455535702555 H 0.0 **** 0.06
6808 H 99.65455253793549 152.6859556680694 76.89444458812441 H 0.0 **** 0.06
6809 H 100.70851547190883 154.10236929761297 76.66160605058846 H 0.0 **** 0.06
6810 H 99.38055997134735 154.16592565783805 77.84540414161685 H 0.0 **** 0.06
6811 C 4.5766932949455 68.49128196991444 103.09509816097928 C 0.0 **** -0.24
6812 H 5.175899266254973 68.69684375031937 103.98156654608694 H 0.0 **** 0.06
6813 H 5.235026107632706 68.3489802223466 102.23721306330818 H 0.0 **** 0.06
6814 H 3.9082586109649284 69.33106596727907 102.90523088695257 H 0.0 **** 0.06
6815 H 3.9892454904459527 67.58755073836653 103.25549638819392 H 0.0 **** 0.06
6816 C 57.08424958529707 59.81566320451648 3.628766467466633 C 0.0 **** -0.24
6817 H 56.27940320628653 60.4472689060904 4.0038307171412555 H 0.0 **** 0.06
6818 H 56.69496852762012 58.81997454624144 3.415145213376263 H 0.0 **** 0.06
6819 H 57.870352688180105 59.74498336668661 4.3803394405718095 H 0.0 **** 0.06
6820 H 57.492273919101194 60.25042599904738 2.7157504987773144 H 0.0 **** 0.06
6821 C 112.28021752636239 145.84782625778178 87.9503110105611 C 0.0 **** -0.24
6822 H 112.18970471207523 144.80470094503264 87.64551973907577 H 0.0 **** 0.06
6823 H 113.1764602791561 145.97199260996578 88.558243014092 H 0.0 **** 0.06
6824 H 111.40344113406705 146.13235758501224 88.53295737639205 H 0.0 **** 0.06
6825 H 112.34855679337322 146.4807456937604 87.06570579192174 H 0.0 **** 0.06
6826 C 60.123903466057854 112.46259335927397 69.9320420363665 C 0.0 **** -0.24
6827 H 59.76397241368802 112.78869119366749 68.956060211893 H 0.0 **** 0.06
6828 H 59.32966858044698 111.9230275562785 70.4494629604134 H 0.0 **** 0.06
6829 H 60.41580704463138 113.33280205013529 70.52111745692112 H 0.0 **** 0.06
6830 H 60.98445700161696 111.80723540690826 69.80111760011717 H 0.0 **** 0.06
6831 C 2.2382045178370333 73.57987618631421 116.03779596357936 C 0.0 **** -0.24
6832 H 2.4662932337510597 73.00892322640016 116.93768090990329 H 0.0 **** 0.06
6833 H 3.0359631493011534 74.30026372846197 115.85307544072356 H 0.0 **** 0.06
6834 H 1.294266882642404 74.10888134627407 116.1726550884868 H 0.0 **** 0.06
6835 H 2.155923829091904 72.90199106050176 115.18851727063304 H 0.0 **** 0.06
6836 C 62.15762895902853 20.597651823979135 151.56940949952323 C 0.0 **** -0.24
6837 H 62.31206180340382 19.533462206379937 151.39156512546097 H 0.0 **** 0.06
6838 H 62.92110196560748 21.168578918612894 151.04061851639904 H 0.0 **** 0.06
6839 H 62.22667518001356 20.80064844763828 152.63829895786537 H 0.0 **** 0.06
6840 H 61.170849632088036 20.887222028722704 151.2078526793659 H 0.0 **** 0.06
6841 C 119.60817518409472 120.96997286137395 141.55415318009454 C 0.0 **** -0.24
6842 H 120.30461001264958 120.90940234134871 140.71790297257724 H 0.0 **** 0.06
6843 H 119.10185006422596 121.93546643787971 141.5353190707175 H 0.0 **** 0.06
6844 H 120.15388158264638 120.86355576171809 142.49096562350746 H 0.0 **** 0.06
6845 H 118.87094642928646 120.17208309312633 141.47052112769035 H 0.0 **** 0.06
6846 C 131.29530848600393 129.51285866821428 129.11101330439396 C 0.0 **** -0.24
6847 H 131.76058826786635 128.7541710850167 128.48163460261162 H 0.0 **** 0.06
6848 H 130.278613688481 129.20541459476763 129.35791922909425 H 0.0 **** 0.06
6849 H 131.26918073101712 130.46193851062515 128.5754169352772 H 0.0 **** 0.06
6850 H 131.8729765848903 129.62818379085516 130.0276671796912 H 0.0 **** 0.06
6851 C 139.04485710155825 37.330669122171656 103.78817623591698 C 0.0 **** -0.24
6852 H 139.3700347198266 38.36571134829464 103.89550187622905 H 0.0 **** 0.06
6853 H 139.17304904135193 36.80995845862691 104.73661224852316 H 0.0 **** 0.06
6854 H 139.6424674935285 36.84040752221169 103.01975834864834 H 0.0 **** 0.06
6855 H 137.9940477414376 37.30865882712361 103.49890142677236 H 0.0 **** 0.06
6856 C 59.65860002359693 136.08300958566633 155.20015003619662 C 0.0 **** -0.24
6857 H 58.939459698480334 135.83546613472936 155.98151047276198 H 0.0 **** 0.06
6858 H 60.10899426485392 135.16731479093062 154.8174246352033 H 0.0 **** 0.06
6859 H 60.43628272752767 136.72648338789418 155.61283003709988 H 0.0 **** 0.06
6860 H 59.148144718308714 136.6048919079866 154.39032109434382 H 0.0 **** 0.06
6861 C 100.52336460443637 84.14946424541496 60.338618355131615 C 0.0 **** -0.24
6862 H 101.26363941703839 83.95009939044209 59.5631400765096 H 0.0 **** 0.06
6863 H 99.57952241098344 84.43386845506181 59.8731327590326 H 0.0 **** 0.06
6864 H 100.87444822789944 84.9599405415713 60.97606723993064 H 0.0 **** 0.06
6865 H 100.3764730040623 83.25187828214473 60.93907980871508 H 0.0 **** 0.06
6866 C 133.01220398719744 41.36137951871447 67.82208823585734 C 0.0 **** -0.24
6867 H 133.88437227028868 41.9735768463656 68.05304410152405 H 0.0 **** 0.06
6868 H 133.3254710701582 40.327731847181994 67.66786771185127 H 0.0 **** 0.06
6869 H 132.53380325995556 41.735676555632764 66.91744514671211 H 0.0 **** 0.06
6870 H 132.30677316243924 41.40701679838587 68.65202815820726 H 0.0 **** 0.06
6871 C 25.79693138692172 134.50512878381656 3.4805539768508424 C 0.0 **** -0.24
6872 H 25.09063744645396 133.697488105058 3.671271189991387 H 0.0 **** 0.06
6873 H 25.76858715997401 134.76944606678245 2.422805568558033 H 0.0 **** 0.06
6874 H 26.802067095411985 134.1797660283622 3.7477934552395595 H 0.0 **** 0.06
6875 H 25.524164724892785 135.37426861151013 4.0795422864480315 H 0.0 **** 0.06
6876 C 120.15580260432876 56.24636186335573 122.51310050359449 C 0.0 **** -0.24
6877 H 119.93335231483832 57.27564620767532 122.79294733625163 H 0.0 **** 0.06
6878 H 120.47926909694877 56.21508294107721 121.47298959283766 H 0.0 **** 0.06
6879 H 119.2621603010806 55.63539483720177 122.635163416552 H 0.0 **** 0.06
6880 H 120.94983066637496 55.85946127988359 123.15230944259046 H 0.0 **** 0.06
6881 C 45.806801962267514 82.29028252047624 14.347493575789201 C 0.0 **** -0.24
6882 H 46.19468205128072 83.28538076490058 14.133273732138264 H 0.0 **** 0.06
6883 H 46.26459208265365 81.568143772232 13.671695163628726 H 0.0 **** 0.06
6884 H 44.72510458081862 82.28468211886333 14.206713105931101 H 0.0 **** 0.06
6885 H 46.04001307865599 82.02305056486985 15.378060080449927 H 0.0 **** 0.06
6886 C 46.42827922053135 22.240374488544774 105.68616480812523 C 0.0 **** -0.24
6887 H 46.57736335888558 21.400178550125986 105.00832090251208 H 0.0 **** 0.06
6888 H 46.76085739476332 21.96415151224221 106.68678376550554 H 0.0 **** 0.06
6889 H 45.369392617870744 22.501043282528542 105.71334334808586 H 0.0 **** 0.06
6890 H 47.00304571294282 23.096860863238703 105.3350206614187 H 0.0 **** 0.06
6891 C 140.4135741299719 107.99084124583021 121.765722578733 C 0.0 **** -0.24
6892 H 139.88786353518927 107.05361505747521 121.58312161038953 H 0.0 **** 0.06
6893 H 141.30288849430204 107.79702876654642 122.36499658793161 H 0.0 **** 0.06
6894 H 139.75681661424568 108.67651779086583 122.30171225573537 H 0.0 **** 0.06
6895 H 140.70455722767673 108.43599153541174 120.81417503228494 H 0.0 **** 0.06
6896 C 109.08845318296574 146.22078739762713 131.07990035219598 C 0.0 **** -0.24
6897 H 108.2175712277097 146.75508085442453 130.69985456439014 H 0.0 **** 0.06
6898 H 108.8909053144406 145.14955973019843 131.07006429627637 H 0.0 **** 0.06
6899 H 109.29383588881012 146.54331846687757 132.10061153719903 H 0.0 **** 0.06
6900 H 109.95084379852904 146.4388374854819 130.44958989601662 H 0.0 **** 0.06
6901 C 64.25215368713914 138.79068582295628 17.325371131581306 C 0.0 **** -0.24
6902 H 63.414295262779575 139.0302835276588 17.979464277862917 H 0.0 **** 0.06
6903 H 64.05634987099889 137.84803797433472 16.814513457127816 H 0.0 **** 0.06
6904 H 65.16186803837958 138.700687465275 17.91988336788026 H 0.0 **** 0.06
6905 H 64.37727582928639 139.5848120583451 16.589483481338874 H 0.0 **** 0.06
6906 C 153.0755021617138 136.58878682346938 8.506063294326829 C 0.0 **** -0.24
6907 H 152.4848382074662 136.31624646758848 9.381072746543666 H 0.0 **** 0.06
6908 H 152.4789258130609 137.2228865028585 7.8491318101933345 H 0.0 **** 0.06
6909 H 153.37061620942865 135.68631549864156 7.970733602917875 H 0.0 **** 0.06
6910 H 153.9656234488764 137.13042626530662 8.824519645734227 H 0.0 **** 0.06
6911 C 6.88756197979481 103.08981010207383 109.37945181742934 C 0.0 **** -0.24
6912 H 6.653438294710895 103.65209818163162 108.47486521329496 H 0.0 **** 0.06
6913 H 5.9874850972335025 102.98574344478256 109.98528298536995 H 0.0 **** 0.06
6914 H 7.650794409034972 103.62024233650796 109.94831696380278 H 0.0 **** 0.06
6915 H 7.259277890046604 102.1022661530961 109.10630735123301 H 0.0 **** 0.06
6916 C 52.09934476149543 142.90929974942233 43.999378932021955 C 0.0 **** -0.24
6917 H 52.563917938297834 143.84812279786857 44.3021044559286 H 0.0 **** 0.06
6918 H 52.870892553377004 142.208403536952 43.681117771260745 H 0.0 **** 0.06
6919 H 51.41342768527994 143.0941747050432 43.172890774370785 H 0.0 **** 0.06
6920 H 51.549311907272156 142.4875811383878 44.84050968067896 H 0.0 **** 0.06
6921 C 45.94913403323122 83.09747805652938 125.49260503228614 C 0.0 **** -0.24
6922 H 45.74036712732122 83.42353293764056 126.51129254514846 H 0.0 **** 0.06
6923 H 45.35352485784864 83.68483036234203 124.79366894453447 H 0.0 **** 0.06
6924 H 45.69445297897046 82.04159612013812 125.3906852879176 H 0.0 **** 0.06
6925 H 47.00871562538936 83.23715790613262 125.27572926627089 H 0.0 **** 0.06
6926 C 48.309319089230826 103.51770729865723 2.79392910103266 C 0.0 **** -0.24
6927 H 47.27406553657025 103.60077427506673 2.4604359411835617 H 0.0 **** 0.06
6928 H 48.48021514496587 102.52161279182758 3.2019841667909077 H 0.0 **** 0.06
6929 H 48.50325660657559 104.26499457000511 3.5635768480294416 H 0.0 **** 0.06
6930 H 48.97717428402531 103.68359496874854 1.948536059183823 H 0.0 **** 0.06
6931 C 78.0141642653718 130.63866264834863 36.153591402322206 C 0.0 **** -0.24
6932 H 78.28931651094902 130.29396971849576 37.15102297336 H 0.0 **** 0.06
6933 H 77.67462398340217 131.67361069142277 36.20803088567919 H 0.0 **** 0.06
6934 H 77.21314593574282 130.01256347139497 35.76106737200388 H 0.0 **** 0.06
6935 H 78.8809805637186 130.57436365597476 35.49624233247113 H 0.0 **** 0.06
6936 C 39.26751646598083 37.348013989183585 85.99105309575015 C 0.0 **** -0.24
6937 H 39.747386054940094 37.874239294169314 86.81617537408383 H 0.0 **** 0.06
6938 H 38.184739743661396 37.40325635758309 86.10778592468054 H 0.0 **** 0.06
6939 H 39.580880507874426 36.3042103520324 85.99570107890771 H 0.0 **** 0.06
6940 H 39.556315027604455 37.811208956955255 85.04797173158511 H 0.0 **** 0.06
6941 C 64.17511594781104 11.920435802993431 139.66129454732697 C 0.0 **** -0.24
6942 H 64.814494218581 12.777443318985696 139.4520621859565 H 0.0 **** 0.06
6943 H 64.41601321727623 11.519358613417843 140.64665454287643 H 0.0 **** 0.06
6944 H 64.33974236205876 11.15118069024318 138.906148588716 H 0.0 **** 0.06
6945 H 63.130882408553276 12.231871884151722 139.64130593600413 H 0.0 **** 0.06
6946 C 135.81606492554053 41.10375901925816 60.99159229546524 C 0.0 **** -0.24
6947 H 134.893926669762 41.54184898974974 61.3733603965517 H 0.0 **** 0.06
6948 H 136.58255686519965 41.139030990743976 61.76501561268998 H 0.0 **** 0.06
6949 H 136.15185576108112 41.666692965824765 60.12079923620615 H 0.0 **** 0.06
6950 H 135.63373741140666 40.06701696773925 60.70617625867257 H 0.0 **** 0.06
6951 C 9.801300852395173 83.52720832997178 73.60338805148038 C 0.0 **** -0.24
6952 H 8.736587789098621 83.75610299463793 73.66291992149218 H 0.0 **** 0.06
6953 H 10.202362931444839 83.91106649422089 72.66570699263382 H 0.0 **** 0.06
6954 H 9.942602650017307 82.44704449479293 73.64539489230995 H 0.0 **** 0.06
6955 H 10.320027281154239 83.99500442874486 74.44038350258658 H 0.0 **** 0.06
6956 C 55.52097762750685 17.359866928973446 53.65016844763244 C 0.0 **** -0.24
6957 H 56.47108256949831 17.684615097969697 53.22492154748386 H 0.0 **** 0.06
6958 H 55.55536078902897 17.46246529876342 54.73543942300688 H 0.0 **** 0.06
6959 H 55.34419587635418 16.31632450112039 53.38940976823534 H 0.0 **** 0.06
6960 H 54.71551687100501 17.975556536140346 53.25174041264194 H 0.0 **** 0.06
6961 C 32.91173699189976 150.26338957409519 98.05194720629872 C 0.0 **** -0.24
6962 H 33.737594433236865 149.5688021590574 97.90049933208681 H 0.0 **** 0.06
6963 H 32.61151506560559 150.68523876652137 97.09211348831589 H 0.0 **** 0.06
6964 H 33.228154125784215 151.0650656056062 98.7191356383212 H 0.0 **** 0.06
6965 H 32.06874886527814 149.73344607216802 98.4957034271357 H 0.0 **** 0.06
6966 C 128.34884740331194 52.091806769312086 143.7157475695111 C 0.0 **** -0.24
6967 H 129.3332019510581 52.44902100515637 144.01754844766268 H 0.0 **** 0.06
6968 H 128.11437860672305 52.46991386411773 142.7203571434984 H 0.0 **** 0.06
6969 H 127.60111227514481 52.44605608205862 144.4257942547498 H 0.0 **** 0.06
6970 H 128.34647667701608 51.00216500679733 143.7006856244875 H 0.0 **** 0.06
6971 C 43.60568942254838 126.31643330185638 99.95478434531229 C 0.0 **** -0.24
6972 H 44.24711911382417 125.76226678553955 100.64048917586196 H 0.0 **** 0.06
6973 H 42.5643841472378 126.19591275645145 100.25327687038238 H 0.0 **** 0.06
6974 H 43.74090808865651 125.93396391064984 98.94302560326231 H 0.0 **** 0.06
6975 H 43.87161669021626 127.37366049994036 99.9829632038125 H 0.0 **** 0.06
6976 C 52.23320961999963 84.66442121406968 11.319268252475922 C 0.0 **** -0.24
6977 H 52.92428055796904 84.08062363305532 11.9272600390577 H 0.0 **** 0.06
6978 H 51.730704362551066 84.00719290186971 10.609323821341917 H 0.0 **** 0.06
6979 H 52.78526668932851 85.43170942904932 10.777166385038953 H 0.0 **** 0.06
6980 H 51.492201477674485 85.13629410002207 11.964495020892912 H 0.0 **** 0.06
6981 C 73.44623278666026 147.78365770810842 132.52382648691662 C 0.0 **** -0.24
6982 H 72.4417406125307 147.4252781738798 132.2978546619172 H 0.0 **** 0.06
6983 H 74.17126677389722 147.00389834198236 132.2885038338562 H 0.0 **** 0.06
6984 H 73.51265940486766 148.0331836578214 133.58302429247135 H 0.0 **** 0.06
6985 H 73.6596136568741 148.67053888381898 131.92729396457895 H 0.0 **** 0.06
6986 C 102.96058745511782 83.55431022043555 21.368818760207716 C 0.0 **** -0.24
6987 H 103.18529562877411 84.2222356988162 22.200050043040505 H 0.0 **** 0.06
6988 H 103.64917135595284 82.70955548445531 21.386177251850143 H 0.0 **** 0.06
6989 H 103.07187488223924 84.09514278737416 20.42825512008443 H 0.0 **** 0.06
6990 H 101.93682516747499 83.19077677642645 21.460458828838455 H 0.0 **** 0.06
6991 C 53.23303745065178 36.37187531449183 114.07765032742692 C 0.0 **** -0.24
6992 H 52.263988060007875 35.897426393586386 113.91977315061511 H 0.0 **** 0.06
6993 H 53.81898408357634 35.77576096286339 114.778039455659 H 0.0 **** 0.06
6994 H 53.08504914234848 37.37116271264517 114.48554343461673 H 0.0 **** 0.06
6995 H 53.762068647552155 36.44123305265242 113.12752446952975 H 0.0 **** 0.06
6996 C 118.42982483155068 89.41320784889467 7.263012016020895 C 0.0 **** -0.24
6997 H 119.25851043682961 89.20738331501754 6.5849566170845435 H 0.0 **** 0.06
6998 H 118.68069436638068 89.05519003544713 8.261458003396143 H 0.0 **** 0.06
6999 H 117.53519665766156 88.90350022869012 6.907052463114809 H 0.0 **** 0.06
7000 H 118.24795049004054 90.48717884835742 7.296458559655804 H 0.0 **** 0.06
7001 C 115.91620004282527 127.82665176199812 76.68133903069827 C 0.0 **** -0.24
7002 H 115.31982869929413 127.58901817672971 75.80069826606615 H 0.0 **** 0.06
7003 H 116.08327427900826 128.90374672537058 76.72722342118203 H 0.0 **** 0.06
7004 H 116.87486703864869 127.31268466557448 76.6213386661575 H 0.0 **** 0.06
7005 H 115.38582487130566 127.5027873547116 77.57667287047002 H 0.0 **** 0.06
7006 C 95.20997806347417 94.88488455310568 47.46697717127044 C 0.0 **** -0.24
7007 H 95.21390279683513 95.82213634234535 48.021257129727616 H 0.0 **** 0.06
7008 H 94.54159524749832 94.9712701327091 46.60954632520277 H 0.0 **** 0.06
7009 H 94.86558905663433 94.0792274617724 48.11609007714351 H 0.0 **** 0.06
7010 H 96.21984781998835 94.6636006843257 47.1195865549188 H 0.0 **** 0.06
7011 C 132.4925713175497 27.133363109308725 68.59222926416761 C 0.0 **** -0.24
7012 H 132.9399474141132 26.504677129762413 69.36264036558245 H 0.0 **** 0.06
7013 H 132.9431464501507 26.899038163719375 67.62713777590773 H 0.0 **** 0.06
7014 H 132.66878252541963 28.18167044581741 68.83111412291468 H 0.0 **** 0.06
7015 H 131.42008189629644 26.94541100548261 68.54841033251893 H 0.0 **** 0.06
7016 C 73.46026615351025 59.32580245976655 133.10821846929554 C 0.0 **** -0.24
7017 H 72.7334165904079 59.53384427689497 132.32310256534163 H 0.0 **** 0.06
7018 H 73.89615831553118 60.26213361503608 133.45653249402784 H 0.0 **** 0.06
7019 H 74.2468305207911 58.68219800723358 132.71291920205363 H 0.0 **** 0.06
7020 H 72.96390331219669 58.82372986605276 133.93838875079604 H 0.0 **** 0.06
7021 C 34.84917632578655 143.77591905903617 36.139409373454356 C 0.0 **** -0.24
7022 H 35.8623940337651 144.05443896147622 35.850020006624945 H 0.0 **** 0.06
7023 H 34.836050884779524 143.49484516506155 37.19293910367473 H 0.0 **** 0.06
7024 H 34.51744431912899 142.9322749220683 35.533745990457646 H 0.0 **** 0.06
7025 H 34.17998371757866 144.6226668110251 35.98100411165066 H 0.0 **** 0.06
7026 C 39.54426851432663 59.589372370638756 136.00857753571654 C 0.0 **** -0.24
7027 H 40.21084958673623 60.21900552443981 136.5978452451937 H 0.0 **** 0.06
7028 H 39.81661514825453 58.54262955082146 136.14803537856864 H 0.0 **** 0.06
7029 H 39.63408989081603 59.85119183320876 134.95453989669306 H 0.0 **** 0.06
7030 H 38.51590794646128 59.74472445884726 136.33609084687674 H 0.0 **** 0.06
7031 C 10.322430659216842 114.18598613431116 133.59950577168775 C 0.0 **** -0.24
7032 H 10.790082525562205 114.39378747698377 132.63759882515555 H 0.0 **** 0.06
7033 H 10.998221173835262 114.48019077666841 134.40312789117831 H 0.0 **** 0.06
7034 H 10.107989288431185 113.1202901894819 133.67572718090227 H 0.0 **** 0.06
7035 H 9.39391872960362 114.75010320679824 133.6808086584486 H 0.0 **** 0.06
7036 C 8.54371144904485 95.88816962365131 55.50257471561963 C 0.0 **** -0.24
7037 H 7.467047133298536 95.87904472199867 55.330692831141505 H 0.0 **** 0.06
7038 H 8.85856325463871 94.91588021125011 55.88204582427335 H 0.0 **** 0.06
7039 H 8.788023668181438 96.66002812013947 56.23250325790764 H 0.0 **** 0.06
7040 H 9.059382942916699 96.09722203612407 54.56624111429096 H 0.0 **** 0.06
7041 C 67.81796766943734 89.64580725519215 73.08584429460545 C 0.0 **** -0.24
7042 H 68.17171027551288 89.18229914659591 74.00701642127788 H 0.0 **** 0.06
7043 H 67.09307800389075 88.98889790322474 72.6041402594684 H 0.0 **** 0.06
7044 H 68.66151125965911 89.81047745049483 72.41532985422582 H 0.0 **** 0.06
7045 H 67.34586164338555 90.60020503036517 73.31658315585348 H 0.0 **** 0.06
7046 C 36.543037329471574 150.91853648181728 110.04078680401976 C 0.0 **** -0.24
7047 H 35.45957078324296 151.02907382129231 109.99160931939515 H 0.0 **** 0.06
7048 H 36.7990417358028 149.85878828632985 110.04570557454294 H 0.0 **** 0.06
7049 H 36.9152832991371 151.3874182837307 110.95099580516295 H 0.0 **** 0.06
7050 H 36.99663748790016 151.39817941226917 109.17312832041712 H 0.0 **** 0.06
7051 C 6.951067943537538 96.84167149126826 126.92068840081448 C 0.0 **** -0.24
7052 H 7.365324278310567 97.84812565222052 126.85658379508807 H 0.0 **** 0.06
7053 H 7.098034882865164 96.45273326401984 127.92873377445626 H 0.0 **** 0.06
7054 H 7.4580506901472745 96.19517987319388 126.20431995122617 H 0.0 **** 0.06
7055 H 5.8860122278502445 96.8716149064884 126.69348949018747 H 0.0 **** 0.06
7056 C 104.33516270665854 151.92409734534283 50.515826614228615 C 0.0 **** -0.24
7057 H 105.29520973927441 151.43821435782036 50.688754561125506 H 0.0 **** 0.06
7058 H 104.43645202987057 152.64813507627497 49.707017287810885 H 0.0 **** 0.06
7059 H 104.01843185939015 152.43577646854533 51.42518119166246 H 0.0 **** 0.06
7060 H 103.5929590028341 151.17473519185424 50.24244836915284 H 0.0 **** 0.06
7061 C 103.79546471767075 115.20916434070693 23.408780796538906 C 0.0 **** -0.24
7062 H 103.00834928759217 114.49927687740501 23.151073949747143 H 0.0 **** 0.06
7063 H 104.45884186072199 114.76154660196835 24.148569810127924 H 0.0 **** 0.06
7064 H 103.34703888712868 116.11288538730162 23.821255292711783 H 0.0 **** 0.06
7065 H 104.36476704697658 115.46055286442129 22.513956603687518 H 0.0 **** 0.06
7066 C 70.75167447745152 90.62621072428408 41.91338913854773 C 0.0 **** -0.24
7067 H 71.72788247947946 90.98094124787596 41.58470110595164 H 0.0 **** 0.06
7068 H 70.0339071533758 91.44451413742382 41.86902450713961 H 0.0 **** 0.06
7069 H 70.82533026063254 90.26149416076316 42.93813317455613 H 0.0 **** 0.06
7070 H 70.42129407727938 89.81623088983184 41.26223772274193 H 0.0 **** 0.06
7071 C 92.88696208319993 142.84375566074175 63.16298926205366 C 0.0 **** -0.24
7072 H 93.3041252938877 143.17626062600465 64.11436512196457 H 0.0 **** 0.06
7073 H 93.51868755537492 142.06215762444157 62.74267978001512 H 0.0 **** 0.06
7074 H 92.84113545932757 143.68655491886994 62.472519105905974 H 0.0 **** 0.06
7075 H 91.88220899896885 142.4521070889757 63.32502117816887 H 0.0 **** 0.06
7076 C 0.7176115984777596 124.0097355395831 78.16697195067383 C 0.0 **** -0.24
7077 H -0.049377751794196456 124.7635682976558 77.98802169114981 H 0.0 **** 0.06
7078 H 1.470108847702221 124.41136422941962 78.84645336611106 H 0.0 **** 0.06
7079 H 1.1886345606408213 123.73997271656772 77.2219396511822 H 0.0 **** 0.06
7080 H 0.2615231641867126 123.12523130966828 78.6108584852397 H 0.0 **** 0.06
7081 C 96.65016379209659 28.841298598478602 139.81514268236302 C 0.0 **** -0.24
7082 H 97.08921803792255 28.312632690865627 140.6612404306001 H 0.0 **** 0.06
7083 H 97.13793456213624 28.5197885665563 138.89398541987276 H 0.0 **** 0.06
7084 H 96.78939318030287 29.9142267462771 139.94413884049095 H 0.0 **** 0.06
7085 H 95.58512728370566 28.61728960855593 139.7588855539182 H 0.0 **** 0.06
7086 C 61.89883956548293 74.55608587471649 55.4493314884113 C 0.0 **** -0.24
7087 H 60.94204878433756 74.81733499160764 54.99872198224398 H 0.0 **** 0.06
7088 H 62.61491702700914 75.35923806070323 55.27481985006227 H 0.0 **** 0.06
7089 H 62.27135663936001 73.63393516929803 55.002407778726024 H 0.0 **** 0.06
7090 H 61.76869944230397 74.41226231337401 56.52224715347268 H 0.0 **** 0.06
7091 C 25.170248484315948 5.442681638660247 59.744329936929844 C 0.0 **** -0.24
7092 H 24.85674980127812 5.887015624116202 58.7995455363187 H 0.0 **** 0.06
7093 H 24.81652330008219 6.05991447101303 60.571195615976904 H 0.0 **** 0.06
7094 H 26.258141875804156 5.383811351322208 59.774228458434436 H 0.0 **** 0.06
7095 H 24.749425775425365 4.441689366442631 59.83208155569788 H 0.0 **** 0.06
7096 C 70.95171901496809 39.49104357490701 17.427231066173363 C 0.0 **** -0.24
7097 H 69.96216771350561 39.94038658870414 17.50380594728898 H 0.0 **** 0.06
7098 H 71.27489970669654 39.15538907675359 18.41241072287079 H 0.0 **** 0.06
7099 H 71.65730477733644 40.22936175972738 17.04513855265813 H 0.0 **** 0.06
7100 H 70.91188816647553 38.63995076038732 16.74668259041607 H 0.0 **** 0.06
7101 C 12.512767089064994 92.77460195692349 68.91297562346185 C 0.0 **** -0.24
7102 H 13.086818258996402 91.84920507045719 68.97293038152883 H 0.0 **** 0.06
7103 H 12.777443462970126 93.42057740687267 69.75065744672992 H 0.0 **** 0.06
7104 H 11.448455555172245 92.54399407913489 68.9523153814241 H 0.0 **** 0.06
7105 H 12.740025192682253 93.282855104833 67.97620609812597 H 0.0 **** 0.06
7106 C 130.54211240982102 3.527861299743961 109.99602440445928 C 0.0 **** -0.24
7107 H 131.57374543726547 3.3642888233738404 110.3112466865369 H 0.0 **** 0.06
7108 H 130.48529029235502 3.491637395574571 108.90821571760337 H 0.0 **** 0.06
7109 H 130.20676404393762 4.503893402804181 110.34610934252468 H 0.0 **** 0.06
7110 H 129.90557298545815 2.7513398545377754 110.41913744825324 H 0.0 **** 0.06
7111 C 56.47130392465341 97.89428318943158 46.079273328160966 C 0.0 **** -0.24
7112 H 55.834370773902734 97.27168001613313 45.45118646180944 H 0.0 **** 0.06
7113 H 56.79873532269947 98.76595588502636 45.51202815644325 H 0.0 **** 0.06
7114 H 57.34037094930484 97.31907317794992 46.39790258970237 H 0.0 **** 0.06
7115 H 55.909895801777154 98.21968945805946 46.95494412437324 H 0.0 **** 0.06
7116 C 134.57252488458136 74.22755151907552 123.04502783636907 C 0.0 **** -0.24
7117 H 135.20599835155414 74.89900561920223 123.62549011836246 H 0.0 **** 0.06
7118 H 135.1749147593672 73.40884179379191 122.65212393334686 H 0.0 **** 0.06
7119 H 134.12395466426022 74.77780725187398 122.21785611264535 H 0.0 **** 0.06
7120 H 133.7861822179254 73.82735865942266 123.68417611404705 H 0.0 **** 0.06
7121 C 84.25029071864395 21.214112426260918 133.2246983133267 C 0.0 **** -0.24
7122 H 84.82799710711572 21.754902664473747 132.47526792319206 H 0.0 **** 0.06
7123 H 83.18720418838893 21.38832643273971 133.05903547749887 H 0.0 **** 0.06
7124 H 84.52655388849274 21.56555059755017 134.21907779857838 H 0.0 **** 0.06
7125 H 84.46107310052065 20.147829135526756 133.14586059225053 H 0.0 **** 0.06
7126 C 154.67445398233494 102.79301043124538 72.20054744069871 C 0.0 **** -0.24
7127 H 155.52645033027923 103.16119502168384 71.62774114785323 H 0.0 **** 0.06
7128 H 154.11580180873148 102.07535158512555 71.5985015546837 H 0.0 **** 0.06
7129 H 154.02699778802443 103.62898796986293 72.46493105915148 H 0.0 **** 0.06
7130 H 155.03074366163875 102.30713180625129 73.10803807263589 H 0.0 **** 0.06
7131 C 115.03416100078232 91.63141702711869 53.68274521869267 C 0.0 **** -0.24
7132 H 115.18045991585063 90.62784989152522 54.080191128430556 H 0.0 **** 0.06
7133 H 115.1133662953805 91.6077568835097 52.59537434084359 H 0.0 **** 0.06
7134 H 115.79592493538121 92.29724356477834 54.08933521799284 H 0.0 **** 0.06
7135 H 114.04590543684628 91.99382285220958 53.96781655503503 H 0.0 **** 0.06
7136 C 87.55324339727878 135.41504242593754 20.160439765539678 C 0.0 **** -0.24
7137 H 87.17994047067725 136.40740914501032 20.41227279256941 H 0.0 **** 0.06
7138 H 86.8840596048139 134.6598651845195 20.57297347679244 H 0.0 **** 0.06
7139 H 88.55143091676888 135.28529104232314 20.58095015615143 H 0.0 **** 0.06
7140 H 87.59949803302237 135.3074811183638 19.07703276695196 H 0.0 **** 0.06
7141 C 77.43424765240519 95.02064767043697 43.42157418284842 C 0.0 **** -0.24
7142 H 78.18179472419249 95.61365444536254 43.9504277341436 H 0.0 **** 0.06
7143 H 77.74276194221028 93.97538879648867 43.41073523666847 H 0.0 **** 0.06
7144 H 77.34020147289334 95.38386610909687 42.39869377978448 H 0.0 **** 0.06
7145 H 76.47409681724969 95.1116183153898 43.929722188458925 H 0.0 **** 0.06
7146 C 135.0871679642121 89.80650461864218 49.01452964661547 C 0.0 **** -0.24
7147 H 135.2470463280917 90.81836364334004 49.38593760281606 H 0.0 **** 0.06
7148 H 134.0932730712969 89.73421999633956 48.57421668058748 H 0.0 **** 0.06
7149 H 135.1718928051808 89.0998854705336 49.84016743282365 H 0.0 **** 0.06
7150 H 135.8376157194524 89.57384782768673 48.25968752913542 H 0.0 **** 0.06
7151 C 52.033705797336836 100.7678291940324 103.26781994844539 C 0.0 **** -0.24
7152 H 52.20917778560647 100.07349221555376 104.09006409787939 H 0.0 **** 0.06
7153 H 51.694263073209186 100.21442001763745 102.39250253326848 H 0.0 **** 0.06
7154 H 52.9600201186455 101.29095224666548 103.03053590278874 H 0.0 **** 0.06
7155 H 51.27206845395892 101.49030522765577 103.55912145992203 H 0.0 **** 0.06
7156 C 76.39974902543067 94.04182426070014 38.76905426954001 C 0.0 **** -0.24
7157 H 76.63894099785612 95.05225876802888 39.1022959458806 H 0.0 **** 0.06
7158 H 75.9024565745114 94.08715053263796 37.79992350768107 H 0.0 **** 0.06
7159 H 75.7404866273176 93.56660830674309 39.49414357236388 H 0.0 **** 0.06
7160 H 77.3193612356099 93.46332051898139 38.67897382399521 H 0.0 **** 0.06
7161 C 63.83258908919271 57.329162677077306 32.67317051253485 C 0.0 **** -0.24
7162 H 63.40561844427802 57.62051835535465 31.713918416411502 H 0.0 **** 0.06
7163 H 64.9169123413428 57.44204266440289 32.636117550836246 H 0.0 **** 0.06
7164 H 63.581948709059006 56.28906599563817 32.881753745404325 H 0.0 **** 0.06
7165 H 63.42738876898332 57.96560049082251 33.45971693461175 H 0.0 **** 0.06
7166 C 91.94393195016207 33.4487355851291 17.687742905760956 C 0.0 **** -0.24
7167 H 91.61014663716824 33.87168737923457 16.74047061109144 H 0.0 **** 0.06
7168 H 91.15603215422509 32.817278393308015 18.100507313142742 H 0.0 **** 0.06
7169 H 92.16756879242784 34.254679215217664 18.387104126644942 H 0.0 **** 0.06
7170 H 92.84027641459537 32.85160690229492 17.522926105534168 H 0.0 **** 0.06
7171 C 18.57186546649777 91.59904902735579 3.171687279924811 C 0.0 **** -0.24
7172 H 19.175544947973464 91.27134447121477 2.3258318240802964 H 0.0 **** 0.06
7173 H 17.520836344772334 91.61741131989425 2.8819057917331747 H 0.0 **** 0.06
7174 H 18.88279145213437 92.59836497733696 3.4739541952593527 H 0.0 **** 0.06
7175 H 18.707305085360616 90.90853237513016 4.004198864201896 H 0.0 **** 0.06
7176 C 132.36767500490197 59.3981708893283 19.85982707499113 C 0.0 **** -0.24
7177 H 132.94226973951777 59.54876043552076 20.772791090287825 H 0.0 **** 0.06
7178 H 132.99818455759439 59.60750609349407 18.99519930840603 H 0.0 **** 0.06
7179 H 131.5101338695779 60.070477434884225 19.85465423924248 H 0.0 **** 0.06
7180 H 132.01993605942505 58.36531810240808 19.814522865838256 H 0.0 **** 0.06
7181 C 140.16307308673998 138.5804573808158 24.9138810634325 C 0.0 **** -0.24
7182 H 140.84730916023662 138.00078704304948 25.53356805681861 H 0.0 **** 0.06
7183 H 139.53921071314426 139.2073429871874 25.55115482963523 H 0.0 **** 0.06
7184 H 139.53176138577615 137.90430452546167 24.338698071938985 H 0.0 **** 0.06
7185 H 140.73649780108278 139.21106482816538 24.23352743742422 H 0.0 **** 0.06
7186 C 29.400634814263526 10.547007730227243 2.7212092046179848 C 0.0 **** -0.24
7187 H 29.71675285307674 11.318943871475561 3.4222381790183753 H 0.0 **** 0.06
7188 H 29.379424871598644 9.582710258277999 3.228636229133656 H 0.0 **** 0.06
7189 H 30.100785503872316 10.50441474585827 1.8876172891821348 H 0.0 **** 0.06
7190 H 28.40457320254791 10.782725887254934 2.3469861754721677 H 0.0 **** 0.06
7191 C 26.478366562745975 91.09519767377014 67.42998019536438 C 0.0 **** -0.24
7192 H 26.800571249094645 90.05530875795051 67.38050455858831 H 0.0 **** 0.06
7193 H 26.679036528111453 91.58338715989129 66.47625525361092 H 0.0 **** 0.06
7194 H 27.024549931203495 91.60727151863478 68.22289180057652 H 0.0 **** 0.06
7195 H 25.409110817795465 91.13452190572343 67.64163670531856 H 0.0 **** 0.06
7196 C 70.92945910643702 103.14515999816012 139.78152399256214 C 0.0 **** -0.24
7197 H 70.40062627005788 102.79110984750707 138.89667994495812 H 0.0 **** 0.06
7198 H 71.03057385043255 102.32697781729536 140.49583586887775 H 0.0 **** 0.06
7199 H 70.36691071571637 103.95945854524325 140.23910227223018 H 0.0 **** 0.06
7200 H 71.91845698210697 103.50232734879694 139.49582077085273 H 0.0 **** 0.06
7201 C 71.04125183259865 72.96225210695799 152.02287035483548 C 0.0 **** -0.24
7202 H 72.09900977401549 73.08695467949015 151.79028254393836 H 0.0 **** 0.06
7203 H 70.82205749347685 73.4316998158135 152.98179285262913 H 0.0 **** 0.06
7204 H 70.80382534241711 71.89913027534226 152.07618402633088 H 0.0 **** 0.06
7205 H 70.4404420553624 73.42967629619741 151.2419978003611 H 0.0 **** 0.06
7206 C 130.1322468366592 85.70771297295238 55.73759970102664 C 0.0 **** -0.24
7207 H 131.02293548135032 85.9086864478781 55.14211747743755 H 0.0 **** 0.06
7208 H 130.367678010184 85.83079947044769 56.79488374910852 H 0.0 **** 0.06
7209 H 129.79705526646475 84.68707227762616 55.556084363415835 H 0.0 **** 0.06
7210 H 129.34288451800316 86.4050064291373 55.457113278794324 H 0.0 **** 0.06
7211 C 122.42225832545661 40.222973185726346 117.08215852096191 C 0.0 **** -0.24
7212 H 122.42045997626111 39.64312217665315 118.00463953159147 H 0.0 **** 0.06
7213 H 122.48715523294182 41.284772225710185 117.32114781375031 H 0.0 **** 0.06
7214 H 121.50285298497879 40.02972829575623 116.52920019199479 H 0.0 **** 0.06
7215 H 123.27989534047349 39.93474573864489 116.47371182340135 H 0.0 **** 0.06
7216 C 18.98599156350587 90.81750680751774 92.85568858274493 C 0.0 **** -0.24
7217 H 19.787351409773024 91.49671361457916 92.56521109005702 H 0.0 **** 0.06
7218 H 18.08717263168375 91.04964055417878 92.28345946909481 H 0.0 **** 0.06
7219 H 18.77941328314413 90.93280374611786 93.91953288012638 H 0.0 **** 0.06
7220 H 19.28974683869233 89.79027712653607 92.65379606062001 H 0.0 **** 0.06
7221 C 24.556284167206464 47.210916202854094 107.10092502381768 C 0.0 **** -0.24
7222 H 25.461495007234767 47.81821771086645 107.06045353097558 H 0.0 **** 0.06
7223 H 23.801931186737228 47.723273017293494 107.69794909632544 H 0.0 **** 0.06
7224 H 24.7857096255566 46.24719999764042 107.55428102890365 H 0.0 **** 0.06
7225 H 24.177668541239292 47.056751978088 106.09077540537068 H 0.0 **** 0.06
7226 C 14.325625266215127 144.28673928721122 3.266971044178632 C 0.0 **** -0.24
7227 H 13.547782245884378 143.58386259789603 2.9659406167447173 H 0.0 **** 0.06
7228 H 14.958328566520265 144.51763143756972 2.4091452664624455 H 0.0 **** 0.06
7229 H 14.930802696142962 143.8410601156956 4.056603259057397 H 0.0 **** 0.06
7230 H 13.863594902248963 145.20225387718216 3.6350072060336345 H 0.0 **** 0.06
7231 C 23.38349386543235 97.22897401441878 79.40239072891887 C 0.0 **** -0.24
7232 H 22.32012368489132 97.21738236873995 79.64037002456254 H 0.0 **** 0.06
7233 H 23.93195648230465 97.70720010695604 80.21526544506847 H 0.0 **** 0.06
7234 H 23.542577642785993 97.7870863479763 78.48005639349404 H 0.0 **** 0.06
7235 H 23.738821470911475 96.20679190776514 79.27495572460563 H 0.0 **** 0.06
7236 C 36.77382416686066 8.865874271498548 99.0424489157702 C 0.0 **** -0.24
7237 H 36.068459659581265 9.403184097227744 99.67556636206024 H 0.0 **** 0.06
7238 H 37.43726723038816 9.57825916592202 98.55207687833871 H 0.0 **** 0.06
7239 H 36.22654919554441 8.300457583181576 98.28737687570404 H 0.0 **** 0.06
7240 H 37.36253840036454 8.181766688600788 99.6531206917735 H 0.0 **** 0.06
7241 C 105.14076852810827 113.33660116990838 28.127327718255174 C 0.0 **** -0.24
7242 H 104.51250379546208 113.83669302841408 28.865600897309946 H 0.0 **** 0.06
7243 H 105.11621667099423 113.89477704829049 27.19219803833147 H 0.0 **** 0.06
7244 H 104.76774259935901 112.32652466001473 27.95923025454769 H 0.0 **** 0.06
7245 H 106.16531410878973 113.28852828820892 28.496441558443394 H 0.0 **** 0.06
7246 C 103.2673804848493 135.36223441230777 71.55385408778994 C 0.0 **** -0.24
7247 H 103.97893854244228 134.78630435009518 70.96244529979282 H 0.0 **** 0.06
7248 H 103.0320224728186 134.81794623405864 72.468730403921 H 0.0 **** 0.06
7249 H 102.35524141305228 135.51543879584455 70.9772342849788 H 0.0 **** 0.06
7250 H 103.70326049048168 136.3282987516091 71.80805278396434 H 0.0 **** 0.06
7251 C 40.36049056259006 140.57567606434148 102.05832810702283 C 0.0 **** -0.24
7252 H 41.214242232440625 140.40249189635267 102.7144714174192 H 0.0 **** 0.06
7253 H 40.530966203462995 140.07983156471897 101.1027241309189 H 0.0 **** 0.06
7254 H 40.23827972087294 141.6468228623838 101.89594357443751 H 0.0 **** 0.06
7255 H 39.45965455537848 140.17249352863774 102.52203710430295 H 0.0 **** 0.06
7256 C 95.22645167963941 18.691229669309564 139.97357915139185 C 0.0 **** -0.24
7257 H 95.3103893904314 17.72935489401476 139.46788255819348 H 0.0 **** 0.06
7258 H 94.19696756436622 19.044617785895724 139.91311448851152 H 0.0 **** 0.06
7259 H 95.88673252024654 19.413438547723814 139.49302194229887 H 0.0 **** 0.06
7260 H 95.51081960741828 18.578175234868013 141.01897534203408 H 0.0 **** 0.06
7261 C 97.88727388880359 23.02720724613482 84.9526236370008 C 0.0 **** -0.24
7262 H 97.04119106705504 22.455893460280265 84.5706575526734 H 0.0 **** 0.06
7263 H 98.71710149774405 22.35231656769963 85.16050426799215 H 0.0 **** 0.06
7264 H 97.5963992121312 23.53945054519528 85.86917443341032 H 0.0 **** 0.06
7265 H 98.19398587216764 23.76250253927617 84.20698877538541 H 0.0 **** 0.06
7266 C 106.11027646347895 68.43347134001286 46.27306019806325 C 0.0 **** -0.24
7267 H 106.09206048783244 68.7045293222313 45.21696813144196 H 0.0 **** 0.06
7268 H 107.10766381919746 68.08502612137725 46.54170880120638 H 0.0 **** 0.06
7269 H 105.38610423654023 67.63864227218731 46.456396132064995 H 0.0 **** 0.06
7270 H 105.85420276879245 69.30417623930643 46.875567349200495 H 0.0 **** 0.06
7271 C 109.53599736319075 34.37303559014015 136.65331621187403 C 0.0 **** -0.24
7272 H 108.9726221146658 34.7866454401526 137.4900586505484 H 0.0 **** 0.06
7273 H 109.6816095442108 33.3040270280801 136.80624244955473 H 0.0 **** 0.06
7274 H 110.50639146989596 34.866901578686 136.5898860725272 H 0.0 **** 0.06
7275 H 108.98405249750607 34.53603785009193 135.72768572599588 H 0.0 **** 0.06
7276 C 136.68685847986046 107.04659990010195 58.16916713265718 C 0.0 **** -0.24
7277 H 135.83161008402658 106.3783386915381 58.26521806621194 H 0.0 **** 0.06
7278 H 137.04362377437837 107.0349083890146 57.139505786102404 H 0.0 **** 0.06
7279 H 137.48433058704455 106.7147276434023 58.83443379602747 H 0.0 **** 0.06
7280 H 136.38781192651896 108.05986109633214 58.439223810625535 H 0.0 **** 0.06
7281 C 75.71652854912168 107.98357705437819 74.18845071893432 C 0.0 **** -0.24
7282 H 74.85989799264757 107.74428369805811 73.55754067488371 H 0.0 **** 0.06
7283 H 75.70315932817891 109.04571963831732 74.43128201846484 H 0.0 **** 0.06
7284 H 76.63692537507816 107.74347785248499 73.65575029506886 H 0.0 **** 0.06
7285 H 75.66532449262706 107.39874272139615 75.10677942624731 H 0.0 **** 0.06
7286 C 11.575374821882555 146.64467207058325 70.05045049875878 C 0.0 **** -0.24
7287 H 11.67338162507842 145.91283900111284 69.24908125025974 H 0.0 **** 0.06
7288 H 10.784812268345775 147.3528127821586 69.80156847421503 H 0.0 **** 0.06
7289 H 12.517377530951322 147.1802818277794 70.17122209701893 H 0.0 **** 0.06
7290 H 11.326852185567489 146.13373221458613 70.98102110654361 H 0.0 **** 0.06
7291 C 145.72610387744433 150.89065589816713 59.73646390760359 C 0.0 **** -0.24
7292 H 144.76452213333457 151.404445420606 59.73291928796249 H 0.0 **** 0.06
7293 H 145.60923374651716 149.8993277643288 59.29834796150658 H 0.0 **** 0.06
7294 H 146.08308476594624 150.79662087853535 60.761496441004965 H 0.0 **** 0.06
7295 H 146.44534059603865 151.4639178863022 59.15162298706309 H 0.0 **** 0.06
7296 C 102.041179972196 29.504718815974684 112.123655445077 C 0.0 **** -0.24
7297 H 102.39819099351854 29.08413280877278 111.18283704740627 H 0.0 **** 0.06
7298 H 102.0416442990981 30.592436420406216 112.05818143371842 H 0.0 **** 0.06
7299 H 102.69681000762705 29.18807332465593 112.93457994704279 H 0.0 **** 0.06
7300 H 101.02746978615852 29.151624564398787 112.31660835453978 H 0.0 **** 0.06
7301 C 126.10928217148903 85.71927786267483 25.477493442053287 C 0.0 **** -0.24
7302 H 126.03862130632409 84.83521707364974 26.111051828977565 H 0.0 **** 0.06
7303 H 125.56583091085174 86.54281344365768 25.940910696648245 H 0.0 **** 0.06
7304 H 125.67618393779365 85.50172751569971 24.500871991974236 H 0.0 **** 0.06
7305 H 127.15659719484775 85.99666867381029 25.356417999032715 H 0.0 **** 0.06
7306 C 147.35873143531998 108.13881468108245 106.97950051693715 C 0.0 **** -0.24
7307 H 146.76271433028398 108.29500386144953 106.0810428490426 H 0.0 **** 0.06
7308 H 148.41781112305173 108.21754988719589 106.73031441514604 H 0.0 **** 0.06
7309 H 147.15291955335286 107.14838224508385 107.38510835864719 H 0.0 **** 0.06
7310 H 147.10274028710094 108.89587333881265 107.72144015447901 H 0.0 **** 0.06
7311 C 24.311608289080368 89.53895431918548 61.649670255030685 C 0.0 **** -0.24
7312 H 24.479204860415052 90.41757994176446 61.02553875861008 H 0.0 **** 0.06
7313 H 24.651160877005964 89.7443871549711 62.664578646318205 H 0.0 **** 0.06
7314 H 24.869104109943436 88.69484909036909 61.243072836361364 H 0.0 **** 0.06
7315 H 23.24822227099071 89.30020764525985 61.66162298566104 H 0.0 **** 0.06
7316 C 35.17313957283034 113.30674806030123 20.10741545628059 C 0.0 **** -0.24
7317 H 35.4678547652494 112.6472689728991 19.29066703481402 H 0.0 **** 0.06
7318 H 34.20821821629875 113.76005712421357 19.877445059972217 H 0.0 **** 0.06
7319 H 35.92300548528965 114.08841715111032 20.230757381139938 H 0.0 **** 0.06
7320 H 35.09331974442745 112.73020940638793 21.028819078602112 H 0.0 **** 0.06
7321 C 153.2702944587825 62.4475426335116 71.80038136967072 C 0.0 **** -0.24
7322 H 152.62509965737627 62.003569753229556 72.55876018971774 H 0.0 **** 0.06
7323 H 152.9765063347539 63.48452718526352 71.63508080400891 H 0.0 **** 0.06
7324 H 153.17243268721563 61.88893111130977 70.86874519617709 H 0.0 **** 0.06
7325 H 154.3056767576383 62.41154557511368 72.13779409526195 H 0.0 **** 0.06
7326 C 74.31230380123428 26.081991739322945 149.40903185010544 C 0.0 **** -0.24
7327 H 75.12762361411437 26.673767872896278 148.99495066675843 H 0.0 **** 0.06
7328 H 73.67588127234964 25.72355751247239 148.59977790323035 H 0.0 **** 0.06
7329 H 73.7241581150882 26.698907357157907 150.0890241067073 H 0.0 **** 0.06
7330 H 74.7212946436265 25.230983219964386 149.95354508045688 H 0.0 **** 0.06
7331 C 123.94077585912144 42.98399274360604 43.66246269543417 C 0.0 **** -0.24
7332 H 123.00836983575626 43.01885740627982 43.09750854841758 H 0.0 **** 0.06
7333 H 124.7557577178304 43.35456755118244 43.04144214564198 H 0.0 **** 0.06
7334 H 124.14736048233279 41.9555907990426 43.958014534964576 H 0.0 **** 0.06
7335 H 123.84883438257795 43.60728640327258 44.5524899321785 H 0.0 **** 0.06
7336 C 128.32349959962733 92.7796510589188 43.79120314605045 C 0.0 **** -0.24
7337 H 129.3904998901768 92.61927715932536 43.63549099216185 H 0.0 **** 0.06
7338 H 128.05398165307457 92.46777676623638 44.80045395027416 H 0.0 **** 0.06
7339 H 127.75888715525669 92.19544876131486 43.06542832370546 H 0.0 **** 0.06
7340 H 128.0937683375319 93.83808983067865 43.66388220101585 H 0.0 **** 0.06
7341 C 28.319945945782088 129.03445790151565 42.74984449436765 C 0.0 **** -0.24
7342 H 29.2919920588538 128.54165728071487 42.74748627328819 H 0.0 **** 0.06
7343 H 27.72884581957284 128.66867646862156 43.59057829166504 H 0.0 **** 0.06
7344 H 27.799298121982332 128.81581086369982 41.817614918578755 H 0.0 **** 0.06
7345 H 28.459708783336758 130.11120232642 42.845025687332296 H 0.0 **** 0.06
7346 C 131.70082719254114 19.711897730068095 146.61611726472407 C 0.0 **** -0.24
7347 H 131.66043253378956 20.244928055174938 147.56577330707336 H 0.0 **** 0.06
7348 H 132.7326863261789 19.67179487855175 146.2649645756197 H 0.0 **** 0.06
7349 H 131.0862521371647 20.232850284451445 145.88091956510496 H 0.0 **** 0.06
7350 H 131.32297409119874 18.69799279320793 146.75177683480717 H 0.0 **** 0.06
7351 C 13.649088783366523 94.40449459634712 59.706255622051174 C 0.0 **** -0.24
7352 H 14.36822519998654 93.8066924461137 59.14676026293341 H 0.0 **** 0.06
7353 H 12.655202065636843 94.27228123261756 59.27811837092385 H 0.0 **** 0.06
7354 H 13.932096908322421 95.45628858252991 59.65291221615337 H 0.0 **** 0.06
7355 H 13.642153240530433 94.08231066173387 60.74752699945914 H 0.0 **** 0.06
7356 C 114.65049925311762 34.75010848229118 73.59003443039042 C 0.0 **** -0.24
7357 H 114.28256951112549 33.771649854598365 73.8966922972281 H 0.0 **** 0.06
7358 H 114.88185633495046 34.733798494285395 72.5252896085736 H 0.0 **** 0.06
7359 H 115.5504291351855 34.99393274716152 74.15452677061329 H 0.0 **** 0.06
7360 H 113.88592647594079 35.50298267704659 73.78452253443403 H 0.0 **** 0.06
7361 C 70.20443162573902 109.22105389829164 18.7877704653215 C 0.0 **** -0.24
7362 H 69.66541387459428 109.99959529356966 18.24770487808121 H 0.0 **** 0.06
7363 H 70.99962831262056 108.82491565919219 18.1559022754399 H 0.0 **** 0.06
7364 H 69.51519131891784 108.41955930996863 19.052938118439528 H 0.0 **** 0.06
7365 H 70.6376503476072 109.6421221893653 19.69479620385465 H 0.0 **** 0.06
7366 C 93.27641986911226 150.01877916447648 73.01727282580418 C 0.0 **** -0.24
7367 H 93.61818262343667 149.30999985653332 72.26276186167323 H 0.0 **** 0.06
7368 H 92.73384645156364 149.4856237090354 73.79727217412788 H 0.0 **** 0.06
7369 H 92.61792359636073 150.75313032522237 72.55264531455275 H 0.0 **** 0.06
7370 H 94.13631527015787 150.52686004757368 73.45408673968856 H 0.0 **** 0.06
7371 C 54.01428035177929 68.08695212570879 136.1506381127662 C 0.0 **** -0.24
7372 H 55.0015693570668 68.50503536803836 135.95413748934783 H 0.0 **** 0.06
7373 H 53.59950614416714 67.68613132821798 135.22558961345712 H 0.0 **** 0.06
7374 H 53.35893804444875 68.86867284972868 136.53415320508378 H 0.0 **** 0.06
7375 H 54.099034757616266 67.2890587502381 136.88762351703986 H 0.0 **** 0.06
7376 C 80.31133894267481 22.49219446490026 58.57435475186833 C 0.0 **** -0.24
7377 H 79.41466730256332 22.744955467534695 59.14083558952237 H 0.0 **** 0.06
7378 H 80.22879916593553 22.894937791320743 57.564878814629424 H 0.0 **** 0.06
7379 H 80.41681951743027 21.408078712730685 58.52724240495749 H 0.0 **** 0.06
7380 H 81.18391729455868 22.920009524560008 59.06691939838802 H 0.0 **** 0.06
7381 C 97.75110177555507 132.62697065712428 66.25324972226798 C 0.0 **** -0.24
7382 H 98.44407434867045 133.07264140920222 66.96589986027215 H 0.0 **** 0.06
7383 H 96.73243360554791 132.92451485923857 66.50117564805785 H 0.0 **** 0.06
7384 H 97.83372225308943 131.54025797012017 66.29833984363995 H 0.0 **** 0.06
7385 H 97.99577187121844 132.96861764415337 65.24740750889686 H 0.0 **** 0.06
7386 C 92.22201502507905 152.30510427719756 48.29905586822399 C 0.0 **** -0.24
7387 H 91.5042476576904 152.77435523682607 47.626235525682034 H 0.0 **** 0.06
7388 H 91.73575873760349 151.49229082894396 48.839836636718275 H 0.0 **** 0.06
7389 H 92.59262364669418 153.04492034709523 49.00852686900343 H 0.0 **** 0.06
7390 H 93.0555699004946 151.90727800889155 47.720041007751135 H 0.0 **** 0.06
7391 C 105.43796952249248 127.75743482297497 46.264054698360894 C 0.0 **** -0.24
7392 H 105.60589217087163 126.9561084730368 45.543759085329185 H 0.0 **** 0.06
7393 H 105.23373611707648 127.32683857892323 47.244490453924016 H 0.0 **** 0.06
7394 H 104.58608529460692 128.35837574852087 45.94506260862295 H 0.0 **** 0.06
7395 H 106.32628312795667 128.38671268261817 46.320063527071056 H 0.0 **** 0.06
7396 C 41.03521969522514 102.98423306994368 23.649494469433378 C 0.0 **** -0.24
7397 H 40.92903108532603 102.07922291142972 24.24687728919657 H 0.0 **** 0.06
7398 H 40.302573553005374 102.97505369869816 22.842740462547575 H 0.0 **** 0.06
7399 H 42.03954730286446 103.02482998052216 23.227729580087818 H 0.0 **** 0.06
7400 H 40.87065426638945 103.85788446212922 24.28099994815927 H 0.0 **** 0.06
7401 C 68.40251949286045 101.88871315527966 69.54328084702374 C 0.0 **** -0.24
7402 H 68.75644655519233 102.36397797684627 68.62871502778009 H 0.0 **** 0.06
7403 H 68.49880811998332 102.5872876089265 70.37579269519789 H 0.0 **** 0.06
7404 H 68.99835869079158 100.99880752127585 69.74375591465507 H 0.0 **** 0.06
7405 H 67.35566666644294 101.60693150787837 69.42400394017378 H 0.0 **** 0.06
7406 C 70.600633691642 54.89828663949719 116.21228128315857 C 0.0 **** -0.24
7407 H 69.86180057846337 54.29515043815391 115.68335400347934 H 0.0 **** 0.06
7408 H 71.16371557225767 54.263146184026766 116.89662775326934 H 0.0 **** 0.06
7409 H 70.09364837664555 55.68164550210942 116.77549922252012 H 0.0 **** 0.06
7410 H 71.2817900074609 55.351115490881725 115.49218145773756 H 0.0 **** 0.06
7411 C 46.45910700696194 124.43535762400313 137.60933132384685 C 0.0 **** -0.24
7412 H 47.099017928793174 123.78668761097128 137.01110904221292 H 0.0 **** 0.06
7413 H 46.03167352111406 125.21162543351204 136.97432141207767 H 0.0 **** 0.06
7414 H 47.048759825187986 124.89631125397551 138.4009473510075 H 0.0 **** 0.06
7415 H 45.65626431532016 123.84514805015556 138.05180952855065 H 0.0 **** 0.06
7416 C 44.4854246215269 71.00065241895152 138.7119397557352 C 0.0 **** -0.24
7417 H 44.6438871184084 71.04579629973068 137.63357274922933 H 0.0 **** 0.06
7418 H 44.742607134746834 70.00638547415696 139.07539542893144 H 0.0 **** 0.06
7419 H 43.438304043579535 71.20909894043072 138.93314608051787 H 0.0 **** 0.06
7420 H 45.11594172187078 71.7420695740204 139.2025571776367 H 0.0 **** 0.06
7421 C 107.92032669977631 79.73638925648727 129.8294737490053 C 0.0 **** -0.24
7422 H 107.67353694562588 79.35606869633922 128.8382090207163 H 0.0 **** 0.06
7423 H 108.95921900116512 79.50073891599217 130.0607838908248 H 0.0 **** 0.06
7424 H 107.2681597125228 79.27076758217807 130.5695469917158 H 0.0 **** 0.06
7425 H 107.77864860820073 80.81700015328967 129.8493504169467 H 0.0 **** 0.06
7426 C 122.3775161936231 112.98039734446803 103.13000347610232 C 0.0 **** -0.24
7427 H 121.72781754757484 113.77981545253067 103.48825768076829 H 0.0 **** 0.06
7428 H 122.88060451920946 113.30340518098143 102.21862444223534 H 0.0 **** 0.06
7429 H 121.7786639411904 112.09360010744274 102.9200336106946 H 0.0 **** 0.06
7430 H 123.11926049848772 112.74510460687071 103.89284904676005 H 0.0 **** 0.06
7431 C 44.92269828854245 112.68373477731099 72.13845723298961 C 0.0 **** -0.24
7432 H 44.38520434078447 113.62933666608343 72.21705133050821 H 0.0 **** 0.06
7433 H 45.98584039454798 112.88069751597781 72.00171952045059 H 0.0 **** 0.06
7434 H 44.54400578057921 112.12108390224121 71.28449898756494 H 0.0 **** 0.06
7435 H 44.7729548750453 112.10482790132845 73.0500955536236 H 0.0 **** 0.06
7436 C 142.12647747359284 93.37552759316458 137.9951166855691 C 0.0 **** -0.24
7437 H 141.12301228934362 93.28964195869666 137.57765414969754 H 0.0 **** 0.06
7438 H 142.50089783551576 92.38299084727487 138.2445898383266 H 0.0 **** 0.06
7439 H 142.0935293438588 93.98937576819178 138.8956440499491 H 0.0 **** 0.06
7440 H 142.78565858423045 93.84039585545027 137.2624930379871 H 0.0 **** 0.06
7441 C 19.99958370025766 40.16915558151048 34.516736265490145 C 0.0 **** -0.24
7442 H 19.85879600475147 40.70441395417558 35.45589651712189 H 0.0 **** 0.06
7443 H 19.475230450184966 39.21506392629688 34.56039886340612 H 0.0 **** 0.06
7444 H 21.06281626164653 39.99342227545765 34.35419093122519 H 0.0 **** 0.06
7445 H 19.600779803675294 40.76650832800641 33.69560418994915 H 0.0 **** 0.06
7446 C 74.73041021902245 76.88209395525138 115.0931851767311 C 0.0 **** -0.24
7447 H 75.15530959713303 77.22685022716928 116.0349177515367 H 0.0 **** 0.06
7448 H 74.1532449874646 75.97304962131841 115.26609095167298 H 0.0 **** 0.06
7449 H 75.53427991443594 76.6734527942316 114.38663080684584 H 0.0 **** 0.06
7450 H 74.07825535557197 77.65403551369019 114.68378933116723 H 0.0 **** 0.06
7451 C 29.4052836206505 79.89466892171129 107.68145542085053 C 0.0 **** -0.24
7452 H 30.426100849076747 79.63909000658366 107.96550519535525 H 0.0 **** 0.06
7453 H 28.710189238337037 79.20915179359741 108.16573914154726 H 0.0 **** 0.06
7454 H 29.29946728995327 79.81607908279227 106.59951955964085 H 0.0 **** 0.06
7455 H 29.187101982822632 80.91616096839672 107.99373007174832 H 0.0 **** 0.06
7456 C 92.80500233262082 89.33707622339682 20.904656072753227 C 0.0 **** -0.24
7457 H 92.54517691227443 88.7174910484336 21.762645358640555 H 0.0 **** 0.06
7458 H 93.24235332809653 88.71280117504318 20.124339149953073 H 0.0 **** 0.06
7459 H 93.52757729036186 90.0950660042246 21.209952078576578 H 0.0 **** 0.06
7460 H 91.90764632402087 89.82278329446913 20.522351900128797 H 0.0 **** 0.06
7461 C 146.81248435520098 94.36493769273171 141.3221796552678 C 0.0 **** -0.24
7462 H 146.626202698157 93.65170084368334 142.12576477633377 H 0.0 **** 0.06
7463 H 146.45980796094253 95.35185179697515 141.6247381488993 H 0.0 **** 0.06
7464 H 146.27990854649724 94.04789411234279 140.42562232701792 H 0.0 **** 0.06
7465 H 147.8810931216107 94.40794422698004 141.11489876111298 H 0.0 **** 0.06
7466 C 118.89262087205266 107.42833573130058 28.578026160588024 C 0.0 **** -0.24
7467 H 117.84778236546786 107.11895400003216 28.545009144416383 H 0.0 **** 0.06
7468 H 119.33469829445598 107.11370500199739 29.524155526020024 H 0.0 **** 0.06
7469 H 118.95218912636098 108.51359558908958 28.49231528529029 H 0.0 **** 0.06
7470 H 119.43337788733753 106.96745513207726 27.752607763028465 H 0.0 **** 0.06
7471 C 19.536291622753687 21.445411522837333 75.66534867234378 C 0.0 **** -0.24
7472 H 18.49748883547015 21.462620370498314 75.33643336534794 H 0.0 **** 0.06
7473 H 20.16936466644586 21.089876076962668 74.85256042828053 H 0.0 **** 0.06
7474 H 19.63436882353868 20.77795127498723 76.52189369377294 H 0.0 **** 0.06
7475 H 19.843533532766486 22.451856760569115 75.95168955818895 H 0.0 **** 0.06
7476 C 68.65768416184451 108.92296450371676 4.692523934653067 C 0.0 **** -0.24
7477 H 69.49043445568782 108.3199458719077 5.054872052596316 H 0.0 **** 0.06
7478 H 68.96788279613085 109.47406082548149 3.8047270418534893 H 0.0 **** 0.06
7479 H 68.35359277083302 109.62496711903604 5.4690092394272725 H 0.0 **** 0.06
7480 H 67.81983131615351 108.27156086595362 4.442600740470866 H 0.0 **** 0.06
7481 C 66.12207071265311 94.82570985730781 123.73717613020209 C 0.0 **** -0.24
7482 H 65.118425863484 94.69076373645599 123.33466375320559 H 0.0 **** 0.06
7483 H 66.82186662322485 94.2002675433168 123.1838125661843 H 0.0 **** 0.06
7484 H 66.13191047527513 94.54062989679429 124.78952554421959 H 0.0 **** 0.06
7485 H 66.4139532633768 95.87183529000127 123.64172538016946 H 0.0 **** 0.06
7486 C 21.14045279590283 40.12040230482555 88.0289420006149 C 0.0 **** -0.24
7487 H 21.321380862943016 39.41118634189664 87.22063360926279 H 0.0 **** 0.06
7488 H 20.072230690518893 40.15687326482319 88.24593305954613 H 0.0 **** 0.06
7489 H 21.484556238702396 41.10920449797749 87.72810206477055 H 0.0 **** 0.06
7490 H 21.681760523813267 39.8012506868713 88.91912952782593 H 0.0 **** 0.06
7491 C 140.6926455434709 28.654282982279682 133.9213608193492 C 0.0 **** -0.24
7492 H 140.1733729571476 28.01535064804176 133.2068525029943 H 0.0 **** 0.06
7493 H 140.47360836215327 29.69846963495408 133.70037985368995 H 0.0 **** 0.06
7494 H 141.76673380074314 28.484178957864685 133.84742364053804 H 0.0 **** 0.06
7495 H 140.355958309428 28.41765999614759 134.93086116651 H 0.0 **** 0.06
7496 C 101.96552616164733 16.762430825594002 62.55271728604802 C 0.0 **** -0.24
7497 H 101.59665989660543 16.010265383327997 63.250474060173914 H 0.0 **** 0.06
7498 H 102.3453027667304 16.271971962795753 61.65639730557376 H 0.0 **** 0.06
7499 H 102.76677677295531 17.331979783042506 63.02311828499033 H 0.0 **** 0.06
7500 H 101.15167872826318 17.435874249918122 62.28230092253503 H 0.0 **** 0.06
7501 C 17.219268590331893 151.02566949253816 69.93507542558166 C 0.0 **** -0.24
7502 H 17.96968932232221 150.4265563252972 69.42029899345937 H 0.0 **** 0.06
7503 H 17.264742997679775 150.82305624521064 71.00495748004465 H 0.0 **** 0.06
7504 H 16.228815889821476 150.7700606022151 69.55862328710418 H 0.0 **** 0.06
7505 H 17.41447891017725 152.0836003329315 69.75689021101127 H 0.0 **** 0.06
7506 C 57.29182263956092 33.49866477487082 5.5470384214539195 C 0.0 **** -0.24
7507 H 57.88364338676733 33.07144258109017 4.736776667328286 H 0.0 **** 0.06
7508 H 56.59515359910105 32.74850194358863 5.923018061397443 H 0.0 **** 0.06
7509 H 56.735268097274385 34.35850279968857 5.175697275458845 H 0.0 **** 0.06
7510 H 57.954872823880166 33.81483823802877 6.35202938374448 H 0.0 **** 0.06
7511 C 142.3986404770893 125.57040782861388 9.727079922520126 C 0.0 **** -0.24
7512 H 141.60391893554126 124.84471697594354 9.556829814510337 H 0.0 **** 0.06
7513 H 143.24551449863284 125.34055651872812 9.080166132439096 H 0.0 **** 0.06
7514 H 142.71429955366995 125.5253166604932 10.769382087860365 H 0.0 **** 0.06
7515 H 142.02952067700946 126.57138137360262 9.502357369421922 H 0.0 **** 0.06
7516 C 76.7155703190949 121.87030289361695 58.403529162855406 C 0.0 **** -0.24
7517 H 76.63336789565315 122.93106570562236 58.64447054989279 H 0.0 **** 0.06
7518 H 77.11332764409302 121.33259263410116 59.264492852302695 H 0.0 **** 0.06
7519 H 77.38649055903875 121.74334306259391 57.55367804827996 H 0.0 **** 0.06
7520 H 75.73067320626906 121.47727645858811 58.15180399203638 H 0.0 **** 0.06
7521 C 67.26440076844621 102.96834625724551 156.704461179433 C 0.0 **** -0.24
7522 H 67.63377161270537 103.53427189630969 155.84946292834175 H 0.0 **** 0.06
7523 H 67.01377160969197 103.65398808631585 157.51353778846274 H 0.0 **** 0.06
7524 H 68.03524171873805 102.27451234021032 157.0420533057583 H 0.0 **** 0.06
7525 H 66.37508118260035 102.40932178506364 156.413304886361 H 0.0 **** 0.06
7526 C 92.85928932718016 104.3994129738815 14.771619260953116 C 0.0 **** -0.24
7527 H 93.20229493610306 103.49039530031347 14.276736731862314 H 0.0 **** 0.06
7528 H 91.83927829476154 104.61991887590706 14.458412810215975 H 0.0 **** 0.06
7529 H 93.51166412123783 105.22896063606633 14.500956298110566 H 0.0 **** 0.06
7530 H 92.88434186646093 104.25499144760069 15.851907406443758 H 0.0 **** 0.06
7531 C 145.83356428120112 28.802721570437996 105.58929824306489 C 0.0 **** -0.24
7532 H 145.34863960881376 28.105395857375754 104.90621363601122 H 0.0 **** 0.06
7533 H 145.5769807671565 28.542200234310855 106.61660843789377 H 0.0 **** 0.06
7534 H 145.49312122858345 29.816439808655986 105.37585371988558 H 0.0 **** 0.06
7535 H 146.91360890316543 28.747307380222736 105.45891226526027 H 0.0 **** 0.06
7536 C 96.95048156908297 59.536038080278715 155.64370342027894 C 0.0 **** -0.24
7537 H 97.51784164049263 59.33457171161315 156.55178022858115 H 0.0 **** 0.06
7538 H 97.59766401959757 59.40655261622102 154.7756762932117 H 0.0 **** 0.06
7539 H 96.57513758375481 60.55833441461503 155.66753024802182 H 0.0 **** 0.06
7540 H 96.11280691832008 58.8422429122962 155.57853372461318 H 0.0 **** 0.06
7541 C 134.38346331689064 86.34594241964194 94.61739198172666 C 0.0 **** -0.24
7542 H 135.43429416452716 86.44283775057657 94.8917084431395 H 0.0 **** 0.06
7543 H 134.19703047417255 85.3408785634183 94.24068643448224 H 0.0 **** 0.06
7544 H 134.14216076463492 87.07576488795372 93.84443407759578 H 0.0 **** 0.06
7545 H 133.76226178221145 86.52686719599734 95.49440141091696 H 0.0 **** 0.06
7546 C 17.032010357236203 71.88005433192879 64.91969927694637 C 0.0 **** -0.24
7547 H 17.833661640959228 71.19484017734632 65.19724114446713 H 0.0 **** 0.06
7548 H 16.986671342686968 71.96223575568595 63.83275018480755 H 0.0 **** 0.06
7549 H 17.226942619788375 72.86197654289914 65.35094729963056 H 0.0 **** 0.06
7550 H 16.08240351315964 71.49908390637893 65.29521497721 H 0.0 **** 0.06
7551 C 19.73888210229873 70.24427327401395 80.07800345040768 C 0.0 **** -0.24
7552 H 20.062582721035852 70.42393202041148 79.05365523897663 H 0.0 **** 0.06
7553 H 20.12537056251324 71.03210889780112 80.72483525419415 H 0.0 **** 0.06
7554 H 20.1159422049343 69.2788338247585 80.4148194336365 H 0.0 **** 0.06
7555 H 18.649185123405772 70.24213345146018 80.11866816262545 H 0.0 **** 0.06
7556 C 22.60336596261891 88.60990103612812 114.59792119194282 C 0.0 **** -0.24
7557 H 23.50834032649101 88.10667744218313 114.25741115072606 H 0.0 **** 0.06
7558 H 22.553451338757327 89.60464839385153 114.15543516266342 H 0.0 **** 0.06
7559 H 22.622677772956536 88.695670896347 115.68419797246577 H 0.0 **** 0.06
7560 H 21.730987311964043 88.0324469306542 114.29458826403766 H 0.0 **** 0.06
7561 C 42.489275352173294 136.89374890498286 12.67603061217909 C 0.0 **** -0.24
7562 H 42.04135031320776 137.83557825755483 12.361651462961618 H 0.0 **** 0.06
7563 H 43.496640309259504 136.8151065347735 12.263847422571871 H 0.0 **** 0.06
7564 H 41.88232910865055 136.06361775480667 12.314446311240317 H 0.0 **** 0.06
7565 H 42.539013382847685 136.86066296944935 13.764314175698246 H 0.0 **** 0.06
7566 C 2.6579498243349633 103.47770056273782 44.140903715622585 C 0.0 **** -0.24
7567 H 2.8219844392492632 103.01389633645351 43.16774289276066 H 0.0 **** 0.06
7568 H 2.6240613012896574 104.56118122801178 44.02607387482004 H 0.0 **** 0.06
7569 H 3.472455683835477 103.20872272778956 44.81263860695111 H 0.0 **** 0.06
7570 H 1.7135251876318875 103.1262758619929 44.555309828038844 H 0.0 **** 0.06
7571 C 48.553252910432306 23.731031660453915 137.3912200557304 C 0.0 **** -0.24
7572 H 48.96648011667514 24.10742189029952 138.32693440222522 H 0.0 **** 0.06
7573 H 48.96736260115229 24.297182878923472 136.55682108803657 H 0.0 **** 0.06
7574 H 47.46936823392441 23.840661834257823 137.40386393624541 H 0.0 **** 0.06
7575 H 48.81136249074366 22.677478895362704 137.2791722050187 H 0.0 **** 0.06
7576 C 128.08184384648195 33.975962722479125 34.9810266979448 C 0.0 **** -0.24
7577 H 128.30084342279144 34.18609163015094 33.93456758781858 H 0.0 **** 0.06
7578 H 127.48233327330688 33.067342683977955 35.05111541586686 H 0.0 **** 0.06
7579 H 127.52854301775498 34.8108620381164 35.41103367094104 H 0.0 **** 0.06
7580 H 129.01505187288245 33.83846107579947 35.52672691826058 H 0.0 **** 0.06
7581 C 90.13790235384323 25.952239907418857 62.176479804839744 C 0.0 **** -0.24
7582 H 90.57769558263985 25.013316445522037 61.84031865846231 H 0.0 **** 0.06
7583 H 89.05530508937557 25.909974955395967 62.05692852859431 H 0.0 **** 0.06
7584 H 90.53832680333272 26.77358912691281 61.58161560668799 H 0.0 **** 0.06
7585 H 90.38267933382014 26.11172122281954 63.226703408772096 H 0.0 **** 0.06
7586 C 17.99041167447467 87.59595677592483 98.65555565031754 C 0.0 **** -0.24
7587 H 17.3015665288614 88.1396430281539 99.30190098203819 H 0.0 **** 0.06
7588 H 19.012256547970907 87.7460614735283 99.00656329126461 H 0.0 **** 0.06
7589 H 17.898332918886553 87.96538697634765 97.63425329644045 H 0.0 **** 0.06
7590 H 17.7504879942893 86.53290531359096 98.68091098746757 H 0.0 **** 0.06
7591 C 81.69976580940565 70.51361755366943 77.62982577374467 C 0.0 **** -0.24
7592 H 80.7017880044672 70.73771729787794 78.00807346240617 H 0.0 **** 0.06
7593 H 82.16001386059851 71.42899893561503 77.25715924014985 H 0.0 **** 0.06
7594 H 81.62671404109341 69.78674465308015 76.82085612230946 H 0.0 **** 0.06
7595 H 82.30904028320862 70.10243987757161 78.43404040359373 H 0.0 **** 0.06
7596 C 25.584241163368553 12.837956857054195 10.397973792771268 C 0.0 **** -0.24
7597 H 26.192236135820067 12.142564509183558 10.976527387692954 H 0.0 **** 0.06
7598 H 24.83751513862955 12.281612622946454 9.83103285890627 H 0.0 **** 0.06
7599 H 26.22140696981954 13.393802626695958 9.712117541987539 H 0.0 **** 0.06
7600 H 25.084525193885455 13.531680760632213 11.073849340427444 H 0.0 **** 0.06
7601 C 141.15962800326471 37.14868909342414 129.67003302272795 C 0.0 **** -0.24
7602 H 141.11655117952316 36.149324635046014 129.2359146422159 H 0.0 **** 0.06
7603 H 141.71557587528514 37.81027431122439 129.00597382151804 H 0.0 **** 0.06
7604 H 141.6584451837144 37.10175933413677 130.63778592084668 H 0.0 **** 0.06
7605 H 140.14757731795436 37.53065504781301 129.80104472177987 H 0.0 **** 0.06
7606 C 142.1692636046106 136.56683511976664 72.75710830358233 C 0.0 **** -0.24
7607 H 142.01621598754738 135.8239980830829 73.53864919673951 H 0.0 **** 0.06
7608 H 143.15351994797408 136.42432955881418 72.30808227868819 H 0.0 **** 0.06
7609 H 142.10825318726492 137.56646158281418 73.1878754663588 H 0.0 **** 0.06
7610 H 141.40087393319956 136.45422060747322 71.99243259008271 H 0.0 **** 0.06
7611 C 93.56208893156767 31.233050568804046 137.66838090390007 C 0.0 **** -0.24
7612 H 93.11310679458347 30.330337156383365 138.0822651826253 H 0.0 **** 0.06
7613 H 92.79457802028509 31.999532461868 137.55114502350614 H 0.0 **** 0.06
7614 H 94.00109178493221 31.006611569610243 136.69652002971236 H 0.0 **** 0.06
7615 H 94.33748062746153 31.59517184874943 138.34245547195565 H 0.0 **** 0.06
7616 C 145.19681587292618 101.84979945638572 58.31589767263246 C 0.0 **** -0.24
7617 H 144.7299916268684 101.21720241008568 57.56115482927133 H 0.0 **** 0.06
7618 H 144.4792215370847 102.05823567796956 59.109173392555235 H 0.0 **** 0.06
7619 H 145.51556876005807 102.78634339664482 57.85793290620765 H 0.0 **** 0.06
7620 H 146.06366262731282 101.33774896168175 58.73462633660567 H 0.0 **** 0.06
7621 C 14.039644131491151 24.2576068003032 116.84278533912571 C 0.0 **** -0.24
7622 H 13.016442596510366 24.104230692961437 117.18720817782263 H 0.0 **** 0.06
7623 H 14.421430702694693 23.329232882125666 116.41487338641498 H 0.0 **** 0.06
7624 H 14.665200567038944 24.55500928858998 117.68311533743731 H 0.0 **** 0.06
7625 H 14.0539894247121 25.039544680893705 116.08351461319283 H 0.0 **** 0.06
7626 C 116.20085801543759 139.20600828642182 83.95108821773533 C 0.0 **** -0.24
7627 H 116.12134239349037 138.7539513367256 84.93981945348702 H 0.0 **** 0.06
7628 H 115.84679418247156 138.49968532234192 83.19966997928879 H 0.0 **** 0.06
7629 H 117.24137898633718 139.4598996494026 83.75051919658969 H 0.0 **** 0.06
7630 H 115.59333346165776 140.1105702583298 83.9156306090859 H 0.0 **** 0.06
7631 C 148.5500121975993 147.80330848288457 12.219109986881108 C 0.0 **** -0.24
7632 H 149.23148035366717 148.12194570280707 13.007318789230112 H 0.0 **** 0.06
7633 H 147.52031586813098 147.93570960814452 12.552059082572647 H 0.0 **** 0.06
7634 H 148.72597388110887 146.75235972626385 11.989369106022629 H 0.0 **** 0.06
7635 H 148.7231091867472 148.40404630965406 11.324931457830502 H 0.0 **** 0.06
7636 C 15.887877657842445 62.343325170692054 85.79219604285845 C 0.0 **** -0.24
7637 H 14.925202975240865 62.670715062792084 85.40062107225101 H 0.0 **** 0.06
7638 H 16.35608002242379 61.66171074830787 85.0828188786577 H 0.0 **** 0.06
7639 H 15.737625377901175 61.8312706503456 86.7429500128067 H 0.0 **** 0.06
7640 H 16.531330626179972 63.20967902452311 85.9442320122044 H 0.0 **** 0.06
7641 C 81.01538446605281 25.49812971416344 145.24697391801521 C 0.0 **** -0.24
7642 H 80.95605016273578 25.762351107411888 146.3024203357823 H 0.0 **** 0.06
7643 H 81.82162620047134 24.779469429308108 145.0968860712499 H 0.0 **** 0.06
7644 H 81.21277874524861 26.39401607636492 144.65829506142353 H 0.0 **** 0.06
7645 H 80.070133935211 25.05664795138449 144.92924604869285 H 0.0 **** 0.06
7646 C 118.24470546826416 6.215152383014697 48.97259093259649 C 0.0 **** -0.24
7647 H 118.88413089416434 5.761114842042559 48.21618318756188 H 0.0 **** 0.06
7648 H 118.30943229716536 7.301437781551158 48.89863018064338 H 0.0 **** 0.06
7649 H 118.5721922633901 5.898423307156008 49.963060911269565 H 0.0 **** 0.06
7650 H 117.21386846247037 5.9007492340504655 48.81282434476526 H 0.0 **** 0.06
7651 C 139.29541826721712 124.90917376617165 131.39527453544542 C 0.0 **** -0.24
7652 H 138.53934439328438 125.66621031717091 131.1850183664879 H 0.0 **** 0.06
7653 H 138.90638444578494 124.20082910029595 132.12585659819047 H 0.0 **** 0.06
7654 H 140.18848882624465 125.38983639974595 131.7935207549682 H 0.0 **** 0.06
7655 H 139.5468503825006 124.38275244117125 130.4746947499997 H 0.0 **** 0.06
7656 C 123.10282555258279 150.7496036008032 99.27026495204177 C 0.0 **** -0.24
7657 H 122.98207354194004 149.6710587680979 99.37470482875023 H 0.0 **** 0.06
7658 H 122.35605872173896 151.13246894041484 98.57364371382076 H 0.0 **** 0.06
7659 H 124.1005048734737 150.96843283253003 98.88956767909502 H 0.0 **** 0.06
7660 H 122.97185080782354 151.22516091654242 100.24185308515104 H 0.0 **** 0.06
7661 C 8.281650596464488 110.43461164678602 48.090119706909874 C 0.0 **** -0.24
7662 H 9.006382493531987 110.71267091778368 47.32501423381302 H 0.0 **** 0.06
7663 H 8.09991324488874 109.35998211348603 48.04378792341862 H 0.0 **** 0.06
7664 H 7.347729239085652 110.96976778821333 47.91710095724993 H 0.0 **** 0.06
7665 H 8.673674519626559 110.69470720813526 49.07314117128831 H 0.0 **** 0.06
7666 C 135.32852287435702 8.37611699288884 35.03104251105139 C 0.0 **** -0.24
7667 H 135.53892821763347 9.284298248791124 35.59597974010752 H 0.0 **** 0.06
7668 H 135.39456942943872 7.512850806590386 35.693850206648236 H 0.0 **** 0.06
7669 H 136.05721287717387 8.27277711157479 34.226505720524635 H 0.0 **** 0.06
7670 H 134.32573863976253 8.434292824885198 34.608450504099515 H 0.0 **** 0.06
7671 C 37.56788858309369 101.50139568220601 66.47045627665786 C 0.0 **** -0.24
7672 H 37.23374455091948 101.85547816262607 65.49423852607045 H 0.0 **** 0.06
7673 H 38.65713919947848 101.49282171003136 66.49928731886347 H 0.0 **** 0.06
7674 H 37.19079761131616 100.49281426480883 66.63878507305117 H 0.0 **** 0.06
7675 H 37.1872214485702 102.16598046661016 67.24656728353774 H 0.0 **** 0.06
7676 C 126.5629362156846 137.05755418397987 60.35135351063822 C 0.0 **** -0.24
7677 H 125.95026325981229 136.49659948878872 59.646423504803465 H 0.0 **** 0.06
7678 H 125.95502535756992 137.82524256173315 60.82998970941874 H 0.0 **** 0.06
7679 H 127.390123086622 137.5274335632241 59.819711801935085 H 0.0 **** 0.06
7680 H 126.95627060537953 136.38004763873874 61.1097337813609 H 0.0 **** 0.06
7681 C 60.25338225867377 37.45517551400168 65.9983946450305 C 0.0 **** -0.24
7682 H 60.01992309184271 38.38941875287175 65.48796536397367 H 0.0 **** 0.06
7683 H 60.15671475894733 37.59571880308353 67.07508524953973 H 0.0 **** 0.06
7684 H 61.27340921773319 37.1565294376379 65.7596057253952 H 0.0 **** 0.06
7685 H 59.561016409379704 36.67978482456557 65.6693862791808 H 0.0 **** 0.06
7686 C 35.88110709056082 22.59877422762318 125.64572634821667 C 0.0 **** -0.24
7687 H 36.550782774542824 22.925710083639274 124.84991725445764 H 0.0 **** 0.06
7688 H 36.36927072144579 21.82045336500616 126.23378470745547 H 0.0 **** 0.06
7689 H 34.96407043141235 22.203736182998483 125.20855317760413 H 0.0 **** 0.06
7690 H 35.64179793925081 23.444908532869704 126.28901128016815 H 0.0 **** 0.06
7691 C 149.6761988390147 65.53864773468499 128.23035235812614 C 0.0 **** -0.24
7692 H 150.1593356452937 66.49912031747778 128.41134665153277 H 0.0 **** 0.06
7693 H 150.2934349315688 64.94238527024773 127.55764262771224 H 0.0 **** 0.06
7694 H 148.69880274604685 65.70392918872572 127.77678472550569 H 0.0 **** 0.06
7695 H 149.55346284655636 65.01023766899932 129.17475655504572 H 0.0 **** 0.06
7696 C 98.71757659664875 129.0284726719089 127.78595650180752 C 0.0 **** -0.24
7697 H 98.79014315150461 128.85566459141134 128.85964366666528 H 0.0 **** 0.06
7698 H 98.82833305431589 128.08105468108556 127.25719486089152 H 0.0 **** 0.06
7699 H 99.50718033470064 129.7125043046764 127.47433919556609 H 0.0 **** 0.06
7700 H 97.74686627982923 129.46438813171986 127.5525495166137 H 0.0 **** 0.06
7701 C 86.17366370132436 139.60160037566547 128.3607400308809 C 0.0 **** -0.24
7702 H 85.99948374136079 140.06569968213074 127.39051695734607 H 0.0 **** 0.06
7703 H 87.23925573145311 139.40835104759995 128.4855559098247 H 0.0 **** 0.06
7704 H 85.62569680554836 138.66077688851567 128.41766222581816 H 0.0 **** 0.06
7705 H 85.83025817819387 140.27000831621413 129.1508211466745 H 0.0 **** 0.06
7706 C 37.141179256648684 54.12357265148984 124.17593515082353 C 0.0 **** -0.24
7707 H 36.40779050483344 53.32068191095294 124.23863294904743 H 0.0 **** 0.06
7708 H 37.15625147463102 54.67579721240509 125.11575936040276 H 0.0 **** 0.06
7709 H 36.874023427252254 54.79701371030069 123.36132322681271 H 0.0 **** 0.06
7710 H 38.128461507206495 53.699858802844346 123.98710702184354 H 0.0 **** 0.06
7711 C 43.562922298483386 58.04083487070231 10.016631716524941 C 0.0 **** -0.24
7712 H 43.6085407484065 58.53136166580411 10.988574136391982 H 0.0 **** 0.06
7713 H 43.990587226790055 57.041279698943086 10.093689056718475 H 0.0 **** 0.06
7714 H 44.12947556656535 58.62363902654931 9.2891480815573 H 0.0 **** 0.06
7715 H 42.524036116672974 57.968338989398106 9.694438408824759 H 0.0 **** 0.06
7716 C 152.43942722990988 142.75156339192932 150.20021261764472 C 0.0 **** -0.24
7717 H 151.67056533046224 141.98578626358005 150.10096838407088 H 0.0 **** 0.06
7718 H 152.58238890692957 143.24965808319587 149.24100913299966 H 0.0 **** 0.06
7719 H 153.37604241216013 142.2872440554974 150.51137700520513 H 0.0 **** 0.06
7720 H 152.13055070282581 143.4819487981643 150.94740810080557 H 0.0 **** 0.06
7721 C 11.553965816133065 37.516636442442916 100.28591263182994 C 0.0 **** -0.24
7722 H 10.584362022700404 37.42401313511755 100.77418821581637 H 0.0 **** 0.06
7723 H 12.343268233752703 37.26267981295689 100.99404639207683 H 0.0 **** 0.06
7724 H 11.690055100377094 38.541805637355594 99.94142968379612 H 0.0 **** 0.06
7725 H 11.598177907701931 36.83804718434152 99.43398623563053 H 0.0 **** 0.06
7726 C 40.47827097206317 130.58315644544697 59.682240185934134 C 0.0 **** -0.24
7727 H 41.300628388575035 130.87740984845138 59.03058393743633 H 0.0 **** 0.06
7728 H 39.93922905446543 131.47209536913635 60.01089516393422 H 0.0 **** 0.06
7729 H 40.87288581299747 130.05560943610683 60.55005636446916 H 0.0 **** 0.06
7730 H 39.79986366918352 129.92696959464106 59.1362090078255 H 0.0 **** 0.06
7731 C 67.72968808864925 95.406419225499 1.2701957219310636 C 0.0 **** -0.24
7732 H 67.1908524885566 94.80218421392445 0.5416760890366206 H 0.0 **** 0.06
7733 H 67.28302219164352 95.2702728223625 2.255364448979943 H 0.0 **** 0.06
7734 H 67.67046022131467 96.45701704078587 0.9864353460067221 H 0.0 **** 0.06
7735 H 68.77439369286498 95.095963240226 1.2990222681919974 H 0.0 **** 0.06
7736 C 55.79154946427468 38.41675346141824 93.78424896521244 C 0.0 **** -0.24
7737 H 56.69027205664298 38.31719235137666 94.39282184850764 H 0.0 **** 0.06
7738 H 55.16321725294665 37.53655816914522 93.91835165745451 H 0.0 **** 0.06
7739 H 56.07221504099118 38.507595142294576 92.73464079371531 H 0.0 **** 0.06
7740 H 55.24235908673796 39.30639748170046 94.09259150051041 H 0.0 **** 0.06
7741 C 10.738790315612988 116.09874869330515 75.3999487198893 C 0.0 **** -0.24
7742 H 11.175106898390197 117.01350749480919 74.99839192995199 H 0.0 **** 0.06
7743 H 10.958789408919387 116.02894196258323 76.46634787955864 H 0.0 **** 0.06
7744 H 11.163226286804274 115.23676975554166 74.8845410065707 H 0.0 **** 0.06
7745 H 9.658615158630198 116.11572220324247 75.25242846734326 H 0.0 **** 0.06
7746 C 22.249745933765666 49.358095264410665 73.18029915200117 C 0.0 **** -0.24
7747 H 21.569846630070458 49.74890830925706 73.93803908532956 H 0.0 **** 0.06
7748 H 23.27979829965608 49.52830549058356 73.49319093247124 H 0.0 **** 0.06
7749 H 22.06825855385398 49.86504455732742 72.23346581823117 H 0.0 **** 0.06
7750 H 22.079108553621836 48.28838681100626 73.05794969855805 H 0.0 **** 0.06
7751 C 125.46064241436217 67.14572517907908 124.55085617892331 C 0.0 **** -0.24
7752 H 124.83226243214021 66.35716428779028 124.96502280444071 H 0.0 **** 0.06
7753 H 125.22805141456756 67.27705967807805 123.49366538419144 H 0.0 **** 0.06
7754 H 126.50893878338432 66.87022493315146 124.66217095526116 H 0.0 **** 0.06
7755 H 125.27065438848759 68.07749778276724 125.08258637488149 H 0.0 **** 0.06
7756 C 78.92453827619534 111.12530181118859 34.791299737744765 C 0.0 **** -0.24
7757 H 79.15878941440172 110.5715619350106 35.70155865090352 H 0.0 **** 0.06
7758 H 79.84095847007691 111.54348075512797 34.37538621724315 H 0.0 **** 0.06
7759 H 78.22983713149665 111.93087770727624 35.025462951518364 H 0.0 **** 0.06
7760 H 78.46963262186108 110.45155664146847 34.06450953738571 H 0.0 **** 0.06
7761 C 90.39858059267391 135.2924431531789 127.55197146302642 C 0.0 **** -0.24
7762 H 90.67519820121362 136.32410583226414 127.76807668788938 H 0.0 **** 0.06
7763 H 91.29846153264131 134.680450592644 127.48690161188073 H 0.0 **** 0.06
7764 H 89.86130741984965 135.2504577637934 126.6044935281232 H 0.0 **** 0.06
7765 H 89.75884765156428 134.91410587114427 128.3489766827584 H 0.0 **** 0.06
7766 C 100.09821125431192 72.06431511483012 105.14663186830428 C 0.0 **** -0.24
7767 H 99.34659316948166 71.36629767148892 105.51646642799709 H 0.0 **** 0.06
7768 H 100.933354215248 71.50712650715118 104.7232812685629 H 0.0 **** 0.06
7769 H 100.45439080790386 72.68419539331047 105.97083652295414 H 0.0 **** 0.06
7770 H 99.6566227862376 72.69956097283607 104.37917504403599 H 0.0 **** 0.06
7771 C 135.52792255962657 143.32322081465054 140.39348253289248 C 0.0 **** -0.24
7772 H 135.47482758876214 142.41272447399302 139.79584883434538 H 0.0 **** 0.06
7773 H 136.01294427762167 144.1092675363602 139.81432006015154 H 0.0 **** 0.06
7774 H 136.10240502149256 143.13039263906302 141.29865589546188 H 0.0 **** 0.06
7775 H 134.52008347688863 143.63932977242735 140.66274111347857 H 0.0 **** 0.06
7776 C 144.1393294197027 128.29303353585243 89.64695915615609 C 0.0 **** -0.24
7777 H 143.63297033077546 129.22570252496732 89.89438122651515 H 0.0 **** 0.06
7778 H 144.2249403645187 128.20232546585356 88.56385689799313 H 0.0 **** 0.06
7779 H 143.56434769118832 127.4527830902254 90.03847407332414 H 0.0 **** 0.06
7780 H 145.1340175314826 128.2907493736392 90.09238367785365 H 0.0 **** 0.06
7781 C 109.88884699008607 29.815085475965247 119.71079486651017 C 0.0 **** -0.24
7782 H 109.96152410182661 30.80444140993791 120.16005255873044 H 0.0 **** 0.06
7783 H 109.2254152112567 29.191549176953743 120.3106393887768 H 0.0 **** 0.06
7784 H 110.87904232356642 29.359555229779744 119.67285925304175 H 0.0 **** 0.06
7785 H 109.49068069799425 29.903256419071738 118.69955395244675 H 0.0 **** 0.06
7786 C 29.75396015504237 142.30986397813737 66.58347458835648 C 0.0 **** -0.24
7787 H 29.602719343510103 141.9790102326587 67.61079813770031 H 0.0 **** 0.06
7788 H 29.56702620598505 143.3824554841196 66.51579968853868 H 0.0 **** 0.06
7789 H 29.064580146679006 141.7783605289708 65.92663366867816 H 0.0 **** 0.06
7790 H 30.779805852795697 142.09979284162088 66.28043762661409 H 0.0 **** 0.06
7791 C 12.773201356396164 2.14587988204471 13.636716455314883 C 0.0 **** -0.24
7792 H 13.712818599308179 2.3010978301102227 14.165370825074575 H 0.0 **** 0.06
7793 H 12.926062403137465 2.3044500775289976 12.569180195536035 H 0.0 **** 0.06
7794 H 12.02803522709032 2.8499974271004476 14.00536066879215 H 0.0 **** 0.06
7795 H 12.425274585281045 1.1267084055389773 13.807095905249156 H 0.0 **** 0.06
7796 C 61.117047006486985 107.08213986398026 147.5068334711504 C 0.0 **** -0.24
7797 H 60.70620345801058 107.29721517969985 148.49264218391318 H 0.0 **** 0.06
7798 H 61.35751109233979 106.02018248991531 147.43761422605922 H 0.0 **** 0.06
7799 H 62.0215171747185 107.67014076968091 147.3540810912221 H 0.0 **** 0.06
7800 H 60.3833583376703 107.33911009621904 146.74342867939265 H 0.0 **** 0.06
7801 C 126.23949241306427 28.06483127695992 153.6661535476502 C 0.0 **** -0.24
7802 H 126.46513279375905 27.803046565118848 154.69993875555627 H 0.0 **** 0.06
7803 H 126.35054533881318 27.181825605296126 153.0354864746776 H 0.0 **** 0.06
7804 H 126.92571658020223 28.841711192681828 153.33006778897683 H 0.0 **** 0.06
7805 H 125.21425070998576 28.431242015402745 153.6009512334648 H 0.0 **** 0.06
7806 C 104.60300699428511 69.84130482408605 14.482965286901901 C 0.0 **** -0.24
7807 H 104.23595564741551 70.86684489064893 14.512924049150485 H 0.0 **** 0.06
7808 H 105.6926795156326 69.84650871802096 14.45332759228404 H 0.0 **** 0.06
7809 H 104.21750066524213 69.34376344411035 13.59231206615604 H 0.0 **** 0.06
7810 H 104.26620287348983 69.3080877081133 15.371593522011807 H 0.0 **** 0.06
7811 C 40.05074026117855 69.6996919394502 121.36655046573718 C 0.0 **** -0.24
7812 H 39.515618322339336 68.74957503243077 121.38107917026572 H 0.0 **** 0.06
7813 H 40.09024137577332 70.07793343552841 120.34448308000636 H 0.0 **** 0.06
7814 H 41.06504062601945 69.55085873135788 121.73764632337792 H 0.0 **** 0.06
7815 H 39.53328789183935 70.4178842854053 122.0007211001245 H 0.0 **** 0.06
7816 C 50.24115406519218 82.4799962346147 52.186642106723596 C 0.0 **** -0.24
7817 H 50.52494962201547 83.51645555225207 52.37203053732007 H 0.0 **** 0.06
7818 H 50.200494743056126 81.94029895305789 53.13206967728165 H 0.0 **** 0.06
7819 H 50.97830127612508 82.01412717780312 51.53249862888819 H 0.0 **** 0.06
7820 H 49.26194790217953 82.45211027476228 51.70802080119324 H 0.0 **** 0.06
7821 C 56.89703990522696 154.51555620761076 35.08804961624546 C 0.0 **** -0.24
7822 H 57.47503665256377 153.72273638344782 34.61313050685806 H 0.0 **** 0.06
7823 H 56.76691650477103 154.2863126399038 36.14569462201919 H 0.0 **** 0.06
7824 H 55.920755840841 154.5889261030371 34.60882007051943 H 0.0 **** 0.06
7825 H 57.425099148934976 155.46268159049953 34.982704568382516 H 0.0 **** 0.06
7826 C 155.52064323429772 142.62795716157618 77.46719862574656 C 0.0 **** -0.24
7827 H 156.60662770215572 142.56413561094 77.40759845766283 H 0.0 **** 0.06
7828 H 155.08621490456935 141.6523236644549 77.24604026126741 H 0.0 **** 0.06
7829 H 155.1595945479769 143.3592047640716 76.7441512872704 H 0.0 **** 0.06
7830 H 155.2291038787117 142.9368915716101 78.47164227567725 H 0.0 **** 0.06
7831 C 140.96652925218942 5.077251025503699 30.249612150660994 C 0.0 **** -0.24
7832 H 140.8015667431189 4.47959594377312 31.1454499745916 H 0.0 **** 0.06
7833 H 141.68387960852482 5.86827360033098 30.467879002127177 H 0.0 **** 0.06
7834 H 140.0231958132578 5.519702472107724 29.928778195366363 H 0.0 **** 0.06
7835 H 141.35766995236375 4.441005039724644 29.45500740304169 H 0.0 **** 0.06
7836 C 96.3937288101784 71.56204199053575 152.02567203156818 C 0.0 **** -0.24
7837 H 96.99858339314494 71.01895565074764 151.29875878528168 H 0.0 **** 0.06
7838 H 96.20172692826588 72.56973678744039 151.6577166922114 H 0.0 **** 0.06
7839 H 96.92736091067025 71.61653682880085 152.974174926574 H 0.0 **** 0.06
7840 H 95.44679216187859 71.04090999206444 152.17121288220122 H 0.0 **** 0.06
7841 C 87.06411167809375 100.58254483653042 123.12130264115717 C 0.0 **** -0.24
7842 H 87.40465449415603 99.54752768594506 123.13177807286547 H 0.0 **** 0.06
7843 H 87.69149045678023 101.17740195377093 123.7852488401042 H 0.0 **** 0.06
7844 H 86.02932377201907 100.6281098602717 123.46050388404802 H 0.0 **** 0.06
7845 H 87.13114610740934 100.97615507777141 122.10763504442428 H 0.0 **** 0.06
7846 C 121.320986988011 27.56188663719064 23.331944175787385 C 0.0 **** -0.24
7847 H 121.39920893244509 27.615289806028727 24.417629713321602 H 0.0 **** 0.06
7848 H 121.22552557568575 26.51982648664349 23.026123237415128 H 0.0 **** 0.06
7849 H 122.21602030070663 27.99155400772071 22.881754216281557 H 0.0 **** 0.06
7850 H 120.44525431049776 28.119691705552192 23.002859996129942 H 0.0 **** 0.06
7851 C 69.05995402329906 114.4567237444814 135.88687668760213 C 0.0 **** -0.24
7852 H 67.99902555131635 114.63106814320821 135.70871533892782 H 0.0 **** 0.06
7853 H 69.32001317732754 113.44664813411003 135.5704763632653 H 0.0 **** 0.06
7854 H 69.27409911993321 114.57220449693415 136.94904697602112 H 0.0 **** 0.06
7855 H 69.64671152761831 115.17852718062164 135.3176595581012 H 0.0 **** 0.06
7856 C 62.156812113212425 7.805530876051343 105.4957807633523 C 0.0 **** -0.24
7857 H 62.24196130488173 7.72095906127538 106.57833045563042 H 0.0 **** 0.06
7858 H 62.54568609079911 8.772875857278855 105.17555984884653 H 0.0 **** 0.06
7859 H 61.10996389399841 7.720642108774761 105.20544414649156 H 0.0 **** 0.06
7860 H 62.7307796326412 7.0089523679679 105.02279384510136 H 0.0 **** 0.06
7861 C 116.07123491801325 132.5230251127702 112.17370295184548 C 0.0 **** -0.24
7862 H 116.20315134615079 131.84275036680845 113.01568693622454 H 0.0 **** 0.06
7863 H 117.02783995248085 132.98131025355542 111.92256511788264 H 0.0 **** 0.06
7864 H 115.35486898359737 133.29923072913067 112.44379437564749 H 0.0 **** 0.06
7865 H 115.69729483673147 131.9665473603324 111.3140693033373 H 0.0 **** 0.06
7866 C 36.10750190561612 12.50713821852895 42.74409531409802 C 0.0 **** -0.24
7867 H 35.63957255999617 11.694147536004664 42.189002577099984 H 0.0 **** 0.06
7868 H 37.09579280303967 12.707860753159764 42.3288926171831 H 0.0 **** 0.06
7869 H 36.204105233771855 12.22312171881245 43.791907840099555 H 0.0 **** 0.06
7870 H 35.49069483114005 13.402855709311552 42.66529233878708 H 0.0 **** 0.06
7871 C 61.80331720842645 16.83562910483817 108.20367354337164 C 0.0 **** -0.24
7872 H 62.49578212354436 17.664778302106733 108.35166559369394 H 0.0 **** 0.06
7873 H 61.50163949093769 16.43721029129201 109.17205655420001 H 0.0 **** 0.06
7874 H 62.29426672756523 16.052013486536183 107.62492673663017 H 0.0 **** 0.06
7875 H 60.924521019123404 17.188581486523923 107.66451259605763 H 0.0 **** 0.06
7876 C 148.3318842371088 110.8747964572773 50.337793153240625 C 0.0 **** -0.24
7877 H 149.07976825917464 111.31303197683543 50.998358651742734 H 0.0 **** 0.06
7878 H 147.35292157471943 111.29669765533622 50.56687650063782 H 0.0 **** 0.06
7879 H 148.30612789060797 109.79480978680972 50.484932856422915 H 0.0 **** 0.06
7880 H 148.5893905662765 111.09356044861828 49.30161292328336 H 0.0 **** 0.06
7881 C 123.18092969601669 10.209319677594465 153.52007586642503 C 0.0 **** -0.24
7882 H 122.47145980606366 9.466022574441894 153.88403681128722 H 0.0 **** 0.06
7883 H 122.67158216324266 10.89669506197535 152.84400200067273 H 0.0 **** 0.06
7884 H 123.98990140147474 9.70802876183177 152.98860162287826 H 0.0 **** 0.06
7885 H 123.58994376853643 10.764264724581494 154.36407120854898 H 0.0 **** 0.06
7886 C 36.6228704527622 122.68766874987921 88.9506680359263 C 0.0 **** -0.24
7887 H 37.24846099160304 122.17634652063975 89.68336768616334 H 0.0 **** 0.06
7888 H 35.864378192372584 123.27593587869558 89.46866031256607 H 0.0 **** 0.06
7889 H 36.13797861170782 121.95048229007807 88.31152903446032 H 0.0 **** 0.06
7890 H 37.241993639460205 123.34658955909163 88.34185154516221 H 0.0 **** 0.06
7891 C 132.57282013717168 148.3711890035729 93.42663153650898 C 0.0 **** -0.24
7892 H 131.83321547871265 147.80628885555828 93.9949434893033 H 0.0 **** 0.06
7893 H 132.53023270292505 148.07481526063918 92.3790531134456 H 0.0 **** 0.06
7894 H 133.56729265622218 148.16783014730524 93.82295997714775 H 0.0 **** 0.06
7895 H 132.3595358539691 149.4369096227911 93.51236404845491 H 0.0 **** 0.06
7896 C 61.901491514581465 105.3565858921652 80.22549004254603 C 0.0 **** -0.24
7897 H 61.781410090064384 104.80439241642692 79.29375753421104 H 0.0 **** 0.06
7898 H 61.02332952013957 105.20427298402787 80.8536810879703 H 0.0 **** 0.06
7899 H 62.0130145233949 106.41832586378108 80.00731924469615 H 0.0 **** 0.06
7900 H 62.78823570116198 104.99802624290687 80.74900262502207 H 0.0 **** 0.06
7901 C 93.83553072793919 13.002910444286442 38.8597266845116 C 0.0 **** -0.24
7902 H 94.79869639475561 12.511430445710403 38.99676309444192 H 0.0 **** 0.06
7903 H 93.568435118319 12.990174854927375 37.80331512086775 H 0.0 **** 0.06
7904 H 93.90028621153171 14.033995035574321 39.206461375833214 H 0.0 **** 0.06
7905 H 93.07371639261888 12.473289494072048 39.43303749516622 H 0.0 **** 0.06
7906 C 29.616900096800236 77.0675346025854 125.16410162526383 C 0.0 **** -0.24
7907 H 29.999880285225515 76.09068984311435 124.86973256379979 H 0.0 **** 0.06
7908 H 30.448551642987127 77.70903592480813 125.45801398905657 H 0.0 **** 0.06
7909 H 28.932751124539436 76.95191321357561 126.00408645455242 H 0.0 **** 0.06
7910 H 29.088591731800307 77.51961151925295 124.32476176572969 H 0.0 **** 0.06
7911 C 86.12190142674271 13.389371316163839 152.9366941378962 C 0.0 **** -0.24
7912 H 86.89809249786671 13.565921542039518 153.6806827663733 H 0.0 **** 0.06
7913 H 85.15436065344093 13.313529551724415 153.43211368194096 H 0.0 **** 0.06
7914 H 86.33253908134476 12.461044958771652 152.40514203006092 H 0.0 **** 0.06
7915 H 86.10355299437073 14.217142581777225 152.2268147238656 H 0.0 **** 0.06
7916 C 70.6506418125874 59.60529389104036 128.77156789587758 C 0.0 **** -0.24
7917 H 71.2190606209472 59.05077217300527 128.02503632445217 H 0.0 **** 0.06
7918 H 70.14368257302053 60.44376607660968 128.2936386059751 H 0.0 **** 0.06
7919 H 71.3277632737167 59.97939005477177 129.5396546539176 H 0.0 **** 0.06
7920 H 69.91203527055546 58.94584987136827 129.22815814696924 H 0.0 **** 0.06
7921 C 86.55205076378971 137.4228183804159 139.80929800010784 C 0.0 **** -0.24
7922 H 86.88692831850508 136.53197778047402 139.27814857478984 H 0.0 **** 0.06
7923 H 85.65467184046376 137.1880508536848 140.38181345834354 H 0.0 **** 0.06
7924 H 86.32966324880864 138.21249747302903 139.09105401532557 H 0.0 **** 0.06
7925 H 87.33781037625508 137.75922922215236 140.48627456810283 H 0.0 **** 0.06
7926 C 57.73775602311585 121.50898782474506 73.6925299888991 C 0.0 **** -0.24
7927 H 58.46245547453259 122.22754651378735 73.31002929937492 H 0.0 **** 0.06
7928 H 57.256084559086844 121.91617652110189 74.58149266311253 H 0.0 **** 0.06
7929 H 58.24711894082549 120.5797677740752 73.946915858452 H 0.0 **** 0.06
7930 H 56.9841858296856 121.31237969143429 72.92892477295345 H 0.0 **** 0.06
7931 C 58.84373463456116 0.3002604777546267 111.21344435844772 C 0.0 **** -0.24
7932 H 58.31615998409393 1.18535344904069 110.8560942018156 H 0.0 **** 0.06
7933 H 59.661863790450525 0.6058141515152009 111.86681206208316 H 0.0 **** 0.06
7934 H 59.24337330021328 -0.2524405487547803 110.3640250640329 H 0.0 **** 0.06
7935 H 58.15305766513711 -0.3346969768039507 111.76776105978719 H 0.0 **** 0.06
7936 C 79.28068452103263 36.453811864435266 9.4517195988835 C 0.0 **** -0.24
7937 H 78.48468474135612 35.895727685501186 9.944018338694889 H 0.0 **** 0.06
7938 H 79.94514517571722 36.878560131252186 10.202988899082172 H 0.0 **** 0.06
7939 H 78.84559324995043 37.255825909144136 8.855412857914082 H 0.0 **** 0.06
7940 H 79.84532961241493 35.783862788537476 8.802602616318914 H 0.0 **** 0.06
7941 C 9.783801793498085 126.69609194602073 136.7038843564576 C 0.0 **** -0.24
7942 H 10.784207620638817 126.50854577617632 137.09451500264728 H 0.0 **** 0.06
7943 H 9.621050837839029 126.08646532172362 135.81521109311745 H 0.0 **** 0.06
7944 H 9.687834191828692 127.75000858935174 136.44348161404338 H 0.0 **** 0.06
7945 H 9.043822754624685 126.43940087370375 137.46204818572105 H 0.0 **** 0.06
7946 C 59.213232505166914 65.16413498461276 94.42337849441242 C 0.0 **** -0.24
7947 H 58.40777646322577 64.47690530231546 94.16489524277455 H 0.0 **** 0.06
7948 H 60.04754598321581 64.6030958102229 94.84535096073313 H 0.0 **** 0.06
7949 H 58.85287114013221 65.88596908247462 95.15701323057351 H 0.0 **** 0.06
7950 H 59.54316926568508 65.68997678427345 93.52773526817344 H 0.0 **** 0.06
7951 C 56.32290162825407 53.533822601072245 77.4510188545973 C 0.0 **** -0.24
7952 H 55.91109232116685 53.84374029190769 78.41168414696705 H 0.0 **** 0.06
7953 H 56.885683440314665 54.35899949647197 77.01534997451202 H 0.0 **** 0.06
7954 H 55.51003622401751 53.25346578792704 76.78162768251813 H 0.0 **** 0.06
7955 H 56.98352285100901 52.67916977619947 77.59725094544719 H 0.0 **** 0.06
7956 C 91.80858348652073 131.32230603663783 120.69044111898341 C 0.0 **** -0.24
7957 H 92.62117669343591 130.9526629424766 120.06461130944865 H 0.0 **** 0.06
7958 H 91.23409385892293 132.06701783534254 120.1392545020039 H 0.0 **** 0.06
7959 H 92.22292817773517 131.77669995425398 121.59123708031302 H 0.0 **** 0.06
7960 H 91.15815397913877 130.49306342332272 120.96908573699949 H 0.0 **** 0.06
7961 C 98.69199104551174 25.378114548100115 68.04828854399771 C 0.0 **** -0.24
7962 H 98.00787408179407 24.661215215839917 67.59525105197423 H 0.0 **** 0.06
7963 H 98.7741496142201 25.17588808962006 69.11679130045415 H 0.0 **** 0.06
7964 H 98.31158884274251 26.38818845421349 67.89755525138878 H 0.0 **** 0.06
7965 H 99.6739771805433 25.286304773498614 67.58532220271944 H 0.0 **** 0.06
7966 C 44.76175555817463 44.37477374516678 36.95189515309207 C 0.0 **** -0.24
7967 H 45.73493875040026 43.94389582007747 36.71697313732675 H 0.0 **** 0.06
7968 H 44.18724712203675 43.66767049576262 37.55154986426518 H 0.0 **** 0.06
7969 H 44.226392063006074 44.58745242496758 36.0275865919981 H 0.0 **** 0.06
7970 H 44.89975244934499 45.2992818816856 37.513383589952895 H 0.0 **** 0.06
7971 C 130.29196356683357 85.82661562057959 123.0776245398938 C 0.0 **** -0.24
7972 H 131.2370390777982 86.30790218979423 123.33197121930033 H 0.0 **** 0.06
7973 H 130.3061269771342 84.79354718283437 123.42494812185862 H 0.0 **** 0.06
7974 H 130.15634834463992 85.8445234981359 121.99537708605135 H 0.0 **** 0.06
7975 H 129.4723091445337 86.36084936500205 123.55593985197225 H 0.0 **** 0.06
7976 C 78.68999428252579 67.12496761893682 106.35838737774439 C 0.0 **** -0.24
7977 H 77.74887872662623 67.3644309177762 106.8535161619984 H 0.0 **** 0.06
7978 H 78.6809223845452 66.0806758576894 106.04610690994004 H 0.0 **** 0.06
7979 H 79.51604988915972 67.29064271787053 107.05139865601284 H 0.0 **** 0.06
7980 H 78.81444226950111 67.7651519470673 105.4851426306215 H 0.0 **** 0.06
7981 C 121.57339590908113 7.735929058693387 82.54925072713789 C 0.0 **** -0.24
7982 H 120.8929780142857 7.52472810212106 81.72472523139021 H 0.0 **** 0.06
7983 H 122.58396000304135 7.866738120633954 82.16159380469759 H 0.0 **** 0.06
7984 H 121.55871543478302 6.905092792981293 83.25427217125127 H 0.0 **** 0.06
7985 H 121.25839088954429 8.648466673219048 83.05668215535582 H 0.0 **** 0.06
7986 C 125.30262852511514 149.03956132568868 1.7213908419250288 C 0.0 **** -0.24
7987 H 125.89957309995226 148.75077982310557 0.8570534959995939 H 0.0 **** 0.06
7988 H 125.66123439304515 148.50934592480388 2.604937221794728 H 0.0 **** 0.06
7989 H 124.25847390315023 148.7839297269232 1.5436178035953958 H 0.0 **** 0.06
7990 H 125.3923560526428 150.1138070810698 1.882097692239256 H 0.0 **** 0.06
7991 C 13.711165579096104 113.01955656061911 90.86574109721164 C 0.0 **** -0.24
7992 H 13.852065876859335 111.94015171615585 90.93019256802789 H 0.0 **** 0.06
7993 H 12.739734679156385 113.28451737448988 91.28390071454946 H 0.0 **** 0.06
7994 H 13.754632554733469 113.32943203051373 89.82195880995461 H 0.0 **** 0.06
7995 H 14.498271820341166 113.52188966263087 91.42694502547725 H 0.0 **** 0.06
7996 C 10.269249583159876 1.5505139173434372 143.76104119833232 C 0.0 **** -0.24
7997 H 10.123708169906763 2.341452512785935 144.49721884439572 H 0.0 **** 0.06
7998 H 9.301638301467506 1.129193573093204 143.48580077085404 H 0.0 **** 0.06
7999 H 10.898285515439227 0.7690117092589048 144.18664517907783 H 0.0 **** 0.06
8000 H 10.750492944041753 1.9644587624982819 142.87520478613246 H 0.0 **** 0.06
8001 C 144.22336304542847 110.71652680806464 124.91481365888613 C 0.0 **** -0.24
8002 H 143.8926817367421 111.0564821950356 125.8963246796743 H 0.0 **** 0.06
8003 H 144.19052332299546 109.62691866635846 124.87883629676035 H 0.0 **** 0.06
8004 H 145.243521133118 111.05544418261572 124.73775964891776 H 0.0 **** 0.06
8005 H 143.56518022783257 111.1247487880431 124.14814890215904 H 0.0 **** 0.06
8006 C 48.241156950489184 82.1045104278337 85.98187503017684 C 0.0 **** -0.24
8007 H 48.50318376911038 82.57228635627365 85.03234233977497 H 0.0 **** 0.06
8008 H 47.393685139407395 82.62851241925972 86.4233680657572 H 0.0 **** 0.06
8009 H 49.09418354490191 82.15629814015563 86.65811264957837 H 0.0 **** 0.06
8010 H 47.975500722331006 81.06173243404419 85.81056691814011 H 0.0 **** 0.06
8011 C 149.2885151054295 143.62179586321471 95.20518018423373 C 0.0 **** -0.24
8012 H 149.224265818689 143.03924339100965 94.28675910366496 H 0.0 **** 0.06
8013 H 150.31235979812135 143.60261531049312 95.57692173544916 H 0.0 **** 0.06
8014 H 148.62129877993073 143.19397748094315 95.95322996032503 H 0.0 **** 0.06
8015 H 148.99421348760222 144.65243270823794 95.00345520165254 H 0.0 **** 0.06
8016 C 37.6669145603405 4.779773837280146 110.35781770899085 C 0.0 **** -0.24
8017 H 36.76827913562795 5.395802867409714 110.39195393353312 H 0.0 **** 0.06
8018 H 37.45416639809025 3.8570827572035284 109.8181733329156 H 0.0 **** 0.06
8019 H 37.983664065192215 4.543022697432292 111.37324978445947 H 0.0 **** 0.06
8020 H 38.46131246147985 5.324898212632604 109.84776666233701 H 0.0 **** 0.06
8021 C 40.16797403546947 111.87623150742563 25.20840441072761 C 0.0 **** -0.24
8022 H 40.8252698442667 111.54362655415126 26.01241490085296 H 0.0 **** 0.06
8023 H 40.45036707737093 112.88335503177528 24.900409161130554 H 0.0 **** 0.06
8024 H 39.136264544391665 111.88059202030387 25.56073408384038 H 0.0 **** 0.06
8025 H 40.25916697956487 111.19788647652616 24.360231946345095 H 0.0 **** 0.06
8026 C 18.491264337046402 156.2159187976342 130.5046290552849 C 0.0 **** -0.24
8027 H 18.020725814246646 157.1903011753588 130.63569067603686 H 0.0 **** 0.06
8028 H 17.75029471179812 155.49895188905117 130.14975982998953 H 0.0 **** 0.06
8029 H 18.897624034389054 155.87709431992914 131.4578721811668 H 0.0 **** 0.06
8030 H 19.297357687897517 156.29760719949877 129.77536422561985 H 0.0 **** 0.06
8031 C 60.8203687463741 69.80078044183401 151.83721622912577 C 0.0 **** -0.24
8032 H 61.16672832716655 68.98519091530531 151.20161456937436 H 0.0 **** 0.06
8033 H 60.372624508613924 70.57803237120378 151.2176250578766 H 0.0 **** 0.06
8034 H 61.66476449659521 70.21417744906498 152.3884107410172 H 0.0 **** 0.06
8035 H 60.07767683440896 69.42296403914003 152.5400755100731 H 0.0 **** 0.06
8036 C 142.6528273821045 40.95936807801536 147.12312658649853 C 0.0 **** -0.24
8037 H 141.81061545289182 41.52886880815936 147.51602689590976 H 0.0 **** 0.06
8038 H 142.92931260965076 41.34979230521543 146.1431411018699 H 0.0 **** 0.06
8039 H 142.37007433804902 39.910665080555646 147.03079341173918 H 0.0 **** 0.06
8040 H 143.50062609882036 41.048365503482955 147.80184629342634 H 0.0 **** 0.06
8041 C 149.35311077387237 55.94059024045568 126.19534562014071 C 0.0 **** -0.24
8042 H 148.37154385971738 55.57930698596627 126.50131532178553 H 0.0 **** 0.06
8043 H 149.237374205837 56.67730469656523 125.40112493929693 H 0.0 **** 0.06
8044 H 149.9518435443066 55.104716128726295 125.83304847614896 H 0.0 **** 0.06
8045 H 149.85230273596804 56.401264832999544 127.04825182869088 H 0.0 **** 0.06
8046 C 132.46499254748835 91.8228140998856 138.3750880380709 C 0.0 **** -0.24
8047 H 133.33605953321367 92.4562920775493 138.54540732781606 H 0.0 **** 0.06
8048 H 132.67327040078422 91.13241108327915 137.55793035980213 H 0.0 **** 0.06
8049 H 131.6084337360996 92.44644050285913 138.1157025311514 H 0.0 **** 0.06
8050 H 132.2433939682683 91.25920795158144 139.2812121140779 H 0.0 **** 0.06
8051 C 69.53906204049963 111.36994093273488 13.722066509182241 C 0.0 **** -0.24
8052 H 68.93163470735163 110.53648932557049 14.075351287881801 H 0.0 **** 0.06
8053 H 70.47990399898379 111.39139349416304 14.271560686661587 H 0.0 **** 0.06
8054 H 69.00183701067931 112.30442610395015 13.882011443882732 H 0.0 **** 0.06
8055 H 69.74217756509302 111.24572309525719 12.658110352811775 H 0.0 **** 0.06
8056 C 75.8865287570272 85.27531055993506 1.3255699317777498 C 0.0 **** -0.24
8057 H 76.56904499826265 85.94446259699572 1.8494055924385293 H 0.0 **** 0.06
8058 H 76.43958999680979 84.41319306787022 0.9518850544757811 H 0.0 **** 0.06
8059 H 75.4296527815609 85.80457912842246 0.4900660369395382 H 0.0 **** 0.06
8060 H 75.1094091969052 84.93945199669429 2.0114706940479437 H 0.0 **** 0.06
8061 C 87.22304176926673 150.3290144998368 98.5277248699408 C 0.0 **** -0.24
8062 H 86.68579164376007 150.3989309502873 97.58216120319867 H 0.0 **** 0.06
8063 H 86.55655209580922 149.93538853046297 99.2955183320932 H 0.0 **** 0.06
8064 H 87.5723871311506 151.31869629457972 98.82126945025344 H 0.0 **** 0.06
8065 H 88.07787336562939 149.66230518671475 98.41143503294226 H 0.0 **** 0.06
8066 C 45.47813913892577 144.82851521240605 69.3689813319112 C 0.0 **** -0.24
8067 H 46.081240777808006 143.94504580633344 69.15799575339524 H 0.0 **** 0.06
8068 H 45.86057952463106 145.3230723681034 70.26273985222427 H 0.0 **** 0.06
8069 H 44.442973427758574 144.53045514180945 69.53268773584905 H 0.0 **** 0.06
8070 H 45.530091846565256 145.51399601770785 68.52366445546824 H 0.0 **** 0.06
8071 C 81.10959242832301 10.348856678933885 153.23609677845366 C 0.0 **** -0.24
8072 H 81.07265906872094 11.239570822263147 153.86188256899948 H 0.0 **** 0.06
8073 H 81.84745990263488 10.4899849743272 152.44570820472848 H 0.0 **** 0.06
8074 H 80.1296885607068 10.176052604023567 152.7924721701766 H 0.0 **** 0.06
8075 H 81.38920431483518 9.489545847243733 153.84504072991282 H 0.0 **** 0.06
8076 C 89.33062812958143 26.38652751999254 53.032739007526175 C 0.0 **** -0.24
8077 H 89.78675973333655 26.712408050502717 53.96777137338162 H 0.0 **** 0.06
8078 H 88.48344921199305 27.03083789313095 52.798812355786936 H 0.0 **** 0.06
8079 H 88.98632906799342 25.357002826958592 53.137380186541975 H 0.0 **** 0.06
8080 H 90.06575333651523 26.44483291632349 52.23013756353083 H 0.0 **** 0.06
8081 C 15.33999368377539 119.48742966726793 48.42459740864375 C 0.0 **** -0.24
8082 H 14.730939402059434 119.11837296907241 47.599136494598184 H 0.0 **** 0.06
8083 H 16.33479487140663 119.73851610175727 48.05844057560243 H 0.0 **** 0.06
8084 H 15.418196191101138 118.71626816661053 49.191300738696 H 0.0 **** 0.06
8085 H 14.873838048634887 120.37650065690003 48.85057441057393 H 0.0 **** 0.06
8086 C 91.8574451108081 113.36698219184261 97.12890848700245 C 0.0 **** -0.24
8087 H 91.38303860706003 114.16226767487846 97.7029747792381 H 0.0 **** 0.06
8088 H 91.13376991098016 112.93737486494176 96.43530452099466 H 0.0 **** 0.06
8089 H 92.21373326066288 112.59254925047405 97.80756673487242 H 0.0 **** 0.06
8090 H 92.69939649202246 113.77478858023086 96.56951283754114 H 0.0 **** 0.06
8091 C 121.34739078117217 71.84421555909968 152.19713759280484 C 0.0 **** -0.24
8092 H 120.6822702168033 72.69276556848553 152.35490058517223 H 0.0 **** 0.06
8093 H 122.33855797462881 72.08276656625185 152.58292728202946 H 0.0 **** 0.06
8094 H 121.4131645775385 71.62826450386414 151.13087936287758 H 0.0 **** 0.06
8095 H 120.95344174949692 70.9731216573133 152.72052582381446 H 0.0 **** 0.06
8096 C 149.98062181699817 25.52388764773994 152.73107470521626 C 0.0 **** -0.24
8097 H 149.51249538107132 24.595173746125397 153.05976734539172 H 0.0 **** 0.06
8098 H 150.9670700860752 25.613454011902334 153.18612344125881 H 0.0 **** 0.06
8099 H 149.3620804089611 26.368456302948843 153.03375930161582 H 0.0 **** 0.06
8100 H 150.0801646369027 25.51559306263234 151.6457825375087 H 0.0 **** 0.06
8101 C 118.11670570699044 8.488877173430296 52.41110797539619 C 0.0 **** -0.24
8102 H 117.61061003574275 8.505614641206364 53.37639430735368 H 0.0 **** 0.06
8103 H 118.83352310724081 9.308385754148645 52.36337791366972 H 0.0 **** 0.06
8104 H 117.38109786194627 8.600599388977969 51.61430942588112 H 0.0 **** 0.06
8105 H 118.63931490708427 7.539942592616626 52.292320587434574 H 0.0 **** 0.06
8106 C 82.88862898704487 53.79650214483054 115.97646285252198 C 0.0 **** -0.24
8107 H 82.27024002575592 53.32252489011985 116.73885666952005 H 0.0 **** 0.06
8108 H 82.51856186846507 54.80383889517755 115.78318662403252 H 0.0 **** 0.06
8109 H 82.84610416556572 53.21023829510773 115.05871343216309 H 0.0 **** 0.06
8110 H 83.91964840928755 53.848833736198685 116.32638717193838 H 0.0 **** 0.06
8111 C 85.73031663665873 20.763329450565436 12.482608527051568 C 0.0 **** -0.24
8112 H 86.76003058473333 21.106250976702583 12.38390357096096 H 0.0 **** 0.06
8113 H 85.3441067502942 21.049114644341593 13.461749714440671 H 0.0 **** 0.06
8114 H 85.6974311562521 19.678269902551165 12.38175214420287 H 0.0 **** 0.06
8115 H 85.1190801380938 21.218945540654765 11.703303320023501 H 0.0 **** 0.06
8116 C 79.9383165467757 109.78098876731974 147.42833316714874 C 0.0 **** -0.24
8117 H 80.55284208259991 110.65537000067121 147.64826628306523 H 0.0 **** 0.06
8118 H 80.545891714209 109.02891766268033 146.9248144022015 H 0.0 **** 0.06
8119 H 79.10987897256575 110.0726383630726 146.78284701908078 H 0.0 **** 0.06
8120 H 79.54684880112131 109.36983519766488 148.35854787397008 H 0.0 **** 0.06
8121 C 109.73929222754923 134.1585364979939 141.89364138599728 C 0.0 **** -0.24
8122 H 108.66823534371677 134.35623722956763 141.93809639003297 H 0.0 **** 0.06
8123 H 110.22233331603012 134.91075367347264 141.27075755443525 H 0.0 **** 0.06
8124 H 109.90827932073599 133.1698478155904 141.46636426304946 H 0.0 **** 0.06
8125 H 110.15799878475961 134.1951366185134 142.89977703750503 H 0.0 **** 0.06
8126 C 2.8433576703538677 128.38023239686407 101.35430392046494 C 0.0 **** -0.24
8127 H 1.7568578800607213 128.2864165247289 101.34468621042062 H 0.0 **** 0.06
8128 H 3.1268835734126412 129.26896229117034 101.91796330612065 H 0.0 **** 0.06
8129 H 3.209137293762609 128.46595011812826 100.33084926749548 H 0.0 **** 0.06
8130 H 3.278149826167123 127.49734612918604 101.82333302859867 H 0.0 **** 0.06
8131 C 135.8679220806215 142.32017616840437 73.43943532415572 C 0.0 **** -0.24
8132 H 134.85661420765075 142.1615331270535 73.81302925134308 H 0.0 **** 0.06
8133 H 136.0003835714326 143.37249631560655 73.18452947712582 H 0.0 **** 0.06
8134 H 136.02732681394903 141.70837578900847 72.55106033326611 H 0.0 **** 0.06
8135 H 136.58756430980867 142.03886061505227 74.20783969156747 H 0.0 **** 0.06
8136 C 6.578357845651993 150.98107490095333 102.86702239229648 C 0.0 **** -0.24
8137 H 7.572608344823635 151.37129932986937 103.0807312088209 H 0.0 **** 0.06
8138 H 6.177654386850151 151.4724313727068 101.97956914026723 H 0.0 **** 0.06
8139 H 5.922537175095954 151.17260986389982 103.71671839607244 H 0.0 **** 0.06
8140 H 6.639603657089339 149.90658444314897 102.69083806430864 H 0.0 **** 0.06
8141 C 59.76976899125896 109.58213987079235 79.56930966041104 C 0.0 **** -0.24
8142 H 58.773822702042835 109.6225570265206 80.00939270340449 H 0.0 **** 0.06
8143 H 59.79040679627215 108.82434043713103 78.78506300064439 H 0.0 **** 0.06
8144 H 60.49724035206546 109.32739229425708 80.34052479768445 H 0.0 **** 0.06
8145 H 60.017821352811936 110.55352580651892 79.14289082465945 H 0.0 **** 0.06
8146 C 64.39480037766559 148.82691126918337 120.88019432395525 C 0.0 **** -0.24
8147 H 63.48414773774908 149.42552052888647 120.89473344029976 H 0.0 **** 0.06
8148 H 64.41734283323969 148.2211309035461 119.97389322496751 H 0.0 **** 0.06
8149 H 64.41558515139678 148.17513568236757 121.75374870488402 H 0.0 **** 0.06
8150 H 65.2634486792391 149.4861482029151 120.89880909243426 H 0.0 **** 0.06
8151 C 1.7201116277103736 128.51641228428338 97.65775525545189 C 0.0 **** -0.24
8152 H 1.7514339666820398 128.96755476811614 98.64952188210248 H 0.0 **** 0.06
8153 H 0.7006552900595224 128.55308490988685 97.27360870977236 H 0.0 **** 0.06
8154 H 2.047882499166345 127.47860384083408 97.71923343632386 H 0.0 **** 0.06
8155 H 2.381255747541694 129.06701926906777 96.98854073602229 H 0.0 **** 0.06
8156 C 87.1091217341508 147.4783467492489 135.47018157815052 C 0.0 **** -0.24
8157 H 87.02470000184006 148.53434393836073 135.72827187956582 H 0.0 **** 0.06
8158 H 88.06262678418207 147.30079897932848 134.97293156541912 H 0.0 **** 0.06
8159 H 86.29302782897325 147.20172909550834 134.80395562045973 H 0.0 **** 0.06
8160 H 87.0555852112426 146.8781524263571 136.37888687180615 H 0.0 **** 0.06
8161 C 45.76509818105144 56.71648381785957 79.26372124219242 C 0.0 **** -0.24
8162 H 46.611385107162945 56.142451589018094 78.8868537610515 H 0.0 **** 0.06
8163 H 44.90724377673624 56.05653353156461 79.39342905703805 H 0.0 **** 0.06
8164 H 45.514341575271445 57.503039372429555 78.55120444101071 H 0.0 **** 0.06
8165 H 46.02710206585731 57.164854742065245 80.22198119889164 H 0.0 **** 0.06
8166 C 130.15785889373677 28.01160111199124 94.55901247427983 C 0.0 **** -0.24
8167 H 131.1074811969122 28.484782776081488 94.81177978442209 H 0.0 **** 0.06
8168 H 129.3403393747589 28.69450950644878 94.79098153528908 H 0.0 **** 0.06
8169 H 130.04328450415818 27.096162917740088 95.13907995099568 H 0.0 **** 0.06
8170 H 130.1424575892845 27.77259045994981 93.49615343175033 H 0.0 **** 0.06
8171 C 87.14666169592664 121.25825420544926 131.82455716410374 C 0.0 **** -0.24
8172 H 88.19245041540796 121.55834802532264 131.7621287322744 H 0.0 **** 0.06
8173 H 86.59484992884649 121.98700556553565 132.41976885492966 H 0.0 **** 0.06
8174 H 87.07748017238936 120.2774121114514 132.29527192329238 H 0.0 **** 0.06
8175 H 86.7217067990419 121.21132523604972 130.82196518601705 H 0.0 **** 0.06
8176 C 27.116513209991638 148.69003702687968 35.049333308488826 C 0.0 **** -0.24
8177 H 27.13626601076149 148.15275670907693 34.10112006232853 H 0.0 **** 0.06
8178 H 27.35537411632754 148.0014950094219 35.86034505572513 H 0.0 **** 0.06
8179 H 26.12294023627379 149.10910163569127 35.2078333552619 H 0.0 **** 0.06
8180 H 27.85133502480528 149.49354773191857 35.02618046436834 H 0.0 **** 0.06
8181 C 18.60215650205089 20.716317000708095 109.69712635179337 C 0.0 **** -0.24
8182 H 18.861886975328787 21.382984679049372 108.87410326762682 H 0.0 **** 0.06
8183 H 19.168677447894765 20.998174024042704 110.584888324779 H 0.0 **** 0.06
8184 H 18.842826897194755 19.690250602115555 109.42244268780007 H 0.0 **** 0.06
8185 H 17.53537721891763 20.79698681740023 109.90597800776396 H 0.0 **** 0.06
8186 C 80.14968639815429 126.91625888278486 92.15814306712824 C 0.0 **** -0.24
8187 H 79.10988116970665 127.24138158717477 92.20571427236521 H 0.0 **** 0.06
8188 H 80.56836859515545 127.17948708839788 91.18758923013127 H 0.0 **** 0.06
8189 H 80.19871205676816 125.83610810296454 92.29431367593929 H 0.0 **** 0.06
8190 H 80.72021820745276 127.40837187618104 92.94681281980479 H 0.0 **** 0.06
8191 C 91.14919009159891 75.25268041602743 145.56838703039855 C 0.0 **** -0.24
8192 H 90.78843254697497 75.61629374495291 146.53022848951738 H 0.0 **** 0.06
8193 H 91.95454466295092 74.53505715280673 145.73046909120114 H 0.0 **** 0.06
8194 H 91.52239423521097 76.09030107626685 144.97997226521812 H 0.0 **** 0.06
8195 H 90.33243420318463 74.76764727798269 145.03425097091176 H 0.0 **** 0.06
8196 C 145.10978358543804 66.59404213554035 152.08250419751653 C 0.0 **** -0.24
8197 H 145.30276004229967 66.10324975150712 151.1285908928519 H 0.0 **** 0.06
8198 H 144.08450009776783 66.39231509813368 152.3937656078128 H 0.0 **** 0.06
8199 H 145.25175828344157 67.66940063323409 151.97321114876763 H 0.0 **** 0.06
8200 H 145.80000612191472 66.21045455207633 152.83379514195445 H 0.0 **** 0.06
8201 C 2.851755206386457 116.22938997064024 86.65697010417156 C 0.0 **** -0.24
8202 H 2.7727795952489203 115.29861104388051 87.21862223082766 H 0.0 **** 0.06
8203 H 3.5246964504309233 116.08834641691577 85.81075707399705 H 0.0 **** 0.06
8204 H 3.244935317269551 117.01314235344374 87.3062153182384 H 0.0 **** 0.06
8205 H 1.8658538989707552 116.52016988023142 86.29431279156756 H 0.0 **** 0.06
8206 C 18.946375638375173 110.70168845750914 38.177307668396 C 0.0 **** -0.24
8207 H 19.725799952548556 110.91511625882674 38.908415708245 H 0.0 **** 0.06
8208 H 18.71793439482235 109.63536090952374 38.19090446086125 H 0.0 **** 0.06
8209 H 19.293260455199913 110.98660477263707 37.184206325606 H 0.0 **** 0.06
8210 H 18.05038321267466 111.2693756538248 38.42633268355314 H 0.0 **** 0.06
8211 C 45.6408892303035 120.48485674045365 121.2731217041357 C 0.0 **** -0.24
8212 H 45.48048781212364 121.20745988763728 122.07353207517373 H 0.0 **** 0.06
8213 H 45.22599488468282 120.87443427157332 120.3439227616147 H 0.0 **** 0.06
8214 H 45.147905223274336 119.54643076086934 121.52664707924067 H 0.0 **** 0.06
8215 H 46.71003054347294 120.31146997523545 121.15015196019978 H 0.0 **** 0.06
8216 C 6.059832073898207 47.88857569107037 80.06093495586444 C 0.0 **** -0.24
8217 H 5.321151756625227 47.46124737481591 79.38208695939753 H 0.0 **** 0.06
8218 H 6.277361509919302 48.91431869658197 79.7615824312519 H 0.0 **** 0.06
8219 H 6.97494131257173 47.297115120016784 80.02023886961769 H 0.0 **** 0.06
8220 H 5.667166416263285 47.88073681015416 81.07708448334098 H 0.0 **** 0.06
8221 C 122.63732951438787 52.63321503444756 99.52980456185777 C 0.0 **** -0.24
8222 H 122.84649753355957 53.46656739749314 100.20029560544153 H 0.0 **** 0.06
8223 H 123.4486898084077 52.536044872296074 98.80817299597408 H 0.0 **** 0.06
8224 H 121.70125770552995 52.81792905726961 99.00249632248178 H 0.0 **** 0.06
8225 H 122.55391384264622 51.713175991105274 100.10782673893239 H 0.0 **** 0.06
8226 C 93.88554830799124 22.998531763577162 12.664368563009987 C 0.0 **** -0.24
8227 H 93.36112905298548 22.909975974890692 13.615274423257688 H 0.0 **** 0.06
8228 H 93.34135943608634 22.449265405971666 11.896610407955905 H 0.0 **** 0.06
8229 H 94.88973813637254 22.58623853186969 12.76458214123005 H 0.0 **** 0.06
8230 H 93.95206420179989 24.04954392484784 12.381899506645283 H 0.0 **** 0.06
8231 C 24.881454802822198 146.59345402771817 11.613231200962694 C 0.0 **** -0.24
8232 H 24.799050299482673 147.4893628449995 12.228806191451262 H 0.0 **** 0.06
8233 H 25.698012248587325 145.9730955500598 11.982997310407931 H 0.0 **** 0.06
8234 H 25.08005524929095 146.87869615915366 10.580155957588026 H 0.0 **** 0.06
8235 H 23.94796478761318 146.0320906358836 11.662029062523544 H 0.0 **** 0.06
8236 C 21.386715439983845 79.37453118019516 147.14864210365695 C 0.0 **** -0.24
8237 H 20.803584252968477 79.90579054457066 146.39682087596785 H 0.0 **** 0.06
8238 H 21.50802155653838 80.00731642673531 148.02850366522995 H 0.0 **** 0.06
8239 H 22.36667466556395 79.12781385397886 146.74040303159296 H 0.0 **** 0.06
8240 H 20.86896941153742 78.45777298423425 147.42956577510517 H 0.0 **** 0.06
8241 C 101.60703948257942 45.81839518334989 32.874042539195514 C 0.0 **** -0.24
8242 H 102.69365782507747 45.73792367157894 32.899034059000044 H 0.0 **** 0.06
8243 H 101.18159877965938 44.877705478241154 32.521526120852634 H 0.0 **** 0.06
8244 H 101.31915851498933 46.62274707245807 32.19750559238809 H 0.0 **** 0.06
8245 H 101.23531863230092 46.0339209739695 33.87568164976073 H 0.0 **** 0.06
8246 C 133.59604459653994 156.92496049892588 47.307853044655985 C 0.0 **** -0.24
8247 H 134.14213990463998 157.35622266598628 46.46884080975535 H 0.0 **** 0.06
8248 H 133.70823445746356 157.56750462752478 48.18181310468208 H 0.0 **** 0.06
8249 H 133.99314105949307 155.93507080689025 47.530277038850926 H 0.0 **** 0.06
8250 H 132.539766247292 156.84466377543012 47.05017655881359 H 0.0 **** 0.06
8251 C 41.06187430838531 85.27306827303303 149.02877176148894 C 0.0 **** -0.24
8252 H 41.76127334918752 84.44900224993637 149.16719437403947 H 0.0 **** 0.06
8253 H 40.56405331615139 85.16791503781903 148.06318135646922 H 0.0 **** 0.06
8254 H 41.60402370282513 86.21779888060925 149.05674953339803 H 0.0 **** 0.06
8255 H 40.31836245169839 85.25662399894321 149.82511863823322 H 0.0 **** 0.06
8256 C 130.79926040965125 70.19389190849479 146.4398937806647 C 0.0 **** -0.24
8257 H 131.36702945663308 69.88171435390667 147.31699251390603 H 0.0 **** 0.06
8258 H 130.22747308348409 69.34706278537031 146.0590350222609 H 0.0 **** 0.06
8259 H 131.48549693964344 70.54578222361263 145.66961506405187 H 0.0 **** 0.06
8260 H 130.1188000941862 70.9984920732399 146.7155383874125 H 0.0 **** 0.06
8261 C 56.92399279573641 136.4565494553697 93.45915493628893 C 0.0 **** -0.24
8262 H 56.80570438922359 135.8259405635785 92.57795180872183 H 0.0 **** 0.06
8263 H 56.185065527819944 136.17479525998888 94.20911608772828 H 0.0 **** 0.06
8264 H 56.779732886186764 137.5009635727926 93.17964652122384 H 0.0 **** 0.06
8265 H 57.926521399361434 136.3247727454626 93.86710958233554 H 0.0 **** 0.06
8266 C 4.681108664699252 74.3786395925196 44.73332346607921 C 0.0 **** -0.24
8267 H 4.719670460770999 75.11656964655278 45.53470783012874 H 0.0 **** 0.06
8268 H 5.36734167507916 73.56144748298074 44.958456815457296 H 0.0 **** 0.06
8269 H 4.971385127071699 74.84912555395344 43.79374791462685 H 0.0 **** 0.06
8270 H 3.6667158669611126 73.98884912850252 44.647077737102975 H 0.0 **** 0.06
8271 C 106.91192075761369 117.9800957181692 64.80832141153161 C 0.0 **** -0.24
8272 H 106.14692785545834 118.14071932876777 64.04873298169525 H 0.0 **** 0.06
8273 H 107.81195176629741 117.58020884175443 64.33862531703443 H 0.0 **** 0.06
8274 H 106.54416027613904 117.27245695174184 65.55065573087805 H 0.0 **** 0.06
8275 H 107.1457181489835 118.92771119000679 65.29411600357182 H 0.0 **** 0.06
8276 C 25.05134493944722 68.07354804779004 136.51231462090638 C 0.0 **** -0.24
8277 H 24.845374378105646 68.18849139847578 135.44885245619946 H 0.0 **** 0.06
8278 H 24.939374674904215 67.02582405623042 136.79268900189336 H 0.0 **** 0.06
8279 H 24.349512430253966 68.67987999906666 137.08549206787765 H 0.0 **** 0.06
8280 H 26.069862496604173 68.39952419578651 136.72267193790967 H 0.0 **** 0.06
8281 C 57.91489991559867 17.624166089772473 116.2376561658604 C 0.0 **** -0.24
8282 H 57.83912870590899 16.821953175733427 116.97250368336638 H 0.0 **** 0.06
8283 H 57.079165103112004 17.55650078985809 115.53975970779767 H 0.0 **** 0.06
8284 H 58.85304571451981 17.529128050977818 115.69083086985925 H 0.0 **** 0.06
8285 H 57.885741846044866 18.586927630143975 116.74740480803759 H 0.0 **** 0.06
8286 C 37.04831382962533 17.73198851089211 31.320848185251023 C 0.0 **** -0.24
8287 H 37.63753327373392 17.04214029192417 31.92476667503282 H 0.0 **** 0.06
8288 H 37.432372225481615 18.744447254698485 31.44616026530914 H 0.0 **** 0.06
8289 H 36.0065207569543 17.6964610249008 31.640774254930633 H 0.0 **** 0.06
8290 H 37.11605925818442 17.445020363033507 30.2710636650218 H 0.0 **** 0.06
8291 C 21.94751127174854 131.6900289653315 106.71222638526858 C 0.0 **** -0.24
8292 H 22.490630136580876 132.2474333120786 107.47500351167768 H 0.0 **** 0.06
8293 H 21.40899007747177 130.865414786444 107.18036534368652 H 0.0 **** 0.06
8294 H 22.652773971478382 131.2954155136005 105.98022608034474 H 0.0 **** 0.06
8295 H 21.238923643888143 132.35092595507416 106.21454439469345 H 0.0 **** 0.06
8296 C 0.2613148221487265 130.2329093062569 93.26934238164392 C 0.0 **** -0.24
8297 H 0.9422649167549473 130.97610209680272 92.855076644572 H 0.0 **** 0.06
8298 H 0.8309227869943676 129.49236268735797 93.83235676823094 H 0.0 **** 0.06
8299 H -0.2755862168770342 129.74014680103858 92.4588276958639 H 0.0 **** 0.06
8300 H -0.452356095545948 130.72324521429846 93.93250543581038 H 0.0 **** 0.06
8301 C 122.80851030737495 118.63512018365572 2.056293153696089 C 0.0 **** -0.24
8302 H 123.8217742089401 118.30330230098889 2.284829496491426 H 0.0 **** 0.06
8303 H 122.84153585330955 119.64407515066353 1.6453687644925026 H 0.0 **** 0.06
8304 H 122.21129713174474 118.63264595489005 2.9677266118415844 H 0.0 **** 0.06
8305 H 122.36154038744303 117.95981022859911 1.3268673388518266 H 0.0 **** 0.06
8306 C 92.50406641234332 33.92226147746253 25.82572177183738 C 0.0 **** -0.24
8307 H 91.71557753085779 34.66166261046541 25.962381520430085 H 0.0 **** 0.06
8308 H 93.46903681892644 34.37331499405286 26.056960847723104 H 0.0 **** 0.06
8309 H 92.50273023858216 33.576949104965244 24.791298121068337 H 0.0 **** 0.06
8310 H 92.3285417287695 33.07691954007463 26.49134311853686 H 0.0 **** 0.06
8311 C 105.8060261682889 68.91992070203634 113.02278979976704 C 0.0 **** -0.24
8312 H 105.60366217277857 67.94256199031162 113.46154651150299 H 0.0 **** 0.06
8313 H 105.97582139300408 69.64707813648508 113.81757238399511 H 0.0 **** 0.06
8314 H 104.95308265825366 69.2310489949219 112.42028735184813 H 0.0 **** 0.06
8315 H 106.69344559730268 68.85782929349102 112.39166846713432 H 0.0 **** 0.06
8316 C 48.04221579011502 32.662269772771936 38.61240497853666 C 0.0 **** -0.24
8317 H 47.444170933288035 33.18579350500008 37.86633063202072 H 0.0 **** 0.06
8318 H 47.38577971846399 32.089112129837815 39.267360458277665 H 0.0 **** 0.06
8319 H 48.602365791550255 33.38767346915333 39.2026304711473 H 0.0 **** 0.06
8320 H 48.73638170719471 31.98763529004046 38.11247135570153 H 0.0 **** 0.06
8321 C 116.59284156753063 7.664794481282797 72.22669906691314 C 0.0 **** -0.24
8322 H 117.61144225098849 7.900506091983118 72.53696572103578 H 0.0 **** 0.06
8323 H 116.42014171869312 6.594157629001842 72.33408690673963 H 0.0 **** 0.06
8324 H 116.45489343414107 7.952886155360488 71.18478440872161 H 0.0 **** 0.06
8325 H 115.88679439933924 8.211148444404273 72.85202651097887 H 0.0 **** 0.06
8326 C 43.649556732110995 78.87360816705167 10.899846646653515 C 0.0 **** -0.24
8327 H 42.84096457333777 78.61514067387269 11.583028849876541 H 0.0 **** 0.06
8328 H 43.582660400417666 78.25214754022207 10.006581144265425 H 0.0 **** 0.06
8329 H 44.607801093765374 78.70396431926295 11.389296674282662 H 0.0 **** 0.06
8330 H 43.56547937362694 79.92366848809753 10.6187434432602 H 0.0 **** 0.06
8331 C 9.296092007734671 140.57928914846238 60.49257858153422 C 0.0 **** -0.24
8332 H 8.239523123273159 140.65363511689623 60.23300474312393 H 0.0 **** 0.06
8333 H 9.61767303925086 139.5412184146198 60.40703052495451 H 0.0 **** 0.06
8334 H 9.442936570082338 140.9230474780581 61.51618912133358 H 0.0 **** 0.06
8335 H 9.881023210793444 141.1990282806769 59.813295465351985 H 0.0 **** 0.06
8336 C 101.15915410152638 81.7315227940601 149.3688127181342 C 0.0 **** -0.24
8337 H 100.28526525130735 82.00881620590414 148.77832702861284 H 0.0 **** 0.06
8338 H 101.45990234059957 82.57480222692642 149.99090433599812 H 0.0 **** 0.06
8339 H 101.97723313811287 81.46320096569741 148.7007335758311 H 0.0 **** 0.06
8340 H 100.91332689435524 80.88062764083188 150.00374584606288 H 0.0 **** 0.06
8341 C 40.369470544342576 121.72491447634401 86.4110100019501 C 0.0 **** -0.24
8342 H 39.35843634707149 121.88557702127731 86.03631802277809 H 0.0 **** 0.06
8343 H 40.653056609331216 122.55469257893814 87.05794654830021 H 0.0 **** 0.06
8344 H 41.06204954023383 121.66545211082347 85.57082236479715 H 0.0 **** 0.06
8345 H 40.40302077582521 120.79421999473296 86.97627347491726 H 0.0 **** 0.06
8346 C 135.59653422136068 53.10162113907896 7.202868561201939 C 0.0 **** -0.24
8347 H 136.56155003509474 53.58775242448429 7.06324589047 H 0.0 **** 0.06
8348 H 135.4426684123643 52.89786386399864 8.26287657048124 H 0.0 **** 0.06
8349 H 135.57693433991398 52.16497276223549 6.645864675361707 H 0.0 **** 0.06
8350 H 134.8042662416451 53.75652600236255 6.8391918314517 H 0.0 **** 0.06
8351 C 112.03350214876771 132.40627699980087 86.97230788941673 C 0.0 **** -0.24
8352 H 111.97979217455737 131.5018678440374 87.57852072025713 H 0.0 **** 0.06
8353 H 112.99824510711026 132.44659503962828 86.46527712661072 H 0.0 **** 0.06
8354 H 111.92301165815125 133.28074968618566 87.61339917544251 H 0.0 **** 0.06
8355 H 111.23374992032059 132.3954480906632 86.23245334529923 H 0.0 **** 0.06
8356 C 101.768881625537 131.59790709174877 42.39364261662962 C 0.0 **** -0.24
8357 H 102.62938945416687 132.26558711722038 42.43733854369384 H 0.0 **** 0.06
8358 H 101.10569032132241 131.80473001041418 43.23481698190068 H 0.0 **** 0.06
8359 H 102.10754971926377 130.5640097452058 42.44365067921075 H 0.0 **** 0.06
8360 H 101.23179571842712 131.75946470496984 41.45909270786774 H 0.0 **** 0.06
8361 C 19.146779724565306 55.000996663522045 134.5795231998057 C 0.0 **** -0.24
8362 H 18.262713431457875 55.115579619444446 135.20573256224614 H 0.0 **** 0.06
8363 H 20.02510699943985 54.863408610682825 135.21137717556337 H 0.0 **** 0.06
8364 H 19.27524477758476 55.89319123076274 133.9670019820457 H 0.0 **** 0.06
8365 H 19.02416849688224 54.13089548805465 133.9335865598996 H 0.0 **** 0.06
8366 C 42.066613159058846 84.35493434756472 140.77336566698557 C 0.0 **** -0.24
8367 H 41.99012477145685 83.96994071431936 139.7562658120167 H 0.0 **** 0.06
8368 H 42.818393972675224 83.78547253790248 141.3204520845144 H 0.0 **** 0.06
8369 H 41.10184145562583 84.2576325283041 141.27150680850585 H 0.0 **** 0.06
8370 H 42.35589879848398 85.40498482424437 140.7434916573988 H 0.0 **** 0.06
8371 C 138.47422474801846 97.72532928667056 64.93500566703835 C 0.0 **** -0.24
8372 H 138.60185223382177 96.77689373005045 64.41271369186913 H 0.0 **** 0.06
8373 H 138.51870359744714 97.55596808747039 66.01059902405788 H 0.0 **** 0.06
8374 H 137.50764677233167 98.15652255636121 64.67433911061455 H 0.0 **** 0.06
8375 H 139.26963250651633 98.41071706075556 64.64074422242406 H 0.0 **** 0.06
8376 C 81.25139812657831 156.170769390367 91.80257731636819 C 0.0 **** -0.24
8377 H 80.47282147484096 155.4096451701164 91.86736189342436 H 0.0 **** 0.06
8378 H 81.30481855617347 156.54972747208512 90.78155002536141 H 0.0 **** 0.06
8379 H 82.21070287147522 155.73152868891304 92.07885748232911 H 0.0 **** 0.06
8380 H 81.01721178846499 156.98844005092428 92.48273983677312 H 0.0 **** 0.06
8381 C 20.58766217288695 67.9855763657298 42.57295725149646 C 0.0 **** -0.24
8382 H 20.9118304390513 68.98125135719997 42.87474177551769 H 0.0 **** 0.06
8383 H 20.595930129034684 67.91534205226708 41.48475851588495 H 0.0 **** 0.06
8384 H 19.578721294921195 67.80470053114794 42.942728648073285 H 0.0 **** 0.06
8385 H 21.26731740279598 67.24138284280431 42.990567723987795 H 0.0 **** 0.06
8386 C 146.9609617358222 62.244578812413124 27.929192670519704 C 0.0 **** -0.24
8387 H 147.84184214184313 62.799242299592606 28.25209480694926 H 0.0 **** 0.06
8388 H 147.0776849984688 61.95644224001944 26.883574801858735 H 0.0 **** 0.06
8389 H 146.07651162926075 62.87212702842817 28.03718759903819 H 0.0 **** 0.06
8390 H 146.84965132472072 61.350606303164966 28.54265156063061 H 0.0 **** 0.06
8391 C 21.91210697628331 63.752189088330624 130.98725952093548 C 0.0 **** -0.24
8392 H 21.08288571763154 63.08627150563939 130.74541329861938 H 0.0 **** 0.06
8393 H 21.932744442006374 64.5795132606639 130.27759023626703 H 0.0 **** 0.06
8394 H 22.849447748581078 63.199871326040665 130.92927674727832 H 0.0 **** 0.06
8395 H 21.78107981267876 64.14222759969007 131.99646638931083 H 0.0 **** 0.06
8396 C 52.34813485993607 51.03398217356363 45.37416692533208 C 0.0 **** -0.24
8397 H 53.18598603280945 50.83734865823985 44.70501346433696 H 0.0 **** 0.06
8398 H 52.496712862551846 50.49490883195773 46.30957120481423 H 0.0 **** 0.06
8399 H 51.422799695182036 50.70121909063241 44.90494288129236 H 0.0 **** 0.06
8400 H 52.28883815034551 52.103308049783095 45.576121698974134 H 0.0 **** 0.06
8401 C 20.955447743006587 20.39613589282547 61.30504908468295 C 0.0 **** -0.24
8402 H 20.6898092230581 19.59487343820291 61.994917434200815 H 0.0 **** 0.06
8403 H 20.888128417237247 20.030392329483163 60.280515814860934 H 0.0 **** 0.06
8404 H 21.974928126492998 20.725822365347597 61.507420716615414 H 0.0 **** 0.06
8405 H 20.270129336319933 21.23217278796139 61.43872260465737 H 0.0 **** 0.06
8406 C 6.019010655276077 75.21884056967951 128.11826490212962 C 0.0 **** -0.24
8407 H 5.743672961198115 76.26784897002392 128.22263045860188 H 0.0 **** 0.06
8408 H 5.478847707991406 74.62592344759456 128.85532724582157 H 0.0 **** 0.06
8409 H 7.091287189375919 75.10780341937357 128.27710265515867 H 0.0 **** 0.06
8410 H 5.763297003087587 74.87413119878643 127.11606199564007 H 0.0 **** 0.06
8411 C 132.43908464153998 75.88498300758039 68.70881097698198 C 0.0 **** -0.24
8412 H 131.72243153557693 76.47600309679973 68.13983891891657 H 0.0 **** 0.06
8413 H 132.06712469431477 74.86653802922982 68.81457132600968 H 0.0 **** 0.06
8414 H 132.57382887538301 76.32778687193279 69.6953708492945 H 0.0 **** 0.06
8415 H 133.39504194944138 75.86986388873063 68.18420946398955 H 0.0 **** 0.06
8416 C 126.44346312299889 24.85641864033915 79.96749139640008 C 0.0 **** -0.24
8417 H 126.94394811395905 24.34487623049811 80.78996438973536 H 0.0 **** 0.06
8418 H 126.12985143081663 25.847976150332123 80.29430187638815 H 0.0 **** 0.06
8419 H 125.57079350714729 24.282435214040895 79.66007253754316 H 0.0 **** 0.06
8420 H 127.13096929598076 24.95127048366041 79.12714203289383 H 0.0 **** 0.06
8421 C 22.79726992506682 124.31896895771563 121.44676673379313 C 0.0 **** -0.24
8422 H 22.438487536497888 123.33763565277859 121.75671480001513 H 0.0 **** 0.06
8423 H 23.006860501866093 124.30781064399996 120.3769504093196 H 0.0 **** 0.06
8424 H 23.709169611510447 124.56172602540461 121.99297517650787 H 0.0 **** 0.06
8425 H 22.035772407054438 125.06826036672832 121.6610085519611 H 0.0 **** 0.06
8426 C 35.53387151106034 118.65348389023738 145.2844003598328 C 0.0 **** -0.24
8427 H 36.237697526374944 119.4732589765339 145.1373002250009 H 0.0 **** 0.06
8428 H 34.74726868220927 118.71163961155376 144.53145706606608 H 0.0 **** 0.06
8429 H 35.092625285779036 118.72752086113 146.27807029951276 H 0.0 **** 0.06
8430 H 36.05946751507008 117.70282561449572 145.18987321244043 H 0.0 **** 0.06
8431 C 119.31300406426551 78.27748170451508 150.97497761669044 C 0.0 **** -0.24
8432 H 119.02579660566614 77.4718333621098 150.29953754934468 H 0.0 **** 0.06
8433 H 119.01429364986667 79.23418239113289 150.54534569550827 H 0.0 **** 0.06
8434 H 120.39363967143346 78.26437742950145 151.11720151010485 H 0.0 **** 0.06
8435 H 118.81667839907793 78.139333962747 151.9353008392022 H 0.0 **** 0.06
8436 C 135.21674987620906 137.34244581435112 107.33299923283725 C 0.0 **** -0.24
8437 H 134.4539233827437 138.09517018468773 107.53060595375884 H 0.0 **** 0.06
8438 H 135.09220408092483 136.95645488697608 106.32054920086618 H 0.0 **** 0.06
8439 H 135.1151924158081 136.52612044676832 108.04815910954515 H 0.0 **** 0.06
8440 H 136.20508003893883 137.792096661277 107.43188450877646 H 0.0 **** 0.06
8441 C 65.06576860013638 154.4571921607246 144.95689588683527 C 0.0 **** -0.24
8442 H 65.01863916698579 154.14969365715157 143.9125745117255 H 0.0 **** 0.06
8443 H 65.97580429401313 154.06302147754337 145.41047302183443 H 0.0 **** 0.06
8444 H 64.19708368496771 154.06836954827654 145.48886034751314 H 0.0 **** 0.06
8445 H 65.07133173543025 155.54528162351505 145.0152484349955 H 0.0 **** 0.06
8446 C 41.481620374153295 39.95841350437017 92.18466874340996 C 0.0 **** -0.24
8447 H 41.54398210492052 40.41187675135323 93.17420287043912 H 0.0 **** 0.06
8448 H 42.386510194809546 39.3817799053496 91.99262765514162 H 0.0 **** 0.06
8449 H 41.38196129561642 40.7420594884685 91.43247477445367 H 0.0 **** 0.06
8450 H 40.614228367732906 39.30060454229515 92.14133157126581 H 0.0 **** 0.06
8451 C 44.34167004186537 22.676756893614424 125.61230789306323 C 0.0 **** -0.24
8452 H 44.47736251600372 23.705390710428446 125.94717310739257 H 0.0 **** 0.06
8453 H 44.69687344170211 22.579367356176306 124.58626183936708 H 0.0 **** 0.06
8454 H 43.283358549073114 22.417077357928292 125.65625144638445 H 0.0 **** 0.06
8455 H 44.9067339075076 22.00669830678953 126.25909683894794 H 0.0 **** 0.06
8456 C 61.08971997228467 32.5120379658534 113.41829274368983 C 0.0 **** -0.24
8457 H 62.02581032383699 32.72663982749264 113.93510083992682 H 0.0 **** 0.06
8458 H 60.607760329436104 31.651438785889752 113.88227941197916 H 0.0 **** 0.06
8459 H 61.29557360070028 32.294354748927454 112.37113377139293 H 0.0 **** 0.06
8460 H 60.43148438874957 33.37812821849916 113.4866905556804 H 0.0 **** 0.06
8461 C 110.89979764363784 114.36887170810428 146.78855414434042 C 0.0 **** -0.24
8462 H 111.1765125371171 115.16847718438237 147.47595841614702 H 0.0 **** 0.06
8463 H 109.85602959430213 114.48515835334928 146.49767559658375 H 0.0 **** 0.06
8464 H 111.03560571652815 113.40501405693988 147.2793466407415 H 0.0 **** 0.06
8465 H 111.53279804446987 114.41789600715919 145.90257684216323 H 0.0 **** 0.06
8466 C 104.11681788992924 72.95414372700071 84.55164067392326 C 0.0 **** -0.24
8467 H 104.95199405706587 72.68584940441923 83.90522550313881 H 0.0 **** 0.06
8468 H 103.1787642345953 72.77049604386417 84.02713942408297 H 0.0 **** 0.06
8469 H 104.18634000466601 74.00910318574225 84.8151778790355 H 0.0 **** 0.06
8470 H 104.15110770613951 72.34954122950491 85.45774921500228 H 0.0 **** 0.06
8471 C 44.421845872381226 67.49314339159065 102.10484172940436 C 0.0 **** -0.24
8472 H 43.923348361925605 66.52910789549748 102.00078652964943 H 0.0 **** 0.06
8473 H 45.24680877245942 67.55373476744438 101.39524426695478 H 0.0 **** 0.06
8474 H 44.806520142614715 67.59523722211978 103.11951124296804 H 0.0 **** 0.06
8475 H 43.70963212338103 68.2931367695239 101.90375262440601 H 0.0 **** 0.06
8476 C 121.09633386122668 88.5242528177128 104.62155897207623 C 0.0 **** -0.24
8477 H 121.77940932824815 89.22407814955436 104.13868514972842 H 0.0 **** 0.06
8478 H 121.51749277798889 87.51977558237135 104.57877668484201 H 0.0 **** 0.06
8479 H 120.13657111413197 88.5391265103361 104.10410177867493 H 0.0 **** 0.06
8480 H 120.95323308506427 88.81516027549199 105.66205581402448 H 0.0 **** 0.06
8481 C 67.3126115670419 3.97659793639815 108.97538839483718 C 0.0 **** -0.24
8482 H 66.63668793505207 4.317234466227944 108.19086390285179 H 0.0 **** 0.06
8483 H 67.96554275725993 3.1976474233759404 108.57986636467803 H 0.0 **** 0.06
8484 H 66.7318542987478 3.575701100976403 109.8064145135586 H 0.0 **** 0.06
8485 H 67.91591825535772 4.81499043632283 109.32404257592219 H 0.0 **** 0.06
8486 C 148.0325377586331 74.99939099156313 140.1257038328531 C 0.0 **** -0.24
8487 H 147.28389511269688 74.71446694418677 140.86410555776203 H 0.0 **** 0.06
8488 H 147.5575211388469 75.5760962973747 139.33163967051956 H 0.0 **** 0.06
8489 H 148.48522993920093 74.1019930070202 139.7033883886884 H 0.0 **** 0.06
8490 H 148.80336028369427 75.60402690431712 140.60355079425904 H 0.0 **** 0.06
8491 C 108.53544933479445 96.25009217156119 149.84279473970412 C 0.0 **** -0.24
8492 H 109.48629475419814 96.42551638976232 150.34505261364407 H 0.0 **** 0.06
8493 H 107.7184359694837 96.40094271582211 150.5489632553989 H 0.0 **** 0.06
8494 H 108.50695606664881 95.22768713439794 149.46555906348516 H 0.0 **** 0.06
8495 H 108.43057641742048 96.94648333570012 149.0102944583164 H 0.0 **** 0.06
8496 C 134.1607838534676 26.468029221828147 23.234934249299698 C 0.0 **** -0.24
8497 H 133.53288149316933 26.749051049661944 22.38973308216714 H 0.0 **** 0.06
8498 H 133.58874750947174 25.84325167696528 23.92040860355749 H 0.0 **** 0.06
8499 H 134.49344175632928 27.367561347036258 23.754154230592917 H 0.0 **** 0.06
8500 H 135.02757853318914 25.914368207662903 22.874903534048826 H 0.0 **** 0.06
8501 C 127.81691953827442 133.55893026846724 27.56124183212677 C 0.0 **** -0.24
8502 H 127.21168265171764 134.35009490462352 27.118848911481393 H 0.0 **** 0.06
8503 H 127.19734622990035 132.95431902163665 28.223717366203886 H 0.0 **** 0.06
8504 H 128.63359493520818 134.00184294782377 28.130553958932353 H 0.0 **** 0.06
8505 H 128.22476625050098 132.92886053393977 26.77060103441275 H 0.0 **** 0.06
8506 C 91.89567420644465 20.567316357774132 142.74604110225766 C 0.0 **** -0.24
8507 H 91.28922406866887 21.422598534902306 143.043860334599 H 0.0 **** 0.06
8508 H 92.32933806994997 20.102903474512914 143.6315838696052 H 0.0 **** 0.06
8509 H 92.69346717953242 20.901571843086288 142.08253803174173 H 0.0 **** 0.06
8510 H 91.2693723076193 19.843062797157472 142.22543148486386 H 0.0 **** 0.06
8511 C 144.44137600772336 150.57717148376238 118.94985731691675 C 0.0 **** -0.24
8512 H 143.6707621728927 151.34673142150945 118.90487409219755 H 0.0 **** 0.06
8513 H 144.12290792432987 149.70969614275103 118.37269854384037 H 0.0 **** 0.06
8514 H 144.60167764126024 150.28552070714665 119.98812072417967 H 0.0 **** 0.06
8515 H 145.3705054882198 150.96959612311178 118.53590562975735 H 0.0 **** 0.06
8516 C 140.95068239990056 87.70684502322817 19.293779072507306 C 0.0 **** -0.24
8517 H 140.7582708537092 88.770390685836 19.43438165284593 H 0.0 **** 0.06
8518 H 141.15149298879518 87.24359497220001 20.260660256231688 H 0.0 **** 0.06
8519 H 141.81370621143793 87.57729098986502 18.641682237181413 H 0.0 **** 0.06
8520 H 140.078458177308 87.2367804813096 18.83977037751839 H 0.0 **** 0.06
8521 C 102.71676569424692 109.34931965213725 90.19220905386891 C 0.0 **** -0.24
8522 H 103.47035686966201 109.69355017316381 90.90057574016464 H 0.0 **** 0.06
8523 H 101.90437941505662 108.8640219797207 90.73414946464428 H 0.0 **** 0.06
8524 H 103.16762597608498 108.63914837912291 89.49929027868603 H 0.0 **** 0.06
8525 H 102.32539178816437 110.20178882365225 89.63655496591724 H 0.0 **** 0.06
8526 C 23.35586604534916 56.01282074438842 110.59102328900286 C 0.0 **** -0.24
8527 H 23.620368243074147 56.677648983003564 109.76877170336087 H 0.0 **** 0.06
8528 H 22.487857867433476 56.41251967991036 111.11520095968518 H 0.0 **** 0.06
8529 H 24.1961306952592 55.93770267195106 111.28120389017818 H 0.0 **** 0.06
8530 H 23.11940563871098 55.02403599196259 110.1965668320716 H 0.0 **** 0.06
8531 C 33.97848166564253 12.747858718309658 8.973206996338504 C 0.0 **** -0.24
8532 H 33.570657251154785 12.171350727967479 8.143132636911083 H 0.0 **** 0.06
8533 H 34.30417885017286 12.068952303197193 9.76226475308362 H 0.0 **** 0.06
8534 H 33.21182483232238 13.417132178507586 9.362358605324864 H 0.0 **** 0.06
8535 H 34.82925023716322 13.333912947267038 8.624045164798751 H 0.0 **** 0.06
8536 C 35.29866516558343 115.86269688120598 105.155333024193 C 0.0 **** -0.24
8537 H 34.55840916640466 116.60968158496365 105.44239850081783 H 0.0 **** 0.06
8538 H 36.249873317082574 116.35469119784142 104.95113378166405 H 0.0 **** 0.06
8539 H 34.95929014568415 115.34114785207527 104.26099313224194 H 0.0 **** 0.06
8540 H 35.42592847522067 115.14710257417306 105.9673413329042 H 0.0 **** 0.06
8541 C 127.99595441807669 106.76737802667834 54.728555042457685 C 0.0 **** -0.24
8542 H 128.74918500005504 106.07472934588738 54.353889662954884 H 0.0 **** 0.06
8543 H 128.22211995597036 107.02530885009229 55.76331903539153 H 0.0 **** 0.06
8544 H 127.01292201539106 106.29766767256417 54.67729883720159 H 0.0 **** 0.06
8545 H 127.99833345434457 107.67123718700735 54.1194034789865 H 0.0 **** 0.06
8546 C 0.28188419887669625 110.2270787609581 99.47856029415726 C 0.0 **** -0.24
8547 H 0.16946164678043374 110.8005574161708 98.55887934528594 H 0.0 **** 0.06
8548 H 0.17662690657866165 110.89136051776511 100.33618335436016 H 0.0 **** 0.06
8549 H 1.2668320331449934 109.76025354018672 99.49707130380982 H 0.0 **** 0.06
8550 H -0.4862213033421767 109.45425594733722 99.51993099583702 H 0.0 **** 0.06
8551 C 75.74387718420809 63.15206021061067 46.85184266322085 C 0.0 **** -0.24
8552 H 75.79842969351051 62.70305326220341 47.84342798281972 H 0.0 **** 0.06
8553 H 74.9133587651618 63.85737818769661 46.81752957586178 H 0.0 **** 0.06
8554 H 75.58897909907881 62.37095876244871 46.107191873422266 H 0.0 **** 0.06
8555 H 76.67604698910867 63.676346620885056 46.63901898332284 H 0.0 **** 0.06
8556 C 31.296792714915398 40.711082080668476 109.7993426556899 C 0.0 **** -0.24
8557 H 31.738604502733324 39.76232551870096 109.49452302672726 H 0.0 **** 0.06
8558 H 31.91121829695203 41.53296899732176 109.42955917134732 H 0.0 **** 0.06
8559 H 31.2466835283023 40.755370050349114 110.88775863747672 H 0.0 **** 0.06
8560 H 30.291819849351953 40.7928714622075 109.38572363310026 H 0.0 **** 0.06
8561 C 43.617318726722345 60.414760431620564 114.51791142015675 C 0.0 **** -0.24
8562 H 44.279252514698854 61.13407438716894 114.9974650473756 H 0.0 **** 0.06
8563 H 43.50100881448951 60.67373009118208 113.46521183692512 H 0.0 **** 0.06
8564 H 42.64269414243009 60.43535956653612 115.00637359144714 H 0.0 **** 0.06
8565 H 44.04405810453119 59.415707977077716 114.601669041308 H 0.0 **** 0.06
8566 C 101.7622740321204 144.8477405019664 143.11620962835832 C 0.0 **** -0.24
8567 H 101.28215800752751 145.5077852693054 143.83889710600647 H 0.0 **** 0.06
8568 H 102.60158046272169 144.33936234251888 143.59134439977768 H 0.0 **** 0.06
8569 H 102.12388116227204 145.43502011455035 142.27162828856186 H 0.0 **** 0.06
8570 H 101.04201338182169 144.1095651414802 142.76402588205832 H 0.0 **** 0.06
8571 C 26.096529270411793 110.33774956188626 136.9458787728313 C 0.0 **** -0.24
8572 H 25.95655646584251 109.34055172639563 137.36293243403668 H 0.0 **** 0.06
8573 H 25.906018481542787 111.08386173987145 137.71664585458763 H 0.0 **** 0.06
8574 H 25.403773057483136 110.48523406312847 136.11725954305365 H 0.0 **** 0.06
8575 H 27.120439663404795 110.43987376822508 136.58513807309373 H 0.0 **** 0.06
8576 C 38.56422626875688 130.2032582410617 102.15726818683153 C 0.0 **** -0.24
8577 H 38.66615942931125 131.22723175203512 101.79866599592977 H 0.0 **** 0.06
8578 H 37.78159391734208 129.69685928917002 101.59058887766055 H 0.0 **** 0.06
8579 H 38.3001015654156 130.21213172238706 103.21401036105571 H 0.0 **** 0.06
8580 H 39.50935763546062 129.67574648966485 102.02301927443024 H 0.0 **** 0.06
8581 C 117.00293718317583 139.5801162733294 150.08244716883866 C 0.0 **** -0.24
8582 H 116.65723023509678 140.59630549722942 150.27255462427038 H 0.0 **** 0.06
8583 H 117.5631013288275 139.21925225912386 150.94613694238714 H 0.0 **** 0.06
8584 H 117.6460445186609 139.57397426202454 149.20291952729667 H 0.0 **** 0.06
8585 H 116.14435456078083 138.93119520769227 149.9095541271391 H 0.0 **** 0.06
8586 C 30.630028483743104 126.41306523199863 5.2328077371561506 C 0.0 **** -0.24
8587 H 30.812063994860637 126.96565872807223 6.154250168330975 H 0.0 **** 0.06
8588 H 31.121398172524565 126.92060132375833 4.402421904514739 H 0.0 **** 0.06
8589 H 29.557312328367615 126.36310136154408 5.0453421640686145 H 0.0 **** 0.06
8590 H 31.029522928779755 125.40346274748761 5.330022399532936 H 0.0 **** 0.06
8591 C 1.1389310927579785 17.47574405066961 140.78993961457326 C 0.0 **** -0.24
8592 H 0.4986417125376761 17.60073663278883 139.9176111302525 H 0.0 **** 0.06
8593 H 2.1836735845620154 17.5721181681975 140.4913564842017 H 0.0 **** 0.06
8594 H 0.9740197455624617 16.489517491896727 141.22271792034147 H 0.0 **** 0.06
8595 H 0.9003688166029491 18.241437424180788 141.5286610745575 H 0.0 **** 0.06
8596 C 59.61420474602835 9.146072504662207 22.710682056049393 C 0.0 **** -0.24
8597 H 60.44750787540798 8.575816707684133 22.29864937229877 H 0.0 **** 0.06
8598 H 58.80442081172126 9.182845609523795 21.9830706638312 H 0.0 **** 0.06
8599 H 59.94534411390947 10.159454808469569 22.938382973007663 H 0.0 **** 0.06
8600 H 59.26296489468467 8.665276154237581 23.62385351724896 H 0.0 **** 0.06
8601 C 68.44304360070255 107.91860185427451 10.844444568443862 C 0.0 **** -0.24
8602 H 68.85439820557983 106.99687200142286 11.25772073166516 H 0.0 **** 0.06
8603 H 67.73383294456737 108.34809867136262 11.551142071093494 H 0.0 **** 0.06
8604 H 67.93361902583875 107.69981754727145 9.905796758248158 H 0.0 **** 0.06
8605 H 69.25116107935631 108.62661578072833 10.66259004104856 H 0.0 **** 0.06
8606 C 138.45353183098095 24.041730493652608 143.98549734816112 C 0.0 **** -0.24
8607 H 139.31595190429275 23.699879977707923 143.413017198746 H 0.0 **** 0.06
8608 H 137.72378847742328 23.23626201549348 144.05946218114696 H 0.0 **** 0.06
8609 H 138.000923556789 24.89798957332866 143.48470414404846 H 0.0 **** 0.06
8610 H 138.77463331592693 24.3344070805407 144.9849391464614 H 0.0 **** 0.06
8611 C 97.30575042905502 56.66201815409323 113.68844553756742 C 0.0 **** -0.24
8612 H 97.44708284588245 57.653018167851144 113.25701675491388 H 0.0 **** 0.06
8613 H 98.06918211725917 56.48270424822397 114.44522968030742 H 0.0 **** 0.06
8614 H 97.38645165203985 55.910683373422444 112.90405598394125 H 0.0 **** 0.06
8615 H 96.31842792313205 56.60458391717077 114.14768434055475 H 0.0 **** 0.06
8616 C 35.14411578210334 50.32469903450513 58.82512333669666 C 0.0 **** -0.24
8617 H 36.0192678363085 50.826728544545006 58.41483701695911 H 0.0 **** 0.06
8618 H 35.44514366632305 49.69415087239348 59.66163986068241 H 0.0 **** 0.06
8619 H 34.68381717844392 49.70822575900104 58.05241860918733 H 0.0 **** 0.06
8620 H 34.426043367547436 51.069359655147025 59.17129858113313 H 0.0 **** 0.06
8621 C 22.999044003738447 56.454982201926995 95.09631647186613 C 0.0 **** -0.24
8622 H 23.034338839667498 55.84252177742094 94.19519817625886 H 0.0 **** 0.06
8623 H 23.388047871099616 55.88353987272937 95.93955152398631 H 0.0 **** 0.06
8624 H 21.96759326369846 56.74387014432283 95.2979864892818 H 0.0 **** 0.06
8625 H 23.605222134740075 57.349777719894576 94.95258843952482 H 0.0 **** 0.06
8626 C 70.41336242095036 16.496675115930998 67.46753145478147 C 0.0 **** -0.24
8627 H 71.29953294182701 16.4351843576369 66.83737171067268 H 0.0 **** 0.06
8628 H 69.96284151703486 15.50763764047801 67.55829764166464 H 0.0 **** 0.06
8629 H 69.69506189011702 17.183621679633262 67.01934236817829 H 0.0 **** 0.06
8630 H 70.6954081573831 16.85991339645838 68.45634532117565 H 0.0 **** 0.06
8631 C 145.81571043493284 29.366232018813832 49.37420644890835 C 0.0 **** -0.24
8632 H 146.6241562576726 29.6621747068462 50.04210308800009 H 0.0 **** 0.06
8633 H 146.03366936063196 29.713605149973773 48.36426066444437 H 0.0 **** 0.06
8634 H 144.88116150700543 29.809044409267216 49.717556321302936 H 0.0 **** 0.06
8635 H 145.72430164927798 28.280405622878817 49.374551676311285 H 0.0 **** 0.06
8636 C 148.10106447643395 156.5441283950617 78.39616651003172 C 0.0 **** -0.24
8637 H 147.50604914454712 157.37252879132262 78.01115453214999 H 0.0 **** 0.06
8638 H 149.16019451657544 156.78130785865818 78.29742887771545 H 0.0 **** 0.06
8639 H 147.87547463545621 155.6412238991204 77.8278071163873 H 0.0 **** 0.06
8640 H 147.86059522735547 156.38187564271402 79.44684688720122 H 0.0 **** 0.06
8641 C 24.868806350302535 138.68845227672722 11.765182366011828 C 0.0 **** -0.24
8642 H 25.472603538359657 138.18455729803622 11.010959950432124 H 0.0 **** 0.06
8643 H 23.94804994795134 139.05300402523392 11.309577990947986 H 0.0 **** 0.06
8644 H 25.429763734611207 139.52841238376698 12.176319252780672 H 0.0 **** 0.06
8645 H 24.626689890177715 137.98815877689992 12.56446785815612 H 0.0 **** 0.06
8646 C 128.62676261420432 112.08400701358057 78.69857652039865 C 0.0 **** -0.24
8647 H 129.66102263318518 112.32410677322598 78.94648378597469 H 0.0 **** 0.06
8648 H 127.96126747466049 112.78743340858362 79.20044826180705 H 0.0 **** 0.06
8649 H 128.40120956502605 111.07047259775094 79.02883316529031 H 0.0 **** 0.06
8650 H 128.48570628561635 112.15486622735092 77.62069261612291 H 0.0 **** 0.06
8651 C 156.55149592084177 145.59087737693915 155.98708145607736 C 0.0 **** -0.24
8652 H 157.00876751294987 144.77235414983335 156.54447013801874 H 0.0 **** 0.06
8653 H 155.54810552002343 145.7748098627319 156.37075997581712 H 0.0 **** 0.06
8654 H 156.4948358968901 145.32464304198032 154.93245140997485 H 0.0 **** 0.06
8655 H 157.15644532434504 146.49008326885325 156.10322641589744 H 0.0 **** 0.06
8656 C 88.6972528825319 63.90466900241702 38.10524502468746 C 0.0 **** -0.24
8657 H 88.68999614199565 63.02807307302699 38.75360342204925 H 0.0 **** 0.06
8658 H 89.68803025885761 64.02313363930948 37.66587159395945 H 0.0 **** 0.06
8659 H 88.44944992729714 64.79119722935155 38.690058764066464 H 0.0 **** 0.06
8660 H 87.96046132191104 63.77543610225314 37.311831036760736 H 0.0 **** 0.06
8661 C 131.34623696680575 22.378913591440806 132.55755103198655 C 0.0 **** -0.24
8662 H 131.7155777866057 23.183559378657208 133.1946438359005 H 0.0 **** 0.06
8663 H 132.1904892729017 21.830473762078384 132.1401645718105 H 0.0 **** 0.06
8664 H 130.75071259485065 22.802299154955392 131.7488607012656 H 0.0 **** 0.06
8665 H 130.7281910403023 21.703471761780065 133.1484792980601 H 0.0 **** 0.06
8666 C 143.7011958010418 4.0694850649584495 124.64894811030537 C 0.0 **** -0.24
8667 H 142.6597842074647 4.390522807261696 124.62475441977192 H 0.0 **** 0.06
8668 H 143.75334445569356 2.991550991775245 124.49168284143623 H 0.0 **** 0.06
8669 H 144.13534159315785 4.3176007820237245 125.61787572267805 H 0.0 **** 0.06
8670 H 144.25642074372396 4.579042175352747 123.86210031614475 H 0.0 **** 0.06
8671 C 71.44073445490687 148.34466166813993 124.6672094694228 C 0.0 **** -0.24
8672 H 71.92633702039271 148.59098084176978 123.72215141115839 H 0.0 **** 0.06
8673 H 70.36548929788637 148.25693557487637 124.51090316210394 H 0.0 **** 0.06
8674 H 71.6395581879346 149.1329902225331 125.39387026700041 H 0.0 **** 0.06
8675 H 71.83306014363853 147.39919761460072 125.04064610611272 H 0.0 **** 0.06
8676 C 109.73371665118806 122.33929813465902 78.34234427972483 C 0.0 **** -0.24
8677 H 109.22946684043355 122.78043693773314 77.48225976493052 H 0.0 **** 0.06
8678 H 109.49040390337684 122.91176621613722 79.23738554738894 H 0.0 **** 0.06
8679 H 110.81132548292662 122.35784097410094 78.18071808416987 H 0.0 **** 0.06
8680 H 109.40278803362183 121.30917982866849 78.46796729775266 H 0.0 **** 0.06
8681 C 78.11483960858641 52.90932899723424 33.626054432054616 C 0.0 **** -0.24
8682 H 78.66832818000333 53.22445826423598 34.510399164084895 H 0.0 **** 0.06
8683 H 77.08061939543197 52.699412270318646 33.89947389067372 H 0.0 **** 0.06
8684 H 78.57221028450908 52.0094561251052 33.2133431667248 H 0.0 **** 0.06
8685 H 78.13922286347238 53.7041023537638 32.87960786109518 H 0.0 **** 0.06
8686 C 23.7331733468136 61.02386773984682 47.63629215715957 C 0.0 **** -0.24
8687 H 24.74756771625613 61.38849988115396 47.79962970051798 H 0.0 **** 0.06
8688 H 23.110322128076405 61.289545752731954 48.49017517547156 H 0.0 **** 0.06
8689 H 23.75129738375162 59.93969635248129 47.5230110510372 H 0.0 **** 0.06
8690 H 23.32511179203007 61.47652717496666 46.73334153289562 H 0.0 **** 0.06
8691 C 127.95413467117872 48.82021513887872 44.92393126810069 C 0.0 **** -0.24
8692 H 127.71263584006097 48.074551462650305 45.68174436137362 H 0.0 **** 0.06
8693 H 128.0165960253629 49.80389600120418 45.3902897581693 H 0.0 **** 0.06
8694 H 127.17601021354808 48.82704250536648 44.16144235153514 H 0.0 **** 0.06
8695 H 128.91134635218089 48.57420893188856 44.46535479552034 H 0.0 **** 0.06
8696 C 125.99330515318644 31.837848177207007 146.11199187720223 C 0.0 **** -0.24
8697 H 125.46457596911193 31.98417223927072 145.16970879097514 H 0.0 **** 0.06
8698 H 125.6702667705419 32.59197993045118 146.82909727205416 H 0.0 **** 0.06
8699 H 127.06678789890572 31.932006761353378 145.9435232572536 H 0.0 **** 0.06
8700 H 125.77193215384881 30.844681258878268 146.50220479848616 H 0.0 **** 0.06
8701 C 0.6999796112260697 119.06659274769378 132.79117481165412 C 0.0 **** -0.24
8702 H 1.5917494477182856 118.95471792370871 132.1746918480743 H 0.0 **** 0.06
8703 H 0.4113862539525428 120.11769458547708 132.82481271601134 H 0.0 **** 0.06
8704 H 0.9101412326118066 118.71607181507336 133.80189725412933 H 0.0 **** 0.06
8705 H -0.11255279679193109 118.47866887241453 132.36461618199377 H 0.0 **** 0.06
8706 C 101.75595837402646 92.13209392809593 22.418808792751605 C 0.0 **** -0.24
8707 H 101.36664985665762 91.95460167311502 21.416412144199114 H 0.0 **** 0.06
8708 H 101.31652619407409 91.41273838373048 23.110770983065663 H 0.0 **** 0.06
8709 H 101.50055668479631 93.14366551191024 22.73428553795182 H 0.0 **** 0.06
8710 H 102.84013510302161 92.01543316067136 22.41226746845868 H 0.0 **** 0.06
8711 C 114.40864145985735 139.1682227116055 112.00397119380604 C 0.0 **** -0.24
8712 H 114.02571414516329 138.16361459643474 111.82376607303188 H 0.0 **** 0.06
8713 H 115.46590162717796 139.2054088512896 111.7407853052086 H 0.0 **** 0.06
8714 H 114.2866388237233 139.42046923481723 113.05676114416546 H 0.0 **** 0.06
8715 H 113.85681973858375 139.8820981919526 111.3928253503175 H 0.0 **** 0.06
8716 C 107.77599225895766 65.34960762093334 98.73088263195376 C 0.0 **** -0.24
8717 H 107.11814814421597 65.52272981869453 99.5822265561995 H 0.0 **** 0.06
8718 H 107.30578111494965 64.64142535722272 98.04753785762155 H 0.0 **** 0.06
8719 H 108.72379560399433 64.94117853779494 99.08060273862681 H 0.0 **** 0.06
8720 H 107.95574990427839 66.29153762702958 98.21259340208813 H 0.0 **** 0.06
8721 C 94.10663941477452 54.744942289174816 147.77381084384245 C 0.0 **** -0.24
8722 H 93.89468681876633 53.77676048825347 147.31881435136154 H 0.0 **** 0.06
8723 H 93.21159262644662 55.3660734486065 147.73727311965882 H 0.0 **** 0.06
8724 H 94.91150886173533 55.234920706491835 147.2275792673999 H 0.0 **** 0.06
8725 H 94.40671969123618 54.60070661347861 148.81127917540584 H 0.0 **** 0.06
8726 C 44.62734413159001 110.03333432246154 47.07707467181524 C 0.0 **** -0.24
8727 H 43.618582574526044 110.30844418296152 47.38307519189192 H 0.0 **** 0.06
8728 H 45.28938897733815 110.05793863261488 47.94233006998928 H 0.0 **** 0.06
8729 H 44.98422168499991 110.73851800912996 46.32535856599992 H 0.0 **** 0.06
8730 H 44.61665738756926 109.02829126863207 46.65536633271739 H 0.0 **** 0.06
8731 C 147.2384092721397 29.286949380542183 139.87968481090672 C 0.0 **** -0.24
8732 H 147.55482564335995 30.176623877874192 140.42272955028196 H 0.0 **** 0.06
8733 H 148.09350832368898 28.858135470078764 139.35452102361967 H 0.0 **** 0.06
8734 H 146.4667648793236 29.556985147118212 139.15856395031645 H 0.0 **** 0.06
8735 H 146.8396237402114 28.55491683610836 140.5821961168267 H 0.0 **** 0.06
8736 C 8.97938263723701 103.68026127766274 88.75351955913608 C 0.0 **** -0.24
8737 H 8.088334755109294 103.75769854350864 88.13121916223129 H 0.0 **** 0.06
8738 H 9.865447736314401 103.65218721374833 88.11885100171618 H 0.0 **** 0.06
8739 H 8.929192164086295 102.76708762322494 89.3479516562678 H 0.0 **** 0.06
8740 H 9.03528259736565 104.5425788524206 89.41855511806735 H 0.0 **** 0.06
8741 C 94.03064391720409 52.39425880175895 67.24797399565922 C 0.0 **** -0.24
8742 H 93.2941796699753 52.221721378912065 66.46301544384983 H 0.0 **** 0.06
8743 H 94.26659916691882 53.457572258805214 67.29637132183542 H 0.0 **** 0.06
8744 H 94.93634650286945 51.83044416379279 67.02586471547843 H 0.0 **** 0.06
8745 H 93.62531131492592 52.067575100324675 68.20494048905535 H 0.0 **** 0.06
8746 C 128.85936383280523 143.23090829249867 64.83503994363593 C 0.0 **** -0.24
8747 H 129.84717774849608 143.17013815749004 65.29060804417604 H 0.0 **** 0.06
8748 H 128.9628318243492 143.3016269384274 63.75133934643024 H 0.0 **** 0.06
8749 H 128.34118197743953 144.11458553163573 65.20816430589585 H 0.0 **** 0.06
8750 H 128.28583129752457 142.33894374074825 65.08758765709571 H 0.0 **** 0.06
8751 C 8.118203084821005 142.8082752020178 144.0861445972896 C 0.0 **** -0.24
8752 H 7.116799206014377 142.59612987291646 144.46165934466904 H 0.0 **** 0.06
8753 H 8.691446387148176 143.32785657206853 144.85442319963119 H 0.0 **** 0.06
8754 H 8.046956899075155 143.4361037677479 143.19849325031663 H 0.0 **** 0.06
8755 H 8.616295700073522 141.87356818914498 143.830983514788 H 0.0 **** 0.06
8756 C 73.03432045413425 53.19657739121719 37.32477452708369 C 0.0 **** -0.24
8757 H 74.11121225772517 53.34704717754849 37.24513423186323 H 0.0 **** 0.06
8758 H 72.65399646016222 53.741989675547174 38.18874893995189 H 0.0 **** 0.06
8759 H 72.82401165071026 52.13324360059505 37.445008337148636 H 0.0 **** 0.06
8760 H 72.54851432259174 53.56278288854348 36.42069843145009 H 0.0 **** 0.06
8761 C 103.0942876577697 5.0805186676271035 37.04077462901813 C 0.0 **** -0.24
8762 H 103.57812178697934 5.167365216080896 36.06815658069438 H 0.0 **** 0.06
8763 H 102.73329547472592 6.059985380491611 37.35551467052534 H 0.0 **** 0.06
8764 H 103.81099681252324 4.705537428313676 37.77103808238557 H 0.0 **** 0.06
8765 H 102.25400630991946 4.3901705437776 36.96768296087399 H 0.0 **** 0.06
8766 C 7.300444094695791 92.4712062330255 20.46786271692767 C 0.0 **** -0.24
8767 H 7.340898158094234 92.54300290629035 21.554226533025464 H 0.0 **** 0.06
8768 H 6.368155238103725 91.98993195478782 20.170956577988036 H 0.0 **** 0.06
8769 H 8.144599537760598 91.87920854050495 20.110929855133122 H 0.0 **** 0.06
8770 H 7.348690258581598 93.46991863409883 20.035550941312913 H 0.0 **** 0.06
8771 C 28.984466480907074 138.08747415647446 1.2101180852409925 C 0.0 **** -0.24
8772 H 29.341920435272037 138.35246036511683 2.2057192538576658 H 0.0 **** 0.06
8773 H 27.89982800374814 137.9775220348467 1.2324475733562963 H 0.0 **** 0.06
8774 H 29.43901147019036 137.14705409539093 0.9007468079135776 H 0.0 **** 0.06
8775 H 29.256881334925815 138.87268564573995 0.506132518001607 H 0.0 **** 0.06
8776 C 143.73416604161653 100.6340106595904 140.6006206176561 C 0.0 **** -0.24
8777 H 144.38668536496283 101.47061189927906 140.85404640214858 H 0.0 **** 0.06
8778 H 143.1670072174596 100.3369271731648 141.48335499184293 H 0.0 **** 0.06
8779 H 144.33833273448795 99.79425906933697 140.25708379471382 H 0.0 **** 0.06
8780 H 143.04747933260643 100.93574676949133 139.80991438594256 H 0.0 **** 0.06
8781 C 119.63034654818279 150.26240397892906 20.800234678664935 C 0.0 **** -0.24
8782 H 120.10049679944626 151.1731432919989 20.429812888228213 H 0.0 **** 0.06
8783 H 119.76571368034223 149.46181352178962 20.072727740798257 H 0.0 **** 0.06
8784 H 118.56561733465139 150.43942885193604 20.951563989245784 H 0.0 **** 0.06
8785 H 120.0883534169148 149.97584173954434 21.74641670723176 H 0.0 **** 0.06
8786 C 76.8256071650127 7.473442514584633 117.0223364040844 C 0.0 **** -0.24
8787 H 76.37947236632117 7.530386809498403 116.02944025625521 H 0.0 **** 0.06
8788 H 77.45672007577868 6.587577066660991 117.0866134878811 H 0.0 **** 0.06
8789 H 76.03622685557943 7.413102081846716 117.77127659954357 H 0.0 **** 0.06
8790 H 77.42828924955606 8.363332869491032 117.20073229799044 H 0.0 **** 0.06
8791 C 154.74106547961338 37.57310795443286 136.28421628939503 C 0.0 **** -0.24
8792 H 154.30777874865467 37.3846649150137 135.30169477979263 H 0.0 **** 0.06
8793 H 154.1646843066801 38.346229685136066 136.79315659213404 H 0.0 **** 0.06
8794 H 155.77248613258516 37.90572900490771 136.1686899503435 H 0.0 **** 0.06
8795 H 154.71839135157688 36.65593516076652 136.87225846678245 H 0.0 **** 0.06
8796 C 118.32429588563816 21.261343357011526 47.41602641008825 C 0.0 **** -0.24
8797 H 117.98861811292927 22.10981455762345 48.0124991539638 H 0.0 **** 0.06
8798 H 118.5036397728925 20.406883307973942 48.069463861587906 H 0.0 **** 0.06
8799 H 119.2468527764719 21.523469542991364 46.89890042077491 H 0.0 **** 0.06
8800 H 117.55677201814952 21.005548182928237 46.685289367241694 H 0.0 **** 0.06
8801 C 82.8145047651085 131.60427285626668 127.21987702162603 C 0.0 **** -0.24
8802 H 83.18236350944295 130.68734304981064 126.76035627428006 H 0.0 **** 0.06
8803 H 82.87902162411558 132.4218436639399 126.50083858789223 H 0.0 **** 0.06
8804 H 83.41908434748768 131.83993717631517 128.0947910040698 H 0.0 **** 0.06
8805 H 81.77595598900322 131.46728011385642 127.52211222572102 H 0.0 **** 0.06
8806 C 112.35499305499928 42.30551014448464 61.26451784755977 C 0.0 **** -0.24
8807 H 112.66462951067695 41.38561143282011 60.76905111858434 H 0.0 **** 0.06
8808 H 111.64599928257536 42.06888735360458 62.05808584507008 H 0.0 **** 0.06
8809 H 111.8807011536137 42.96687509416739 60.53834202981011 H 0.0 **** 0.06
8810 H 113.22699592974243 42.80069477303951 61.69107947643636 H 0.0 **** 0.06
8811 C 27.10860268038641 7.380765465318973 96.61303682703844 C 0.0 **** -0.24
8812 H 27.14170340335147 6.762921079777129 97.51159589460379 H 0.0 **** 0.06
8813 H 27.12403714115385 8.43310597581376 96.89526523228432 H 0.0 **** 0.06
8814 H 26.195353648780383 7.165559828164874 96.05830949790284 H 0.0 **** 0.06
8815 H 27.974797740451322 7.15887524391195 95.98840768079721 H 0.0 **** 0.06
8816 C 68.3990960594504 149.75865340422553 98.81018511525144 C 0.0 **** -0.24
8817 H 68.14553484601153 148.8997159365798 99.43077256217089 H 0.0 **** 0.06
8818 H 67.48462728971144 150.2737219013266 98.5118161089081 H 0.0 **** 0.06
8819 H 68.93265081688925 149.42109110812441 97.92189930853607 H 0.0 **** 0.06
8820 H 69.03187906940299 150.44170190614466 99.37697438934924 H 0.0 **** 0.06
8821 C 15.635798760421665 62.29892140015376 94.99096346102996 C 0.0 **** -0.24
8822 H 15.44625917810626 63.25266439004838 94.49899119526472 H 0.0 **** 0.06
8823 H 15.853774237278898 62.470426971665674 96.04505368452396 H 0.0 **** 0.06
8824 H 16.48911133624562 61.810329438296336 94.51844332374975 H 0.0 **** 0.06
8825 H 14.756198559214774 61.66228637513163 94.8990451234713 H 0.0 **** 0.06
8826 C 28.664226173049542 112.3583745510701 116.51101782135011 C 0.0 **** -0.24
8827 H 28.29135636826919 112.71782743804077 115.55179917604782 H 0.0 **** 0.06
8828 H 28.257438610587315 112.9750784364504 117.31201522764131 H 0.0 **** 0.06
8829 H 29.752084870288172 112.41828510310332 116.52227929360588 H 0.0 **** 0.06
8830 H 28.35497540990997 111.3240125099649 116.65552993116206 H 0.0 **** 0.06
8831 C 24.263432232961833 134.49741926965683 91.95331375149168 C 0.0 **** -0.24
8832 H 24.167675773075956 133.43870544087224 92.19215547154876 H 0.0 **** 0.06
8833 H 25.14557349259138 134.65116550459322 91.33153841057467 H 0.0 **** 0.06
8834 H 24.365555271965462 135.06941197912036 92.87594852264844 H 0.0 **** 0.06
8835 H 23.376679206313042 134.83046363809646 91.41499678659173 H 0.0 **** 0.06
8836 C 12.013263784930956 5.2025760325398664 36.321014428728176 C 0.0 **** -0.24
8837 H 12.655095176098769 4.347881389001287 36.53381055335797 H 0.0 **** 0.06
8838 H 11.508865200133641 5.513589278580099 37.23557688271427 H 0.0 **** 0.06
8839 H 11.271293252218129 4.9215913004941285 35.573124728903565 H 0.0 **** 0.06
8840 H 12.617922040894399 6.025685662527309 35.940795297053 H 0.0 **** 0.06
8841 C 5.684105220065817 14.216159663822339 11.939624113434093 C 0.0 **** -0.24
8842 H 6.6414662359972 14.00608766983791 12.417039372562073 H 0.0 **** 0.06
8843 H 4.919622269386423 13.557597516207501 12.352664556610222 H 0.0 **** 0.06
8844 H 5.769991166187623 14.04457977147922 10.866110418526375 H 0.0 **** 0.06
8845 H 5.407284300754071 15.253867001486846 12.120967087042743 H 0.0 **** 0.06
8846 C 128.37123038186832 42.61959149139352 112.60388492907725 C 0.0 **** -0.24
8847 H 128.329423936095 42.95312943686814 113.64048722155843 H 0.0 **** 0.06
8848 H 128.68877964100517 43.44628826856865 111.96844447082253 H 0.0 **** 0.06
8849 H 127.38271447870035 42.27991464452117 112.29212111898778 H 0.0 **** 0.06
8850 H 129.08228186404938 41.798419128482465 112.51577478517635 H 0.0 **** 0.06
8851 C 84.46452019866777 23.80531179295042 130.56725595234596 C 0.0 **** -0.24
8852 H 85.43853720247806 24.274688467558917 130.42690245261952 H 0.0 **** 0.06
8853 H 84.5964239378667 22.732875070508726 130.7171246019116 H 0.0 **** 0.06
8854 H 83.84766491070127 23.976035336075483 129.68537576050892 H 0.0 **** 0.06
8855 H 83.97658661013737 24.236044911138436 131.44165772954105 H 0.0 **** 0.06
8856 C 128.43914061410317 73.52445743165907 16.661129220736477 C 0.0 **** -0.24
8857 H 129.04997216264275 73.76011755255837 15.789497528306498 H 0.0 **** 0.06
8858 H 128.10744194979316 74.45015911070666 17.132409497756363 H 0.0 **** 0.06
8859 H 129.0283668612193 72.94546235236493 17.37123396819736 H 0.0 **** 0.06
8860 H 127.5715349361808 72.94314723403767 16.349298327056808 H 0.0 **** 0.06
8861 C 75.73895339728746 0.47931539933949807 99.90844145534754 C 0.0 **** -0.24
8862 H 76.39555213032092 -0.23040674306554365 99.40560824113578 H 0.0 **** 0.06
8863 H 76.32258547420454 1.0917467877347349 100.59611658244677 H 0.0 **** 0.06
8864 H 74.97571360339965 -0.0649356679102766 100.465464339726 H 0.0 **** 0.06
8865 H 75.26109660272489 1.1196975857389475 99.16752837874918 H 0.0 **** 0.06
8866 C 132.28571038483383 137.2759899896632 151.74902476838218 C 0.0 **** -0.24
8867 H 132.24351870896433 138.09193551383973 151.02718721655677 H 0.0 **** 0.06
8868 H 131.6255217446998 137.49908085076802 152.5873093894542 H 0.0 **** 0.06
8869 H 133.30758646039618 137.16408624968597 152.1099949556243 H 0.0 **** 0.06
8870 H 131.9663228712335 136.35074474025618 151.26950363928879 H 0.0 **** 0.06
8871 C 33.61310046619231 12.755953512520563 29.545259818044997 C 0.0 **** -0.24
8872 H 33.21039227833615 12.901321180243087 28.542308640789884 H 0.0 **** 0.06
8873 H 32.93088829590008 12.131839883885505 30.123101862293225 H 0.0 **** 0.06
8874 H 33.725419253719345 13.72335583565868 30.03463278611372 H 0.0 **** 0.06
8875 H 34.58554033914272 12.267362952855962 29.478172902346103 H 0.0 **** 0.06
8876 C 19.923579020990672 77.96116944480997 9.224623708275374 C 0.0 **** -0.24
8877 H 19.6777044210981 76.92723036436891 9.46489917790879 H 0.0 **** 0.06
8878 H 20.807313311238346 78.26369565775401 9.788029712357286 H 0.0 **** 0.06
8879 H 19.085057609823224 78.60468150456195 9.4905987798291 H 0.0 **** 0.06
8880 H 20.12527548859191 78.04891721631104 8.157182128985625 H 0.0 **** 0.06
8881 C 45.56519663291394 93.84327196193233 124.02315921987218 C 0.0 **** -0.24
8882 H 44.85777208759342 94.6623458829233 123.89237655071383 H 0.0 **** 0.06
8883 H 45.44452990620445 93.12512013701405 123.21196677901838 H 0.0 **** 0.06
8884 H 45.37717464124897 93.34987520339189 124.97667116857855 H 0.0 **** 0.06
8885 H 46.581926149588185 94.23630304585089 124.01314248810968 H 0.0 **** 0.06
8886 C 84.63468887930611 117.68835427136754 113.52993895516028 C 0.0 **** -0.24
8887 H 85.05129994142217 117.3196007092646 112.5927507687606 H 0.0 **** 0.06
8888 H 83.91426704668568 118.47882141496844 113.32108080141819 H 0.0 **** 0.06
8889 H 85.437199905376 118.08185268576183 114.15450180176737 H 0.0 **** 0.06
8890 H 84.13606352759668 116.87114489774466 114.05135172520573 H 0.0 **** 0.06
8891 C 130.19983337472388 56.74519299848902 124.80059970083983 C 0.0 **** -0.24
8892 H 129.5823352506403 57.631644622606686 124.6595351055928 H 0.0 **** 0.06
8893 H 130.15686546801157 56.125517943048834 123.90430494404575 H 0.0 **** 0.06
8894 H 129.8282834903292 56.176579890688515 125.65391941490452 H 0.0 **** 0.06
8895 H 131.2307449450782 57.04561520312596 124.98597359635977 H 0.0 **** 0.06
8896 C 109.96249299748466 32.65028812631704 34.65097118030744 C 0.0 **** -0.24
8897 H 109.54688945110108 33.58967250416103 34.28499524299647 H 0.0 **** 0.06
8898 H 109.71277393928484 32.52873763795728 35.704891260123816 H 0.0 **** 0.06
8899 H 111.04613926629195 32.66194579433264 34.532943462402386 H 0.0 **** 0.06
8900 H 109.54391767017701 31.82183291269409 34.080125927326804 H 0.0 **** 0.06
8901 C 102.7224463632344 134.38701621538007 59.69693978913034 C 0.0 **** -0.24
8902 H 102.68178361471574 134.29373496747166 58.61158370521537 H 0.0 **** 0.06
8903 H 102.18402581064704 135.2837325239602 60.00540514468048 H 0.0 **** 0.06
8904 H 103.76198031516891 134.45923887366345 60.01697998507677 H 0.0 **** 0.06
8905 H 102.26199571240575 133.5113584964251 60.15379032154867 H 0.0 **** 0.06
8906 C 6.954976956913555 32.40994080650971 147.25656435750636 C 0.0 **** -0.24
8907 H 7.364465634407054 33.021161633421585 146.4519962677348 H 0.0 **** 0.06
8908 H 6.48491958127687 31.52187616471764 146.83353251253604 H 0.0 **** 0.06
8909 H 6.212841983955315 32.98646147759699 147.8089159421293 H 0.0 **** 0.06
8910 H 7.757993193245795 32.111086263646 147.93032066158366 H 0.0 **** 0.06
8911 C 119.44454421089807 114.61397295027844 40.769726824071086 C 0.0 **** -0.24
8912 H 120.53212514712504 114.64460569482317 40.8445736980042 H 0.0 **** 0.06
8913 H 119.1517618596917 114.65956614460062 39.720571239627404 H 0.0 **** 0.06
8914 H 119.02054216027199 115.46383634974033 41.30361735710838 H 0.0 **** 0.06
8915 H 119.07669931992405 113.68748730680612 41.21050699090567 H 0.0 **** 0.06
8916 C 24.683325680192205 138.3967304718506 83.47888053598163 C 0.0 **** -0.24
8917 H 23.741894447883247 138.9003219302711 83.69853150969885 H 0.0 **** 0.06
8918 H 24.878461971391502 138.44219629449714 82.40803305970388 H 0.0 **** 0.06
8919 H 24.619047658052445 137.3550738100357 83.79360805322781 H 0.0 **** 0.06
8920 H 25.492759150256326 138.88914917179903 84.01811885382827 H 0.0 **** 0.06
8921 C 52.50047860655394 90.79393422405508 11.893893959759275 C 0.0 **** -0.24
8922 H 53.44611248897667 90.47462127657232 12.332110204106257 H 0.0 **** 0.06
8923 H 51.7039718762572 90.68590378318191 12.630416965777457 H 0.0 **** 0.06
8924 H 52.27755464814963 90.17655004317328 11.023426057796847 H 0.0 **** 0.06
8925 H 52.57601944655235 91.83777484905761 11.590037106840704 H 0.0 **** 0.06
8926 C 72.8092564937819 115.76310588963588 12.948340809775644 C 0.0 **** -0.24
8927 H 73.25857227876281 115.75628778050952 11.95528919521253 H 0.0 **** 0.06
8928 H 72.7819695332613 114.74746066786929 13.341995288233917 H 0.0 **** 0.06
8929 H 71.79364978101472 116.15569642842007 12.885028935528638 H 0.0 **** 0.06
8930 H 73.40169216991848 116.39457335253485 13.609976256352958 H 0.0 **** 0.06
8931 C 71.21865211493139 85.23857010243249 120.27127118364838 C 0.0 **** -0.24
8932 H 71.52015049988239 84.3218163460088 119.76351929625731 H 0.0 **** 0.06
8933 H 71.87108478986346 85.41049473646532 121.12696807772097 H 0.0 **** 0.06
8934 H 70.18856073161459 85.14109698460638 120.61347929452846 H 0.0 **** 0.06
8935 H 71.29481553584179 86.07773633274707 119.58003834837162 H 0.0 **** 0.06
8936 C 150.2207464891997 31.651661606165867 117.82376971368787 C 0.0 **** -0.24
8937 H 150.87985132262475 32.404965321818814 117.39413853647251 H 0.0 **** 0.06
8938 H 150.2529737151264 30.748736238356457 117.21346251280112 H 0.0 **** 0.06
8939 H 149.20062342413075 32.03480799162428 117.85209735838977 H 0.0 **** 0.06
8940 H 150.54807477811292 31.41775893404217 118.83702901754354 H 0.0 **** 0.06
8941 C 52.13493806170078 10.794316319888054 107.00552606822464 C 0.0 **** -0.24
8942 H 51.83680538092966 11.78745727103933 107.34139899699471 H 0.0 **** 0.06
8943 H 51.833157753890305 10.655876461329939 105.96730849784797 H 0.0 **** 0.06
8944 H 51.65245745405372 10.0406059859003 107.62781046207675 H 0.0 **** 0.06
8945 H 53.21743799898195 10.693197210325934 107.08657234344446 H 0.0 **** 0.06
8946 C 41.54992824315411 148.2207894283574 102.21599783123624 C 0.0 **** -0.24
8947 H 41.57672964452564 148.41378181367836 103.28870856285404 H 0.0 **** 0.06
8948 H 42.56337375773495 148.25433849463172 101.81469077002025 H 0.0 **** 0.06
8949 H 40.938481810873384 148.97899429167984 101.72601483125742 H 0.0 **** 0.06
8950 H 41.1202178156467 147.23571318113426 102.03560828252718 H 0.0 **** 0.06
8951 C 42.68401497758734 3.3070433490206206 113.05895726095993 C 0.0 **** -0.24
8952 H 42.04911140559787 3.7092580367367702 112.26937669046167 H 0.0 **** 0.06
8953 H 43.315174355116625 4.101321684018146 113.45654927836777 H 0.0 **** 0.06
8954 H 43.310037679945225 2.5132987721402174 112.65297604212923 H 0.0 **** 0.06
8955 H 42.059653458230684 2.905562383612107 113.85669304156879 H 0.0 **** 0.06
8956 C 14.329346601095637 72.88638253857893 18.155892292971203 C 0.0 **** -0.24
8957 H 14.81344959843264 73.77362537713906 17.74867849051708 H 0.0 **** 0.06
8958 H 15.088787244987486 72.18014555138318 18.49258194640197 H 0.0 **** 0.06
8959 H 13.716675186157829 72.42023189507077 17.38349212221806 H 0.0 **** 0.06
8960 H 13.698046519725438 73.17074005943546 18.997334303198215 H 0.0 **** 0.06
8961 C 150.75548107866422 128.27564982287817 80.43151240316688 C 0.0 **** -0.24
8962 H 149.8197194807029 128.21568535846473 80.98751076187617 H 0.0 **** 0.06
8963 H 150.90025635834544 127.356370920808 79.86434921957039 H 0.0 **** 0.06
8964 H 151.5842959488009 128.40746519574088 81.12818617216496 H 0.0 **** 0.06
8965 H 150.71799892843762 129.1229856365899 79.74737151383357 H 0.0 **** 0.06
8966 C 23.299758848348965 95.99552130930691 107.55023568504816 C 0.0 **** -0.24
8967 H 22.723684168768024 96.0937260936898 106.62962855661016 H 0.0 **** 0.06
8968 H 23.738823063243714 96.96020067360615 107.80756826991455 H 0.0 **** 0.06
8969 H 24.092564772646206 95.2618950240777 107.4061284610932 H 0.0 **** 0.06
8970 H 22.643479208359253 95.66839079349437 108.35650382935495 H 0.0 **** 0.06
8971 C 8.076545583596612 125.10239469748842 89.66370218566783 C 0.0 **** -0.24
8972 H 8.422364296463968 125.3281008601657 88.65485441532999 H 0.0 **** 0.06
8973 H 8.926743537889763 124.81168330267263 90.28223840467109 H 0.0 **** 0.06
8974 H 7.356810950501313 124.28462772600858 89.62662240092641 H 0.0 **** 0.06
8975 H 7.600263549531746 125.98516690110671 90.09109352174386 H 0.0 **** 0.06
8976 C 9.108643622563278 21.897798185456963 124.63811837550554 C 0.0 **** -0.24
8977 H 8.146939230108508 21.497861165495834 124.31981718352245 H 0.0 **** 0.06
8978 H 9.355620024005894 22.77329277296562 124.03649922788844 H 0.0 **** 0.06
8979 H 9.878978532311017 21.137841673725973 124.50784599831013 H 0.0 **** 0.06
8980 H 9.054111183060876 22.182888421422717 125.68948058265937 H 0.0 **** 0.06
8981 C 7.964641695708792 103.50286346164886 10.007495702214129 C 0.0 **** -0.24
8982 H 8.701142413178616 103.56058457664365 10.808547895194295 H 0.0 **** 0.06
8983 H 7.4689187270926425 102.53196689200708 10.038468284021405 H 0.0 **** 0.06
8984 H 8.462825159648247 103.6260424299932 9.04658529862607 H 0.0 **** 0.06
8985 H 7.224388850058887 104.29276077992004 10.138203970039058 H 0.0 **** 0.06
8986 C 61.260249670505814 30.93974181042296 29.857807106968664 C 0.0 **** -0.24
8987 H 60.174113104922355 30.861437608991423 29.908517003045816 H 0.0 **** 0.06
8988 H 61.66757938865295 30.989480016203686 30.86844914921751 H 0.0 **** 0.06
8989 H 61.53404816476639 31.841157617459544 29.309813868864012 H 0.0 **** 0.06
8990 H 61.663434533880874 30.06611051106148 29.34548006765999 H 0.0 **** 0.06
8991 C 27.461597167686392 5.709671665787539 113.53150018415336 C 0.0 **** -0.24
8992 H 28.065816528826247 4.974717365174541 112.99966110101103 H 0.0 **** 0.06
8993 H 26.58295041058392 5.221890558345649 113.9534837571377 H 0.0 **** 0.06
8994 H 27.146912542103394 6.490400811780091 112.83851441186589 H 0.0 **** 0.06
8995 H 28.052146458622275 6.152205887368837 114.3335317672133 H 0.0 **** 0.06
8996 C 99.39053192826645 17.928245752331378 152.44292498537416 C 0.0 **** -0.24
8997 H 99.60934836697504 16.861094503249426 152.40131658160024 H 0.0 **** 0.06
8998 H 100.09934525528632 18.469104315375013 151.8155037795274 H 0.0 **** 0.06
8999 H 99.47624121617923 18.276327505180106 153.47196223460918 H 0.0 **** 0.06
9000 H 98.37674927953333 18.10522144446756 152.08239059341443 H 0.0 **** 0.06
9001 C 128.323015862555 82.63162350884332 24.848012499691805 C 0.0 **** -0.24
9002 H 128.60355950996617 83.1392001121467 25.770817960471163 H 0.0 **** 0.06
9003 H 128.0434960363391 81.60151032860901 25.071109348938933 H 0.0 **** 0.06
9004 H 129.16657585970324 82.6387981465885 24.15773159466562 H 0.0 **** 0.06
9005 H 127.47705131011145 83.14690465207057 24.392686239499653 H 0.0 **** 0.06
9006 C 16.13674840083422 24.453832123008965 48.09924860398321 C 0.0 **** -0.24
9007 H 16.874900889823437 25.11752676479233 48.54927081375919 H 0.0 **** 0.06
9008 H 16.647489552012246 23.65322248983466 47.56190751763306 H 0.0 **** 0.06
9009 H 15.515761698510744 25.018881323799803 47.40384037843276 H 0.0 **** 0.06
9010 H 15.509694039302644 24.02517319586272 48.88056224136908 H 0.0 **** 0.06
9011 C 27.358178972860145 0.20496860203552103 79.65803983083212 C 0.0 **** -0.24
9012 H 28.265333434507284 0.6535162286390452 80.06200078763372 H 0.0 **** 0.06
9013 H 27.151474153436965 0.6271658149701693 78.67448133708214 H 0.0 **** 0.06
9014 H 26.522158700529076 0.41100487788456874 80.32552150820912 H 0.0 **** 0.06
9015 H 27.494777723556012 -0.873105947337347 79.56834732321802 H 0.0 **** 0.06
9016 C 126.54639801070603 56.52480473005647 95.24431567060513 C 0.0 **** -0.24
9017 H 126.26373126062866 55.58656541601721 95.72068331967218 H 0.0 **** 0.06
9018 H 127.5501372188525 56.805234061132126 95.562289938945 H 0.0 **** 0.06
9019 H 125.84187167510264 57.30503716765665 95.53214314036433 H 0.0 **** 0.06
9020 H 126.52954557540075 56.40128466820323 94.16084185693978 H 0.0 **** 0.06
9021 C 145.13228131829936 111.00182126889989 19.807983783409355 C 0.0 **** -0.24
9022 H 144.07153678229548 111.03343516899763 20.05652604706961 H 0.0 **** 0.06
9023 H 145.68044430617405 111.67639627246332 20.46634280600017 H 0.0 **** 0.06
9024 H 145.27206551151107 111.31167898443015 18.772774037752924 H 0.0 **** 0.06
9025 H 145.50507867321699 109.9857746497084 19.936292242814773 H 0.0 **** 0.06
9026 C 94.36379039765308 52.40639755569849 77.72483215332933 C 0.0 **** -0.24
9027 H 95.38988108472432 52.76582790241467 77.6438234160661 H 0.0 **** 0.06
9028 H 93.82717516572359 52.629035610976175 76.80191769408339 H 0.0 **** 0.06
9029 H 93.86977749365138 52.901446952655945 78.5608734297302 H 0.0 **** 0.06
9030 H 94.36870600324602 51.328533137261346 77.89216672585276 H 0.0 **** 0.06
9031 C 70.33856553008371 152.89741397566183 97.13541656662352 C 0.0 **** -0.24
9032 H 71.4161822519954 152.7666162293403 97.0351078836772 H 0.0 **** 0.06
9033 H 70.08554812902375 153.03160317390666 98.18789230405213 H 0.0 **** 0.06
9034 H 69.82820187529308 152.01558990932534 96.74781376209705 H 0.0 **** 0.06
9035 H 70.02520530608038 153.77608503350297 96.57127276700311 H 0.0 **** 0.06
9036 C 77.72520394672105 107.51524983253574 112.43732542366313 C 0.0 **** -0.24
9037 H 76.93851298250327 106.81489661063529 112.71827269483656 H 0.0 **** 0.06
9038 H 78.04926975993122 108.06894423559379 113.31854930520988 H 0.0 **** 0.06
9039 H 77.34146205692224 108.2111238825729 111.69110886847919 H 0.0 **** 0.06
9040 H 78.56844282991807 106.96514712476227 112.02202456410141 H 0.0 **** 0.06
9041 C 99.94362582790711 78.95313717015237 12.133790104318678 C 0.0 **** -0.24
9042 H 99.4797471177651 79.92697541829226 12.289813412901452 H 0.0 **** 0.06
9043 H 100.89614766523914 78.91557988953703 12.662861260357005 H 0.0 **** 0.06
9044 H 100.11356181646659 78.79794435739893 11.068881852113691 H 0.0 **** 0.06
9045 H 99.28495722430102 78.17250179948299 12.514940695396291 H 0.0 **** 0.06
9046 C 115.85014323313175 116.8063897594364 105.7899562830242 C 0.0 **** -0.24
9047 H 116.07775459430763 117.69276715887577 106.38190208931911 H 0.0 **** 0.06
9048 H 115.18323797582394 116.15511533651141 106.35486660600742 H 0.0 **** 0.06
9049 H 116.77402189750944 116.27435133008504 105.5644790707475 H 0.0 **** 0.06
9050 H 115.36599698675315 117.10548886050873 104.86060877386814 H 0.0 **** 0.06
9051 C 34.53975225457464 47.70009670452073 33.760217557940294 C 0.0 **** -0.24
9052 H 34.69739936708919 48.36585578631379 34.60812785355408 H 0.0 **** 0.06
9053 H 35.39149534052359 47.025699151705595 33.66605620018494 H 0.0 **** 0.06
9054 H 34.43918394720504 48.28865973889921 32.848687405627075 H 0.0 **** 0.06
9055 H 33.63147703969253 47.118261827706746 33.91943126773963 H 0.0 **** 0.06
9056 C 140.11150916049462 28.091805290258208 42.43336519459058 C 0.0 **** -0.24
9057 H 139.72613623774845 29.008015834145226 42.88105552262442 H 0.0 **** 0.06
9058 H 139.91240265424824 27.25108347922361 43.09842769409772 H 0.0 **** 0.06
9059 H 141.18582728803466 28.187080601697062 42.278588525383384 H 0.0 **** 0.06
9060 H 139.62079602966924 27.920668838006804 41.47570002347834 H 0.0 **** 0.06
9061 C 150.9603180406192 45.599351488934175 98.99649879647336 C 0.0 **** -0.24
9062 H 151.43763453498335 46.257517471932644 98.27010551988252 H 0.0 **** 0.06
9063 H 151.69558994842066 45.27733174895941 99.73418856387514 H 0.0 **** 0.06
9064 H 150.55152949385766 44.72802924904214 98.48413547523143 H 0.0 **** 0.06
9065 H 150.15445150389237 46.136920522348035 99.4976159250005 H 0.0 **** 0.06
9066 C 9.200704029665346 140.52478954704955 91.53675636787966 C 0.0 **** -0.24
9067 H 8.420729018063994 140.1478305195388 92.19831025401707 H 0.0 **** 0.06
9068 H 9.961691683694852 139.75668465889626 91.39987929464185 H 0.0 **** 0.06
9069 H 9.654477385825757 141.41214839475015 91.9782047687809 H 0.0 **** 0.06
9070 H 8.764452485007887 140.7812587447316 90.5712011800132 H 0.0 **** 0.06
9071 C 142.84383486466655 3.1335086419319325 98.47161979908239 C 0.0 **** -0.24
9072 H 142.0139631356965 2.528245066757812 98.83657540329236 H 0.0 **** 0.06
9073 H 143.72109782458475 2.500321320153695 98.3324319980969 H 0.0 **** 0.06
9074 H 143.07084599349088 3.9145478217729135 99.19698688226403 H 0.0 **** 0.06
9075 H 142.56984871744885 3.589640301213983 97.52005099544648 H 0.0 **** 0.06
9076 C 72.1138272653316 31.231879915902567 140.54140376874938 C 0.0 **** -0.24
9077 H 71.21660147371063 31.094247975964095 139.9373648441929 H 0.0 **** 0.06
9078 H 72.96744717812967 31.410665682007505 139.887562529151 H 0.0 **** 0.06
9079 H 72.29247369570759 30.335869922912195 141.13541067094607 H 0.0 **** 0.06
9080 H 71.97759635466063 32.08597212688832 141.2042772735887 H 0.0 **** 0.06
9081 C 62.48698642083981 6.059436346095801 76.38319182574294 C 0.0 **** -0.24
9082 H 62.01193273041869 6.776987521379404 77.0525295494048 H 0.0 **** 0.06
9083 H 63.459042616015765 6.44279860091649 76.07130588568275 H 0.0 **** 0.06
9084 H 61.85725524667481 5.907888402709794 75.50738791502383 H 0.0 **** 0.06
9085 H 62.6204325464996 5.110869748119299 76.90374559511245 H 0.0 **** 0.06
9086 C 18.571232699582666 147.86027948774145 5.967652359966628 C 0.0 **** -0.24
9087 H 17.568208281158384 147.96166546161402 5.554828514062713 H 0.0 **** 0.06
9088 H 18.526114985059316 147.28899924519345 6.894927374038311 H 0.0 **** 0.06
9089 H 18.98201345812859 148.8496429960971 6.169908881218419 H 0.0 **** 0.06
9090 H 19.208477521211755 147.34210754150092 5.251495588219676 H 0.0 **** 0.06
9091 C 104.89300117739862 65.54324258588692 87.44044238842113 C 0.0 **** -0.24
9092 H 105.78435482376244 65.04756782887789 87.05524646552155 H 0.0 **** 0.06
9093 H 104.37772445103565 66.04960993929889 86.62315068546559 H 0.0 **** 0.06
9094 H 105.1812248979736 66.27279949427157 88.19672041184714 H 0.0 **** 0.06
9095 H 104.22945266785246 64.80148276460409 87.88487619854925 H 0.0 **** 0.06
9096 C 90.88333063650384 53.8573286844088 15.830405316794227 C 0.0 **** -0.24
9097 H 90.30506598577222 54.78059189518666 15.848507163317983 H 0.0 **** 0.06
9098 H 90.72403167669881 53.31148657863196 16.76081433256462 H 0.0 **** 0.06
9099 H 91.9421072610105 54.09363325435112 15.723504024305605 H 0.0 **** 0.06
9100 H 90.56144442887563 53.244313998702296 14.988592431583875 H 0.0 **** 0.06
9101 C 115.01292497728485 108.60568266637624 49.70513505866609 C 0.0 **** -0.24
9102 H 114.44746792836122 108.81333502440798 48.796206279977355 H 0.0 **** 0.06
9103 H 114.70495659307011 107.64283523792666 50.11182283729363 H 0.0 **** 0.06
9104 H 114.8201926196192 109.38912462108767 50.43907079247208 H 0.0 **** 0.06
9105 H 116.07694805200589 108.57961124110757 49.47259730014528 H 0.0 **** 0.06
9106 C 19.242449436595223 127.12120426436398 117.4137899622627 C 0.0 **** -0.24
9107 H 19.53700141933564 127.94597949354186 116.76535677246217 H 0.0 **** 0.06
9108 H 18.21124885727619 126.841077531296 117.19807473633021 H 0.0 **** 0.06
9109 H 19.325034054806906 127.43249231507276 118.4556705879978 H 0.0 **** 0.06
9110 H 19.897089284367894 126.26820578228681 117.23624865262293 H 0.0 **** 0.06
9111 C 89.52905424366719 73.8808727018309 27.46151059269411 C 0.0 **** -0.24
9112 H 88.72812005903081 74.48452441129993 27.035038195252923 H 0.0 **** 0.06
9113 H 89.71759629969864 73.02131061269802 26.81811601141459 H 0.0 **** 0.06
9114 H 89.23617953685417 73.53620657733228 28.452615682659427 H 0.0 **** 0.06
9115 H 90.43536336957987 74.48260670768437 27.53951490768398 H 0.0 **** 0.06
9116 C 42.22538423893985 12.889325098587008 108.41496580447483 C 0.0 **** -0.24
9117 H 42.01499792347562 12.420025602404834 107.45339922582764 H 0.0 **** 0.06
9118 H 43.25396723056258 13.250197119126582 108.42502025890343 H 0.0 **** 0.06
9119 H 42.088139896203586 12.159216663873757 109.21272099355389 H 0.0 **** 0.06
9120 H 41.54429122139197 13.726678690210314 108.56746479365341 H 0.0 **** 0.06
9121 C 114.00154030657008 34.10633074258015 138.8404805802036 C 0.0 **** -0.24
9122 H 114.28506650354687 33.707130103694595 139.81376953114406 H 0.0 **** 0.06
9123 H 113.6707293974546 33.29203022748839 138.19536934660138 H 0.0 **** 0.06
9124 H 114.86084330875006 34.602107156118514 138.38795566631637 H 0.0 **** 0.06
9125 H 113.19151610216129 34.82464638574657 138.96353369338766 H 0.0 **** 0.06
9126 C 53.16899291644762 98.9314728168511 24.220127751195434 C 0.0 **** -0.24
9127 H 52.81078222228717 98.56921928062373 25.183312633750745 H 0.0 **** 0.06
9128 H 54.21644550029521 98.6543256823589 24.09545109989682 H 0.0 **** 0.06
9129 H 53.072718819829106 100.01667190705531 24.18116732098565 H 0.0 **** 0.06
9130 H 52.57731854795679 98.48534706569615 23.421048961811096 H 0.0 **** 0.06
9131 C 99.66502844921548 82.17168822442792 25.07482815993434 C 0.0 **** -0.24
9132 H 98.65164858539333 82.50034250266275 24.844254335454735 H 0.0 **** 0.06
9133 H 99.99846682247058 82.6446162795282 25.998983235193194 H 0.0 **** 0.06
9134 H 100.3320173085037 82.45577013213183 24.2608134147102 H 0.0 **** 0.06
9135 H 99.67754338264997 81.0889447107743 25.194734335609226 H 0.0 **** 0.06
9136 C 120.89174378938522 120.13452740512957 100.81212998173696 C 0.0 **** -0.24
9137 H 119.9136576125275 120.14516702407491 100.3308017036385 H 0.0 **** 0.06
9138 H 121.14442731126412 119.11313369488113 101.09854861057646 H 0.0 **** 0.06
9139 H 120.86574602877899 120.76588647655257 101.70020233571513 H 0.0 **** 0.06
9140 H 121.64158215664365 120.51411209040106 100.11773270735058 H 0.0 **** 0.06
9141 C 95.19463988151219 95.13247717876988 5.490878450166576 C 0.0 **** -0.24
9142 H 94.21866630980622 95.07748150819981 5.008489873029703 H 0.0 **** 0.06
9143 H 95.85729564910969 95.76424127581072 4.900327779874885 H 0.0 **** 0.06
9144 H 95.61893717350387 94.13043509554407 5.566984963162042 H 0.0 **** 0.06
9145 H 95.08265549904317 95.55557742222567 6.489216748248509 H 0.0 **** 0.06
9146 C 78.2919531333817 139.00523421011036 99.3931758293952 C 0.0 **** -0.24
9147 H 78.97895623949353 139.83841387698885 99.24814474151276 H 0.0 **** 0.06
9148 H 78.55151385296017 138.1963214966956 98.71052429771458 H 0.0 **** 0.06
9149 H 77.27304700064303 139.33592879442614 99.19463359696425 H 0.0 **** 0.06
9150 H 78.36435360313556 138.65039684182474 100.42112732457304 H 0.0 **** 0.06
9151 C 56.47687990056403 47.059263918160354 50.486640645226856 C 0.0 **** -0.24
9152 H 56.99727954001611 46.792543727349425 49.56622918341759 H 0.0 **** 0.06
9153 H 56.91951205698169 47.96297728464057 50.90528917255597 H 0.0 **** 0.06
9154 H 56.567033304446454 46.24419229746597 51.20398801850075 H 0.0 **** 0.06
9155 H 55.42306025222442 47.237784787474226 50.26873200096966 H 0.0 **** 0.06
9156 C 55.43744202743109 16.637153234119694 152.57779828601542 C 0.0 **** -0.24
9157 H 56.52480968076445 16.677985459507 152.5114582693709 H 0.0 **** 0.06
9158 H 55.073819254683514 17.503421675110445 153.1305406676442 H 0.0 **** 0.06
9159 H 55.13886021728567 15.724650587905927 153.09340228131248 H 0.0 **** 0.06
9160 H 55.012813220532536 16.642081142689165 151.57344884780122 H 0.0 **** 0.06
9161 C 19.13075456419429 65.78900149106187 143.2061285673542 C 0.0 **** -0.24
9162 H 20.128045084785924 66.2250866385341 143.25884492519953 H 0.0 **** 0.06
9163 H 18.713928484656066 65.95552362508192 142.21252799905028 H 0.0 **** 0.06
9164 H 18.489962905106495 66.25687036300019 143.95342799538372 H 0.0 **** 0.06
9165 H 19.1920788362888 64.71854544043617 143.3997875901253 H 0.0 **** 0.06
9166 C 150.55301152288916 157.0121541823472 72.42027106952816 C 0.0 **** -0.24
9167 H 150.2779841939876 157.76054855413787 73.16338983463719 H 0.0 **** 0.06
9168 H 151.53594220655035 156.60625622404615 72.66046641882583 H 0.0 **** 0.06
9169 H 150.5806845020652 157.47333270553509 71.43325727416044 H 0.0 **** 0.06
9170 H 149.8163186974063 156.20871698315867 72.42527344967161 H 0.0 **** 0.06
9171 C 152.89433711590323 134.3671647576161 66.47861013503018 C 0.0 **** -0.24
9172 H 153.33523033881463 135.36337760802263 66.43045592745281 H 0.0 **** 0.06
9173 H 153.22555470138374 133.86876872571318 67.39009628623275 H 0.0 **** 0.06
9174 H 153.20986215446754 133.78831276909688 65.6114988707786 H 0.0 **** 0.06
9175 H 151.80804316515886 134.45177239366365 66.48449597398077 H 0.0 **** 0.06
9176 C 0.1022952064225251 44.86513025868243 90.03804361726328 C 0.0 **** -0.24
9177 H 1.1376217348882847 44.69950812961957 89.73972169680601 H 0.0 **** 0.06
9178 H -0.21614386696961674 45.85464076122774 89.70734246607391 H 0.0 **** 0.06
9179 H 0.023597392000084483 44.801959481092965 91.12317806278635 H 0.0 **** 0.06
9180 H -0.5337642387079882 44.10714334885388 89.58200977567915 H 0.0 **** 0.06
9181 C 137.920926396975 63.801703796667795 97.27910786495838 C 0.0 **** -0.24
9182 H 138.63712719969595 62.98435148407549 97.3687700594646 H 0.0 **** 0.06
9183 H 136.91528422263386 63.39367548324799 97.17878650099573 H 0.0 **** 0.06
9184 H 138.16073843777963 64.40033976236907 96.39980765037541 H 0.0 **** 0.06
9185 H 137.9714943597911 64.42837560857592 98.1694044368202 H 0.0 **** 0.06
9186 C 78.43181832030825 47.39420355111736 156.14020868961728 C 0.0 **** -0.24
9187 H 78.20272798336445 48.450874697717154 156.27959085596382 H 0.0 **** 0.06
9188 H 79.45044013123439 47.19648141281641 156.47265297690683 H 0.0 **** 0.06
9189 H 78.33727982696617 47.13814165080015 155.08448880328882 H 0.0 **** 0.06
9190 H 77.73484246306037 46.791690331781524 156.72313849873797 H 0.0 **** 0.06
9191 C 8.21113709475378 139.0843502215986 17.537129054766353 C 0.0 **** -0.24
9192 H 7.765541638200091 138.31995221739768 18.172660334595037 H 0.0 **** 0.06
9193 H 8.977667122811567 138.63090794135115 16.90676204658118 H 0.0 **** 0.06
9194 H 8.663138091822788 139.8560369128989 18.159797828103905 H 0.0 **** 0.06
9195 H 7.4401608258630745 139.52943952982042 16.909126879364834 H 0.0 **** 0.06
9196 C 81.41699656879013 137.7528635347972 42.34624450585747 C 0.0 **** -0.24
9197 H 81.75497234314071 138.5876241582595 41.732940568974186 H 0.0 **** 0.06
9198 H 82.27074173470305 137.31471245736535 42.8646869290225 H 0.0 **** 0.06
9199 H 80.95171205680867 136.99938451488202 41.71065000955457 H 0.0 **** 0.06
9200 H 80.69213188893815 138.10952795165448 43.07792022432193 H 0.0 **** 0.06
9201 C 148.6977093255791 138.53749227838532 115.5862391496185 C 0.0 **** -0.24
9202 H 147.66294447863442 138.19766895816892 115.62817349765567 H 0.0 **** 0.06
9203 H 149.29742476607242 137.8098366938077 115.03969966941946 H 0.0 **** 0.06
9204 H 149.0863571742397 138.64100997540436 116.59968062833508 H 0.0 **** 0.06
9205 H 148.74284962798646 139.50122062060748 115.07923451571588 H 0.0 **** 0.06
9206 C 42.61214816697179 111.67010486613356 133.64119624770575 C 0.0 **** -0.24
9207 H 41.95353693823637 110.8331566354658 133.87261269039888 H 0.0 **** 0.06
9208 H 42.05991298979984 112.4222084858568 133.076256268598 H 0.0 **** 0.06
9209 H 43.45524968630514 111.31557552469758 133.04742484648105 H 0.0 **** 0.06
9210 H 42.98101115026316 112.11017598561432 134.56736694541752 H 0.0 **** 0.06
9211 C 81.4242182517821 36.24520600571216 142.62893776067372 C 0.0 **** -0.24
9212 H 82.33012733297177 36.31702109914917 143.23125579689125 H 0.0 **** 0.06
9213 H 81.2398021735351 35.20197812317702 142.37373010894567 H 0.0 **** 0.06
9214 H 81.5486791747736 36.82656785880165 141.71530296016942 H 0.0 **** 0.06
9215 H 80.57903987011564 36.63620010865711 143.19617564169747 H 0.0 **** 0.06
9216 C 2.5581767539142675 13.10724102631471 36.189999302595865 C 0.0 **** -0.24
9217 H 2.4593211210065533 12.39135583531467 37.00604380577023 H 0.0 **** 0.06
9218 H 3.507683164678724 13.63468770374297 36.283285213925254 H 0.0 **** 0.06
9219 H 1.7373334904960416 13.823611586786 36.23438686110346 H 0.0 **** 0.06
9220 H 2.5274691279755643 12.578721128423439 35.23763939002032 H 0.0 **** 0.06
9221 C 97.76424156545072 9.275159400177316 1.4432117010404113 C 0.0 **** -0.24
9222 H 98.36828208667511 9.64241507064915 2.272636790364203 H 0.0 **** 0.06
9223 H 97.53880583420103 8.219822468204285 1.5975015925923515 H 0.0 **** 0.06
9224 H 98.31394056177696 9.397559177183986 0.5110824658063109 H 0.0 **** 0.06
9225 H 96.83326241041742 9.841451099501327 1.3939648575243666 H 0.0 **** 0.06
9226 C 77.38883654310541 70.23701368446163 89.44171586661781 C 0.0 **** -0.24
9227 H 76.4745762665035 69.71742248800842 89.72810860156338 H 0.0 **** 0.06
9228 H 78.2281723483951 69.83569835335072 90.01026235040163 H 0.0 **** 0.06
9229 H 77.2833214447187 71.30112883315707 89.64977869813886 H 0.0 **** 0.06
9230 H 77.56979234605245 70.09123468293558 88.37604415280134 H 0.0 **** 0.06
9231 C 0.011962242078809027 50.26626726091362 2.348316530783247 C 0.0 **** -0.24
9232 H 0.2579760968137741 49.413934493898964 2.981904503532455 H 0.0 **** 0.06
9233 H -1.0292239265821443 50.548554100806 2.507408342664103 H 0.0 **** 0.06
9234 H 0.16013347333179695 49.99602468013998 1.3027306140949335 H 0.0 **** 0.06
9235 H 0.6584791135297863 51.10611459300054 2.602476045663071 H 0.0 **** 0.06
9236 C 86.96273089653933 125.7162064415403 133.16726090552126 C 0.0 **** -0.24
9237 H 87.78703089035933 126.42673911151093 133.2334465222901 H 0.0 **** 0.06
9238 H 87.17209761570574 124.98978464584059 132.38193254874284 H 0.0 **** 0.06
9239 H 86.04106551482907 126.24949041314795 132.93369333295288 H 0.0 **** 0.06
9240 H 86.85115428988118 125.19957054865648 134.12046480892187 H 0.0 **** 0.06
9241 C 102.95227933988768 72.61445127607936 139.7435326184667 C 0.0 **** -0.24
9242 H 103.61386976441919 72.03708448826853 139.09804725018824 H 0.0 **** 0.06
9243 H 103.3921842532168 73.5939183297346 139.9318823917351 H 0.0 **** 0.06
9244 H 102.81851382714048 72.08803900527084 140.68972268956884 H 0.0 **** 0.06
9245 H 101.98521768497405 72.73704267437222 139.25608850151593 H 0.0 **** 0.06
9246 C 136.3511347855762 65.74369367178888 79.96153959320594 C 0.0 **** -0.24
9247 H 137.06712689479315 65.95078546968463 79.16662328580946 H 0.0 **** 0.06
9248 H 136.85761043458785 65.23970838461189 80.7846227691421 H 0.0 **** 0.06
9249 H 135.55648996471308 65.10384661178365 79.57709709071207 H 0.0 **** 0.06
9250 H 135.92234441981265 66.6806826799619 80.31786404340883 H 0.0 **** 0.06
9251 C 13.514956600430118 32.973567394405734 112.09030581185861 C 0.0 **** -0.24
9252 H 12.747358975108781 32.755839044170386 112.83193973391114 H 0.0 **** 0.06
9253 H 14.427681258433935 33.292878579081105 112.59290477899258 H 0.0 **** 0.06
9254 H 13.166289991197019 33.767861757346566 111.42995155396936 H 0.0 **** 0.06
9255 H 13.717828879133151 32.077490763437936 111.50407874807878 H 0.0 **** 0.06
9256 C 14.004035665777138 80.95110117877456 38.30002331937722 C 0.0 **** -0.24
9257 H 14.297034514046402 79.9335969610467 38.041169084237666 H 0.0 **** 0.06
9258 H 14.20037720434155 81.61092720305248 37.455119017921206 H 0.0 **** 0.06
9259 H 14.579241458741762 81.28512965604654 39.16386124462491 H 0.0 **** 0.06
9260 H 12.941746816608514 80.97383858567574 38.540212901932435 H 0.0 **** 0.06
9261 C 113.88097888394783 96.53845506538295 25.37123040438189 C 0.0 **** -0.24
9262 H 112.92936683585371 96.62830749523128 25.894850221181855 H 0.0 **** 0.06
9263 H 113.69870406662001 96.2845281500387 24.32700931493332 H 0.0 **** 0.06
9264 H 114.48030307479671 95.75645288091113 25.837479017132637 H 0.0 **** 0.06
9265 H 114.4152504305503 97.48738970614701 25.42690502227083 H 0.0 **** 0.06
9266 C 62.47474167764118 57.32328414321927 17.08410220665786 C 0.0 **** -0.24
9267 H 63.51642694370648 57.00468801790767 17.04561862372504 H 0.0 **** 0.06
9268 H 62.41874640175051 58.4011031718898 16.92755386983547 H 0.0 **** 0.06
9269 H 62.05506236180044 57.07555116439937 18.060411787743902 H 0.0 **** 0.06
9270 H 61.90974755302072 56.81216632800492 16.305795822296083 H 0.0 **** 0.06
9271 C 104.84087299921549 142.47826611644766 136.61387379402248 C 0.0 **** -0.24
9272 H 104.43972902517697 141.49391718691507 136.3728128810276 H 0.0 **** 0.06
9273 H 104.2217550046858 142.9441353689193 137.38122928820968 H 0.0 **** 0.06
9274 H 104.84080079676062 143.09952601386652 135.71874040885166 H 0.0 **** 0.06
9275 H 105.86086209099676 142.3735241157885 136.98289278835932 H 0.0 **** 0.06
9276 C 115.50933764090854 152.35279025400303 42.60770863995296 C 0.0 **** -0.24
9277 H 116.11099824072397 151.51754477395826 42.24902606765829 H 0.0 **** 0.06
9278 H 114.55114050048633 152.3598984046273 42.08757845845331 H 0.0 **** 0.06
9279 H 116.03452655965924 153.28798219560707 42.416156374461366 H 0.0 **** 0.06
9280 H 115.33960617168123 152.24466013162106 43.679710425256204 H 0.0 **** 0.06
9281 C 46.50434482125934 39.837136038275105 144.60829722898796 C 0.0 **** -0.24
9282 H 45.8536409561184 40.03407651764695 143.75563220945497 H 0.0 **** 0.06
9283 H 47.46199226647025 40.33509317687245 144.45740083846533 H 0.0 **** 0.06
9284 H 46.66295456849957 38.762590655773124 144.70247184708336 H 0.0 **** 0.06
9285 H 46.03635186169288 40.21563422986861 145.5168314149962 H 0.0 **** 0.06
9286 C 39.12331191499774 29.398744009750487 66.76669797478701 C 0.0 **** -0.24
9287 H 38.121871311243126 29.53379508294097 66.36008938885101 H 0.0 **** 0.06
9288 H 39.173927782857234 28.447706090812602 67.29812400497111 H 0.0 **** 0.06
9289 H 39.34830915548868 30.21282716229163 67.45541019323082 H 0.0 **** 0.06
9290 H 39.849652032762165 29.399334146095114 65.95327717800627 H 0.0 **** 0.06
9291 C 81.6365710093485 10.089667762521387 141.1679117222947 C 0.0 **** -0.24
9292 H 82.08329444478761 9.255549328285873 141.709458854869 H 0.0 **** 0.06
9293 H 80.92439997782593 9.707033190348312 140.43628210125766 H 0.0 **** 0.06
9294 H 82.41959090377094 10.649840947075312 140.65500083255452 H 0.0 **** 0.06
9295 H 81.1220532486953 10.74461404563069 141.86990421397132 H 0.0 **** 0.06
9296 C 76.01970303958517 131.83703902188358 143.8611026259877 C 0.0 **** -0.24
9297 H 76.41278510174747 132.70032497118612 143.32342934400486 H 0.0 **** 0.06
9298 H 74.93329737104008 131.81975465512022 143.7748029010216 H 0.0 **** 0.06
9299 H 76.30055811206034 131.9052388537597 144.91154150800173 H 0.0 **** 0.06
9300 H 76.43260872576995 130.92422122087413 143.43293537660207 H 0.0 **** 0.06
9301 C 82.15115969430332 125.4978128232127 131.37208134617885 C 0.0 **** -0.24
9302 H 81.31220802829688 125.85144425842681 131.9709290413768 H 0.0 **** 0.06
9303 H 82.58616231913447 124.61593332196723 131.8414020290765 H 0.0 **** 0.06
9304 H 82.90498287948998 126.28296186476426 131.30420426174746 H 0.0 **** 0.06
9305 H 81.80099473116215 125.2422955060507 130.37182133958956 H 0.0 **** 0.06
9306 C 80.63657223291392 41.46147687236399 27.963131882206596 C 0.0 **** -0.24
9307 H 80.34776110826877 41.046879234918975 26.99757629703896 H 0.0 **** 0.06
9308 H 80.4494705465192 42.535876693904115 27.966965199578 H 0.0 **** 0.06
9309 H 81.69679720380842 41.27700775120141 28.135198185755655 H 0.0 **** 0.06
9310 H 80.05203842707542 40.98830034150457 28.75164747906865 H 0.0 **** 0.06
9311 C 1.9348671809427174 140.82610647487215 147.18207422320745 C 0.0 **** -0.24
9312 H 1.9164508394504196 139.95967228962755 147.84239556810647 H 0.0 **** 0.06
9313 H 2.911155338875801 141.30882252189863 147.24445518918634 H 0.0 **** 0.06
9314 H 1.1605599838491116 141.5308740820498 147.48468890632043 H 0.0 **** 0.06
9315 H 1.7534863950455133 140.50459612000145 146.15662077999968 H 0.0 **** 0.06
9316 C 92.0980263089659 80.52814407156359 108.5363055366172 C 0.0 **** -0.24
9317 H 91.399000448118 80.25980644092836 107.74421562304978 H 0.0 **** 0.06
9318 H 91.67783645731613 80.2448181842918 109.50196160428821 H 0.0 **** 0.06
9319 H 92.27274478547314 81.60464978581184 108.51661729664586 H 0.0 **** 0.06
9320 H 93.04050540236719 80.00367449487791 108.381539693529 H 0.0 **** 0.06
9321 C 146.98328134676336 19.441630984375315 21.058349011268263 C 0.0 **** -0.24
9322 H 146.04255385992911 19.950902343964437 21.263807274648343 H 0.0 **** 0.06
9323 H 146.79216730976447 18.560160468302435 20.44637366631605 H 0.0 **** 0.06
9324 H 147.44593765145552 19.138593666359725 21.997609464164583 H 0.0 **** 0.06
9325 H 147.65215953091632 20.116593373050613 20.524694245942158 H 0.0 **** 0.06
9326 C 69.01665030392977 36.86015230518393 21.894789552320297 C 0.0 **** -0.24
9327 H 69.37085147696368 37.154736398844875 20.90676909591175 H 0.0 **** 0.06
9328 H 69.85755703156758 36.833560357843055 22.5886349618062 H 0.0 **** 0.06
9329 H 68.56200499340186 35.87103199170133 21.837541619297355 H 0.0 **** 0.06
9330 H 68.2775171098022 37.57951972359956 22.245848344360198 H 0.0 **** 0.06
9331 C 131.06580587772908 110.8265950306881 28.229333934920277 C 0.0 **** -0.24
9332 H 131.48704589828247 110.49516931480126 29.177898364518228 H 0.0 **** 0.06
9333 H 130.06239925916245 110.41421707183109 28.11468965693072 H 0.0 **** 0.06
9334 H 131.6965825934165 110.48148798306691 27.410618169390347 H 0.0 **** 0.06
9335 H 131.01443166708606 111.91528539104276 28.215274766546855 H 0.0 **** 0.06
9336 C 141.14291910987242 117.8397845049638 150.45838957202068 C 0.0 **** -0.24
9337 H 142.22841198439232 117.77745873722773 150.5238749589887 H 0.0 **** 0.06
9338 H 140.84774075736016 117.94412343797603 149.41425030787164 H 0.0 **** 0.06
9339 H 140.7931726037441 118.70357374824829 151.02329060610109 H 0.0 **** 0.06
9340 H 140.70077760468803 116.93254151560637 150.87093864866875 H 0.0 **** 0.06
9341 C 84.09276638513322 35.66858473027254 61.64606590441397 C 0.0 **** -0.24
9342 H 83.3919532339113 35.29603958428327 62.39313464980347 H 0.0 **** 0.06
9343 H 84.49363378083859 36.62942329439926 61.9706999977611 H 0.0 **** 0.06
9344 H 83.57544379707511 35.79422748567484 60.69406014721267 H 0.0 **** 0.06
9345 H 84.90822285803934 34.95620911876528 61.52455717617744 H 0.0 **** 0.06
9346 C 39.23147034887005 28.53036363992146 49.80503277041316 C 0.0 **** -0.24
9347 H 39.73839307801427 27.566370996489468 49.75624528820555 H 0.0 **** 0.06
9348 H 39.69643356539356 29.145124032116087 50.57663991397206 H 0.0 **** 0.06
9349 H 38.18083649657538 28.375920435151386 50.04636118786556 H 0.0 **** 0.06
9350 H 39.31384053053051 29.033138963458782 48.84114801804776 H 0.0 **** 0.06
9351 C 64.37588868536346 64.22962120221081 131.47547265851102 C 0.0 **** -0.24
9352 H 64.4215533598784 64.26235151593096 132.5643561043469 H 0.0 **** 0.06
9353 H 64.35732687006106 65.24664277401544 131.08209841497307 H 0.0 **** 0.06
9354 H 63.472588740087645 63.70354885030372 131.16585874488487 H 0.0 **** 0.06
9355 H 65.2513145574282 63.70635790371949 131.09068734388742 H 0.0 **** 0.06
9356 C 18.34327912896947 89.90981486368518 128.77685691411105 C 0.0 **** -0.24
9357 H 19.352911448065413 89.51619546931465 128.65706525620504 H 0.0 **** 0.06
9358 H 18.161440716723178 90.12797690906957 129.83057076439738 H 0.0 **** 0.06
9359 H 17.62141681909202 89.1718586891561 128.42834560970135 H 0.0 **** 0.06
9360 H 18.2387126304601 90.8251819158192 128.19326825693543 H 0.0 **** 0.06
9361 C 40.123055856514384 4.607123048350985 129.3380136065998 C 0.0 **** -0.24
9362 H 40.27463008362372 4.034685022287448 130.253084438946 H 0.0 **** 0.06
9363 H 41.088413628902344 4.81558022343566 128.87636692237038 H 0.0 **** 0.06
9364 H 39.62279464801588 5.546890321460211 129.57563710055751 H 0.0 **** 0.06
9365 H 39.506284380113414 4.032020864041613 128.64768826197366 H 0.0 **** 0.06
9366 C 110.93269374070628 47.58414562295252 45.94016520733811 C 0.0 **** -0.24
9367 H 111.0426276884562 47.810563117698734 47.00024882882808 H 0.0 **** 0.06
9368 H 109.92089484140767 47.224896298652766 45.747552539414656 H 0.0 **** 0.06
9369 H 111.65160996521466 46.81470227705927 45.65699723229193 H 0.0 **** 0.06
9370 H 111.11542221289874 48.485741461863086 45.35464155082107 H 0.0 **** 0.06
9371 C 75.08937463183804 125.62409661126118 130.77411192519926 C 0.0 **** -0.24
9372 H 74.22070025027529 124.9846179946267 130.6186526844994 H 0.0 **** 0.06
9373 H 75.01737555602386 126.49884051273493 130.12727119324558 H 0.0 **** 0.06
9374 H 75.99663840561644 125.06843554429456 130.534341334847 H 0.0 **** 0.06
9375 H 75.12291614233305 125.94362983643633 131.81569397032047 H 0.0 **** 0.06
9376 C 114.12917982817665 43.214093286237315 44.82552719857962 C 0.0 **** -0.24
9377 H 113.8149966445694 43.57590816131368 45.80451371136358 H 0.0 **** 0.06
9378 H 113.80351720689832 43.91601218299557 44.05772879033661 H 0.0 **** 0.06
9379 H 113.68319655274401 42.238143344166474 44.63887179845074 H 0.0 **** 0.06
9380 H 115.21511519949367 43.12832148627538 44.801964340056145 H 0.0 **** 0.06
9381 C 19.70232991837898 150.2994531415536 96.24673492300867 C 0.0 **** -0.24
9382 H 20.125275891378067 150.779161579829 97.12947621783032 H 0.0 **** 0.06
9383 H 18.921335960631836 149.60208023994045 96.5510574014018 H 0.0 **** 0.06
9384 H 20.48609890337724 149.75911713699628 95.71602893566292 H 0.0 **** 0.06
9385 H 19.27572567652814 151.05782401801832 95.5906647381063 H 0.0 **** 0.06
9386 C 18.059223152041625 68.64357708690892 85.14366607577779 C 0.0 **** -0.24
9387 H 17.02353290925086 68.6535291514814 85.48522923438367 H 0.0 **** 0.06
9388 H 18.102098138590634 68.25424492971769 84.12540336471011 H 0.0 **** 0.06
9389 H 18.652749670642635 68.00860744248968 85.80176979737035 H 0.0 **** 0.06
9390 H 18.45718263348661 69.65824573940824 85.16189936562364 H 0.0 **** 0.06
9391 C 112.07606249640128 24.312439337314743 107.33662214531763 C 0.0 **** -0.24
9392 H 112.0756647983402 25.343417097235374 106.98171878312108 H 0.0 **** 0.06
9393 H 113.09023680914333 24.024777337304585 107.61554998662926 H 0.0 **** 0.06
9394 H 111.71671277758554 23.654912248486227 106.54444880081122 H 0.0 **** 0.06
9395 H 111.42214878023856 24.227408271381393 108.20436763299308 H 0.0 **** 0.06
9396 C 58.202903902729375 29.492464144833093 32.717840344114805 C 0.0 **** -0.24
9397 H 58.490625323712905 30.534040123179267 32.86104836972834 H 0.0 **** 0.06
9398 H 58.50857997668619 28.909180852685182 33.58690791174533 H 0.0 **** 0.06
9399 H 58.69267541850462 29.099424497917653 31.826361010893123 H 0.0 **** 0.06
9400 H 57.121672454180384 29.42769766580858 32.59714022026826 H 0.0 **** 0.06
9401 C 7.642064097449548 37.87754271717975 82.54355341872902 C 0.0 **** -0.24
9402 H 8.502809863402234 37.37469272071803 82.98435187227423 H 0.0 **** 0.06
9403 H 7.979678415880699 38.55591813219124 81.76002547471215 H 0.0 **** 0.06
9404 H 7.119965634181426 38.44422912423809 83.314702814889 H 0.0 **** 0.06
9405 H 6.966096962103791 37.135920260047186 82.11727035315646 H 0.0 **** 0.06
9406 C 87.4804757734199 68.50599185718278 87.2970332382526 C 0.0 **** -0.24
9407 H 87.22468193818919 68.37652721475189 88.34818691834607 H 0.0 **** 0.06
9408 H 86.70933061807229 68.04756631654985 86.67625154388645 H 0.0 **** 0.06
9409 H 88.44001065842603 68.02909331222679 87.09542402321287 H 0.0 **** 0.06
9410 H 87.54789274990895 69.56954728106246 87.06757847021214 H 0.0 **** 0.06
9411 C 156.82794387928897 142.01378833081142 43.8266890969677 C 0.0 **** -0.24
9412 H 157.4940707671966 141.15214160858176 43.81256430932308 H 0.0 **** 0.06
9413 H 155.8634480672166 141.72024810699605 44.24186334818796 H 0.0 **** 0.06
9414 H 156.6884523207479 142.38170683616025 42.80989670484712 H 0.0 **** 0.06
9415 H 157.26386121559204 142.800905893925 44.441983084301455 H 0.0 **** 0.06
9416 C 68.4388846403333 156.94953633187208 146.02463548976303 C 0.0 **** -0.24
9417 H 67.93345777270905 157.49087801683714 145.22407782481795 H 0.0 **** 0.06
9418 H 68.09491836672133 157.32509372492098 146.98894019017436 H 0.0 **** 0.06
9419 H 69.51452208184814 157.0983242251087 145.93976576113474 H 0.0 **** 0.06
9420 H 68.21066749301343 155.8868917609522 145.94483507378965 H 0.0 **** 0.06
9421 C 1.063594970221999 122.46999629587442 134.52914993924864 C 0.0 **** -0.24
9422 H 1.858627293128393 121.72567901100162 134.57086380992516 H 0.0 **** 0.06
9423 H 0.8577538360011943 122.83746601198565 135.53554309084703 H 0.0 **** 0.06
9424 H 0.16274212514636588 122.0168470579397 134.11622795219827 H 0.0 **** 0.06
9425 H 1.3763992886151755 123.3006405808721 133.8957746714524 H 0.0 **** 0.06
9426 C 1.0763902818080737 85.20956421548168 131.06135974275162 C 0.0 **** -0.24
9427 H 0.4251929950998772 85.6961259894541 131.78795276889792 H 0.0 **** 0.06
9428 H 0.6478758845298955 85.31303187164819 130.06450091369376 H 0.0 **** 0.06
9429 H 1.168841889848352 84.15201288825538 131.30927217074043 H 0.0 **** 0.06
9430 H 2.059841989681985 85.67683129065892 131.0852725893047 H 0.0 **** 0.06
9431 C 151.60881124091333 117.24231240202725 86.19233601071932 C 0.0 **** -0.24
9432 H 152.53686348210763 117.51239277192919 85.68954453568341 H 0.0 **** 0.06
9433 H 151.4651371210461 117.88409074767294 87.06172141522086 H 0.0 **** 0.06
9434 H 151.6589403418679 116.20126923226447 86.51324238465463 H 0.0 **** 0.06
9435 H 150.77255855586213 117.36985391491008 85.504331426845 H 0.0 **** 0.06
9436 C 83.92704191740137 146.56745030072773 47.172571900792434 C 0.0 **** -0.24
9437 H 84.89204278519276 146.1161921901811 47.40594532184423 H 0.0 **** 0.06
9438 H 83.26242482093971 145.80846766524547 46.75868643746861 H 0.0 **** 0.06
9439 H 84.06747680713585 147.36471311893888 46.442615933471416 H 0.0 **** 0.06
9440 H 83.4892894277358 146.97862693069806 48.08187613432733 H 0.0 **** 0.06
9441 C 78.23915399090208 147.05467916447157 11.263225079403817 C 0.0 **** -0.24
9442 H 78.18254167102833 146.98023316221716 10.176834478374026 H 0.0 **** 0.06
9443 H 78.6589185488792 146.13292883091535 11.668137124326094 H 0.0 **** 0.06
9444 H 77.24041919872406 147.20856817049972 11.669006529482424 H 0.0 **** 0.06
9445 H 78.8763964730939 147.8950053888404 11.537100047819287 H 0.0 **** 0.06
9446 C 119.79199113600941 32.87671772859636 150.77926213987521 C 0.0 **** -0.24
9447 H 120.12610394685947 31.939675979780418 151.22420151432834 H 0.0 **** 0.06
9448 H 120.57474633362773 33.62865204838732 150.88883319426014 H 0.0 **** 0.06
9449 H 118.88796058827376 33.21620412687946 151.2843427372007 H 0.0 **** 0.06
9450 H 119.5825552087428 32.7222929975847 149.7208660610279 H 0.0 **** 0.06
9451 C 75.118295714439 80.60435727249771 65.17275985277331 C 0.0 **** -0.24
9452 H 76.17867557603057 80.42120527371766 65.00227369446543 H 0.0 **** 0.06
9453 H 74.96239698597412 80.8884581471694 66.21339761175238 H 0.0 **** 0.06
9454 H 74.55328950478679 79.69795638200016 64.95356791900076 H 0.0 **** 0.06
9455 H 74.77990778255861 81.41028726872747 64.5210320400937 H 0.0 **** 0.06
9456 C 103.70602792571044 67.77484036096031 40.27113725006069 C 0.0 **** -0.24
9457 H 104.45199506400031 66.98029685290776 40.25171265689514 H 0.0 **** 0.06
9458 H 104.00995091376011 68.54092691543269 40.9853528480798 H 0.0 **** 0.06
9459 H 102.74267311967684 67.36118102218586 40.568759709895915 H 0.0 **** 0.06
9460 H 103.62068770287966 68.21672564554733 39.27800375583405 H 0.0 **** 0.06
9461 C 110.15849988305449 113.61822166707579 109.84437779641182 C 0.0 **** -0.24
9462 H 109.72210025149015 114.03770586634208 108.93767164056383 H 0.0 **** 0.06
9463 H 109.62163143098864 113.9970534268336 110.7141314613299 H 0.0 **** 0.06
9464 H 111.20770445220894 113.90822743485838 109.90915534830545 H 0.0 **** 0.06
9465 H 110.08305081446098 112.53100560065421 109.81442197615952 H 0.0 **** 0.06
9466 C 86.54857894651462 14.27575872439845 50.385928139716015 C 0.0 **** -0.24
9467 H 86.71444507997535 14.099295130885103 51.44856339633999 H 0.0 **** 0.06
9468 H 86.61384078665827 15.344010744002816 50.18121819689621 H 0.0 **** 0.06
9469 H 85.55958735976407 13.911851388229138 50.1078260799471 H 0.0 **** 0.06
9470 H 87.30649703274727 13.746377702224542 49.80776241355997 H 0.0 **** 0.06
9471 C 120.84313987713563 17.747220832249027 46.81194960655428 C 0.0 **** -0.24
9472 H 120.65616976945824 16.90716183289142 47.482097188275915 H 0.0 **** 0.06
9473 H 121.32962065473703 17.387623544178545 45.905482894551625 H 0.0 **** 0.06
9474 H 121.49021414717885 18.470015102304224 47.309390074310784 H 0.0 **** 0.06
9475 H 119.89725330289889 18.22282956207615 46.554283990614124 H 0.0 **** 0.06
9476 C 134.45174041174408 122.42372299750126 139.2483971647564 C 0.0 **** -0.24
9477 H 133.95738448972563 121.49418874800604 138.96814382331604 H 0.0 **** 0.06
9478 H 135.01776188564773 122.270641228228 140.16690373165818 H 0.0 **** 0.06
9479 H 133.7035959845963 123.19966437108737 139.40724784097137 H 0.0 **** 0.06
9480 H 135.12928950924606 122.73021006030397 138.450387999412 H 0.0 **** 0.06
9481 C 6.022207497645724 74.29547520726848 110.1580751568767 C 0.0 **** -0.24
9482 H 7.080864091614444 74.43939717552456 109.94211137670784 H 0.0 **** 0.06
9483 H 5.715756525036284 73.3033081774671 109.8236620534435 H 0.0 **** 0.06
9484 H 5.438816615076007 75.05230840347087 109.63448826273473 H 0.0 **** 0.06
9485 H 5.8551778442617035 74.38455667780076 111.23142004604468 H 0.0 **** 0.06
9486 C 119.00198306758362 77.98215879748516 140.25767346117647 C 0.0 **** -0.24
9487 H 118.18329070569938 78.54664223082848 139.80928411993423 H 0.0 **** 0.06
9488 H 118.68359084247653 77.58721742666557 141.22335272150158 H 0.0 **** 0.06
9489 H 119.85978104725085 78.63948293443617 140.39885160063517 H 0.0 **** 0.06
9490 H 119.2785254578575 77.1589058990294 139.60039453871664 H 0.0 **** 0.06
9491 C 61.40878363571558 118.52128969534375 91.22809157756467 C 0.0 **** -0.24
9492 H 62.44448074010384 118.64063874062312 91.54752860125188 H 0.0 **** 0.06
9493 H 61.066659619855585 117.51660017853386 91.47840305615466 H 0.0 **** 0.06
9494 H 61.34124720278781 118.6714157524551 90.15104671477923 H 0.0 **** 0.06
9495 H 60.78513629161952 119.25584841358365 91.73800741821196 H 0.0 **** 0.06
9496 C 73.55613759934911 49.105464136423194 37.33020183025758 C 0.0 **** -0.24
9497 H 73.65787139940713 49.91699022106346 38.049844989678945 H 0.0 **** 0.06
9498 H 74.04017057707506 49.38648744896474 36.394939492036315 H 0.0 **** 0.06
9499 H 72.49893252309732 48.91125615282549 37.14856382117574 H 0.0 **** 0.06
9500 H 74.02684669887213 48.206734259384845 37.72802239864433 H 0.0 **** 0.06
9501 C 89.90242183515007 25.114567575205115 105.2149727885271 C 0.0 **** -0.24
9502 H 90.61604511151192 25.66401525396276 104.60046423642983 H 0.0 **** 0.06
9503 H 90.36967355319763 24.201731178670855 105.58558072642553 H 0.0 **** 0.06
9504 H 89.02847874852955 24.858565653393043 104.61646869537863 H 0.0 **** 0.06
9505 H 89.5975803149676 25.734210908550608 106.05813021645251 H 0.0 **** 0.06
9506 C 89.12807213115721 104.45333077834856 135.53243777133957 C 0.0 **** -0.24
9507 H 88.84865717222917 105.38719304954002 136.02079545638975 H 0.0 **** 0.06
9508 H 89.54697428884263 104.66932372849759 134.54897006004893 H 0.0 **** 0.06
9509 H 88.24636826686465 103.82300009224555 135.42202874061078 H 0.0 **** 0.06
9510 H 89.87190724279911 103.93560691537276 136.13832885909193 H 0.0 **** 0.06
9511 C 110.02561309486948 66.9303705058262 116.49115692750964 C 0.0 **** -0.24
9512 H 110.63220288843955 67.54485783916384 115.82598942451686 H 0.0 **** 0.06
9513 H 109.80025053712701 65.98151098357079 116.00400909931643 H 0.0 **** 0.06
9514 H 109.09676692041741 67.4514522163573 116.7205959561446 H 0.0 **** 0.06
9515 H 110.57520594500586 66.74345369554656 117.41378658263908 H 0.0 **** 0.06
9516 C 135.97075169402655 90.95958589455499 139.1553397579961 C 0.0 **** -0.24
9517 H 136.9250635293153 91.20168485033194 139.62513093537905 H 0.0 **** 0.06
9518 H 135.6687332894175 89.9530608404447 139.44643407335911 H 0.0 **** 0.06
9519 H 136.07570538210467 91.00970309837753 138.07215897060667 H 0.0 **** 0.06
9520 H 135.21441597975308 91.67480150085557 139.48114897797922 H 0.0 **** 0.06
9521 C 154.4733127915312 28.023794954994486 40.9161509588249 C 0.0 **** -0.24
9522 H 153.8777634001304 27.876676995695703 40.01468275212457 H 0.0 **** 0.06
9523 H 153.82049369954674 28.32319258518808 41.73634970145764 H 0.0 **** 0.06
9524 H 155.21410969443352 28.802276616144297 40.73743923841593 H 0.0 **** 0.06
9525 H 154.97749448394092 27.09294623759061 41.17378659944255 H 0.0 **** 0.06
9526 C 8.220006714210712 76.47576557595602 125.49451473721565 C 0.0 **** -0.24
9527 H 8.769176929445251 76.51571403942117 124.55309776801825 H 0.0 **** 0.06
9528 H 7.2083134002289455 76.11406686960221 125.30870198063052 H 0.0 **** 0.06
9529 H 8.176162166136038 77.4735010686893 125.93148981789678 H 0.0 **** 0.06
9530 H 8.728165596608477 75.79874710214207 126.18165098865428 H 0.0 **** 0.06
9531 C 14.654482468603895 67.53432547986847 103.26939006508383 C 0.0 **** -0.24
9532 H 13.92476603580807 68.08782535517643 102.67825937503653 H 0.0 **** 0.06
9533 H 15.639001658335978 67.98560615002835 103.14561851050973 H 0.0 **** 0.06
9534 H 14.683063690383733 66.49759689661946 102.93319124381782 H 0.0 **** 0.06
9535 H 14.368949643343242 67.56694493479684 104.32145645622188 H 0.0 **** 0.06
9536 C 107.12157637434689 62.195181971981185 88.32227791187354 C 0.0 **** -0.24
9537 H 107.47416070633949 61.613527468667996 89.17317035607019 H 0.0 **** 0.06
9538 H 106.21720369433905 61.73776402811097 87.91898198381313 H 0.0 **** 0.06
9539 H 107.89235897639884 62.217539490236305 87.55189684220247 H 0.0 **** 0.06
9540 H 106.89980183837537 63.2129753983146 88.64538983165146 H 0.0 **** 0.06
9541 C 75.95413278599369 38.27369713276835 148.90733282538218 C 0.0 **** -0.24
9542 H 77.0107588392824 38.417456451846476 149.13727711106532 H 0.0 **** 0.06
9543 H 75.48606441294658 37.69044560849807 149.6996037964503 H 0.0 **** 0.06
9544 H 75.85837500877372 37.74324427988935 147.96006787713412 H 0.0 **** 0.06
9545 H 75.46395468120522 39.244893734092045 148.8316341142741 H 0.0 **** 0.06
9546 C 87.61451787101942 139.40603371263552 100.43066873132152 C 0.0 **** -0.24
9547 H 88.4037381349898 139.77448262028722 101.08560188121531 H 0.0 **** 0.06
9548 H 87.93149410915453 139.4990622479981 99.39226013883487 H 0.0 **** 0.06
9549 H 86.70840946152009 139.9907790456263 100.58897259786075 H 0.0 **** 0.06
9550 H 87.41410777962398 138.35845675503458 100.65785592248808 H 0.0 **** 0.06
9551 C 17.871861352830756 28.556958076800527 70.18026453324228 C 0.0 **** -0.24
9552 H 18.56963487185577 28.87011225135535 70.95750277285151 H 0.0 **** 0.06
9553 H 18.386508908532278 28.530256254446925 69.21968836083197 H 0.0 **** 0.06
9554 H 17.043239719793128 29.262378403866038 70.12926471785669 H 0.0 **** 0.06
9555 H 17.489511473946664 27.563482607214752 70.41517673213707 H 0.0 **** 0.06
9556 C 131.81885592132707 48.12939181144323 141.77790856949872 C 0.0 **** -0.24
9557 H 130.8559875777152 47.921946002397306 142.24438413020877 H 0.0 **** 0.06
9558 H 131.98732028538763 47.42321572521546 140.96348617450263 H 0.0 **** 0.06
9559 H 132.61064817993662 48.02523434033469 142.51944541761512 H 0.0 **** 0.06
9560 H 131.8202813644665 49.14515267273566 141.38359843243165 H 0.0 **** 0.06
9561 C 35.403120278993356 146.84148650069125 148.29082706783603 C 0.0 **** -0.24
9562 H 35.671185098344864 147.57895737882097 149.04819267795747 H 0.0 **** 0.06
9563 H 34.886802836179015 146.00600721664398 148.76400710595144 H 0.0 **** 0.06
9564 H 36.30764823710126 146.4801038912481 147.80021877397203 H 0.0 **** 0.06
9565 H 34.74807656689924 147.30297105112936 147.55120659209916 H 0.0 **** 0.06
9566 C 116.30393111558101 20.320895440824714 62.1604592868765 C 0.0 **** -0.24
9567 H 115.95891994755613 20.092032765379045 61.1514687589719 H 0.0 **** 0.06
9568 H 116.6127963410292 19.39977123345232 62.65547965468882 H 0.0 **** 0.06
9569 H 115.4939957551166 20.782693788061188 62.72484537732403 H 0.0 **** 0.06
9570 H 117.14918539728114 21.007359367525062 62.10773206838388 H 0.0 **** 0.06
9571 C 82.91995359025728 22.046214976046173 150.17518573217063 C 0.0 **** -0.24
9572 H 82.55656684837902 21.429123588680596 150.99645666289246 H 0.0 **** 0.06
9573 H 82.75006858433983 23.097536765997774 150.40775669744536 H 0.0 **** 0.06
9574 H 82.38659625240837 21.785035515692414 149.26159507675015 H 0.0 **** 0.06
9575 H 83.98735604109316 21.872536361130415 150.03484524007848 H 0.0 **** 0.06
9576 C 60.542459506651596 79.41311009467698 22.85825109336494 C 0.0 **** -0.24
9577 H 59.776593549369096 79.74293306078357 22.155279640774893 H 0.0 **** 0.06
9578 H 60.70976844382642 78.34312190204903 22.736100988952273 H 0.0 **** 0.06
9579 H 60.21278209183055 79.61613429221698 23.876755693721833 H 0.0 **** 0.06
9580 H 61.470134794198 79.95097215490026 22.66219078862065 H 0.0 **** 0.06
9581 C 54.358337092617944 77.79765821753858 124.40515004436885 C 0.0 **** -0.24
9582 H 53.62448164051179 78.54982464422434 124.11553216599829 H 0.0 **** 0.06
9583 H 54.008610974817344 76.81213457651603 124.09573364905638 H 0.0 **** 0.06
9584 H 54.48762523292142 77.81473181798361 125.48703854143041 H 0.0 **** 0.06
9585 H 55.3101828396303 78.0140359435436 123.92230953749878 H 0.0 **** 0.06
9586 C 4.140436014127374 19.838908160630012 137.84976654288158 C 0.0 **** -0.24
9587 H 3.3771776240769498 19.338348036931222 137.25320314034138 H 0.0 **** 0.06
9588 H 4.31930535079033 20.836132049905757 137.44627182948784 H 0.0 **** 0.06
9589 H 5.06391926287256 19.262003151661247 137.81643597100305 H 0.0 **** 0.06
9590 H 3.798761182129965 19.919982615437135 138.88187212266365 H 0.0 **** 0.06
9591 C 137.47458787562664 71.7011976883827 58.27891777218241 C 0.0 **** -0.24
9592 H 137.53169241570882 72.73974653537027 58.60397471427882 H 0.0 **** 0.06
9593 H 138.33169812137726 71.15207097436297 58.66999140037319 H 0.0 **** 0.06
9594 H 137.48213250144795 71.6600027055998 57.19040471545651 H 0.0 **** 0.06
9595 H 136.55445316602322 71.25319428111982 58.654004072195846 H 0.0 **** 0.06
9596 C 93.10646966730359 128.52585113133125 141.55635235891808 C 0.0 **** -0.24
9597 H 92.16499695365181 128.65537342137816 141.02262417530568 H 0.0 **** 0.06
9598 H 93.04546245063882 127.64337990830512 142.1929270349556 H 0.0 **** 0.06
9599 H 93.29854782293455 129.4064399609283 142.17098804911348 H 0.0 **** 0.06
9600 H 93.91691002455137 128.40112536539635 140.83815838510876 H 0.0 **** 0.06
9601 C 51.22814264755284 123.38873958826686 52.44022804694515 C 0.0 **** -0.24
9602 H 51.20094333894582 123.19045660305342 53.51205114388813 H 0.0 **** 0.06
9603 H 50.217791958053624 123.58474639789459 52.08159525774175 H 0.0 **** 0.06
9604 H 51.63730975141934 122.52206786137724 51.92084468533241 H 0.0 **** 0.06
9605 H 51.85832847880624 124.25768341733634 52.24807929164871 H 0.0 **** 0.06
9606 C 6.671312761639683 101.63767773574438 150.93124823543064 C 0.0 **** -0.24
9607 H 7.069766806837748 102.28875742732322 150.15304178095192 H 0.0 **** 0.06
9608 H 5.766037185893197 102.08012462793346 151.3472681374382 H 0.0 **** 0.06
9609 H 7.41389244523225 101.51770589042007 151.72063715642872 H 0.0 **** 0.06
9610 H 6.43636687028021 100.66309328414059 150.50351672905558 H 0.0 **** 0.06
9611 C 107.17010671956035 68.7043917286577 128.6081890257552 C 0.0 **** -0.24
9612 H 106.33320429459883 69.2662034094651 129.0220629344796 H 0.0 **** 0.06
9613 H 107.56599831531969 69.22838202821038 127.73813863218295 H 0.0 **** 0.06
9614 H 106.83061771182571 67.7116586407114 128.31143673073484 H 0.0 **** 0.06
9615 H 107.9516926946443 68.60961441967082 129.36249686763705 H 0.0 **** 0.06
9616 C 61.44419133858314 104.68361274713818 90.18911425955245 C 0.0 **** -0.24
9617 H 60.84783205973177 103.78168074297893 90.32240305152565 H 0.0 **** 0.06
9618 H 62.108049154170146 104.55707673719552 89.334121219886 H 0.0 **** 0.06
9619 H 62.036400608312434 104.8634068918329 91.08552647963435 H 0.0 **** 0.06
9620 H 60.783176889789374 105.53264365955498 90.01399975153937 H 0.0 **** 0.06
9621 C 18.36673277205398 16.02391628179032 14.873457012924518 C 0.0 **** -0.24
9622 H 18.871444627563264 16.921611145154912 14.51617484044624 H 0.0 **** 0.06
9623 H 17.736788496846636 15.621443007152948 14.079553255026212 H 0.0 **** 0.06
9624 H 17.747953109916836 16.273427039893647 15.735892987152283 H 0.0 **** 0.06
9625 H 19.10893381995661 15.27967459025362 15.160990590749748 H 0.0 **** 0.06
9626 C 153.2134886976262 106.68253229307413 115.48010553666494 C 0.0 **** -0.24
9627 H 153.42616597845387 107.7515408077519 115.4541082318397 H 0.0 **** 0.06
9628 H 152.1483532155802 106.52065592065634 115.31214678316876 H 0.0 **** 0.06
9629 H 153.49325501329753 106.28043122721328 116.45425862495144 H 0.0 **** 0.06
9630 H 153.7859823995039 106.1795559261974 114.70122725129652 H 0.0 **** 0.06
9631 C 88.93675619394618 124.97250861427925 66.41478349489151 C 0.0 **** -0.24
9632 H 88.37567131032499 125.82979190936804 66.78530440080335 H 0.0 **** 0.06
9633 H 89.57566625945249 124.58497220002975 67.20877477319237 H 0.0 **** 0.06
9634 H 89.55465719752182 125.2799401105435 65.56997052237772 H 0.0 **** 0.06
9635 H 88.24341821327778 124.19492253695346 66.09331494677849 H 0.0 **** 0.06
9636 C 11.815605176831923 113.37898122400016 141.06571060774365 C 0.0 **** -0.24
9637 H 12.421615413783456 113.34180454412548 140.16007205879384 H 0.0 **** 0.06
9638 H 11.532154340659929 114.41110570530832 141.2704234092172 H 0.0 **** 0.06
9639 H 12.390203319693853 112.98593434131193 141.90396162482006 H 0.0 **** 0.06
9640 H 10.918237530353224 112.77529457559099 140.92559833537854 H 0.0 **** 0.06
9641 C 46.960245394351915 96.78221595130498 82.54422518236484 C 0.0 **** -0.24
9642 H 46.46169165468274 96.6222087142678 81.58818568212375 H 0.0 **** 0.06
9643 H 48.00755466084986 97.0282480654902 82.3700294357568 H 0.0 **** 0.06
9644 H 46.89405495205904 95.87454825179475 83.14501289779672 H 0.0 **** 0.06
9645 H 46.47603220256349 97.60298792359328 83.07294780493811 H 0.0 **** 0.06
9646 C 68.54281159777543 53.79329622943314 90.71242323665159 C 0.0 **** -0.24
9647 H 69.49004483247757 53.577756015456046 91.20625242692158 H 0.0 **** 0.06
9648 H 68.32910554400681 53.015150530795935 89.98049180109038 H 0.0 **** 0.06
9649 H 68.60630636572594 54.75861643171696 90.20962604953857 H 0.0 **** 0.06
9650 H 67.74491851656529 53.822686589958465 91.45441414424866 H 0.0 **** 0.06
9651 C 3.458799061900322 70.85028274772661 13.793526943295035 C 0.0 **** -0.24
9652 H 2.6898437981740244 70.2392599434175 14.265471412828163 H 0.0 **** 0.06
9653 H 3.7319150147096707 70.41239800910058 12.833124776088653 H 0.0 **** 0.06
9654 H 4.336795523968419 70.89039012208237 14.438527947593514 H 0.0 **** 0.06
9655 H 3.0761481124364423 71.85947433742325 13.637760157940932 H 0.0 **** 0.06
9656 C 108.67482190380504 112.77319267247572 38.71343918488893 C 0.0 **** -0.24
9657 H 108.11444672923163 113.68962976234815 38.52695751551573 H 0.0 **** 0.06
9658 H 108.0071626862324 111.91575314307147 38.629909018631764 H 0.0 **** 0.06
9659 H 109.10015751770779 112.807014193047 39.71661883072653 H 0.0 **** 0.06
9660 H 109.47766487200686 112.6829002006362 37.982167629069124 H 0.0 **** 0.06
9661 C 66.3585829673957 114.94856348084464 115.70215663411739 C 0.0 **** -0.24
9662 H 67.15241181080067 115.37563289065677 115.08813448011256 H 0.0 **** 0.06
9663 H 65.89575284877253 114.11739773108489 115.16882325428105 H 0.0 **** 0.06
9664 H 65.60808931900279 115.71197112776248 115.90758478131914 H 0.0 **** 0.06
9665 H 66.77893035759982 114.58986334789746 116.64049233275296 H 0.0 **** 0.06
9666 C 140.19740739891367 54.75410677934266 57.31999707031781 C 0.0 **** -0.24
9667 H 139.320191679546 55.39987465450339 57.274763019118524 H 0.0 **** 0.06
9668 H 141.0987007973235 55.36035522908851 57.22820543436728 H 0.0 **** 0.06
9669 H 140.15949121306357 54.03158182241282 56.50501749602299 H 0.0 **** 0.06
9670 H 140.21031382281387 54.22627048391102 58.27318221271909 H 0.0 **** 0.06
9671 C 58.75676265504771 57.23486179278707 140.3916794295617 C 0.0 **** -0.24
9672 H 59.70153491466627 57.43206250357338 139.88664390857554 H 0.0 **** 0.06
9673 H 58.08630465264821 56.70592798313409 139.71367884598752 H 0.0 **** 0.06
9674 H 58.30195069265075 58.17816459858301 140.69306049574772 H 0.0 **** 0.06
9675 H 58.938960729274285 56.620342377411546 141.27488637672064 H 0.0 **** 0.06
9676 C 79.12723262249779 18.960085893216387 37.55259120424148 C 0.0 **** -0.24
9677 H 79.3468337277747 18.186481329478426 38.2879278496078 H 0.0 **** 0.06
9678 H 79.55522910564576 18.67908571870271 36.59018245936872 H 0.0 **** 0.06
9679 H 79.55930518861175 19.905795060330973 37.88085506600916 H 0.0 **** 0.06
9680 H 78.04705655269247 19.070243279499323 37.45247274060122 H 0.0 **** 0.06
9681 C 12.242399863388897 104.01300968728067 90.50508113964435 C 0.0 **** -0.24
9682 H 12.514788689505153 104.72275807032382 91.2868344658029 H 0.0 **** 0.06
9683 H 11.519475679104268 103.29853662408554 90.90001096633468 H 0.0 **** 0.06
9684 H 13.132996188473761 103.48100852415557 90.17088567018544 H 0.0 **** 0.06
9685 H 11.802240941242488 104.54942095131712 89.66480515411412 H 0.0 **** 0.06
9686 C 132.01116907768068 66.82402164891633 3.037198221192071 C 0.0 **** -0.24
9687 H 132.19610187022232 65.87263433121547 3.535457881111462 H 0.0 **** 0.06
9688 H 131.00521534368545 66.82319404363852 2.616346581819144 H 0.0 **** 0.06
9689 H 132.74003898671378 66.9635724962991 2.2389740166073473 H 0.0 **** 0.06
9690 H 132.102257044966 67.63619104816561 3.758805134595953 H 0.0 **** 0.06
9691 C 124.12741751897465 19.034179612390403 47.2134153285554 C 0.0 **** -0.24
9692 H 125.20113010852612 19.223513617995877 47.189133251340934 H 0.0 **** 0.06
9693 H 123.76057412259394 19.150422745636746 48.233522257843546 H 0.0 **** 0.06
9694 H 123.9306563263861 18.018028744718634 46.86999262318584 H 0.0 **** 0.06
9695 H 123.6187548538482 19.743433768803243 46.5606010359046 H 0.0 **** 0.06
9696 C 15.750960447920363 67.18206025699348 70.60485553170129 C 0.0 **** -0.24
9697 H 15.293859771238488 67.9618498244362 69.99609379117848 H 0.0 **** 0.06
9698 H 16.83593150227648 67.2412812467219 70.51629837513119 H 0.0 **** 0.06
9699 H 15.410169666398957 66.20565917346393 70.2586875402103 H 0.0 **** 0.06
9700 H 15.46231453122246 67.31937827528269 71.64646051225641 H 0.0 **** 0.06
9701 C 69.57176406286685 60.81700639400697 136.21165216726754 C 0.0 **** -0.24
9702 H 70.4633746719891 61.001934154323905 135.61337975144505 H 0.0 **** 0.06
9703 H 69.17868541690629 61.76401323326442 136.5807075521123 H 0.0 **** 0.06
9704 H 69.82687968781825 60.17502210009711 137.05532798481295 H 0.0 **** 0.06
9705 H 68.81786919990083 60.325124075911745 135.59673916344602 H 0.0 **** 0.06
9706 C 135.14858667455866 73.30070275659779 68.08017246417273 C 0.0 **** -0.24
9707 H 134.451704606285 72.97503093708178 68.85339944784398 H 0.0 **** 0.06
9708 H 135.90409896639343 72.52967494260463 67.9261789996469 H 0.0 **** 0.06
9709 H 135.63164326922404 74.22632953286177 68.39386193226838 H 0.0 **** 0.06
9710 H 134.6066918688005 73.47046414724218 67.15028874569042 H 0.0 **** 0.06
9711 C 66.1707294143668 154.39004682867636 127.32110597670761 C 0.0 **** -0.24
9712 H 66.86414050853989 155.02744812378978 126.77143939474193 H 0.0 **** 0.06
9713 H 65.72495130237473 153.66483461233895 126.63987341171749 H 0.0 **** 0.06
9714 H 65.38556566328293 155.00434531630953 127.76176448464751 H 0.0 **** 0.06
9715 H 66.70755087780805 153.86590218606892 128.1114348717153 H 0.0 **** 0.06
9716 C 14.630115944022066 76.49278793269985 139.95095674994343 C 0.0 **** -0.24
9717 H 13.649121120950241 76.86928996988497 139.65908848704765 H 0.0 **** 0.06
9718 H 15.166792545268095 77.26568077156286 140.50102906509824 H 0.0 **** 0.06
9719 H 15.194689006267907 76.22130044345407 139.05936971101346 H 0.0 **** 0.06
9720 H 14.506448676283071 75.61373073230693 140.58452328945896 H 0.0 **** 0.06
9721 C 131.31728978446188 41.615387312947746 109.18350356957366 C 0.0 **** -0.24
9722 H 132.13292213909455 41.16648473265553 108.61652384251563 H 0.0 **** 0.06
9723 H 130.6194396441258 40.83726560499093 109.49385253851104 H 0.0 **** 0.06
9724 H 130.7974370086514 42.342348537476724 108.55888755521072 H 0.0 **** 0.06
9725 H 131.72021579923245 42.11503020880197 110.06444753644298 H 0.0 **** 0.06
9726 C 61.685479569043665 44.31763204970878 145.5283494937085 C 0.0 **** -0.24
9727 H 62.23387039316043 44.14830973770093 146.45612166231874 H 0.0 **** 0.06
9728 H 62.39163143925687 44.47607534881011 144.71330230075023 H 0.0 **** 0.06
9729 H 61.05176407775605 45.197067584754166 145.63696553520984 H 0.0 **** 0.06
9730 H 61.06665516220511 43.44753134069073 145.30957844102824 H 0.0 **** 0.06
9731 C 129.0012634291355 99.58575182098069 38.504386531058 C 0.0 **** -0.24
9732 H 128.253839932294 98.80207278277297 38.62311695305749 H 0.0 **** 0.06
9733 H 129.3630845240329 99.89525455190467 39.485099658840795 H 0.0 **** 0.06
9734 H 128.55436985468498 100.44055916098792 37.99534207100476 H 0.0 **** 0.06
9735 H 129.83422875174156 99.20611626456073 37.91204093065329 H 0.0 **** 0.06
9736 C 89.00723648489006 59.74014069713331 45.817905757473355 C 0.0 **** -0.24
9737 H 88.13196653300777 59.09109394306222 45.807490731062416 H 0.0 **** 0.06
9738 H 89.23694068442212 60.02481113107558 46.8448163688611 H 0.0 **** 0.06
9739 H 88.80356927729737 60.635143497088336 45.22933600420521 H 0.0 **** 0.06
9740 H 89.85752089730842 59.20934692028908 45.38904905278815 H 0.0 **** 0.06
9741 C 152.18817358360909 99.35712051107542 33.30978430930602 C 0.0 **** -0.24
9742 H 152.00176565562177 98.571948218172 32.57702771377208 H 0.0 **** 0.06
9743 H 151.3966987577866 100.1045792707203 33.251220766217806 H 0.0 **** 0.06
9744 H 153.14876783836277 99.82724144340686 33.10156177079626 H 0.0 **** 0.06
9745 H 152.20559806639392 98.92330972384863 34.309436873719044 H 0.0 **** 0.06
9746 C 72.86922514612284 108.42210966976795 64.93667278508048 C 0.0 **** -0.24
9747 H 72.20447823506233 107.73396966109813 64.41398113505653 H 0.0 **** 0.06
9748 H 73.90423596357986 108.18236005466714 64.69217858479433 H 0.0 **** 0.06
9749 H 72.71849851315392 108.3251111560413 66.01195202772806 H 0.0 **** 0.06
9750 H 72.64926708729458 109.44386991281947 64.62838054235107 H 0.0 **** 0.06
9751 C 72.47822087552628 13.568231707987053 133.62712624523587 C 0.0 **** -0.24
9752 H 71.69826200599111 13.83574500928907 134.34043787867373 H 0.0 **** 0.06
9753 H 73.00837018626066 14.468027222064336 133.31401694706597 H 0.0 **** 0.06
9754 H 72.0266497141987 13.090750439276633 132.75824204404793 H 0.0 **** 0.06
9755 H 73.17929814838773 12.878803125201102 134.09746607533685 H 0.0 **** 0.06
9756 C 54.333298258278475 43.700336304390675 71.59882231794518 C 0.0 **** -0.24
9757 H 54.44655901140136 42.64316154253129 71.35797131159083 H 0.0 **** 0.06
9758 H 54.5119974248598 44.297897825899625 70.70503962674981 H 0.0 **** 0.06
9759 H 55.05215536641586 43.975403019894316 72.37056737176306 H 0.0 **** 0.06
9760 H 53.32237664859021 43.88395417199435 71.96347923443878 H 0.0 **** 0.06
9761 C 33.74628077616703 16.82979807775554 8.873609757332304 C 0.0 **** -0.24
9762 H 32.71824411347467 16.97997071609707 9.20104894546597 H 0.0 **** 0.06
9763 H 34.41496500734293 17.43519340756844 9.485482752615042 H 0.0 **** 0.06
9764 H 33.84161437974824 17.12512009565271 7.828766191257273 H 0.0 **** 0.06
9765 H 34.01077892753434 15.776527903335634 8.979465404817347 H 0.0 **** 0.06
9766 C 55.89023467980789 133.35438662985393 99.91787369978978 C 0.0 **** -0.24
9767 H 56.64749822595124 133.76659373917565 100.58447693967138 H 0.0 **** 0.06
9768 H 55.752978450321805 132.29474346653035 100.1351104142271 H 0.0 **** 0.06
9769 H 56.21143732345301 133.47508998893636 98.88298711066739 H 0.0 **** 0.06
9770 H 54.94765356355498 133.88145465223639 100.06883343263148 H 0.0 **** 0.06
9771 C 12.203226044707094 64.82705759069074 101.65958789974485 C 0.0 **** -0.24
9772 H 12.266964827894299 65.74220963315776 102.24861233999451 H 0.0 **** 0.06
9773 H 12.280747674658528 63.96304731589839 102.32081128583218 H 0.0 **** 0.06
9774 H 13.01758552351609 64.804546025771 100.93553366517881 H 0.0 **** 0.06
9775 H 11.249009627310869 64.7984005199994 101.13481897196795 H 0.0 **** 0.06
9776 C 107.34875838742765 69.26229974836599 56.06134625281226 C 0.0 **** -0.24
9777 H 107.69756675473205 68.3478505559437 56.54147548376916 H 0.0 **** 0.06
9778 H 108.19905606328514 69.91407401828542 55.86080989141777 H 0.0 **** 0.06
9779 H 106.645803552034 69.77276960904453 56.719736482898426 H 0.0 **** 0.06
9780 H 106.85277881015692 69.0131439040731 55.12301885298653 H 0.0 **** 0.06
9781 C 22.930063132900244 60.51393035559107 99.39413160107087 C 0.0 **** -0.24
9782 H 21.86726374071307 60.67328190940947 99.21042470338855 H 0.0 **** 0.06
9783 H 23.412724387448833 61.47211920240562 99.58767728757617 H 0.0 **** 0.06
9784 H 23.383124285354967 60.04835172061385 98.518944310315 H 0.0 **** 0.06
9785 H 23.055097975073124 59.861506881815785 100.25869483853678 H 0.0 **** 0.06
9786 C 20.474956560026897 65.23693689289345 73.44022187276032 C 0.0 **** -0.24
9787 H 19.62895513433824 64.84744056881325 74.00668270890483 H 0.0 **** 0.06
9788 H 21.403554092126143 64.96345516355785 73.94165786257804 H 0.0 **** 0.06
9789 H 20.40131169353424 66.32207299633632 73.3762085367189 H 0.0 **** 0.06
9790 H 20.464494118449068 64.81184032409897 72.43605248942607 H 0.0 **** 0.06
9791 C 96.32393299339188 141.62961830507584 90.60296669727296 C 0.0 **** -0.24
9792 H 96.4504571481938 140.54805162087382 90.53861705374746 H 0.0 **** 0.06
9793 H 95.76964579314401 141.98191683339354 89.73372790423304 H 0.0 **** 0.06
9794 H 97.30282236101823 142.1075191889869 90.6289858394041 H 0.0 **** 0.06
9795 H 95.7739754088999 141.87757635066163 91.51042805283453 H 0.0 **** 0.06
9796 C 117.47159034649717 87.40937918989722 106.76726650366703 C 0.0 **** -0.24
9797 H 118.03781446230285 87.37386072454498 105.83629691459475 H 0.0 **** 0.06
9798 H 116.4084147163146 87.2949260279327 106.55083453928165 H 0.0 **** 0.06
9799 H 117.64005113995508 88.36770002960903 107.25931307181321 H 0.0 **** 0.06
9800 H 117.79790700863857 86.60204666527916 107.42213158113793 H 0.0 **** 0.06
9801 C 30.546767123809133 22.41729401820112 17.758009868928582 C 0.0 **** -0.24
9802 H 31.17802130026334 23.02862748093844 17.113077907715535 H 0.0 **** 0.06
9803 H 31.15325941420602 21.65083110305872 18.23993554215585 H 0.0 **** 0.06
9804 H 29.76786230643671 21.94338312191408 17.160294691422138 H 0.0 **** 0.06
9805 H 30.086031496856947 23.049542935969896 18.519075412183838 H 0.0 **** 0.06
9806 C 109.07196005849788 148.89184392207312 87.39646604405235 C 0.0 **** -0.24
9807 H 109.92525871605311 149.38276709847614 87.86421330566907 H 0.0 **** 0.06
9808 H 109.23351224865802 148.83062034391645 86.32002131719779 H 0.0 **** 0.06
9809 H 108.16744666817279 149.46531820886653 87.59626695063493 H 0.0 **** 0.06
9810 H 108.96280849609415 147.88681645736008 87.80496503733724 H 0.0 **** 0.06
9811 C 87.82148646638893 24.16581010368745 128.5588244598917 C 0.0 **** -0.24
9812 H 87.3655677571777 23.25523186657614 128.94691473333918 H 0.0 **** 0.06
9813 H 88.01190596368338 24.05032724205762 127.49107737086109 H 0.0 **** 0.06
9814 H 88.76158276795286 24.351160937516568 129.077768254203 H 0.0 **** 0.06
9815 H 87.14652136694374 25.00715881981992 128.71833041284418 H 0.0 **** 0.06
9816 C 117.10195131905185 122.39860008211944 35.86833219042592 C 0.0 **** -0.24
9817 H 116.57612375159933 122.3445549678904 36.821011113535974 H 0.0 **** 0.06
9818 H 116.95235476898067 121.47042645818941 35.317868542359804 H 0.0 **** 0.06
9819 H 118.16682439220394 122.5475875212495 36.04871171036541 H 0.0 **** 0.06
9820 H 116.71223634014869 123.23405139781967 35.28570705824353 H 0.0 **** 0.06
9821 C 137.528185476816 102.16294976239277 132.1562049515927 C 0.0 **** -0.24
9822 H 136.48805437367614 102.30519201749888 131.86401651933113 H 0.0 **** 0.06
9823 H 137.60248687251243 102.15508683976373 133.24341520359002 H 0.0 **** 0.06
9824 H 138.13159939168068 102.97823091032825 131.75639001207634 H 0.0 **** 0.06
9825 H 137.89035877194945 101.21397158692253 131.75942461892583 H 0.0 **** 0.06
9826 C 37.98666975210162 84.55867521873877 30.460766795591965 C 0.0 **** -0.24
9827 H 37.39022662022461 85.38799784981578 30.84227337025729 H 0.0 **** 0.06
9828 H 39.02459164040749 84.87561839130514 30.35697920784 H 0.0 **** 0.06
9829 H 37.60172663487788 84.25187475461975 29.488335339291766 H 0.0 **** 0.06
9830 H 37.9298862554989 83.72066512169462 31.15457321107172 H 0.0 **** 0.06
9831 C 133.14493398468164 33.105762795535135 106.40318453040582 C 0.0 **** -0.24
9832 H 133.8251676782233 32.31327963006884 106.09177448983469 H 0.0 **** 0.06
9833 H 132.2537823325347 33.087920685322445 105.77685313299786 H 0.0 **** 0.06
9834 H 133.64199571313975 34.071109924605366 106.30134018948063 H 0.0 **** 0.06
9835 H 132.8614297173314 32.951958860768244 107.44436719966608 H 0.0 **** 0.06
9836 C 33.65728574124329 34.43164946635329 86.53597562506314 C 0.0 **** -0.24
9837 H 32.741751445289715 34.145838889680164 86.01917885514501 H 0.0 **** 0.06
9838 H 33.69798672252053 35.51802742560818 86.62766042048128 H 0.0 **** 0.06
9839 H 34.519837294545276 34.08330699744369 85.9686952868268 H 0.0 **** 0.06
9840 H 33.66969729797123 33.98307756507688 87.52916738091722 H 0.0 **** 0.06
9841 C 142.56343937059296 127.36459685002087 126.20225483612914 C 0.0 **** -0.24
9842 H 143.01521213492077 127.370015544054 125.21065781357477 H 0.0 **** 0.06
9843 H 141.60050784806919 126.85547673332938 126.15953170307525 H 0.0 **** 0.06
9844 H 142.41856237673574 128.389756043411 126.54088576709874 H 0.0 **** 0.06
9845 H 143.22059465293177 126.84170865225035 126.89710700603506 H 0.0 **** 0.06
9846 C 97.1772095801154 98.75155675689308 73.9895624002349 C 0.0 **** -0.24
9847 H 97.08269289828942 99.79381218064435 74.29321496132596 H 0.0 **** 0.06
9848 H 98.23141269043376 98.50267909005856 73.86650391492267 H 0.0 **** 0.06
9849 H 96.65445667664346 98.60067578432847 73.04480104326964 H 0.0 **** 0.06
9850 H 96.73794037559306 98.10973242703835 74.75403398638618 H 0.0 **** 0.06
9851 C 21.18692780836369 25.2079942792406 73.49191428636436 C 0.0 **** -0.24
9852 H 20.17100503322778 24.93779904838849 73.78155570668736 H 0.0 **** 0.06
9853 H 21.240214489021135 25.305722608728637 72.40750459352967 H 0.0 **** 0.06
9854 H 21.876990467533112 24.43047820910627 73.82039408013515 H 0.0 **** 0.06
9855 H 21.45751962623735 26.15540243545705 73.95663945395603 H 0.0 **** 0.06
9856 C 43.37241735008831 80.04338834611809 134.37899561459463 C 0.0 **** -0.24
9857 H 43.01517030813284 79.68788944402831 133.41177857657442 H 0.0 **** 0.06
9858 H 43.978979109720285 80.93716310782486 134.23597761243892 H 0.0 **** 0.06
9859 H 43.97386074416363 79.26668448067494 134.85228690932598 H 0.0 **** 0.06
9860 H 42.519669577142224 80.28041401952862 135.01566566783 H 0.0 **** 0.06
9861 C 5.794771177483931 76.33547774940115 137.3296599507119 C 0.0 **** -0.24
9862 H 5.686067033010403 77.31906488793379 136.87214444657158 H 0.0 **** 0.06
9863 H 6.69222745950551 75.85262945357863 136.9432037304559 H 0.0 **** 0.06
9864 H 4.92243700450787 75.72663611321804 137.09094539047408 H 0.0 **** 0.06
9865 H 5.876369133570506 76.44550047359076 138.411172528331 H 0.0 **** 0.06
9866 C 19.53965299993385 14.500011571146132 72.42290655240711 C 0.0 **** -0.24
9867 H 19.943040192151926 13.492109325529327 72.51800908769646 H 0.0 **** 0.06
9868 H 19.537890576713806 14.792387572668815 71.3716359298691 H 0.0 **** 0.06
9869 H 20.157160679074565 15.194252519330036 72.99174959137517 H 0.0 **** 0.06
9870 H 18.519455226496603 14.520423736162257 72.80705306092145 H 0.0 **** 0.06
9871 C 155.61090550652605 96.17502671139471 135.30018668192184 C 0.0 **** -0.24
9872 H 154.79419331269142 96.39334382055415 135.9892814141022 H 0.0 **** 0.06
9873 H 155.49600762910035 95.16453649913586 134.90889055741357 H 0.0 **** 0.06
9874 H 156.5610005802575 96.25516093521668 135.82877398906834 H 0.0 **** 0.06
9875 H 155.5912054671725 96.88881439475966 134.47733147850207 H 0.0 **** 0.06
9876 C 150.15427517824878 61.75687412019242 87.52829699356516 C 0.0 **** -0.24
9877 H 149.45206316923816 61.974973892354825 88.33335877837301 H 0.0 **** 0.06
9878 H 150.72528746116475 62.65441018516704 87.29116907898873 H 0.0 **** 0.06
9879 H 149.60528049131213 61.43133789978552 86.6447893992664 H 0.0 **** 0.06
9880 H 150.83443797014596 60.965516845801716 87.84451675355426 H 0.0 **** 0.06
9881 C 53.96543648166718 52.47377152188446 120.21625415236663 C 0.0 **** -0.24
9882 H 54.90122715256405 51.97711527903536 119.957387179811 H 0.0 **** 0.06
9883 H 53.95214516971116 52.687466164856744 121.28554160107574 H 0.0 **** 0.06
9884 H 53.128086515593694 51.82317956736114 119.96418311155311 H 0.0 **** 0.06
9885 H 53.88292583677183 53.4059689780251 119.6574594085955 H 0.0 **** 0.06
9886 C 149.00644404049007 129.00331803576006 103.8753381763102 C 0.0 **** -0.24
9887 H 148.54980138955548 128.03602285893908 104.08106408461119 H 0.0 **** 0.06
9888 H 149.7713637779522 128.88736752754875 103.10666855405039 H 0.0 **** 0.06
9889 H 149.46291028580782 129.39072052826785 104.78655854938917 H 0.0 **** 0.06
9890 H 148.2431020429203 129.6993390448535 103.52699289783995 H 0.0 **** 0.06
9891 C 36.05847192921074 35.522878091236066 52.43803654477949 C 0.0 **** -0.24
9892 H 36.64056391184724 36.25507339319506 51.87709297960001 H 0.0 **** 0.06
9893 H 36.7160127840378 34.978691867764326 53.1160255208072 H 0.0 **** 0.06
9894 H 35.59037710566783 34.8241154627203 51.745806347386264 H 0.0 **** 0.06
9895 H 35.28795917514074 36.036260510467 53.01341664991901 H 0.0 **** 0.06
9896 C 41.59627366564651 103.1057347266909 66.35395069593841 C 0.0 **** -0.24
9897 H 41.14082817006144 104.02574211344462 65.98565390664868 H 0.0 **** 0.06
9898 H 41.916744151813646 103.24840596033998 67.38663036680367 H 0.0 **** 0.06
9899 H 42.45820494454682 102.85516921513575 65.73718736940756 H 0.0 **** 0.06
9900 H 40.86743269275064 102.29665721263423 66.30744177719873 H 0.0 **** 0.06
9901 C 122.9390213829901 73.1648597127279 148.08560366862952 C 0.0 **** -0.24
9902 H 122.43883676730012 73.06322917770115 147.12242390360092 H 0.0 **** 0.06
9903 H 123.49277392421926 72.25141365591871 148.30403470152822 H 0.0 **** 0.06
9904 H 122.19677308664099 73.33490745717329 148.86495459989857 H 0.0 **** 0.06
9905 H 123.62858477105927 74.0083985801255 148.0495871134923 H 0.0 **** 0.06
9906 C 134.27004773015244 104.33014454870262 44.0617601625122 C 0.0 **** -0.24
9907 H 134.04954273369128 103.38678914153819 44.56235363731514 H 0.0 **** 0.06
9908 H 133.43956443709203 105.02177819425442 44.20815386643892 H 0.0 **** 0.06
9909 H 134.4099272715549 104.1503680032997 42.995499968520335 H 0.0 **** 0.06
9910 H 135.17905910785996 104.75953218005985 44.480650583249314 H 0.0 **** 0.06
9911 C 135.5397408737887 23.976541371613095 75.10037246948536 C 0.0 **** -0.24
9912 H 136.38172337711126 24.466821183185672 75.58814169059758 H 0.0 **** 0.06
9913 H 135.43331128054828 24.361203244747124 74.08565493071116 H 0.0 **** 0.06
9914 H 134.62784551502148 24.176784487007026 75.66316304298918 H 0.0 **** 0.06
9915 H 135.71682228359543 22.90187741680829 75.06495763520127 H 0.0 **** 0.06
9916 C 143.08852138067766 93.66572595124532 147.80272892477632 C 0.0 **** -0.24
9917 H 143.3748640151871 94.40516332527179 148.55067607485222 H 0.0 **** 0.06
9918 H 143.83092027049648 93.65212264413996 147.0036597372362 H 0.0 **** 0.06
9919 H 142.11443922703185 93.92623241890684 147.38935501141304 H 0.0 **** 0.06
9920 H 143.03505798205978 92.68125616861792 148.26619040315802 H 0.0 **** 0.06
9921 C 150.70993939402666 30.091514644062478 134.77740400746157 C 0.0 **** -0.24
9922 H 149.8653010757199 29.417497398544874 134.92141632105847 H 0.0 **** 0.06
9923 H 151.5578628913315 29.531119350782895 134.38080395592922 H 0.0 **** 0.06
9924 H 150.9844321708854 30.538030978766074 135.73287066533462 H 0.0 **** 0.06
9925 H 150.43235977508 30.8770004085193 134.07491320931726 H 0.0 **** 0.06
9926 C 135.8822856993757 36.34247743307742 107.2406420464149 C 0.0 **** -0.24
9927 H 135.03550502571744 36.5669770774892 107.88949494398832 H 0.0 **** 0.06
9928 H 135.51795272433472 35.95666324390818 106.28856822383887 H 0.0 **** 0.06
9929 H 136.51606293921415 35.59413707323628 107.7179761367421 H 0.0 **** 0.06
9930 H 136.4599371071648 37.25111090583407 107.06873288834186 H 0.0 **** 0.06
9931 C 43.546795862597705 28.749835026108485 27.613278988246947 C 0.0 **** -0.24
9932 H 42.933533884986105 29.556119718312686 28.015024425252008 H 0.0 **** 0.06
9933 H 44.46361406526056 29.165027665551747 27.1936360959782 H 0.0 **** 0.06
9934 H 42.993394076485686 28.227162455484404 26.832527716875887 H 0.0 **** 0.06
9935 H 43.796641423658414 28.051030265084933 28.411927714881806 H 0.0 **** 0.06
9936 C 152.37437572132123 80.68268303691816 67.88952119368741 C 0.0 **** -0.24
9937 H 152.47947558811737 79.6810783603564 67.4710109745997 H 0.0 **** 0.06
9938 H 152.42076748458405 81.41819672309094 67.08572885170412 H 0.0 **** 0.06
9939 H 153.18188568621562 80.8668488778018 68.59766330487537 H 0.0 **** 0.06
9940 H 151.41568725928374 80.7633535121542 68.40185738947565 H 0.0 **** 0.06
9941 C 156.5168031425357 30.41677692149102 61.159939157050516 C 0.0 **** -0.24
9942 H 156.16034527569855 31.44578538320701 61.20154482119543 H 0.0 **** 0.06
9943 H 155.66470737305036 29.739368231540396 61.09932600299234 H 0.0 **** 0.06
9944 H 157.09396474051886 30.195173184938625 62.056860501937535 H 0.0 **** 0.06
9945 H 157.1465732170466 30.286345547309566 60.280242072248726 H 0.0 **** 0.06
9946 C 0.6815120244956034 2.9413476698339736 86.9683962446634 C 0.0 **** -0.24
9947 H 0.592097463724226 2.070619138448393 87.61796574215244 H 0.0 **** 0.06
9948 H 1.0766653445290189 3.7817010361462877 87.53885284541806 H 0.0 **** 0.06
9949 H -0.29978327448981545 3.200477560652029 86.57055090329698 H 0.0 **** 0.06
9950 H 1.3580443883538251 2.7105237643289932 86.14455220104757 H 0.0 **** 0.06
9951 C 37.00417012979972 78.39705526257154 70.09965439693342 C 0.0 **** -0.24
9952 H 36.60786921335159 78.90931488615314 69.2227807791818 H 0.0 **** 0.06
9953 H 36.51690145621865 78.78211329984833 70.99511360912149 H 0.0 **** 0.06
9954 H 38.07788904955015 78.57166239324357 70.16613515999596 H 0.0 **** 0.06
9955 H 36.81465794491771 77.32746924016726 70.0119188394466 H 0.0 **** 0.06
9956 C 46.00309934799816 137.27938710684157 137.91288921118883 C 0.0 **** -0.24
9957 H 45.552132972053585 136.3745442607435 138.32219651978943 H 0.0 **** 0.06
9958 H 47.08477951330997 137.15175302863187 137.85673515680833 H 0.0 **** 0.06
9959 H 45.769237846400756 138.12583703987377 138.55812712113203 H 0.0 **** 0.06
9960 H 45.60606011029074 137.46196201643173 136.91471843838872 H 0.0 **** 0.06
9961 C 135.44168064682646 89.41245695984239 17.168009775494966 C 0.0 **** -0.24
9962 H 136.08250528195936 89.7497705985262 16.354295502987043 H 0.0 **** 0.06
9963 H 136.02120838872247 89.36330855079254 18.090270977724003 H 0.0 **** 0.06
9964 H 135.04759802291744 88.42288459986185 16.93356970425549 H 0.0 **** 0.06
9965 H 134.61538391637674 90.11222587868872 17.29446472921751 H 0.0 **** 0.06
9966 C 124.94450259986779 52.295002268399486 74.87105480680458 C 0.0 **** -0.24
9967 H 124.36488508133776 52.063900334771645 73.97740437434533 H 0.0 **** 0.06
9968 H 125.82569616240825 51.65366354214743 74.90672337497136 H 0.0 **** 0.06
9969 H 124.33236424336228 52.12189398797237 75.7553464892232 H 0.0 **** 0.06
9970 H 125.25554514031786 53.339086052726 74.8421714712392 H 0.0 **** 0.06
9971 C 91.16946320680259 44.35324454670378 81.33015444503334 C 0.0 **** -0.24
9972 H 90.8180421151799 45.383770794227246 81.29866654966764 H 0.0 **** 0.06
9973 H 91.96353219030293 44.21812860789824 80.5951021773759 H 0.0 **** 0.06
9974 H 90.34341522022348 43.67973033009554 81.10205141593173 H 0.0 **** 0.06
9975 H 91.55499501690998 44.13084641720647 82.32589488060779 H 0.0 **** 0.06
9976 C 79.87389703585582 138.7608419180773 79.10037311046133 C 0.0 **** -0.24
9977 H 79.57420171855247 139.60108702067862 79.72812036356953 H 0.0 **** 0.06
9978 H 80.54253759142264 139.1158750278898 78.31498656235448 H 0.0 **** 0.06
9979 H 78.98966515550295 138.31077457232072 78.64879139551837 H 0.0 **** 0.06
9980 H 80.3890213047632 138.01861820715067 79.70936866854811 H 0.0 **** 0.06
9981 C 79.77909766094055 66.43479310521337 51.81094455424922 C 0.0 **** -0.24
9982 H 78.73480612500364 66.39603148405845 51.500177096595166 H 0.0 **** 0.06
9983 H 79.83931511776761 66.793598298829 52.83900408566063 H 0.0 **** 0.06
9984 H 80.32701185504759 67.11314468565436 51.155849228020216 H 0.0 **** 0.06
9985 H 80.21490280097122 65.43811917790978 51.747041426416345 H 0.0 **** 0.06
9986 C 75.30433020289537 138.69256607802734 100.90771500167249 C 0.0 **** -0.24
9987 H 75.80146994804782 139.63592458192002 101.1344097077335 H 0.0 **** 0.06
9988 H 76.04840548295427 137.90061772646254 100.82538371319548 H 0.0 **** 0.06
9989 H 74.76479745442589 138.78429676851567 99.96469507217817 H 0.0 **** 0.06
9990 H 74.60204623981818 138.45125261240557 101.70485531391235 H 0.0 **** 0.06
9991 C 16.265063907496653 30.12018499609694 105.20010746886669 C 0.0 **** -0.24
9992 H 16.985472383308434 29.617109558792123 105.84563239119535 H 0.0 **** 0.06
9993 H 16.350753553498862 29.728084349702343 104.18605269680734 H 0.0 **** 0.06
9994 H 16.4685999691676 31.19119479387917 105.19533577639055 H 0.0 **** 0.06
9995 H 15.257641987998 29.943167284504057 105.57471449885543 H 0.0 **** 0.06
9996 C 124.7862507778464 111.36033920727806 114.7394487203501 C 0.0 **** -0.24
9997 H 124.44993922546509 112.10160191135571 115.46453066152897 H 0.0 **** 0.06
9998 H 125.63261459486186 111.75707412991358 114.17879788418652 H 0.0 **** 0.06
9999 H 123.97169253787128 111.12808948463936 114.05326535033196 H 0.0 **** 0.06
10000 H 125.08974761222952 110.45268501536941 115.26179078529303 H 0.0 **** 0.06
10001 C 127.55366525813497 12.361298495193012 12.190180456362839 C 0.0 **** -0.24
10002 H 127.93825293118823 12.350006573685988 13.210479194962772 H 0.0 **** 0.06
10003 H 126.66079859588268 11.740150616957123 12.132387276221152 H 0.0 **** 0.06
10004 H 128.31316168399331 11.97168013134305 11.511320068760426 H 0.0 **** 0.06
10005 H 127.30462773971959 13.384666742584159 11.908126489402605 H 0.0 **** 0.06
10006 C 92.94281283822723 119.579525301569 73.97567960820594 C 0.0 **** -0.24
10007 H 92.12927266225846 119.63854206026015 74.69914287318194 H 0.0 **** 0.06
10008 H 92.609280739257 119.023790724498 73.09964760490188 H 0.0 **** 0.06
10009 H 93.79425318957628 119.07123071456151 74.42742465657186 H 0.0 **** 0.06
10010 H 93.23670737604743 120.58626252649769 73.67791989572376 H 0.0 **** 0.06
10011 C 151.49230931943688 48.10351690780675 81.66155335747449 C 0.0 **** -0.24
10012 H 150.93008790694554 47.69336507927852 80.82218439417602 H 0.0 **** 0.06
10013 H 150.94774948161722 47.920235086672406 82.58767107101694 H 0.0 **** 0.06
10014 H 151.6219067634795 49.17679248418089 81.52133310326732 H 0.0 **** 0.06
10015 H 152.46918081524177 47.62259632354912 81.71309118027949 H 0.0 **** 0.06
10016 C 45.11402821587265 147.66487664320405 13.329028621870776 C 0.0 **** -0.24
10017 H 44.94102891847565 148.60681537570082 13.850708962959402 H 0.0 **** 0.06
10018 H 44.7409303538644 147.74172303620037 12.30796629545182 H 0.0 **** 0.06
10019 H 44.59280257885844 146.86153613498655 13.848739601793966 H 0.0 **** 0.06
10020 H 46.183170016285686 147.45254547306726 13.310699183411089 H 0.0 **** 0.06
10021 C 63.34680364508313 38.814033809391304 63.403298523788834 C 0.0 **** -0.24
10022 H 63.388957512120214 37.724974668368574 63.41849419639986 H 0.0 **** 0.06
10023 H 63.901828060187995 39.20963022083231 64.25483190516009 H 0.0 **** 0.06
10024 H 62.30808377488461 39.13931018603752 63.46320669200799 H 0.0 **** 0.06
10025 H 63.790663688850486 39.18213780964835 62.47827939971509 H 0.0 **** 0.06
10026 C 110.4840778210916 0.7371334678756511 129.00433783369024 C 0.0 **** -0.24
10027 H 109.81102464873362 1.5358429392424569 129.31770393305976 H 0.0 **** 0.06
10028 H 110.70816193267137 0.8473580178014686 127.94373258066207 H 0.0 **** 0.06
10029 H 110.00803531147147 -0.22730854553276458 129.17708838861873 H 0.0 **** 0.06
10030 H 111.40781266191493 0.7953495650096727 129.57901727725013 H 0.0 **** 0.06
10031 C 46.43890192786722 75.59458499520406 29.47892738406901 C 0.0 **** -0.24
10032 H 46.104432789813075 74.5703672222673 29.31433085768184 H 0.0 **** 0.06
10033 H 45.670774102585824 76.14346648001191 30.024429405620012 H 0.0 **** 0.06
10034 H 46.61874157097094 76.07732455563166 28.518832149182337 H 0.0 **** 0.06
10035 H 47.36174594715084 75.5866362766003 30.060283949662036 H 0.0 **** 0.06
10036 C 26.007854675177782 52.891875222406256 69.11253085870905 C 0.0 **** -0.24
10037 H 26.730619402998087 52.494376372540884 69.82452064676814 H 0.0 **** 0.06
10038 H 25.619998106725575 52.07921162603962 68.49802956141254 H 0.0 **** 0.06
10039 H 26.493667984303187 53.63018729713578 68.4752135486491 H 0.0 **** 0.06
10040 H 25.18705455040069 53.36245451546441 69.65419770290445 H 0.0 **** 0.06
10041 C 5.576930058420288 69.33372334745258 32.724204239113135 C 0.0 **** -0.24
10042 H 4.611046091098956 69.82109415490271 32.86148704231175 H 0.0 **** 0.06
10043 H 5.95115943694185 68.99132059888962 33.689054696463245 H 0.0 **** 0.06
10044 H 6.282444444029267 70.04379086743205 32.290945320530795 H 0.0 **** 0.06
10045 H 5.4618837420915725 68.48163974022196 32.054392670954456 H 0.0 **** 0.06
10046 C 53.75674137311108 54.34825772444765 103.27185156499256 C 0.0 **** -0.24
10047 H 53.913895710300665 54.27875569284133 104.34773799907286 H 0.0 **** 0.06
10048 H 53.48583168585105 53.3672065322791 102.88076820627906 H 0.0 **** 0.06
10049 H 54.673002156008124 54.69043440595047 102.79200791621061 H 0.0 **** 0.06
10050 H 52.95280639750058 55.05523770595299 103.0668136804408 H 0.0 **** 0.06
10051 C 89.11691051476761 22.37598469104131 99.58134721683332 C 0.0 **** -0.24
10052 H 89.77841075867168 21.530987955336997 99.77519677216544 H 0.0 **** 0.06
10053 H 88.57036237121638 22.204533574730533 98.65412917119957 H 0.0 **** 0.06
10054 H 89.70906097494777 23.286606597251392 99.49102974781285 H 0.0 **** 0.06
10055 H 88.41157166391011 22.48245558473309 100.40624706789369 H 0.0 **** 0.06
10056 C 147.01092833036842 42.71659819118099 20.125416949682858 C 0.0 **** -0.24
10057 H 146.93364277790613 41.6374411493061 19.990941261111573 H 0.0 **** 0.06
10058 H 146.04707160509327 43.11283266535838 20.446842160006412 H 0.0 **** 0.06
10059 H 147.29769622522082 43.179974235159236 19.18127104148877 H 0.0 **** 0.06
10060 H 147.76477073154717 42.936127995675236 20.881766726130763 H 0.0 **** 0.06
10061 C 11.958031841157627 6.289087493493753 71.649924288631 C 0.0 **** -0.24
10062 H 11.129560762948664 6.9956654567670284 71.60838032717733 H 0.0 **** 0.06
10063 H 12.016625197286508 5.8558051785286125 72.64969076624988 H 0.0 **** 0.06
10064 H 12.88881029985793 6.807245658411375 71.42377792253971 H 0.0 **** 0.06
10065 H 11.796150476974248 5.496722228055205 70.9196391682033 H 0.0 **** 0.06
10066 C 125.5106966985651 78.42120907524762 75.34394023157672 C 0.0 **** -0.24
10067 H 125.01875241091038 77.59978315421884 75.866195907173 H 0.0 **** 0.06
10068 H 125.69397948958301 79.23712641950539 76.04260320861773 H 0.0 **** 0.06
10069 H 124.86920452415343 78.77180264884942 74.53532746067906 H 0.0 **** 0.06
10070 H 126.45808069854526 78.07433544014572 74.93199497894864 H 0.0 **** 0.06
10071 C 134.03782466971256 115.7828427177116 132.4948489333081 C 0.0 **** -0.24
10072 H 134.8753951518118 116.38014772337424 132.13375876767049 H 0.0 **** 0.06
10073 H 134.2777378414752 115.37825188101819 133.47842029027913 H 0.0 **** 0.06
10074 H 133.8495398940633 114.96381037148744 131.8007397714669 H 0.0 **** 0.06
10075 H 133.14953376290669 116.4101653653589 132.56688518344563 H 0.0 **** 0.06
10076 C 40.15122503969826 22.526761313776262 92.2936171717467 C 0.0 **** -0.24
10077 H 40.09828245983999 23.292437967856813 91.5209102727083 H 0.0 **** 0.06
10078 H 40.1036579870655 22.998262990558715 93.27592886427257 H 0.0 **** 0.06
10079 H 41.08984521807375 21.97951666878447 92.19899067522957 H 0.0 **** 0.06
10080 H 39.31594049928043 21.83694204235985 92.18005341637442 H 0.0 **** 0.06
10081 C 148.34638660256434 80.42535939677862 47.96596258103915 C 0.0 **** -0.24
10082 H 147.67909817949115 81.22095239742913 48.299160189955956 H 0.0 **** 0.06
10083 H 147.7768738087401 79.50681008801446 47.82867828558716 H 0.0 **** 0.06
10084 H 149.1213016739498 80.26524919432751 48.71572056305618 H 0.0 **** 0.06
10085 H 148.80910582666334 80.71229942104128 47.02143252393887 H 0.0 **** 0.06
10086 C 132.96755898733886 105.27496652264865 126.0985469975182 C 0.0 **** -0.24
10087 H 132.35007105912538 105.14885506897294 126.98784741309926 H 0.0 **** 0.06
10088 H 134.02103281233505 105.23263810831112 126.37800527404967 H 0.0 **** 0.06
10089 H 132.75118697348765 106.24082667713488 125.64097840569686 H 0.0 **** 0.06
10090 H 132.74741280637497 104.47885634231046 125.38737549346116 H 0.0 **** 0.06
10091 C 92.100617010838 135.98874180606748 139.34032717546336 C 0.0 **** -0.24
10092 H 91.70521544343222 135.44819507274184 140.2001477914161 H 0.0 **** 0.06
10093 H 91.36739300228982 135.97502381204993 138.5340926985279 H 0.0 **** 0.06
10094 H 93.02106037604602 135.50998064621837 139.00350008002724 H 0.0 **** 0.06
10095 H 92.31048881650466 137.01949955194027 139.62360075633012 H 0.0 **** 0.06
10096 C 21.809164631808244 155.33470697177557 44.57471753703027 C 0.0 **** -0.24
10097 H 21.905808005181314 155.79171751827874 43.58870477582089 H 0.0 **** 0.06
10098 H 20.89004134392701 154.7507088688714 44.615488225809926 H 0.0 **** 0.06
10099 H 21.77912945736631 156.11502806590676 45.33455470288071 H 0.0 **** 0.06
10100 H 22.662652796103032 154.6821950384151 44.757060018315485 H 0.0 **** 0.06
10101 C 85.31902481581184 63.32806346560898 102.42725438097904 C 0.0 **** -0.24
10102 H 85.38572898872829 64.27265343796452 101.886469726484 H 0.0 **** 0.06
10103 H 84.29554240702757 63.177762121147154 102.77162475602779 H 0.0 **** 0.06
10104 H 85.99207141515177 63.35315314068744 103.28505301581276 H 0.0 **** 0.06
10105 H 85.6039206884902 62.510453618339085 101.76515080284202 H 0.0 **** 0.06
10106 C 139.57257108293715 43.30189378870662 71.53272950379079 C 0.0 **** -0.24
10107 H 140.28939569827256 44.04594509690102 71.87928220493905 H 0.0 **** 0.06
10108 H 138.57755088164964 43.74757109257665 71.49226614446343 H 0.0 **** 0.06
10109 H 139.5643388626646 42.45682262580027 72.22137937318422 H 0.0 **** 0.06
10110 H 139.8575398920262 42.95737028865189 70.53891413382146 H 0.0 **** 0.06
10111 C 152.82526245556485 84.0634467715266 92.43247552487969 C 0.0 **** -0.24
10112 H 152.74740655546495 85.0032248425439 92.97958915347857 H 0.0 **** 0.06
10113 H 152.78511192409027 83.23099345122768 93.13531411995439 H 0.0 **** 0.06
10114 H 153.77135856049975 84.03645672087755 91.89080550978133 H 0.0 **** 0.06
10115 H 151.99911179951656 83.98428854095123 91.72615709438264 H 0.0 **** 0.06
10116 C 81.99200732288175 134.19886398259843 36.15183184742335 C 0.0 **** -0.24
10117 H 81.00198891882295 133.88386422131168 36.477763281004684 H 0.0 **** 0.06
10118 H 82.55716534249326 133.33061435892432 35.813133351896965 H 0.0 **** 0.06
10119 H 82.51554561610462 134.67133505617312 36.98279779271235 H 0.0 **** 0.06
10120 H 81.89459306943706 134.91157482669536 35.331717556688346 H 0.0 **** 0.06
10121 C 82.08246920172351 71.65996154227395 68.98443556473872 C 0.0 **** -0.24
10122 H 82.52897422751131 70.75143648446102 69.38900467380049 H 0.0 **** 0.06
10123 H 82.51441360449691 72.52917514668066 69.48271910702489 H 0.0 **** 0.06
10124 H 81.00544178857788 71.6410132510484 69.15345808139753 H 0.0 **** 0.06
10125 H 82.28191067980651 71.71812001398068 67.91485044434519 H 0.0 **** 0.06
10126 C 106.76996679415252 3.1927561014047683 23.269764050355263 C 0.0 **** -0.24
10127 H 106.29048989366008 2.7172869293450788 24.12419635997786 H 0.0 **** 0.06
10128 H 107.73192333830978 3.6042400644816155 23.57647767496872 H 0.0 **** 0.06
10129 H 106.1345405487739 3.995216198479703 22.895891170332774 H 0.0 **** 0.06
10130 H 106.92512391310281 2.4553027344783267 22.48275614393667 H 0.0 **** 0.06
10131 C 21.977278948639423 123.17760211742221 19.91989854145146 C 0.0 **** -0.24
10132 H 22.494674295475477 123.18096349961449 20.880012323067106 H 0.0 **** 0.06
10133 H 22.451390727457124 123.89549062357993 19.250915154968602 H 0.0 **** 0.06
10134 H 20.933563240577655 123.45208178114662 20.069585123988915 H 0.0 **** 0.06
10135 H 22.03147547481177 122.18132038086476 19.48265139924397 H 0.0 **** 0.06
10136 C 27.34908040843959 120.64386628910292 137.8044668999521 C 0.0 **** -0.24
10137 H 27.21041246238235 121.02486469902941 136.79179906623023 H 0.0 **** 0.06
10138 H 28.377083437670308 120.82086779473191 138.12024673040548 H 0.0 **** 0.06
10139 H 27.142257207735668 119.57386942183466 137.82060793887052 H 0.0 **** 0.06
10140 H 26.666513656534505 121.1562839576609 138.48111257913467 H 0.0 **** 0.06
10141 C 52.34799096010846 110.84168198572536 129.19280313711602 C 0.0 **** -0.24
10142 H 53.22638218302812 110.27105046716235 129.49431300512197 H 0.0 **** 0.06
10143 H 51.46792954946767 110.20027263279565 129.22959443199204 H 0.0 **** 0.06
10144 H 52.48741279762643 111.21086529269951 128.17643463657544 H 0.0 **** 0.06
10145 H 52.212185952211 111.68493416693912 129.86984333032132 H 0.0 **** 0.06
10146 C 117.82841690327518 28.139180708358197 120.44905511440628 C 0.0 **** -0.24
10147 H 117.90960317095778 27.26238077361768 119.80547265415284 H 0.0 **** 0.06
10148 H 117.96402197994303 27.840233262986374 121.4879744216254 H 0.0 **** 0.06
10149 H 116.84392505954895 28.590368172865084 120.32432596506577 H 0.0 **** 0.06
10150 H 118.59697942598211 28.862540256093723 120.17515857870372 H 0.0 **** 0.06
10151 C 46.38544991158187 135.19656061028752 148.73540289224962 C 0.0 **** -0.24
10152 H 47.28807013246512 135.28101962316867 148.1293277168266 H 0.0 **** 0.06
10153 H 46.65291436437951 135.23133783817815 149.79140382733263 H 0.0 **** 0.06
10154 H 45.88865777051507 134.25110411096864 148.5164662244424 H 0.0 **** 0.06
10155 H 45.71355068676496 136.02310879164918 148.50242599877004 H 0.0 **** 0.06
10156 C 114.31670735694844 21.123404541769418 145.79225086476225 C 0.0 **** -0.24
10157 H 114.85276786414902 20.896672653740296 146.7134980812498 H 0.0 **** 0.06
10158 H 113.71588082638057 20.262720006897382 145.4994194051542 H 0.0 **** 0.06
10159 H 115.0326517699106 21.352261817716652 145.00266893406524 H 0.0 **** 0.06
10160 H 113.66687946374513 21.983941009460978 145.95290074651632 H 0.0 **** 0.06
10161 C 80.5441252499843 115.96579514740023 50.6633013035226 C 0.0 **** -0.24
10162 H 80.35872386736925 116.72224258192063 49.9014704558717 H 0.0 **** 0.06
10163 H 81.5204952487159 116.13956083281471 51.11784596399387 H 0.0 **** 0.06
10164 H 80.52766194748352 114.97653877315128 50.20598034973315 H 0.0 **** 0.06
10165 H 79.77148780009779 116.02444491044827 51.429995669949136 H 0.0 **** 0.06
10166 C 54.65502785154413 57.319822087730444 131.05777826303597 C 0.0 **** -0.24
10167 H 55.531598761609814 56.83463380213156 131.4885618271476 H 0.0 **** 0.06
10168 H 53.84336892744358 57.31427765726258 131.78461572018105 H 0.0 **** 0.06
10169 H 54.345546998468706 56.7811693284156 130.16244008126347 H 0.0 **** 0.06
10170 H 54.90166793881565 58.34851236259466 130.7959717700989 H 0.0 **** 0.06
10171 C 108.14998074604875 124.885201083513 9.931335793919743 C 0.0 **** -0.24
10172 H 108.95738194608202 124.16717694207311 10.076526426092585 H 0.0 **** 0.06
10173 H 108.01532143303064 125.06956280070558 8.865704861393908 H 0.0 **** 0.06
10174 H 108.40132802829226 125.82004893124467 10.433243899543953 H 0.0 **** 0.06
10175 H 107.22758371502022 124.48470549611794 10.351156769905458 H 0.0 **** 0.06
10176 C 17.374839343005988 46.679953526910936 96.36312471978869 C 0.0 **** -0.24
10177 H 17.729949053105884 47.51538015230096 96.96748153247107 H 0.0 **** 0.06
10178 H 17.936639840879423 45.78164762638096 96.61914890099577 H 0.0 **** 0.06
10179 H 17.51674109797466 46.910043392749344 95.30748879995672 H 0.0 **** 0.06
10180 H 16.31453312769844 46.515221388782436 96.55999978176615 H 0.0 **** 0.06
10181 C 103.19008365298446 81.20314177340325 40.06052075819264 C 0.0 **** -0.24
10182 H 103.74265268459 81.82273011747175 40.767150388743346 H 0.0 **** 0.06
10183 H 102.26659629258783 81.70858594947948 39.77867338928928 H 0.0 **** 0.06
10184 H 102.95362039417112 80.24562635448181 40.526372746563766 H 0.0 **** 0.06
10185 H 103.79926329890567 81.03417727983154 39.17246961333586 H 0.0 **** 0.06
10186 C 14.156392714602596 19.062750888853884 134.91774101713062 C 0.0 **** -0.24
10187 H 13.086903116446251 19.26169198540137 134.98227854617207 H 0.0 **** 0.06
10188 H 14.318124466742475 17.99915260240826 134.74399643542014 H 0.0 **** 0.06
10189 H 14.637836525938319 19.35634515762058 135.85168266535436 H 0.0 **** 0.06
10190 H 14.58293814900496 19.634890665104308 134.0938934967254 H 0.0 **** 0.06
10191 C 21.989941028614496 68.91793024537624 58.673242989345795 C 0.0 **** -0.24
10192 H 22.27307336596337 68.831440021213 57.62378826380956 H 0.0 **** 0.06
10193 H 22.0941957181212 69.95499016393099 58.99270717582573 H 0.0 **** 0.06
10194 H 22.638385707796907 68.28456786759564 59.27785049629401 H 0.0 **** 0.06
10195 H 20.95442406567856 68.60176068564343 58.79771824254868 H 0.0 **** 0.06
10196 C 12.724058685836468 89.29980883117196 22.558495465686967 C 0.0 **** -0.24
10197 H 13.142037434109483 89.490079991019 23.54766247067262 H 0.0 **** 0.06
10198 H 13.488146811696481 89.48088593216661 21.80139762109387 H 0.0 **** 0.06
10199 H 11.877906950592802 89.96462535893718 22.38796728138572 H 0.0 **** 0.06
10200 H 12.391209551599673 88.26334436199681 22.49818337733401 H 0.0 **** 0.06
10201 C 39.367906019771496 119.77953842964746 8.236041344941867 C 0.0 **** -0.24
10202 H 39.34905301570274 118.87911375793732 7.623179532720599 H 0.0 **** 0.06
10203 H 39.01194254479907 119.54373545129152 9.239004273312503 H 0.0 **** 0.06
10204 H 38.72234631381012 120.5369385017105 7.7896306377970745 H 0.0 **** 0.06
10205 H 40.38840563075583 120.15965260940493 8.291776926310263 H 0.0 **** 0.06
10206 C 30.361011967475207 122.55139976728229 113.35367805148974 C 0.0 **** -0.24
10207 H 30.618678219486014 123.42760830142369 112.75848195963226 H 0.0 **** 0.06
10208 H 30.74927045961971 122.67256361205413 114.36541485890666 H 0.0 **** 0.06
10209 H 30.79828677823903 121.66259551873092 112.9001602698263 H 0.0 **** 0.06
10210 H 29.27642014055192 122.44458040353082 113.39059547904105 H 0.0 **** 0.06
10211 C 52.99872245043244 60.22128759063071 54.25139123279689 C 0.0 **** -0.24
10212 H 52.73453542035769 59.42055349830855 54.9416765193389 H 0.0 **** 0.06
10213 H 54.05646410023935 60.46030100875049 54.360317123969025 H 0.0 **** 0.06
10214 H 52.40109069818777 61.10561244251346 54.476632382538924 H 0.0 **** 0.06
10215 H 52.80120167971819 59.90039187485843 53.229066859448494 H 0.0 **** 0.06
10216 C 54.95230310951507 63.779305944883575 23.980228791736835 C 0.0 **** -0.24
10217 H 53.8764670218647 63.655756041422265 23.854499647389986 H 0.0 **** 0.06
10218 H 55.151603591958064 64.71125725575065 24.509467632836163 H 0.0 **** 0.06
10219 H 55.43051204771808 63.80870028646858 23.000477854325823 H 0.0 **** 0.06
10220 H 55.350118165683796 62.94265279082077 24.55374367509461 H 0.0 **** 0.06
10221 C 42.64410589615663 96.02725493136751 8.756590214744065 C 0.0 **** -0.24
10222 H 42.45124626217341 97.03234324185445 9.132039717540835 H 0.0 **** 0.06
10223 H 41.92754741200825 95.33236593211228 9.19574044376342 H 0.0 **** 0.06
10224 H 43.65534733921238 95.72654335615755 9.02884915919718 H 0.0 **** 0.06
10225 H 42.540941899598195 96.01909220650839 7.6718403782947675 H 0.0 **** 0.06
10226 C 43.992675268617205 147.7665851436165 33.57353948223363 C 0.0 **** -0.24
10227 H 43.085320367853456 148.28764658532901 33.88106309158857 H 0.0 **** 0.06
10228 H 44.8643262307593 148.3418718508708 33.88721687856429 H 0.0 **** 0.06
10229 H 43.99861868492869 147.65922015103055 32.48940385118104 H 0.0 **** 0.06
10230 H 44.02068955072242 146.78087432585116 34.03696695730082 H 0.0 **** 0.06
10231 C 60.89987324384259 128.75337574191553 13.113446335352656 C 0.0 **** -0.24
10232 H 61.876384942054244 128.96544848977567 12.679116167930992 H 0.0 **** 0.06
10233 H 60.75208855176838 129.37477360727985 13.996937740397314 H 0.0 **** 0.06
10234 H 60.84806889339215 127.70126161419766 13.39686811102878 H 0.0 **** 0.06
10235 H 60.12082550436912 128.97043375199092 12.38226706262433 H 0.0 **** 0.06
10236 C 43.7040145596977 65.4967158441193 110.28556788454598 C 0.0 **** -0.24
10237 H 43.54222772587261 64.87911004231809 109.4020449538671 H 0.0 **** 0.06
10238 H 43.40412324370699 64.94172340625717 111.1753635437748 H 0.0 **** 0.06
10239 H 43.107710011184224 66.4059271388465 110.20697788266641 H 0.0 **** 0.06
10240 H 44.75882813582383 65.75842334765815 110.3589512707914 H 0.0 **** 0.06
10241 C 73.3692180249182 129.91359355989442 41.77071838839514 C 0.0 **** -0.24
10242 H 74.11104292656557 129.14465278968294 41.98448122693014 H 0.0 **** 0.06
10243 H 73.86844699802188 130.87230565906174 41.63222580358166 H 0.0 **** 0.06
10244 H 72.67036993567925 129.98521236851076 42.60413111042513 H 0.0 **** 0.06
10245 H 72.82515906887257 129.65168260574006 40.86317324910347 H 0.0 **** 0.06
10246 C 141.04897964357423 31.517154983584355 13.557930956413308 C 0.0 **** -0.24
10247 H 141.0174789061836 31.391605512973904 12.476118740024255 H 0.0 **** 0.06
10248 H 141.9076601188772 30.979658096944128 13.960852319492624 H 0.0 **** 0.06
10249 H 140.1323972292308 31.12137387966527 13.99621589936568 H 0.0 **** 0.06
10250 H 141.13677696443673 32.5768285352776 13.797695977643485 H 0.0 **** 0.06
10251 C 78.90332647913452 8.666792499091741 106.15319130965328 C 0.0 **** -0.24
10252 H 79.53715338208323 8.892253942484388 105.29463710797582 H 0.0 **** 0.06
10253 H 79.37928277274825 9.036530861869778 107.0628351438247 H 0.0 **** 0.06
10254 H 78.76402068639834 7.588174759459662 106.22851960293464 H 0.0 **** 0.06
10255 H 77.93506345393413 9.150271219357705 106.02646843303954 H 0.0 **** 0.06
10256 C 114.44420717354319 129.15157802210487 34.12592380103456 C 0.0 **** -0.24
10257 H 113.70331292917967 129.35245492565076 33.35156930511695 H 0.0 **** 0.06
10258 H 114.08106824320288 129.5301237793101 35.08143513022111 H 0.0 **** 0.06
10259 H 115.38008612709598 129.6458469507333 33.86930070386927 H 0.0 **** 0.06
10260 H 114.60842704723018 128.0768653338199 34.19952487913591 H 0.0 **** 0.06
10261 C 8.192204849757992 102.65163699181414 5.435993196081938 C 0.0 **** -0.24
10262 H 7.67068474423607 101.7009896499494 5.328540627080031 H 0.0 **** 0.06
10263 H 7.686136113692548 103.26130620404939 6.185463410863406 H 0.0 **** 0.06
10264 H 8.190857308733385 103.17586173749669 4.4803414443379665 H 0.0 **** 0.06
10265 H 9.219752554216505 102.4696790944036 5.748986281418979 H 0.0 **** 0.06
10266 C 24.998335110753942 88.25172485808224 71.99317442507919 C 0.0 **** -0.24
10267 H 24.771195326479827 87.3489975638249 71.4267076576449 H 0.0 **** 0.06
10268 H 24.997702047284136 88.0218013675946 73.05873365133628 H 0.0 **** 0.06
10269 H 24.243123179171057 89.01013199306956 71.78352168378704 H 0.0 **** 0.06
10270 H 25.97919332416072 88.62649039477412 71.70124358140502 H 0.0 **** 0.06
10271 C 18.028279838212256 63.493461394307985 150.09726732334286 C 0.0 **** -0.24
10272 H 18.92766966054205 63.393941600522 149.4887515375133 H 0.0 **** 0.06
10273 H 17.752433484641244 62.51793204994898 150.49993718418378 H 0.0 **** 0.06
10274 H 17.21414933106678 63.87670909381113 149.48236539691896 H 0.0 **** 0.06
10275 H 18.220142023720882 64.18350049307915 150.91853317161522 H 0.0 **** 0.06
10276 C 8.472505887144507 100.86267796830555 31.244041286363426 C 0.0 **** -0.24
10277 H 8.45571390638085 101.14375979434772 32.296548138399636 H 0.0 **** 0.06
10278 H 7.627580659022158 101.32071267101395 30.7317072366276 H 0.0 **** 0.06
10279 H 8.406074256187793 99.77797090343773 31.15731697247442 H 0.0 **** 0.06
10280 H 9.403697979941342 101.2063217000553 30.791566974479345 H 0.0 **** 0.06
10281 C 127.84474053833111 49.00288722163094 70.08553917237658 C 0.0 **** -0.24
10282 H 126.75632116580584 49.0217291007653 70.03303285548552 H 0.0 **** 0.06
10283 H 128.20511858147853 49.94776716890763 70.49327591210914 H 0.0 **** 0.06
10284 H 128.2552956598351 48.857900290035246 69.08701080262146 H 0.0 **** 0.06
10285 H 128.1625801270401 48.18403740305138 70.73164107629974 H 0.0 **** 0.06
10286 C 121.53663301687749 50.57016132606667 143.41942177835773 C 0.0 **** -0.24
10287 H 122.34527200654782 50.68413305242876 144.14109905256146 H 0.0 **** 0.06
10288 H 121.27494739418756 49.5155064727294 143.33122052532536 H 0.0 **** 0.06
10289 H 121.85946534399108 50.94770728575007 142.44989665560612 H 0.0 **** 0.06
10290 H 120.66703351951395 51.13330594446606 143.75791331121764 H 0.0 **** 0.06
10291 C 112.16581383211131 122.69079519386179 50.11251128047064 C 0.0 **** -0.24
10292 H 113.07733716192617 123.270660925286 50.25929561920549 H 0.0 **** 0.06
10293 H 112.42727640575465 121.6652001802945 49.84967882354164 H 0.0 **** 0.06
10294 H 111.57912553884664 123.13456515034397 49.30889152866234 H 0.0 **** 0.06
10295 H 111.58170596243663 122.6927974182031 51.03263010381016 H 0.0 **** 0.06
10296 C 144.78710876504994 99.68849356016945 86.43373193499767 C 0.0 **** -0.24
10297 H 144.94979074151507 100.47632189364363 85.69815748870276 H 0.0 **** 0.06
10298 H 145.46874843279718 98.86060954669209 86.23540106100168 H 0.0 **** 0.06
10299 H 143.75732321084115 99.33645347082586 86.36575261087266 H 0.0 **** 0.06
10300 H 144.97218962452615 100.08065695892286 87.43365473620852 H 0.0 **** 0.06
10301 C 145.4949959154352 78.18435251642626 87.35170214830396 C 0.0 **** -0.24
10302 H 145.5802186375752 77.86250853363705 86.3141057969716 H 0.0 **** 0.06
10303 H 144.5199791381173 78.64758378122767 87.50905147969098 H 0.0 **** 0.06
10304 H 146.28110737097606 78.90564529833212 87.57405807796164 H 0.0 **** 0.06
10305 H 145.59667756369163 77.32068667717061 88.00858099560969 H 0.0 **** 0.06
10306 C 128.38032986401777 5.577488616387889 125.13787070500808 C 0.0 **** -0.24
10307 H 128.431699228522 4.838746702296987 125.9378702380011 H 0.0 **** 0.06
10308 H 127.94553207233338 5.120642027652785 124.24930854078718 H 0.0 **** 0.06
10309 H 129.38349601545724 5.935618123738827 124.9088672877458 H 0.0 **** 0.06
10310 H 127.75941812883667 6.414659278017737 125.45667718068165 H 0.0 **** 0.06
10311 C 136.68976826756972 101.5488866271336 17.360246124045005 C 0.0 **** -0.24
10312 H 136.91562393403046 102.57365071186835 17.066383162309478 H 0.0 **** 0.06
10313 H 137.59568544983426 100.94562894819087 17.300489072870164 H 0.0 **** 0.06
10314 H 135.9345071954271 101.13762820314413 16.69034545995447 H 0.0 **** 0.06
10315 H 136.3121484875869 101.53925031621453 18.38313572870848 H 0.0 **** 0.06
10316 C 11.872615950628187 72.85573455884737 85.1453510659302 C 0.0 **** -0.24
10317 H 11.241923959849515 73.17976254899216 84.31746873903937 H 0.0 **** 0.06
10318 H 12.861160886220688 73.30533375318657 85.04601233985915 H 0.0 **** 0.06
10319 H 11.963792877598735 71.76948561530607 85.12902056680466 H 0.0 **** 0.06
10320 H 11.42383234868646 73.1690442366748 86.08769175715427 H 0.0 **** 0.06
10321 C 44.320763812326234 31.186279753899015 59.2485563189143 C 0.0 **** -0.24
10322 H 44.78120279249784 30.233869514229156 59.512176059603746 H 0.0 **** 0.06
10323 H 43.657530096026065 31.044702395617577 58.39475096262031 H 0.0 **** 0.06
10324 H 45.097360393071256 31.90603852613137 58.99067123359177 H 0.0 **** 0.06
10325 H 43.74678520461997 31.55829941280993 60.096924508620205 H 0.0 **** 0.06
10326 C 45.31201122223075 34.93129093028918 28.967274873629833 C 0.0 **** -0.24
10327 H 46.327675556911345 34.56536678375126 29.123365250742523 H 0.0 **** 0.06
10328 H 44.878096362510774 34.43817923955034 28.09737808206546 H 0.0 **** 0.06
10329 H 45.335704806772355 36.0090407953456 28.80139068808714 H 0.0 **** 0.06
10330 H 44.708650960183235 34.71300148694458 29.848182797787302 H 0.0 **** 0.06
10331 C 145.15614574505355 122.22207251295724 50.44782037792072 C 0.0 **** -0.24
10332 H 146.15874547073724 121.95462220641032 50.782764882865195 H 0.0 **** 0.06
10333 H 144.48108045993865 122.24069094427658 51.30444861905596 H 0.0 **** 0.06
10334 H 144.80732674413417 121.48553583621022 49.72479917421191 H 0.0 **** 0.06
10335 H 145.17957059013764 123.20741621132926 49.98180239462829 H 0.0 **** 0.06
10336 C 100.58268833065118 113.03204357335221 43.46731976424138 C 0.0 **** -0.24
10337 H 101.01325623100432 112.71824595926512 44.417952182153826 H 0.0 **** 0.06
10338 H 101.36758489818895 113.437012552606 42.82805597259748 H 0.0 **** 0.06
10339 H 99.82805744216351 113.79766979044399 43.64608881323112 H 0.0 **** 0.06
10340 H 100.12018187471567 112.17511762923954 42.977612327279076 H 0.0 **** 0.06
10341 C 97.90037407602122 35.06158807656696 57.664393331861504 C 0.0 **** -0.24
10342 H 98.94948434567195 34.87820363067712 57.431375150003504 H 0.0 **** 0.06
10343 H 97.77225461285883 35.109653371634266 58.74631746974043 H 0.0 **** 0.06
10344 H 97.29215192723619 34.25220488646559 57.26209456156435 H 0.0 **** 0.06
10345 H 97.58973021846539 36.006573063412034 57.218971697028636 H 0.0 **** 0.06
10346 C 31.70159084186548 71.00254252007441 55.178320046812885 C 0.0 **** -0.24
10347 H 30.930177245665448 70.24580409744503 55.3194287972744 H 0.0 **** 0.06
10348 H 32.53021784517114 70.57477300990806 54.61441917779442 H 0.0 **** 0.06
10349 H 32.05964087106588 71.34280099633405 56.15003452150492 H 0.0 **** 0.06
10350 H 31.28429486620047 71.84693319527834 54.62847627666075 H 0.0 **** 0.06
10351 C 86.76999892141775 31.43325314863 96.62973428843596 C 0.0 **** -0.24
10352 H 86.52958733405707 30.431961916517167 96.27169403427087 H 0.0 **** 0.06
10353 H 85.88604432362594 32.06680206209958 96.55613594079442 H 0.0 **** 0.06
10354 H 87.57040357010713 31.85352320497381 96.02060609504603 H 0.0 **** 0.06
10355 H 87.09379524744855 31.37941547709525 97.66843784003068 H 0.0 **** 0.06
10356 C 116.25427035848749 21.269614186569527 12.349203567540826 C 0.0 **** -0.24
10357 H 115.86609108569097 21.714405120330184 13.265900667464336 H 0.0 **** 0.06
10358 H 115.57257105694516 20.49091343819623 12.005523609277304 H 0.0 **** 0.06
10359 H 117.23492375437827 20.8343189994398 12.544893966838117 H 0.0 **** 0.06
10360 H 116.34435671704635 22.039120125950546 11.582537586796406 H 0.0 **** 0.06
10361 C 103.2755078989074 79.37818826938897 65.82977609108868 C 0.0 **** -0.24
10362 H 103.04013640777428 80.31872805487417 66.3278943955804 H 0.0 **** 0.06
10363 H 104.2523914424561 79.4535210894008 65.35183761242533 H 0.0 **** 0.06
10364 H 102.51655906574693 79.16637185698754 65.07641883361765 H 0.0 **** 0.06
10365 H 103.29193630909337 78.57264448383418 66.56428409412747 H 0.0 **** 0.06
10366 C 49.49952807305874 1.9137207064575819 33.76367109439107 C 0.0 **** -0.24
10367 H 49.483945392086184 1.0055507270531052 33.16091563233982 H 0.0 **** 0.06
10368 H 48.52905626278584 2.0466233294170024 34.24369201874458 H 0.0 **** 0.06
10369 H 49.70860485488805 2.769830785721524 33.12311347395416 H 0.0 **** 0.06
10370 H 50.2745689464395 1.8311891893351344 34.52541504940004 H 0.0 **** 0.06
10371 C 76.24870037685506 111.58412623602781 101.60627254804182 C 0.0 **** -0.24
10372 H 75.7002947612456 112.4063412938503 102.06704405637832 H 0.0 **** 0.06
10373 H 76.85358862932921 111.967814499304 100.78366739093035 H 0.0 **** 0.06
10374 H 75.54382584797062 110.84552543219145 101.22683432484503 H 0.0 **** 0.06
10375 H 76.89825998130866 111.12049527829647 102.34901297427736 H 0.0 **** 0.06
10376 C 75.96457987900267 148.9975743538842 80.94063765705634 C 0.0 **** -0.24
10377 H 76.52024308247353 148.6833432285856 81.82480331612925 H 0.0 **** 0.06
10378 H 76.02427158103136 150.0817569874689 80.84080971806571 H 0.0 **** 0.06
10379 H 74.92125731113319 148.69743391066095 81.04284546360881 H 0.0 **** 0.06
10380 H 76.39330286072403 148.52605398644488 80.05621534460306 H 0.0 **** 0.06
10381 C 125.13931563418528 49.25642875414688 80.43713360025043 C 0.0 **** -0.24
10382 H 124.0980583735372 49.35277038483805 80.74753871504348 H 0.0 **** 0.06
10383 H 125.27947525237404 48.30080301294535 79.93076275444929 H 0.0 **** 0.06
10384 H 125.78549520802413 49.301031744058974 81.31370145068269 H 0.0 **** 0.06
10385 H 125.3918991340512 50.06884090434511 79.75716545251356 H 0.0 **** 0.06
10386 C 89.2227008837856 104.30171580506179 88.3913748550301 C 0.0 **** -0.24
10387 H 90.04205908821008 103.9693484964286 87.75390110743237 H 0.0 **** 0.06
10388 H 89.3482611361529 103.88445466311306 89.39154259198463 H 0.0 **** 0.06
10389 H 88.275324499301 103.96254621494144 87.97201980669782 H 0.0 **** 0.06
10390 H 89.22657055633829 105.39054143672 88.44811516228032 H 0.0 **** 0.06
10391 C 7.515415979077602 117.15564852101683 87.49705085111839 C 0.0 **** -0.24
10392 H 6.960184517585695 117.5374498184391 88.35415672759007 H 0.0 **** 0.06
10393 H 8.113368195763549 117.9586933872961 87.06536024132447 H 0.0 **** 0.06
10394 H 6.815769439297718 116.78023661621974 86.7498632491276 H 0.0 **** 0.06
10395 H 8.17058748785766 116.34678212787837 87.82008817956057 H 0.0 **** 0.06
10396 C 114.79382297378605 80.59518904870401 37.572886617147674 C 0.0 **** -0.24
10397 H 114.36901350067991 81.59779945719322 37.53021423504657 H 0.0 **** 0.06
10398 H 115.57661634270302 80.50060174869043 36.819603476918985 H 0.0 **** 0.06
10399 H 114.01212821104112 79.86098089255961 37.379259821330834 H 0.0 **** 0.06
10400 H 115.21752051416338 80.42219920589002 38.56190409085781 H 0.0 **** 0.06
10401 C 148.0997647772901 76.72013191776279 147.14236238461564 C 0.0 **** -0.24
10402 H 148.42837924365642 76.55898935554285 148.16910786432615 H 0.0 **** 0.06
10403 H 147.8386107675223 77.7699118060309 147.00572612776068 H 0.0 **** 0.06
10404 H 147.2269573929482 76.09917779937615 146.93912128963103 H 0.0 **** 0.06
10405 H 148.9037687573411 76.45261508947048 146.45797801796468 H 0.0 **** 0.06
10406 C 125.0509536674735 138.66750159800824 13.511251850999912 C 0.0 **** -0.24
10407 H 124.22655934935784 138.06602254378384 13.125694215483236 H 0.0 **** 0.06
10408 H 125.99483346994646 138.26809925704333 13.140785461523336 H 0.0 **** 0.06
10409 H 125.04443735385797 138.63597405198078 14.600596245451868 H 0.0 **** 0.06
10410 H 124.93513637001189 139.6979986094085 13.176437107337904 H 0.0 **** 0.06
10411 C 60.075871055480945 36.24922563574302 108.81427733564591 C 0.0 **** -0.24
10412 H 60.60819464237994 36.44935463186346 109.74382541646095 H 0.0 **** 0.06
10413 H 59.88957756125416 37.188434725998036 108.29170030920794 H 0.0 **** 0.06
10414 H 59.125734805387054 35.76350761681499 109.03702784587729 H 0.0 **** 0.06
10415 H 60.67923909775169 35.59579036240842 108.18336367110074 H 0.0 **** 0.06
10416 C 60.75933192918633 35.56790924667166 16.002633329196556 C 0.0 **** -0.24
10417 H 61.039233770842586 35.22895217271764 15.004957656385983 H 0.0 **** 0.06
10418 H 61.63826536643448 35.96309817940477 16.511150157715207 H 0.0 **** 0.06
10419 H 60.35632580302817 34.72987291488238 16.571112733365567 H 0.0 **** 0.06
10420 H 60.00354300323201 36.34970997088135 15.921077029956336 H 0.0 **** 0.06
10421 C 0.0021824499238789485 68.99130792130694 28.749208359132638 C 0.0 **** -0.24
10422 H -0.11698640341396072 67.96746387529811 29.104047524933378 H 0.0 **** 0.06
10423 H 0.9024368649512553 69.06169519700133 28.138199102555973 H 0.0 **** 0.06
10424 H 0.08875800038669013 69.66331600189936 29.603160636480766 H 0.0 **** 0.06
10425 H -0.8654030812753888 69.27139513559273 28.15180132220462 H 0.0 **** 0.06
10426 C 143.47995607814664 107.71073919049212 135.49894258416478 C 0.0 **** -0.24
10427 H 144.5681909872344 107.76121964033888 135.46624441263376 H 0.0 **** 0.06
10428 H 143.1592541993459 107.42534594982072 136.5001341882081 H 0.0 **** 0.06
10429 H 143.12987234748388 106.9708357740256 134.77923432144607 H 0.0 **** 0.06
10430 H 143.06365049601254 108.68649964865256 135.24820792831173 H 0.0 **** 0.06
10431 C 23.118539342652753 145.22224539167655 110.86501771452897 C 0.0 **** -0.24
10432 H 22.37222442694366 144.97823350972396 111.62060483562003 H 0.0 **** 0.06
10433 H 23.280276920464473 144.35741959476454 110.22090204467013 H 0.0 **** 0.06
10434 H 24.05446640846256 145.49272999254487 111.3529944058454 H 0.0 **** 0.06
10435 H 22.766996328988682 146.0617773910029 110.2643154257511 H 0.0 **** 0.06
10436 C 143.38522939609624 7.334214418834179 115.69480789238123 C 0.0 **** -0.24
10437 H 144.3025768458582 7.917862077573879 115.77566429392455 H 0.0 **** 0.06
10438 H 142.67636310106587 7.85974384377586 115.05462113550023 H 0.0 **** 0.06
10439 H 142.95210484176766 7.201038300252819 116.68601922412206 H 0.0 **** 0.06
10440 H 143.611902884645 6.359149194045088 115.26298428902128 H 0.0 **** 0.06
10441 C 112.61593245636827 64.65291364018168 79.91074316658728 C 0.0 **** -0.24
10442 H 113.05228129231533 65.51038502155706 80.42207883192003 H 0.0 **** 0.06
10443 H 113.03423517604553 64.57703312321775 78.9068773063874 H 0.0 **** 0.06
10444 H 111.53555932303611 64.78021393803272 79.8449846228217 H 0.0 **** 0.06
10445 H 112.84087931069111 63.744018223013455 80.46839959349137 H 0.0 **** 0.06
10446 C 58.78094528394949 104.51061508439176 22.994221047177803 C 0.0 **** -0.24
10447 H 58.78584777983757 105.59535250011953 23.099065510587366 H 0.0 **** 0.06
10448 H 57.85867273225422 104.19700343167813 22.505638681476768 H 0.0 **** 0.06
10449 H 58.84646661949074 104.04968489068455 23.97912862637503 H 0.0 **** 0.06
10450 H 59.63506732856666 104.20137989878839 22.39062031080502 H 0.0 **** 0.06
10451 C 91.74302318243096 39.25810833448435 154.08469936368675 C 0.0 **** -0.24
10452 H 91.53446888380734 40.008309325940104 153.3223639868106 H 0.0 **** 0.06
10453 H 92.26190337579163 39.725420810102776 154.92157573576804 H 0.0 **** 0.06
10454 H 92.36860316387367 38.4737673714954 153.66006355370226 H 0.0 **** 0.06
10455 H 90.80474640155444 38.82645135225408 154.4345073600142 H 0.0 **** 0.06
10456 C 17.553653396542416 1.3418769470042236 79.06204412756412 C 0.0 **** -0.24
10457 H 16.562270100068588 0.8960860641629473 78.992350047402 H 0.0 **** 0.06
10458 H 17.588951260110576 2.2468087056193973 78.45477378338842 H 0.0 **** 0.06
10459 H 18.29775008943932 0.6314456922969924 78.69964066736662 H 0.0 **** 0.06
10460 H 17.767590863352552 1.5927823312153855 80.10117883165896 H 0.0 **** 0.06
10461 C 118.44123979331579 69.14772592623802 4.0943362501502065 C 0.0 **** -0.24
10462 H 118.5706784698989 69.18249578200692 5.17594817173574 H 0.0 **** 0.06
10463 H 118.8749268472115 68.22439669529297 3.7067353842369357 H 0.0 **** 0.06
10464 H 118.94093869545333 70.00278368773732 3.640831178203257 H 0.0 **** 0.06
10465 H 117.37801667815614 69.17733132345478 3.8551191660729387 H 0.0 **** 0.06
10466 C 26.598127664015685 126.9610186693277 136.44004762680612 C 0.0 **** -0.24
10467 H 25.77110255030179 126.6885552051761 137.09560524327833 H 0.0 **** 0.06
10468 H 27.126418943984774 126.05998559400956 136.12788997228085 H 0.0 **** 0.06
10469 H 27.28434677731682 127.61863559630757 136.9735661115725 H 0.0 **** 0.06
10470 H 26.209373673041497 127.47712275955422 135.5613015740542 H 0.0 **** 0.06
10471 C 134.39775158457925 121.78176813905736 98.21587161316936 C 0.0 **** -0.24
10472 H 134.0146010701854 120.79020158873948 97.97582346099529 H 0.0 **** 0.06
10473 H 133.84470900964573 122.18992564433046 99.06146904228953 H 0.0 **** 0.06
10474 H 134.27599598161422 122.43594695622335 97.351793861008 H 0.0 **** 0.06
10475 H 135.45423395847058 121.71095902021437 98.47178309485606 H 0.0 **** 0.06
10476 C 66.33232732468468 103.60262324024914 140.7711694557197 C 0.0 **** -0.24
10477 H 67.03514813797824 102.7942927550176 140.56896805458564 H 0.0 **** 0.06
10478 H 65.36990129258498 103.36953260413382 140.3146647042538 H 0.0 **** 0.06
10479 H 66.71828223187163 104.53189317348212 140.35174499024305 H 0.0 **** 0.06
10480 H 66.20785048245364 103.71375377353137 141.84862860245596 H 0.0 **** 0.06
10481 C 10.49292549900946 9.010613102983825 81.92805586576625 C 0.0 **** -0.24
10482 H 11.047886372244989 8.694267047439212 81.04530151281489 H 0.0 **** 0.06
10483 H 10.076916647125444 10.004433405448708 81.75916077831326 H 0.0 **** 0.06
10484 H 11.163445853077206 9.037895501984337 82.78707030178438 H 0.0 **** 0.06
10485 H 9.684445224802289 8.305765910576838 82.12060386976158 H 0.0 **** 0.06
10486 C 70.33146602523126 114.7817998937166 66.73945084674622 C 0.0 **** -0.24
10487 H 71.20294116258941 114.2357451420998 66.38080909709868 H 0.0 **** 0.06
10488 H 69.95563869815109 115.4279656516257 65.9457000496765 H 0.0 **** 0.06
10489 H 70.61238814365785 115.38873479248889 67.60011423083155 H 0.0 **** 0.06
10490 H 69.55361735341313 114.07531334199007 67.03095196334809 H 0.0 **** 0.06
10491 C 105.55312335415982 152.10751446802618 24.532804333197248 C 0.0 **** -0.24
10492 H 106.14952721816707 153.01656912103823 24.461989736950613 H 0.0 **** 0.06
10493 H 105.35808872282865 151.7220225792987 23.531517559249835 H 0.0 **** 0.06
10494 H 104.60607824756016 152.33109937201772 25.026621215946705 H 0.0 **** 0.06
10495 H 106.09646203092393 151.36029257388384 25.11181833778096 H 0.0 **** 0.06
10496 C 118.63796040514804 23.265490764129765 126.89964814178565 C 0.0 **** -0.24
10497 H 118.47165154840407 22.985723631638507 127.94036155884571 H 0.0 **** 0.06
10498 H 119.62749583207635 22.930003905924252 126.58784707452911 H 0.0 **** 0.06
10499 H 118.57349360400367 24.34873310356167 126.80146103641879 H 0.0 **** 0.06
10500 H 117.87986522963406 22.79728201852572 126.27184009353901 H 0.0 **** 0.06
10501 C 154.49357504654412 25.78048467946593 65.24720831797802 C 0.0 **** -0.24
10502 H 153.4790248816812 25.42366244668372 65.07187861554607 H 0.0 **** 0.06
10503 H 154.45686799779142 26.784250906536045 65.67347901408131 H 0.0 **** 0.06
10504 H 155.03813552596714 25.80537326654766 64.30370681325536 H 0.0 **** 0.06
10505 H 155.00027179147258 25.109110039463815 65.94110687043482 H 0.0 **** 0.06
10506 C 144.85035541889084 52.12916169654571 22.79415747602178 C 0.0 **** -0.24
10507 H 144.52059025063167 51.6841439471895 21.85656602194166 H 0.0 **** 0.06
10508 H 144.36514131445776 51.62142629716233 23.627716535954818 H 0.0 **** 0.06
10509 H 144.58370528065447 53.18620136153058 22.808318650337498 H 0.0 **** 0.06
10510 H 145.93200732170922 52.02690810566871 22.884959755093917 H 0.0 **** 0.06
10511 C 147.97981329271957 46.11356939723902 84.72123643517541 C 0.0 **** -0.24
10512 H 147.15844802196077 46.3263350918844 85.40504818041074 H 0.0 **** 0.06
10513 H 148.65243981915066 45.38784472500478 85.17682164147395 H 0.0 **** 0.06
10514 H 148.52477420692475 47.03356577674725 84.5113986117473 H 0.0 **** 0.06
10515 H 147.58079506250286 45.706809918134525 83.79135316838824 H 0.0 **** 0.06
10516 C 149.98421773997043 130.1520242086184 51.000610362717396 C 0.0 **** -0.24
10517 H 149.39677420696367 130.68030644907253 50.24844834548014 H 0.0 **** 0.06
10518 H 150.13205724696988 129.11900662896977 50.68592507813969 H 0.0 **** 0.06
10519 H 149.45500617467985 130.17060575059588 51.95247719326471 H 0.0 **** 0.06
10520 H 150.9526895338148 130.640722728637 51.11305970531973 H 0.0 **** 0.06
10521 C 87.14955487642084 112.20417515397588 41.463839071389316 C 0.0 **** -0.24
10522 H 87.14244422410297 112.29612442436007 42.55029729296341 H 0.0 **** 0.06
10523 H 86.63895533122547 113.06174537946117 41.023801415938436 H 0.0 **** 0.06
10524 H 86.63542138405444 111.28773665558128 41.17437940621015 H 0.0 **** 0.06
10525 H 88.17870553840902 112.17167604223152 41.10843037380491 H 0.0 **** 0.06
10526 C 156.76911445315238 58.912767505606894 23.231345747152545 C 0.0 **** -0.24
10527 H 156.19559827102333 59.71505500649329 23.695351801899278 H 0.0 **** 0.06
10528 H 157.38892300392558 59.324127647881994 22.43446879664043 H 0.0 **** 0.06
10529 H 156.08687749190986 58.171692647521155 22.816427186468104 H 0.0 **** 0.06
10530 H 157.4058874005678 58.44211249393098 23.980414331735403 H 0.0 **** 0.06
10531 C 149.09734595971435 98.10850043332493 7.931483054135015 C 0.0 **** -0.24
10532 H 148.38281347196522 97.83844011557545 7.154469288671265 H 0.0 **** 0.06
10533 H 150.08480376329567 98.23865236860718 7.487702411620347 H 0.0 **** 0.06
10534 H 149.1370572798363 97.31628075674445 8.67920203323655 H 0.0 **** 0.06
10535 H 148.78546773485755 99.03945281044639 8.403537364867418 H 0.0 **** 0.06
10536 C 115.40760611195451 60.11108805235898 122.5940192451061 C 0.0 **** -0.24
10537 H 116.04591813281174 59.96080406171137 121.72347450192638 H 0.0 **** 0.06
10538 H 115.95340599174405 60.67358915486062 123.35128713748242 H 0.0 **** 0.06
10539 H 115.114956992942 59.1428556260002 123.0008498608322 H 0.0 **** 0.06
10540 H 114.51676900725353 60.66569195411279 122.29968027952748 H 0.0 **** 0.06
10541 C 60.767616379742876 48.63456782830448 136.65209354803096 C 0.0 **** -0.24
10542 H 61.824933041748636 48.37872351523933 136.59438055705863 H 0.0 **** 0.06
10543 H 60.6173593769261 49.385616274758476 137.42816104654435 H 0.0 **** 0.06
10544 H 60.18995445289033 47.742314552315634 136.89394984291772 H 0.0 **** 0.06
10545 H 60.436859394865465 49.031962410266416 135.69206486994653 H 0.0 **** 0.06
10546 C 92.9718438698073 39.67813878172721 48.17455966019293 C 0.0 **** -0.24
10547 H 93.40804337560463 40.66539509306034 48.32345091502327 H 0.0 **** 0.06
10548 H 92.94771411387795 39.14403428379924 49.124813749905115 H 0.0 **** 0.06
10549 H 93.57337774917022 39.11902681879627 47.45813837132522 H 0.0 **** 0.06
10550 H 91.95612691583543 39.78363386646325 47.79239928530478 H 0.0 **** 0.06
10551 C 133.81050937554716 79.67834036101289 21.413546162792755 C 0.0 **** -0.24
10552 H 134.20849671894376 80.43577400480842 22.088798722669992 H 0.0 **** 0.06
10553 H 134.63223010162744 79.19911751181291 20.88095608197935 H 0.0 **** 0.06
10554 H 133.13665668885767 80.1479185274058 20.697527625279974 H 0.0 **** 0.06
10555 H 133.26489447513393 78.9304608427037 21.989123511485616 H 0.0 **** 0.06
10556 C 49.41669644384956 99.09559985866633 99.17166163548484 C 0.0 **** -0.24
10557 H 48.85048103852802 99.36373891538 98.27920140623092 H 0.0 **** 0.06
10558 H 50.114076830889445 98.29317266122257 98.93123106863402 H 0.0 **** 0.06
10559 H 48.73083070091346 98.7614164848606 99.94947221211817 H 0.0 **** 0.06
10560 H 49.97125329683024 99.96531071296454 99.52463388847877 H 0.0 **** 0.06
10561 C 116.96952865644984 143.27428486848586 36.5434386249396 C 0.0 **** -0.24
10562 H 116.7429674512003 143.48086530790945 37.58913370155503 H 0.0 **** 0.06
10563 H 116.1721934905952 143.67119672428075 35.913593132410085 H 0.0 **** 0.06
10564 H 117.04894907675789 142.19773991275838 36.39440169803305 H 0.0 **** 0.06
10565 H 117.91386325423183 143.7481452296907 36.27547370736832 H 0.0 **** 0.06
10566 C 50.218542259016544 44.00655998122099 145.5956008021534 C 0.0 **** -0.24
10567 H 49.71269739069818 43.09556472027633 145.91299680666393 H 0.0 **** 0.06
10568 H 50.84059330330274 44.379674468307144 146.40919944336187 H 0.0 **** 0.06
10569 H 49.47684333844171 44.76051821637127 145.32992920771017 H 0.0 **** 0.06
10570 H 50.84466305895698 43.79252415644726 144.72842369391452 H 0.0 **** 0.06
10571 C 31.426268308890975 120.2963373986977 146.3529700899486 C 0.0 **** -0.24
10572 H 32.00815006846813 120.55030731016068 147.2383742564366 H 0.0 **** 0.06
10573 H 31.250717055549707 121.19606141860736 145.7634837820599 H 0.0 **** 0.06
10574 H 30.4703058382875 119.86856081799566 146.65641637848938 H 0.0 **** 0.06
10575 H 31.975900273258723 119.570420048027 145.75360594280863 H 0.0 **** 0.06
10576 C 136.31927943734837 12.869556399832675 38.89630217060906 C 0.0 **** -0.24
10577 H 135.68399814749307 12.98773584796831 39.774509432290415 H 0.0 **** 0.06
10578 H 135.70363824899988 12.618080031294028 38.03277149422739 H 0.0 **** 0.06
10579 H 137.03919162309754 12.07068076666667 39.075220730734486 H 0.0 **** 0.06
10580 H 136.85121407801574 13.801796673344484 38.7049744443531 H 0.0 **** 0.06
10581 C 49.26772339735582 124.90829533807796 12.450668898888864 C 0.0 **** -0.24
10582 H 48.72058245987432 123.99905145203245 12.698818061851284 H 0.0 **** 0.06
10583 H 48.58865968075216 125.76088593821738 12.479882493501805 H 0.0 **** 0.06
10584 H 49.69099337100266 124.81511630920237 11.450584969422437 H 0.0 **** 0.06
10585 H 50.07022358557636 125.05764580159841 13.17262910532449 H 0.0 **** 0.06
10586 C 78.9580437525796 73.75874014405204 84.96750305620172 C 0.0 **** -0.24
10587 H 79.55829637326808 74.12836853346522 85.79955795422103 H 0.0 **** 0.06
10588 H 78.5853017028422 72.76189001595799 85.20413964502141 H 0.0 **** 0.06
10589 H 79.57307202945776 73.71354532249586 84.06865861929091 H 0.0 **** 0.06
10590 H 78.11798186220089 74.43147263098467 84.79959641798425 H 0.0 **** 0.06
10591 C 46.10237261954711 102.61321398308888 120.29996113275017 C 0.0 **** -0.24
10592 H 46.338458301545245 103.52004633754069 119.74166877467756 H 0.0 **** 0.06
10593 H 46.0279403770399 102.84865705194971 121.36132066311119 H 0.0 **** 0.06
10594 H 46.89012916922181 101.87569911550645 120.14401520439937 H 0.0 **** 0.06
10595 H 45.15168065561846 102.20917438811705 119.95004040997001 H 0.0 **** 0.06
10596 C 53.72314743191055 115.92630468598354 129.82990022270286 C 0.0 **** -0.24
10597 H 52.89469739198266 116.01969053261207 129.12787865680977 H 0.0 **** 0.06
10598 H 53.360883534392116 116.09692150534876 130.84446539664572 H 0.0 **** 0.06
10599 H 54.488247737941066 116.66496123396921 129.5878429048668 H 0.0 **** 0.06
10600 H 54.14898597404823 114.92586959958014 129.75946717196638 H 0.0 **** 0.06
10601 C 132.98645904922745 53.947410947488706 28.591479075318702 C 0.0 **** -0.24
10602 H 132.74526621117224 54.32729566136972 29.584847752111692 H 0.0 **** 0.06
10603 H 133.86496155776268 53.30290850877172 28.65315332332402 H 0.0 **** 0.06
10604 H 133.1949597605059 54.78382722499066 27.924393672937796 H 0.0 **** 0.06
10605 H 132.1425293773753 53.37559620721362 28.206430686587815 H 0.0 **** 0.06
10606 C 109.90040113519065 1.393703544235052 132.97880772035762 C 0.0 **** -0.24
10607 H 109.25099134469728 0.6475021107923098 132.52060685973106 H 0.0 **** 0.06
10608 H 110.86758838914126 0.9439956475097411 133.20383061184714 H 0.0 **** 0.06
10609 H 109.44407756128102 1.7549643337376999 133.90068847473134 H 0.0 **** 0.06
10610 H 110.03826067771767 2.227753775682544 132.29051807324987 H 0.0 **** 0.06
10611 C 68.43010760885478 77.46788293732601 16.96944228990489 C 0.0 **** -0.24
10612 H 68.9840870933259 77.4185028530818 16.031749362916145 H 0.0 **** 0.06
10613 H 67.36189696030524 77.51184858119095 16.757007112400203 H 0.0 **** 0.06
10614 H 68.72930805981422 78.35824449527513 17.521992776497143 H 0.0 **** 0.06
10615 H 68.64588484451208 76.58144386709597 17.565226314580798 H 0.0 **** 0.06
10616 C 118.64553701962474 39.64936730053836 100.71770984642201 C 0.0 **** -0.24
10617 H 119.39575687382784 39.16169477797439 101.3396859977682 H 0.0 **** 0.06
10618 H 117.74052600310215 39.04078865789498 100.69685742275423 H 0.0 **** 0.06
10619 H 119.03059582301533 39.76172631852262 99.70450018396026 H 0.0 **** 0.06
10620 H 118.41383060921386 40.63129739489679 101.12951207952726 H 0.0 **** 0.06
10621 C 106.23195979965386 123.95531240187101 80.69981134658047 C 0.0 **** -0.24
10622 H 106.80968191988926 124.75892902839759 80.2418711992974 H 0.0 **** 0.06
10623 H 106.83239742655623 123.47217616725352 81.47135897494206 H 0.0 **** 0.06
10624 H 105.9593202459261 123.22461612201671 79.93905760495312 H 0.0 **** 0.06
10625 H 105.32803508043826 124.36882239619395 81.14773464056708 H 0.0 **** 0.06
10626 C 88.07321700231648 104.222222033909 53.18925838318644 C 0.0 **** -0.24
10627 H 88.58375463083655 103.71528913598773 52.369512637786116 H 0.0 **** 0.06
10628 H 87.38526964528523 104.96497762968777 52.78435067002518 H 0.0 **** 0.06
10629 H 88.80798162632459 104.71605155658175 53.82500362692441 H 0.0 **** 0.06
10630 H 87.51593721582822 103.49222413642268 53.77679731674664 H 0.0 **** 0.06
10631 C 75.70720099577039 109.40571172801071 97.3474184226952 C 0.0 **** -0.24
10632 H 75.15253854266875 108.59425045820109 97.81787014219772 H 0.0 **** 0.06
10633 H 76.7765156895085 109.20931718694311 97.42793521354474 H 0.0 **** 0.06
10634 H 75.4715872343035 110.34518884552602 97.84753198657535 H 0.0 **** 0.06
10635 H 75.42891844229175 109.4737269496855 96.295197695846 H 0.0 **** 0.06
10636 C 15.195196280073958 63.23234762190803 53.91453259684877 C 0.0 **** -0.24
10637 H 15.999576453477118 63.95618410836033 53.781705773120876 H 0.0 **** 0.06
10638 H 15.123401730833535 62.96029028191451 54.96726950390061 H 0.0 **** 0.06
10639 H 15.407282047012956 62.342131157660674 53.32234263828802 H 0.0 **** 0.06
10640 H 14.253741227333563 63.671569990483135 53.587010514643566 H 0.0 **** 0.06
10641 C 139.1884313068141 54.818419397838625 46.1680241944849 C 0.0 **** -0.24
10642 H 138.24783467767114 54.80629011126388 45.61756027607069 H 0.0 **** 0.06
10643 H 140.0069032383121 55.04427932569121 45.48443977067021 H 0.0 **** 0.06
10644 H 139.35359289954994 53.84301581363218 46.62470147589596 H 0.0 **** 0.06
10645 H 139.1443113992203 55.58090497777488 46.94580363026756 H 0.0 **** 0.06
10646 C 79.3984918655085 101.25338899255225 85.80806982313061 C 0.0 **** -0.24
10647 H 78.65432465336471 100.8866990484609 86.51492646313568 H 0.0 **** 0.06
10648 H 79.15907302591177 100.89133160358882 84.80884977900826 H 0.0 **** 0.06
10649 H 80.38457961527502 100.89232626559517 86.09977570084652 H 0.0 **** 0.06
10650 H 79.39546444015195 102.3429662191097 85.81088826649113 H 0.0 **** 0.06
10651 C 47.0524188410493 138.05350872032915 115.78745337072445 C 0.0 **** -0.24
10652 H 47.527815052816266 137.572138463597 116.6418190854123 H 0.0 **** 0.06
10653 H 47.01739335130816 139.1306220466475 115.95088154642622 H 0.0 **** 0.06
10654 H 46.03952385196618 137.66881339914062 115.67174729037407 H 0.0 **** 0.06
10655 H 47.6275141557918 137.84091728781596 114.88544950173502 H 0.0 **** 0.06
10656 C 69.08030399505067 0.43356707450294607 47.808385387195415 C 0.0 **** -0.24
10657 H 69.20230648829249 1.3061244999868222 47.16595202106447 H 0.0 **** 0.06
10658 H 69.71842534353092 0.5371992514760677 48.68611267709616 H 0.0 **** 0.06
10659 H 69.36234713564203 -0.46477740304777626 47.25846487815966 H 0.0 **** 0.06
10660 H 68.04001048923978 0.3555341437562447 48.12233747638288 H 0.0 **** 0.06
10661 C 59.13763540442447 53.80085333540012 118.57305573366965 C 0.0 **** -0.24
10662 H 58.635968929241045 54.51408432302097 117.91985519599085 H 0.0 **** 0.06
10663 H 59.6247773276978 53.03501513755212 117.96853169757888 H 0.0 **** 0.06
10664 H 58.404333359011574 53.33299760719791 119.23042003136995 H 0.0 **** 0.06
10665 H 59.88482995977421 54.32054642278534 119.17350480649351 H 0.0 **** 0.06
10666 C 134.25525721032233 88.3955027461044 53.00402188867258 C 0.0 **** -0.24
10667 H 134.91613408213757 89.23834648363163 52.80317158277917 H 0.0 **** 0.06
10668 H 133.25652765443814 88.61924272072082 52.62635479218238 H 0.0 **** 0.06
10669 H 134.2065049923731 88.21945474169274 54.07865670848487 H 0.0 **** 0.06
10670 H 134.640429802515 87.5053407052942 52.506228456821546 H 0.0 **** 0.06
10671 C 18.650986798503993 25.835052512240964 148.91627083355186 C 0.0 **** -0.24
10672 H 18.425436753997417 26.82124338688638 149.32334139428582 H 0.0 **** 0.06
10673 H 17.825596647388977 25.50397171493836 148.28679069607418 H 0.0 **** 0.06
10674 H 18.79174516480606 25.128146638676014 149.73364579276858 H 0.0 **** 0.06
10675 H 19.563553589694493 25.888285723761243 148.32242173378557 H 0.0 **** 0.06
10676 C 17.35975043739124 129.15190255797054 73.80251069089928 C 0.0 **** -0.24
10677 H 17.14393171253232 129.05230403841242 74.86627668196887 H 0.0 **** 0.06
10678 H 16.45656801065882 129.4642678268062 73.27728012349112 H 0.0 **** 0.06
10679 H 17.695408044930552 128.19362342889815 73.40872307679481 H 0.0 **** 0.06
10680 H 18.140204205461103 129.89809831041345 73.6581900692909 H 0.0 **** 0.06
10681 C 141.9164899869985 59.499876829800755 147.0827876768151 C 0.0 **** -0.24
10682 H 141.1036655679286 59.74378379074628 146.3978653688252 H 0.0 **** 0.06
10683 H 142.54889086799596 60.3769517897512 147.22263520968818 H 0.0 **** 0.06
10684 H 142.51080637932648 58.68590724161736 146.6668006226629 H 0.0 **** 0.06
10685 H 141.50203421409003 59.19365381679516 148.04360429283045 H 0.0 **** 0.06
10686 C 53.336195729425924 31.69051201478723 47.100281281306934 C 0.0 **** -0.24
10687 H 52.77867926613892 30.975114157165848 46.49498961718439 H 0.0 **** 0.06
10688 H 52.8161423169644 31.851538124085806 48.0435265548698 H 0.0 **** 0.06
10689 H 53.416493116012646 32.63579204869694 46.56299394936764 H 0.0 **** 0.06
10690 H 54.33461650925166 31.298704030497106 47.29616936504203 H 0.0 **** 0.06
10691 C 116.43681274323133 139.38612238170475 28.83145141615661 C 0.0 **** -0.24
10692 H 116.09039861417016 140.4202979738413 28.826780891369758 H 0.0 **** 0.06
10693 H 115.83076181749449 138.8036576409952 29.525091639332892 H 0.0 **** 0.06
10694 H 117.48021832856885 139.35432486119498 29.1438843654496 H 0.0 **** 0.06
10695 H 116.3452871433103 138.96816624541657 27.828696999891683 H 0.0 **** 0.06
10696 C 0.20190188866570224 26.852366499342537 148.83843036015068 C 0.0 **** -0.24
10697 H 0.04137088743237882 27.41153560863384 147.91609885273928 H 0.0 **** 0.06
10698 H -0.7592246675564525 26.6460056455756 149.30873940079763 H 0.0 **** 0.06
10699 H 0.819257346475041 27.441267643151576 149.51715001403235 H 0.0 **** 0.06
10700 H 0.7055462233245464 25.913587663347528 148.61074349165156 H 0.0 **** 0.06
10701 C 77.64805766854602 111.40593146286005 60.8453221841944 C 0.0 **** -0.24
10702 H 78.1362521491593 111.24337116947811 59.88524514599402 H 0.0 **** 0.06
10703 H 76.83607018399744 110.68813196930455 60.96666847191614 H 0.0 **** 0.06
10704 H 77.24614221333843 112.41851132700316 60.881525204749835 H 0.0 **** 0.06
10705 H 78.3732992800604 111.27408907090972 61.6486495638469 H 0.0 **** 0.06
10706 C 83.63250271946725 73.11831733935614 141.48293264313045 C 0.0 **** -0.24
10707 H 83.66481591574242 74.20767955364096 141.51871706506364 H 0.0 **** 0.06
10708 H 83.5629582352359 72.723215992164 142.49646812068852 H 0.0 **** 0.06
10709 H 84.54013012375879 72.74468218784187 141.00777690639882 H 0.0 **** 0.06
10710 H 82.76350379001167 72.80014439007161 140.90734295175722 H 0.0 **** 0.06
10711 C 34.82715075347781 117.12991181845199 70.37565600509006 C 0.0 **** -0.24
10712 H 34.77841966455247 118.16921773048252 70.05086042214411 H 0.0 **** 0.06
10713 H 34.03279794323814 116.56087375264029 69.89073227522312 H 0.0 **** 0.06
10714 H 34.6998978716629 117.08228782549664 71.45654234846108 H 0.0 **** 0.06
10715 H 35.79429777863845 116.70985130974692 70.10409866433483 H 0.0 **** 0.06
10716 C 127.93019885523059 1.8278895215874442 135.97504099849664 C 0.0 **** -0.24
10717 H 129.00448970960886 2.007547790124132 135.91882903769982 H 0.0 **** 0.06
10718 H 127.52559011310656 1.7298007349228541 134.96804794847694 H 0.0 **** 0.06
10719 H 127.44916210909243 2.664596752990981 136.481709856493 H 0.0 **** 0.06
10720 H 127.74499433710649 0.9094211881847691 136.53303465003683 H 0.0 **** 0.06
10721 C 128.0327166263038 111.40789476716922 119.68013372081516 C 0.0 **** -0.24
10722 H 128.9536449508197 111.99058697185659 119.65404744383001 H 0.0 **** 0.06
10723 H 128.17228172387058 110.53590234169882 120.31898148078012 H 0.0 **** 0.06
10724 H 127.77979660670123 111.08329327839697 118.67097912609366 H 0.0 **** 0.06
10725 H 127.22466375096 112.02398006370792 120.07647975382095 H 0.0 **** 0.06
10726 C 141.56941110521345 60.22169945829961 140.68534948123505 C 0.0 **** -0.24
10727 H 140.9314223843492 61.09072229313949 140.84308769284686 H 0.0 **** 0.06
10728 H 142.48236636395634 60.32940015226876 141.27069204285192 H 0.0 **** 0.06
10729 H 141.82224804149183 60.1442961652034 139.62743506246667 H 0.0 **** 0.06
10730 H 141.04058956810275 59.32109058613463 140.99836566722493 H 0.0 **** 0.06
10731 C 83.33667200629165 96.86160919855745 85.75885445993676 C 0.0 **** -0.24
10732 H 83.78534036376459 96.2002131572209 85.01826238327749 H 0.0 **** 0.06
10733 H 82.50264818999045 96.3534434110722 86.24290453826586 H 0.0 **** 0.06
10734 H 82.97704150068517 97.76536696165641 85.26746819750537 H 0.0 **** 0.06
10735 H 84.08394033068333 97.12825594513363 86.5070671803709 H 0.0 **** 0.06
10736 C 109.40541155855648 58.6772977086228 14.805725920527316 C 0.0 **** -0.24
10737 H 110.26324138078014 58.057391619301086 14.54719918797339 H 0.0 **** 0.06
10738 H 108.91942947129736 58.273465475227795 15.693827606902943 H 0.0 **** 0.06
10739 H 108.69854596380334 58.68279934148859 13.975776857537696 H 0.0 **** 0.06
10740 H 109.73921508725822 59.69540140784454 15.00538744383843 H 0.0 **** 0.06
10741 C 114.48237170943686 132.78506161986402 55.82972390285704 C 0.0 **** -0.24
10742 H 115.08233129908275 131.8980411703756 56.03446740763019 H 0.0 **** 0.06
10743 H 114.33831349706186 132.88501510165858 54.75370939617572 H 0.0 **** 0.06
10744 H 114.995244573828 133.66766193982522 56.2120833869795 H 0.0 **** 0.06
10745 H 113.51249234245647 132.6876133149021 56.31896981106753 H 0.0 **** 0.06
10746 C 19.10947575611071 38.80664561355874 62.494085896989716 C 0.0 **** -0.24
10747 H 18.562435841881666 39.723650766750495 62.27596313300447 H 0.0 **** 0.06
10748 H 19.416576956825665 38.80675573288971 63.54030983921581 H 0.0 **** 0.06
10749 H 19.99256304881952 38.75096927511953 61.85659339496294 H 0.0 **** 0.06
10750 H 18.468519351128414 37.94674878445102 62.30257359205551 H 0.0 **** 0.06
10751 C 88.48338218642613 21.026910030705096 42.4116445365935 C 0.0 **** -0.24
10752 H 89.41719170299766 21.547299428770117 42.19954002894178 H 0.0 **** 0.06
10753 H 88.6081556532726 20.401539455619172 43.29555001330459 H 0.0 **** 0.06
10754 H 88.21418157398153 20.403532501108288 41.55887483564287 H 0.0 **** 0.06
10755 H 87.69354045429367 21.7568374262666 42.5910873703655 H 0.0 **** 0.06
10756 C 118.94362470091924 18.49129192850927 147.72243177927055 C 0.0 **** -0.24
10757 H 119.95195208049832 18.415546806324755 147.3155924508679 H 0.0 **** 0.06
10758 H 118.56932398219875 17.49409506616587 147.95346652453964 H 0.0 **** 0.06
10759 H 118.29114603220329 18.96393536867714 146.98943561207903 H 0.0 **** 0.06
10760 H 118.96314255074164 19.09162197019407 148.63259747885206 H 0.0 **** 0.06
10761 C 131.04432314230957 95.02645860004131 65.74444913476225 C 0.0 **** -0.24
10762 H 129.9689891422482 95.20132522407675 65.7818005759375 H 0.0 **** 0.06
10763 H 131.23909296902366 93.95449585040801 65.77781454663364 H 0.0 **** 0.06
10764 H 131.52120929909813 95.5094716330266 66.59694995835895 H 0.0 **** 0.06
10765 H 131.44813370173782 95.44121001384651 64.8204994665063 H 0.0 **** 0.06
10766 C 32.22406694737871 111.34555179577511 121.0806642031099 C 0.0 **** -0.24
10767 H 32.41472929666347 110.5976889729828 121.85057896998399 H 0.0 **** 0.06
10768 H 31.63963682419388 110.89699049836618 120.2762539090017 H 0.0 **** 0.06
10769 H 33.17271185334529 111.70665819860382 120.68320894074185 H 0.0 **** 0.06
10770 H 31.670134800447705 112.17787268965294 121.5129704888904 H 0.0 **** 0.06
10771 C 87.8275262237417 57.49578289070898 8.000581985290154 C 0.0 **** -0.24
10772 H 88.09338100476714 58.10895978007022 7.139525652527411 H 0.0 **** 0.06
10773 H 87.17469927590061 56.68317396980841 7.680826750285306 H 0.0 **** 0.06
10774 H 87.30846953267205 58.110548457050896 8.736867368529445 H 0.0 **** 0.06
10775 H 88.73229737969174 57.08227953536786 8.445370451593803 H 0.0 **** 0.06
10776 C 85.7883499881542 79.7441452715473 41.45229770760304 C 0.0 **** -0.24
10777 H 86.17176504770237 79.87638860685064 40.439981402403546 H 0.0 **** 0.06
10778 H 86.56548147222495 79.30764591988131 42.08081635414264 H 0.0 **** 0.06
10779 H 84.92380218150332 79.0795328560855 41.428970680448586 H 0.0 **** 0.06
10780 H 85.49237205677485 80.71069406406943 41.857519991361514 H 0.0 **** 0.06
10781 C 71.1999117652262 2.260079579626506 23.00930582471392 C 0.0 **** -0.24
10782 H 72.15960246316031 2.7573909042928335 23.15352411402867 H 0.0 **** 0.06
10783 H 71.36599222158381 1.2020204418693936 22.804914439483554 H 0.0 **** 0.06
10784 H 70.6771557296816 2.7159501694877974 22.167995044148654 H 0.0 **** 0.06
10785 H 70.59767437333815 2.3654958754431163 23.91184070394371 H 0.0 **** 0.06
10786 C 148.2357452902649 106.16799064005913 81.77498967387959 C 0.0 **** -0.24
10787 H 148.3793161594539 105.57274566046736 82.67614807032942 H 0.0 **** 0.06
10788 H 149.20639073888992 106.45985031616682 81.37436390721271 H 0.0 **** 0.06
10789 H 147.65845955916055 107.06089019630069 82.01709971530408 H 0.0 **** 0.06
10790 H 147.69783383719664 105.578616874634 81.03221210624571 H 0.0 **** 0.06
10791 C 80.20201276486351 96.72769475056955 101.83072101469345 C 0.0 **** -0.24
10792 H 79.470330878402 97.15015281262917 102.518487278178 H 0.0 **** 0.06
10793 H 79.72055929408329 95.97530316406056 101.2056209070163 H 0.0 **** 0.06
10794 H 81.00979462078718 96.26646756133204 102.39771976208165 H 0.0 **** 0.06
10795 H 80.6062679058242 97.51921344848759 101.19942345047524 H 0.0 **** 0.06
10796 C 123.03946275014228 1.0338169373654864 75.9553389385764 C 0.0 **** -0.24
10797 H 122.4982074277632 1.6992011231365325 75.28273264059875 H 0.0 **** 0.06
10798 H 123.52886543261842 1.622831438273522 76.73158350872029 H 0.0 **** 0.06
10799 H 123.78836781296398 0.4782188421380056 75.39186347294802 H 0.0 **** 0.06
10800 H 122.33920255735218 0.3358588392603963 76.41520397911209 H 0.0 **** 0.06
10801 C 32.27461268878068 107.4949660472164 50.124813891214515 C 0.0 **** -0.24
10802 H 32.83119896238543 108.01779518880483 49.34713588976982 H 0.0 **** 0.06
10803 H 31.387992808007652 108.07231954103497 50.38771276104862 H 0.0 **** 0.06
10804 H 32.90536019557538 107.37562190229863 51.00629404473585 H 0.0 **** 0.06
10805 H 31.9731383568585 106.51303671371176 49.75859439743246 H 0.0 **** 0.06
10806 C 80.3294053010189 79.17469089166717 112.37883439553919 C 0.0 **** -0.24
10807 H 80.62764820815335 80.01327680483897 111.74940488088019 H 0.0 **** 0.06
10808 H 80.62908278188195 79.36826950057672 113.4085189987395 H 0.0 **** 0.06
10809 H 80.81405464680725 78.26482821467184 112.02391946044567 H 0.0 **** 0.06
10810 H 79.2475119208045 79.05157391519602 112.33255713389569 H 0.0 **** 0.06
10811 C 42.732784258602805 93.74866840795755 57.84310201977324 C 0.0 **** -0.24
10812 H 43.09137679033006 94.39952551637259 57.04561026761694 H 0.0 **** 0.06
10813 H 43.45712657793206 93.73724446145098 58.65705063197696 H 0.0 **** 0.06
10814 H 42.603512380559664 92.737538614073 57.45585529798444 H 0.0 **** 0.06
10815 H 41.77643741187933 94.11955163925884 58.21282628581335 H 0.0 **** 0.06
10816 C 105.40964723439488 130.26504144021868 101.50758977710713 C 0.0 **** -0.24
10817 H 105.93976925487253 131.02001619004656 102.08841371807121 H 0.0 **** 0.06
10818 H 106.12468232729829 129.53999767105813 101.11601846680604 H 0.0 **** 0.06
10819 H 104.8881689860769 130.74473497929392 100.67964823470881 H 0.0 **** 0.06
10820 H 104.6884124677244 129.7552696196024 102.14634855155423 H 0.0 **** 0.06
10821 C 140.70318825892366 74.05033559773216 100.67131240048907 C 0.0 **** -0.24
10822 H 140.8612886071492 73.6425745754097 99.67259175919828 H 0.0 **** 0.06
10823 H 141.53415833687643 74.70646190756526 100.9309153204825 H 0.0 **** 0.06
10824 H 140.64500595326592 73.23391420594055 101.39171411315901 H 0.0 **** 0.06
10825 H 139.77308058984013 74.61692738475588 100.68822650295253 H 0.0 **** 0.06
10826 C 65.02901573224636 124.12469582711867 45.17452391009951 C 0.0 **** -0.24
10827 H 64.39556645428678 123.43474308843639 44.618528544050406 H 0.0 **** 0.06
10828 H 64.7416428107772 124.11646450853164 46.225984667485704 H 0.0 **** 0.06
10829 H 64.90979754101926 125.13101530956692 44.77257390736594 H 0.0 **** 0.06
10830 H 66.07054790244348 123.817142083563 45.080347962688165 H 0.0 **** 0.06
10831 C 35.973929161935416 58.273333570172255 49.72144323507115 C 0.0 **** -0.24
10832 H 36.53333031784422 58.75239435234816 50.524570101335456 H 0.0 **** 0.06
10833 H 36.318055835479754 57.246353314499174 49.60008405933905 H 0.0 **** 0.06
10834 H 36.12985094431616 58.82147415965328 48.792714029571584 H 0.0 **** 0.06
10835 H 34.911776016304714 58.274225518826256 49.96907727146447 H 0.0 **** 0.06
10836 C 30.77803940687039 69.92374791367305 77.5936795510444 C 0.0 **** -0.24
10837 H 31.102500469868517 69.30522157862741 78.43032992831098 H 0.0 **** 0.06
10838 H 31.527175998197833 70.69111185961664 77.39671346928088 H 0.0 **** 0.06
10839 H 29.82816792952616 70.39816204730296 77.84057848444542 H 0.0 **** 0.06
10840 H 30.65375770282475 69.30032152644816 76.70838510245858 H 0.0 **** 0.06
10841 C 149.10652922872055 80.97777893425723 155.20675538959085 C 0.0 **** -0.24
10842 H 149.88237737047805 80.9568266703389 154.441504234126 H 0.0 **** 0.06
10843 H 148.32160209739178 81.67281334116728 154.9096321456936 H 0.0 **** 0.06
10844 H 149.53903741696323 81.30040546450203 156.15420749044273 H 0.0 **** 0.06
10845 H 148.6837966618821 79.97902166901139 155.32111365120784 H 0.0 **** 0.06
10846 C 8.009780943205755 103.15624883662137 119.03885250327147 C 0.0 **** -0.24
10847 H 7.2380962043852435 103.11865696471482 119.80774403410351 H 0.0 **** 0.06
10848 H 8.961207185393306 103.43774226873886 119.49228197714285 H 0.0 **** 0.06
10849 H 7.734895178354179 103.89243558623555 118.28355947819017 H 0.0 **** 0.06
10850 H 8.10531276289359 102.17500924491331 118.57254868783247 H 0.0 **** 0.06
10851 C 73.15897543940595 153.3536246943282 108.31063643207658 C 0.0 **** -0.24
10852 H 73.13125592629132 152.98548948431318 107.2848958324799 H 0.0 **** 0.06
10853 H 72.72493507356863 152.60710216613714 108.97633739419167 H 0.0 **** 0.06
10854 H 72.58722954378493 154.2793774350924 108.3788946193031 H 0.0 **** 0.06
10855 H 74.19289747634456 153.54283309197777 108.60076416784425 H 0.0 **** 0.06
10856 C 84.32773740010305 45.834321912760856 152.48416031087163 C 0.0 **** -0.24
10857 H 85.2641674869346 45.970472374904375 153.02456607956847 H 0.0 **** 0.06
10858 H 83.75918092622277 45.02410600442437 152.93974714312816 H 0.0 **** 0.06
10859 H 84.54142370236016 45.58839925120071 151.44373160256927 H 0.0 **** 0.06
10860 H 83.74638966505553 46.75588531732876 152.5267326546031 H 0.0 **** 0.06
10861 C 147.80639505494003 6.672341102864664 152.5287897591606 C 0.0 **** -0.24
10862 H 148.80401538781277 6.915281330095979 152.16527038759313 H 0.0 **** 0.06
10863 H 147.21452736697802 6.256346908193791 151.71310528556745 H 0.0 **** 0.06
10864 H 147.32506245772183 7.576783611290807 152.90237694940106 H 0.0 **** 0.06
10865 H 147.88042321803485 5.940553174565878 153.33374873812426 H 0.0 **** 0.06
10866 C 37.25493115390887 34.64289122299283 13.506895908470483 C 0.0 **** -0.24
10867 H 38.286066268349686 34.4354231965749 13.219937580569535 H 0.0 **** 0.06
10868 H 36.649540825856036 34.778047250258965 12.610661526874082 H 0.0 **** 0.06
10869 H 37.222087633686044 35.55170671110312 14.107985244857787 H 0.0 **** 0.06
10870 H 36.865266281636764 33.80752443430748 14.087888385454761 H 0.0 **** 0.06
10871 C 109.70158938688597 54.25563418063557 3.155140907422606 C 0.0 **** -0.24
10872 H 108.71385973804222 54.670276983834626 2.9496945369402283 H 0.0 **** 0.06
10873 H 110.32124578206124 55.01579119682833 3.6323724877443055 H 0.0 **** 0.06
10874 H 110.16555704217852 53.9426844840431 2.2190617349662602 H 0.0 **** 0.06
10875 H 109.60341633295805 53.39676864455997 3.8177317731215226 H 0.0 **** 0.06
10876 C 100.12934652160878 31.80357326808096 107.59718919275143 C 0.0 **** -0.24
10877 H 100.17757295006221 32.35177967004957 106.65660660435917 H 0.0 **** 0.06
10878 H 99.81235879088207 30.778157488220877 107.40408568337209 H 0.0 **** 0.06
10879 H 99.41420879867172 32.287055644045864 108.26257516672395 H 0.0 **** 0.06
10880 H 101.1134287360634 31.798177592294152 108.06504571779554 H 0.0 **** 0.06
10881 C 135.2053466297849 28.0686343750711 32.80291396359132 C 0.0 **** -0.24
10882 H 134.95537843022157 28.178156492699998 33.858441079666534 H 0.0 **** 0.06
10883 H 135.82778185315064 28.90691464083625 32.48858088033137 H 0.0 **** 0.06
10884 H 134.28884737526823 28.054968194594608 32.21237603188973 H 0.0 **** 0.06
10885 H 135.74804164117882 27.13549338184265 32.652728500143155 H 0.0 **** 0.06
10886 C 147.40903273443536 9.21765355329967 133.18122530042206 C 0.0 **** -0.24
10887 H 147.62287798193876 8.188511242340383 133.47128049183013 H 0.0 **** 0.06
10888 H 148.08913377060708 9.890609263026704 133.7033084933687 H 0.0 **** 0.06
10889 H 146.38036411447183 9.461830620106468 133.44700925751133 H 0.0 **** 0.06
10890 H 147.54309615212821 9.327177361858674 132.1051434259564 H 0.0 **** 0.06
10891 C 141.97801820440705 45.40218912601668 39.847966891941965 C 0.0 **** -0.24
10892 H 142.92413395716065 45.62112107073341 40.34295523150989 H 0.0 **** 0.06
10893 H 141.78634657288723 44.33005017408789 39.889109550167404 H 0.0 **** 0.06
10894 H 142.02815584069563 45.72344455440353 38.80752619561599 H 0.0 **** 0.06
10895 H 141.17213110534746 45.93505271153475 40.354137913273334 H 0.0 **** 0.06
10896 C 49.59530533491139 28.130764750850403 121.4851860223681 C 0.0 **** -0.24
10897 H 49.57019507065698 29.136741462427068 121.90252037115069 H 0.0 **** 0.06
10898 H 49.29880298564163 28.165609287091428 120.43673912580546 H 0.0 **** 0.06
10899 H 48.90757535708565 27.490994850593665 122.03749535422044 H 0.0 **** 0.06
10900 H 50.60596453986523 27.729862828111692 121.56349500561832 H 0.0 **** 0.06
10901 C 107.85504831566772 106.55033193186232 22.415668981500232 C 0.0 **** -0.24
10902 H 107.8436266595973 107.61541904018524 22.644936589448946 H 0.0 **** 0.06
10903 H 108.67776188769977 106.33373348782776 21.734443501214912 H 0.0 **** 0.06
10904 H 106.91130911908556 106.26927157161442 21.947599441626608 H 0.0 **** 0.06
10905 H 107.98630822605116 105.98207844731608 23.337673620139753 H 0.0 **** 0.06
10906 C 36.881246687007945 36.24181355138562 77.68531548927841 C 0.0 **** -0.24
10907 H 36.13043043634707 36.654202365901085 78.36040669881773 H 0.0 **** 0.06
10908 H 37.87667295361629 36.44116618101651 78.08421497667024 H 0.0 **** 0.06
10909 H 36.782243198387874 36.70739384645486 76.70414373724432 H 0.0 **** 0.06
10910 H 36.734847061596895 35.166087966570494 77.59417686633186 H 0.0 **** 0.06
10911 C 122.37241280575232 53.37301867043908 9.883151654487108 C 0.0 **** -0.24
10912 H 123.09934669189197 54.0316473005052 9.406559412629477 H 0.0 **** 0.06
10913 H 122.70083503852787 52.337673716422955 9.783530436418708 H 0.0 **** 0.06
10914 H 121.40210876522362 53.49402405522284 9.401097248756813 H 0.0 **** 0.06
10915 H 122.28840337296124 53.62844212093955 10.939221694916483 H 0.0 **** 0.06
10916 C 99.45937705538012 61.414677192519264 147.87632421372942 C 0.0 **** -0.24
10917 H 98.91202953430468 60.50203165352002 148.11184380617945 H 0.0 **** 0.06
10918 H 98.75652438247954 62.19153552096651 147.57332921655052 H 0.0 **** 0.06
10919 H 100.15831932315547 61.219947517513674 147.06334407409506 H 0.0 **** 0.06
10920 H 100.00948378978131 61.74582515916336 148.75730564705572 H 0.0 **** 0.06
10921 C 34.009142188778895 25.748392130434894 19.480973614919264 C 0.0 **** -0.24
10922 H 33.66335914177046 25.16077676886124 20.331525758317923 H 0.0 **** 0.06
10923 H 33.14986625865103 26.107215395554903 18.913816288129652 H 0.0 **** 0.06
10924 H 34.63441417571755 25.127028810935855 18.840604809509927 H 0.0 **** 0.06
10925 H 34.589637159312474 26.5993950127058 19.839892012995648 H 0.0 **** 0.06
10926 C 71.33642235933485 10.530328497813933 93.2876125729642 C 0.0 **** -0.24
10927 H 71.39392229996724 11.586046788162534 93.02161758138993 H 0.0 **** 0.06
10928 H 70.56259489029196 10.386927247613336 94.04154611808413 H 0.0 **** 0.06
10929 H 72.29758923381542 10.203896843771666 93.68706387938335 H 0.0 **** 0.06
10930 H 71.09344826584655 9.944616562056673 92.40092333984877 H 0.0 **** 0.06
10931 C 1.919905354801017 41.109594721121084 132.5141102697677 C 0.0 **** -0.24
10932 H 1.4378238382834923 40.501924019305534 133.27852006291468 H 0.0 **** 0.06
10933 H 1.795591269054512 42.165470206807015 132.75609717715702 H 0.0 **** 0.06
10934 H 1.4653464794280069 40.903385236909614 131.54522970894823 H 0.0 **** 0.06
10935 H 2.982683835470027 40.86808573523939 132.47503313448794 H 0.0 **** 0.06
10936 C 29.64510802785165 98.89474495373827 19.405296562866965 C 0.0 **** -0.24
10937 H 29.184100152927584 98.41500133456928 18.54223720665965 H 0.0 **** 0.06
10938 H 30.687592621731852 99.12186565868308 19.179966224289444 H 0.0 **** 0.06
10939 H 29.596139707746687 98.22287920168358 20.262631508745812 H 0.0 **** 0.06
10940 H 29.112361701983616 99.81710447030473 19.635163748075854 H 0.0 **** 0.06
10941 C 94.54853976272301 8.542830821007925 3.496296043890368 C 0.0 **** -0.24
10942 H 93.65498578008447 8.583683297461164 2.8724690933017314 H 0.0 **** 0.06
10943 H 95.1957474153163 7.73588111763371 3.1502625823877963 H 0.0 **** 0.06
10944 H 94.26076741611308 8.360493979684833 4.531629816048508 H 0.0 **** 0.06
10945 H 95.08148795032895 9.491313876303906 3.428918026793383 H 0.0 **** 0.06
10946 C 16.05159318082724 0.5345168529268562 71.25464000609838 C 0.0 **** -0.24
10947 H 16.902583024378032 0.2264943075471706 70.6474110059899 H 0.0 **** 0.06
10948 H 15.378634572650128 -0.31245004465745296 71.39142993386308 H 0.0 **** 0.06
10949 H 15.520837044010989 1.3432508652823287 70.75180414057864 H 0.0 **** 0.06
10950 H 16.405121635471744 0.8801765051252914 72.22567897758576 H 0.0 **** 0.06
10951 C 133.73598713254296 97.9597086233983 122.51157829951721 C 0.0 **** -0.24
10952 H 133.05649323348587 98.79833978488904 122.66494551015073 H 0.0 **** 0.06
10953 H 134.66731213355666 98.32265436951214 122.0753388684743 H 0.0 **** 0.06
10954 H 133.27478395150155 97.2380118233403 121.83655010606235 H 0.0 **** 0.06
10955 H 133.9435179795059 97.48159256520064 123.46789811630642 H 0.0 **** 0.06
10956 C 53.84439260952023 116.9016488355834 134.2847348526971 C 0.0 **** -0.24
10957 H 52.99738910237487 117.42413878844955 133.84119235438732 H 0.0 **** 0.06
10958 H 53.771082085474646 115.83668271772716 134.06395122219394 H 0.0 **** 0.06
10959 H 53.83956238921127 117.05070781013883 135.3643133584496 H 0.0 **** 0.06
10960 H 54.77223075197692 117.29609080129121 133.8686499614339 H 0.0 **** 0.06
10961 C 61.091790522596085 91.23722636888488 2.9246055557447903 C 0.0 **** -0.24
10962 H 61.51819993961388 92.20886665423555 2.6747599163367113 H 0.0 **** 0.06
10963 H 60.012008079960935 91.26632627176707 2.7796685593348798 H 0.0 **** 0.06
10964 H 61.312530797447735 91.00055261345489 3.9657078335965252 H 0.0 **** 0.06
10965 H 61.525803105821964 90.47370978958469 2.279176880128574 H 0.0 **** 0.06
10966 C 120.04621112808223 44.35433030371722 131.9987615023989 C 0.0 **** -0.24
10967 H 120.93980210635931 44.890437471571914 131.6793778251266 H 0.0 **** 0.06
10968 H 119.16976113411033 44.981669930101404 131.83813443938112 H 0.0 **** 0.06
10969 H 120.1289426229281 44.10761841500904 133.0565456800598 H 0.0 **** 0.06
10970 H 119.9477027649665 43.43697118246831 131.41803004200148 H 0.0 **** 0.06
10971 C 56.21366751616321 74.04943821756461 138.66484821571984 C 0.0 **** -0.24
10972 H 55.88754300732353 74.35707000865744 139.658625440611 H 0.0 **** 0.06
10973 H 56.84396041815876 74.82689416263469 138.2336026146023 H 0.0 **** 0.06
10974 H 55.34267818228497 73.89211743925523 138.02915142959912 H 0.0 **** 0.06
10975 H 56.781251167631325 73.12139467835982 138.74032464836125 H 0.0 **** 0.06
10976 C 120.12161085295519 145.4311070080239 23.09116228153289 C 0.0 **** -0.24
10977 H 119.20381661550242 144.89056917454914 23.320108173913923 H 0.0 **** 0.06
10978 H 119.91100626497753 146.20802191840016 22.35591156577189 H 0.0 **** 0.06
10979 H 120.85977047433032 144.73796148854237 22.68639152171096 H 0.0 **** 0.06
10980 H 120.51235740328092 145.8874284915969 24.000106435599974 H 0.0 **** 0.06
10981 C 15.66820583769595 92.35169697587605 112.67270360797191 C 0.0 **** -0.24
10982 H 16.696300316792986 92.52549621176401 112.99113610379088 H 0.0 **** 0.06
10983 H 15.215303409995556 91.59104805160669 113.30945026896264 H 0.0 **** 0.06
10984 H 15.660711974504807 92.01152142709874 111.63803455414619 H 0.0 **** 0.06
10985 H 15.101555930799805 93.27917651721634 112.75546384206582 H 0.0 **** 0.06
10986 C 116.23044733283662 19.1689249712864 33.40263869359393 C 0.0 **** -0.24
10987 H 117.11163801710957 19.440520133781945 33.983706426450794 H 0.0 **** 0.06
10988 H 115.33410537039508 19.503579252365796 33.925222928985505 H 0.0 **** 0.06
10989 H 116.19549386047252 18.08673533549836 33.27855200339167 H 0.0 **** 0.06
10990 H 116.28047423523707 19.645950637895453 32.42397660440059 H 0.0 **** 0.06
10991 C 71.6879306042913 16.594836711746666 125.31804945773001 C 0.0 **** -0.24
10992 H 71.52109071678154 15.58640715060372 125.69647109937995 H 0.0 **** 0.06
10993 H 70.82310957104858 16.912544660995252 124.73541242012391 H 0.0 **** 0.06
10994 H 72.5753718513784 16.602538204954527 124.68515263104041 H 0.0 **** 0.06
10995 H 71.8335385771282 17.278022266167426 126.15494879184138 H 0.0 **** 0.06
10996 C 69.90968954534989 63.54205845751517 83.00831712244204 C 0.0 **** -0.24
10997 H 70.0000192526126 64.09552281340348 83.94287873883287 H 0.0 **** 0.06
10998 H 70.75259884080451 62.85786185288754 82.90853429628744 H 0.0 **** 0.06
10999 H 69.9079017629311 64.24166341979202 82.17242815041175 H 0.0 **** 0.06
11000 H 68.97913812800009 62.97575460131304 83.01068889830346 H 0.0 **** 0.06
11001 C 22.10783715078179 17.986316837232778 1.3485639920421555 C 0.0 **** -0.24
11002 H 22.901855549980382 17.9530855346909 0.6034028738435318 H 0.0 **** 0.06
11003 H 22.10923924907263 18.961514466401354 1.8370477061387689 H 0.0 **** 0.06
11004 H 22.27477032605131 17.207089411069205 2.091873878366556 H 0.0 **** 0.06
11005 H 21.145388923227586 17.824483086792384 0.8623459918781755 H 0.0 **** 0.06
11006 C 57.037618265743205 129.49650633015563 28.21596285148817 C 0.0 **** -0.24
11007 H 56.547433988221925 129.95730933009196 29.074167765262757 H 0.0 **** 0.06
11008 H 57.391468291400756 130.27484454411223 27.539325223413243 H 0.0 **** 0.06
11009 H 56.32685671353563 128.85589782421823 27.694401338008305 H 0.0 **** 0.06
11010 H 57.88266454994283 128.89973291003002 28.55834555111727 H 0.0 **** 0.06
11011 C 51.836496290961705 7.132202827805827 72.87454440331203 C 0.0 **** -0.24
11012 H 52.4873526240694 7.6112850698201555 73.60724555069817 H 0.0 **** 0.06
11013 H 51.91350317039988 6.049672242122597 72.97332256378951 H 0.0 **** 0.06
11014 H 52.14063444252473 7.429341691895075 71.87115707321206 H 0.0 **** 0.06
11015 H 50.80614735910292 7.441750549219989 73.04839762754946 H 0.0 **** 0.06
11016 C 46.343194011044375 95.56015186827848 114.94701494539449 C 0.0 **** -0.24
11017 H 45.86295105858312 94.95583001013347 115.71712824603698 H 0.0 **** 0.06
11018 H 46.22331350670174 96.6169733561999 115.18866081919883 H 0.0 **** 0.06
11019 H 45.880993686347125 95.3523627626798 113.98212468775792 H 0.0 **** 0.06
11020 H 47.404044489183434 95.31514162475217 114.9032669156555 H 0.0 **** 0.06
11021 C 100.693211367162 51.749180995571436 12.749688519488586 C 0.0 **** -0.24
11022 H 100.9905826334115 51.939732872193034 11.71836801070495 H 0.0 **** 0.06
11023 H 101.4141410602311 51.07856272232635 13.21709324227993 H 0.0 **** 0.06
11024 H 99.70520908469523 51.28786325144104 12.762382341064665 H 0.0 **** 0.06
11025 H 100.66115445099221 52.690059842353605 13.298532761160573 H 0.0 **** 0.06
11026 C 134.78308950327354 117.99921668081572 42.70747056769949 C 0.0 **** -0.24
11027 H 134.60373058872722 119.01972859013927 43.04584682884854 H 0.0 **** 0.06
11028 H 134.60567761171856 117.30760611231716 43.5307982662689 H 0.0 **** 0.06
11029 H 135.81412145231437 117.90449557452274 42.36812609334879 H 0.0 **** 0.06
11030 H 134.1062939767674 117.76663104436398 41.8849254756372 H 0.0 **** 0.06
11031 C 18.454515622885197 53.345618639137115 107.01572748083498 C 0.0 **** -0.24
11032 H 17.803074483610544 53.05927608463702 106.18991451037681 H 0.0 **** 0.06
11033 H 18.55686228018095 52.50642217612824 107.70439151937074 H 0.0 **** 0.06
11034 H 18.022799419563057 54.19767777754791 107.54038355933994 H 0.0 **** 0.06
11035 H 19.435315292984285 53.61768531616096 106.62621960092184 H 0.0 **** 0.06
11036 C 4.067786025314433 31.55439040765875 19.67498695934171 C 0.0 **** -0.24
11037 H 4.160106534750923 32.349351414102635 20.41527379978527 H 0.0 **** 0.06
11038 H 3.116714030502635 31.039626324494364 19.81180682233844 H 0.0 **** 0.06
11039 H 4.885963403901911 30.84482429945205 19.79989252069518 H 0.0 **** 0.06
11040 H 4.108726094345883 31.983551377226625 18.67465481824877 H 0.0 **** 0.06
11041 C 122.01635191076103 153.39148363018387 140.33238553177313 C 0.0 **** -0.24
11042 H 122.56650913628347 153.33650489042145 141.2723839760251 H 0.0 **** 0.06
11043 H 121.75690096466862 152.38502474691649 140.00438189449218 H 0.0 **** 0.06
11044 H 122.63808085473214 153.87227657093754 139.5758830523706 H 0.0 **** 0.06
11045 H 121.1062426579591 153.97398108384908 140.47796904083168 H 0.0 **** 0.06
11046 C 40.701890634397444 15.002701074459935 41.33819704698185 C 0.0 **** -0.24
11047 H 39.96238655681674 14.824071889375261 40.55728794821164 H 0.0 **** 0.06
11048 H 40.1945690124183 15.245413643421045 42.271196515648654 H 0.0 **** 0.06
11049 H 41.34415732794676 15.833964291463928 41.046112037435094 H 0.0 **** 0.06
11050 H 41.30842622262827 14.107266614016908 41.47501586246811 H 0.0 **** 0.06
11051 C 20.303610029090635 6.7065555823666045 23.67640571309488 C 0.0 **** -0.24
11052 H 19.29340439946469 6.793831195142047 24.076455993244053 H 0.0 **** 0.06
11053 H 20.88505832563615 6.029800858526016 24.304323436009796 H 0.0 **** 0.06
11054 H 20.775584591786355 7.689201985706859 23.666985505046483 H 0.0 **** 0.06
11055 H 20.260155067663334 6.314223291495352 22.66149752134551 H 0.0 **** 0.06
11056 C 55.28310303855005 18.013327758173347 98.44643091041003 C 0.0 **** -0.24
11057 H 55.96502810094455 17.941736593556243 99.29337220972296 H 0.0 **** 0.06
11058 H 54.45051388395575 18.669041648074028 98.70289590328281 H 0.0 **** 0.06
11059 H 54.902986633458056 17.02216612946222 98.20076286723044 H 0.0 **** 0.06
11060 H 55.81508435546459 18.421420035037073 97.58596341935993 H 0.0 **** 0.06
11061 C 28.834328763434314 83.05011009184379 136.33917355382408 C 0.0 **** -0.24
11062 H 29.75389116660432 83.36056800241606 136.8340316175073 H 0.0 **** 0.06
11063 H 28.17392172942516 82.57297778195709 137.0652142354172 H 0.0 **** 0.06
11064 H 29.06993061558262 82.34330040479821 135.54356592195012 H 0.0 **** 0.06
11065 H 28.3376645731895 83.92226571744027 135.9146562987911 H 0.0 **** 0.06
11066 C 87.28023707295858 47.298596569327856 16.20353857655116 C 0.0 **** -0.24
11067 H 86.25493341193913 47.35452597627955 15.836636676597116 H 0.0 **** 0.06
11068 H 87.87149709877991 48.094543779036826 15.75074359685383 H 0.0 **** 0.06
11069 H 87.70801586488713 46.33208461710916 15.937983294062704 H 0.0 **** 0.06
11070 H 87.28486894011303 47.412963734790196 17.287286864841107 H 0.0 **** 0.06
11071 C 138.2475556523516 5.352772880347146 123.35790339451 C 0.0 **** -0.24
11072 H 137.27126730224643 5.120761032426003 122.93274904765286 H 0.0 **** 0.06
11073 H 138.4049953207042 6.430617655808078 123.33981965613253 H 0.0 **** 0.06
11074 H 139.02406864482055 4.861300613668476 122.77052761949193 H 0.0 **** 0.06
11075 H 138.2897628473587 4.996104526493696 124.38688682455216 H 0.0 **** 0.06
11076 C 7.104694665511403 147.69561199480017 131.68898565821084 C 0.0 **** -0.24
11077 H 6.917636339904014 148.32924376007816 132.555565497802 H 0.0 **** 0.06
11078 H 8.14329944139508 147.36334227106184 131.7000607579131 H 0.0 **** 0.06
11079 H 6.914683594162639 148.26217272746928 130.7774367581264 H 0.0 **** 0.06
11080 H 6.445172423126806 146.82895142133876 131.72347487174594 H 0.0 **** 0.06
11081 C 147.62205180418852 92.26868813084374 62.33282509499547 C 0.0 **** -0.24
11082 H 147.73933926875185 91.69022106887064 61.41698114051212 H 0.0 **** 0.06
11083 H 146.83587021275184 93.0121211078621 62.196232165790946 H 0.0 **** 0.06
11084 H 148.5602366037034 92.77105908277326 62.568338104091026 H 0.0 **** 0.06
11085 H 147.35246016739876 91.6013027977188 63.15196419742301 H 0.0 **** 0.06
11086 C 154.71459126312885 31.509745573423828 123.9181565246023 C 0.0 **** -0.24
11087 H 155.24405842778845 32.351789368851044 123.47082836329008 H 0.0 **** 0.06
11088 H 155.27263134704583 30.59197454277455 123.73409334389328 H 0.0 **** 0.06
11089 H 153.7225548015498 31.427872493223973 123.4744966157138 H 0.0 **** 0.06
11090 H 154.6202798359518 31.669225778996335 124.99285840382379 H 0.0 **** 0.06
11091 C 15.613888755785219 18.14075824970999 64.73639437600998 C 0.0 **** -0.24
11092 H 16.499467831231605 18.233153803266134 65.36401877661115 H 0.0 **** 0.06
11093 H 15.416069507177333 17.086898696726564 64.54048046739199 H 0.0 **** 0.06
11094 H 15.781013634567998 18.661490172557677 63.793684876511904 H 0.0 **** 0.06
11095 H 14.758548417812982 18.58176781545623 65.24823921534808 H 0.0 **** 0.06
11096 C 54.01285089771753 43.23284904379187 120.13290013443124 C 0.0 **** -0.24
11097 H 54.26508492085941 42.41815056506573 120.81248684186811 H 0.0 **** 0.06
11098 H 53.29258199907237 42.87886332926621 119.39437014535746 H 0.0 **** 0.06
11099 H 54.9143039985118 43.575150769549964 119.6265095288682 H 0.0 **** 0.06
11100 H 53.577882433210206 44.05689255980667 120.69858944356226 H 0.0 **** 0.06
11101 C 101.95279752154113 142.4522409569827 123.97178769860245 C 0.0 **** -0.24
11102 H 101.17128385558397 141.74808021759165 123.68641301118699 H 0.0 **** 0.06
11103 H 101.53763188206011 143.19811076603503 124.64987943540199 H 0.0 **** 0.06
11104 H 102.3394098864486 142.94539318309035 123.08040371625655 H 0.0 **** 0.06
11105 H 102.76025181853424 141.91632257530583 124.47069321808318 H 0.0 **** 0.06
11106 C 29.632209908188344 61.001316029545194 46.152692121872576 C 0.0 **** -0.24
11107 H 29.027936278052806 60.952970312174614 47.058821117820344 H 0.0 **** 0.06
11108 H 29.104196435424655 60.509544621027345 45.33630661641065 H 0.0 **** 0.06
11109 H 30.584153056321327 60.49948995819926 46.32519863635649 H 0.0 **** 0.06
11110 H 29.81386405805705 62.04500594922396 45.89393967359851 H 0.0 **** 0.06
11111 C 58.860698280826455 92.78235115887344 121.77339033745095 C 0.0 **** -0.24
11112 H 58.52238239144509 91.95741873827461 122.40173227164625 H 0.0 **** 0.06
11113 H 58.59327568817923 92.58126773375977 120.73558529168925 H 0.0 **** 0.06
11114 H 59.942566137837844 92.8834991389379 121.85858829212866 H 0.0 **** 0.06
11115 H 58.38319149984221 93.70656629207667 122.10023948079625 H 0.0 **** 0.06
11116 C 92.85452806374195 43.96711245272469 39.129680819859615 C 0.0 **** -0.24
11117 H 93.1684314515436 45.00920525626461 39.18877328281731 H 0.0 **** 0.06
11118 H 93.73280814668223 43.32203966725372 39.14952676331943 H 0.0 **** 0.06
11119 H 92.30503087560983 43.80575505119178 38.202803661250044 H 0.0 **** 0.06
11120 H 92.21269289101244 43.733515443446066 39.97862409877003 H 0.0 **** 0.06
11121 C 125.06338837815859 128.13215320199873 141.58463683854757 C 0.0 **** -0.24
11122 H 124.08581604181533 127.81558806802366 141.2202119044269 H 0.0 **** 0.06
11123 H 125.274564137332 127.64049439072335 142.53367005547042 H 0.0 **** 0.06
11124 H 125.06499773574315 129.2130097016691 141.72644416076486 H 0.0 **** 0.06
11125 H 125.82683959255623 127.8597860444724 140.85536729237162 H 0.0 **** 0.06
11126 C 50.912760108050065 145.1926365722359 41.01088974670833 C 0.0 **** -0.24
11127 H 50.25212776676193 144.34021445682703 40.854844576007096 H 0.0 **** 0.06
11128 H 50.740412961297295 145.93345488284 40.22999451071459 H 0.0 **** 0.06
11129 H 51.95064614721457 144.85989122282479 40.97476759306677 H 0.0 **** 0.06
11130 H 50.70862270382145 145.63734768193967 41.98508255762684 H 0.0 **** 0.06
11131 C 49.530094250204286 75.08312301235081 10.28939313506973 C 0.0 **** -0.24
11132 H 50.1308584854213 74.18779365020575 10.126533167406905 H 0.0 **** 0.06
11133 H 49.1202507376305 75.42175634535349 9.33726317144098 H 0.0 **** 0.06
11134 H 50.15587269515618 75.86693893567588 10.715512354376642 H 0.0 **** 0.06
11135 H 48.715419743336895 74.85411289586258 10.975050065097378 H 0.0 **** 0.06
11136 C 105.1559260946474 94.30568663986344 105.96905100856121 C 0.0 **** -0.24
11137 H 106.22241029303773 94.08096283910794 105.96583659847074 H 0.0 **** 0.06
11138 H 105.011644481429 95.38495511877602 106.02365919863338 H 0.0 **** 0.06
11139 H 104.68871455861658 93.8327298392837 106.83321530873171 H 0.0 **** 0.06
11140 H 104.70116100772866 93.9231348432088 105.05523072335795 H 0.0 **** 0.06
11141 C 156.84761333039825 139.70674558706764 5.131753111168962 C 0.0 **** -0.24
11142 H 156.67982764898633 138.93110052054655 4.384813787174544 H 0.0 **** 0.06
11143 H 156.15249556483755 139.56876773448766 5.960254826813689 H 0.0 **** 0.06
11144 H 156.68735317645107 140.68570367229714 4.680352610722657 H 0.0 **** 0.06
11145 H 157.8711399708087 139.64048718351637 5.500583301273835 H 0.0 **** 0.06
11146 C 30.721661556487675 64.23845543074376 134.02696632035992 C 0.0 **** -0.24
11147 H 30.16402212030789 64.03491602955488 133.11317607108043 H 0.0 **** 0.06
11148 H 31.386994792508688 63.40105968350517 134.24001504077674 H 0.0 **** 0.06
11149 H 30.025510115254065 64.36964758036412 134.85598109369673 H 0.0 **** 0.06
11150 H 31.310234108742634 65.1472138039382 133.89882475901337 H 0.0 **** 0.06
11151 C 23.48403058765666 60.9118782057873 92.3646185528213 C 0.0 **** -0.24
11152 H 22.409598771969172 60.76726080665675 92.48010781807679 H 0.0 **** 0.06
11153 H 23.911491557129978 60.05509444270123 91.84324499078554 H 0.0 **** 0.06
11154 H 23.945598229401355 61.00795722439982 93.3471926177919 H 0.0 **** 0.06
11155 H 23.667714232892763 61.81752432353424 91.7857065296516 H 0.0 **** 0.06
11156 C 22.44090628689139 55.161270348146004 83.73362680956842 C 0.0 **** -0.24
11157 H 21.95618713027187 55.18082577600501 84.71077196874057 H 0.0 **** 0.06
11158 H 21.699617409115717 54.93375221420247 82.96692543216659 H 0.0 **** 0.06
11159 H 23.215764142469084 54.39588037809247 83.72823159372342 H 0.0 **** 0.06
11160 H 22.887419720228962 56.13412544614641 83.53064073088933 H 0.0 **** 0.06
11161 C 102.75832817112456 31.661074511475093 74.29086631854429 C 0.0 **** -0.24
11162 H 102.34380559826974 31.19776501914967 75.18556905430523 H 0.0 **** 0.06
11163 H 103.0356493353026 30.886139335412082 73.57596203862022 H 0.0 **** 0.06
11164 H 103.64171102057168 32.24140033586693 74.55804858559574 H 0.0 **** 0.06
11165 H 102.01287378276174 32.3183168439022 73.84400289630446 H 0.0 **** 0.06
11166 C 133.29327499325996 130.36444636420703 66.37924137479561 C 0.0 **** -0.24
11167 H 133.77934590510648 130.09543125439723 65.44206979387297 H 0.0 **** 0.06
11168 H 132.29173474599298 130.74280502974307 66.17297080822975 H 0.0 **** 0.06
11169 H 133.87636625608252 131.13549698468535 66.88257643525213 H 0.0 **** 0.06
11170 H 133.22474954988377 129.484276203621 67.0189830737638 H 0.0 **** 0.06
11171 C 6.450154134272964 41.08283147816567 6.359976968625006 C 0.0 **** -0.24
11172 H 7.2387143293022405 40.38363009674873 6.637431297681019 H 0.0 **** 0.06
11173 H 6.288799439148534 41.03821208225666 5.281871910818353 H 0.0 **** 0.06
11174 H 6.74617403005891 42.09348676584895 6.641822306395824 H 0.0 **** 0.06
11175 H 5.5287405695360405 40.81608855610227 6.877136432669488 H 0.0 **** 0.06
11176 C 96.14653575394937 67.38243142525661 55.177418073499894 C 0.0 **** -0.24
11177 H 96.33536133974968 67.91867668403864 54.24759143291584 H 0.0 **** 0.06
11178 H 97.09300439510827 67.18021956172782 55.678832218521904 H 0.0 **** 0.06
11179 H 95.64345889250365 66.4408833507452 54.956976314965345 H 0.0 **** 0.06
11180 H 95.51343917335521 67.99003731593046 55.82398784590089 H 0.0 **** 0.06
11181 C 16.103733581579576 50.87966132863737 92.61246462206748 C 0.0 **** -0.24
11182 H 16.56924096723955 50.91187133440752 93.59732250356046 H 0.0 **** 0.06
11183 H 15.037296755658389 51.08863774870406 92.70832436243009 H 0.0 **** 0.06
11184 H 16.243165831991604 49.89089416577637 92.17750398320358 H 0.0 **** 0.06
11185 H 16.564329776409068 51.62912257135639 91.96799298012169 H 0.0 **** 0.06
11186 C 44.010460672542536 7.911963899510482 31.64272150603142 C 0.0 **** -0.24
11187 H 43.990655534031305 8.032242242926031 30.559235202274934 H 0.0 **** 0.06
11188 H 44.93300466281009 8.337633943738723 32.03824810534316 H 0.0 **** 0.06
11189 H 43.96175943947296 6.852720004714541 31.891846330083425 H 0.0 **** 0.06
11190 H 43.15517142679671 8.428296045017447 32.07976398219988 H 0.0 **** 0.06
11191 C 90.0131158824907 70.06193610767913 4.331269344791593 C 0.0 **** -0.24
11192 H 89.6894423422587 69.38600051190132 5.122968272287778 H 0.0 **** 0.06
11193 H 90.3839517150771 69.48060350742368 3.4870917187951704 H 0.0 **** 0.06
11194 H 90.80751454824872 70.70644649627361 4.7067940040414555 H 0.0 **** 0.06
11195 H 89.16978217519033 70.67428835150386 4.0095245532160675 H 0.0 **** 0.06
11196 C 31.66296554533045 24.191685981520244 64.91707707809954 C 0.0 **** -0.24
11197 H 32.235122018943 24.94055953340996 65.46481976141544 H 0.0 **** 0.06
11198 H 30.599837999372312 24.32805708402082 65.11656249543495 H 0.0 **** 0.06
11199 H 31.968291045290243 23.195494669221418 65.23716437652222 H 0.0 **** 0.06
11200 H 31.850021701525293 24.30251069519045 63.8483490527058 H 0.0 **** 0.06
11201 C 24.2081716885358 94.99901390253487 122.6734807606705 C 0.0 **** -0.24
11202 H 24.37196044367053 95.29591000735181 121.63834668008353 H 0.0 **** 0.06
11203 H 24.563600188828786 95.78587243391044 123.33904511910883 H 0.0 **** 0.06
11204 H 24.753135850704012 94.07635481090229 122.87752485591763 H 0.0 **** 0.06
11205 H 23.14363728265093 94.83513381221 122.83935562180174 H 0.0 **** 0.06
11206 C 27.152761610620985 130.33999677578277 139.81901266852685 C 0.0 **** -0.24
11207 H 26.357561538165015 131.0810587931829 139.90005340888052 H 0.0 **** 0.06
11208 H 27.034068869425937 129.59153303516717 140.6028734683295 H 0.0 **** 0.06
11209 H 28.119175005153494 130.83150685925543 139.9294963691794 H 0.0 **** 0.06
11210 H 27.10120346608437 129.856107451715 138.8434668911837 H 0.0 **** 0.06
11211 C 97.40442645884463 52.664535789457204 54.59731867660879 C 0.0 **** -0.24
11212 H 96.37221923328656 53.00015801692001 54.69662441781149 H 0.0 **** 0.06
11213 H 98.05037269306331 53.288849889345784 55.21585088020876 H 0.0 **** 0.06
11214 H 97.71301533405801 52.74353504530205 53.55481989950954 H 0.0 **** 0.06
11215 H 97.48143662889743 51.62715190106502 54.922372151593905 H 0.0 **** 0.06
11216 C 53.726390534536776 101.4254609166599 155.97164455519857 C 0.0 **** -0.24
11217 H 54.07174493809474 101.10791284408022 154.98838559153148 H 0.0 **** 0.06
11218 H 53.193790510070315 100.60458249478812 156.45175964417325 H 0.0 **** 0.06
11219 H 53.057303641472316 102.27952603317097 155.86338929741135 H 0.0 **** 0.06
11220 H 54.58272304850975 101.70982229460024 156.58304368767807 H 0.0 **** 0.06
11221 C 132.1918630107761 58.167260422449544 47.96069725539434 C 0.0 **** -0.24
11222 H 132.55720227225257 59.019466554560694 47.38746116893242 H 0.0 **** 0.06
11223 H 131.23760096773475 58.423130104736316 48.42161410676593 H 0.0 **** 0.06
11224 H 132.9154818573493 57.915787338026504 48.73688586892911 H 0.0 **** 0.06
11225 H 132.0583248103793 57.313753706766235 47.297100646256354 H 0.0 **** 0.06
11226 C 119.83502775608467 124.34512149029241 61.019902320224034 C 0.0 **** -0.24
11227 H 119.40839198124048 123.3428564551303 60.97747126830589 H 0.0 **** 0.06
11228 H 120.20174569228267 124.54049646644945 62.02771046291102 H 0.0 **** 0.06
11229 H 119.0694203146753 125.07693599090832 60.76318761986089 H 0.0 **** 0.06
11230 H 120.66098788864291 124.41828147249738 60.31230840252792 H 0.0 **** 0.06
11231 C 48.18408212816223 56.70586845909911 47.52905161160544 C 0.0 **** -0.24
11232 H 48.48304746013844 56.969883631669845 48.54340331908321 H 0.0 **** 0.06
11233 H 47.39125143557243 55.95899182710218 47.56724130612551 H 0.0 **** 0.06
11234 H 49.04203664633229 56.300134341024915 46.992817944118116 H 0.0 **** 0.06
11235 H 47.82251234333512 57.5960108198518 47.01503749395795 H 0.0 **** 0.06
11236 C 89.05385645355777 152.2381309758494 70.84070266218791 C 0.0 **** -0.24
11237 H 89.47859742340721 151.70232404706314 71.69025533947902 H 0.0 **** 0.06
11238 H 88.0863955905747 151.80449837281486 70.58476329146686 H 0.0 **** 0.06
11239 H 89.7261246894686 152.1556358296417 69.98657173135399 H 0.0 **** 0.06
11240 H 88.9244381526848 153.28789240125343 71.10173040886946 H 0.0 **** 0.06
11241 C 29.432179120804975 103.73508683477873 135.9799190854715 C 0.0 **** -0.24
11242 H 30.517000456486386 103.65571114772062 136.04497919007065 H 0.0 **** 0.06
11243 H 29.06479930726975 104.36997375914787 136.7871287155463 H 0.0 **** 0.06
11244 H 28.98988900304522 102.74209165628777 136.06862503072867 H 0.0 **** 0.06
11245 H 29.15648330503774 104.17090841765592 135.020336367805 H 0.0 **** 0.06
11246 C 107.88701979746116 93.73600167100804 77.14715249255644 C 0.0 **** -0.24
11247 H 106.97002068153807 94.23443990074445 77.46059244911045 H 0.0 **** 0.06
11248 H 108.37425445385844 93.2929483315064 78.01573225271692 H 0.0 **** 0.06
11249 H 108.55624372913934 94.4622873294153 76.68489588306934 H 0.0 **** 0.06
11250 H 107.64703247067592 92.9544675056647 76.42608445844178 H 0.0 **** 0.06
11251 C 30.233367385620824 12.387078874075769 122.97801151620492 C 0.0 **** -0.24
11252 H 30.09655751078762 11.305332632709337 122.93577548572812 H 0.0 **** 0.06
11253 H 30.594653260413793 12.667838066215865 123.96771575924258 H 0.0 **** 0.06
11254 H 29.2812422489572 12.880902318922068 122.78299661589675 H 0.0 **** 0.06
11255 H 30.96101579139659 12.69050138333023 122.2256264858893 H 0.0 **** 0.06
11256 C 50.41913044532782 8.430846265426737 4.325681462023198 C 0.0 **** -0.24
11257 H 49.452012670258654 8.761369044702064 3.9469433342651996 H 0.0 **** 0.06
11258 H 50.276916851818214 7.895168719121443 5.2639247731523255 H 0.0 **** 0.06
11259 H 51.058264694554055 9.297463962584601 4.494174320049723 H 0.0 **** 0.06
11260 H 50.887773376149795 7.769169049903184 3.596442973133719 H 0.0 **** 0.06
11261 C 142.79774965253475 34.66223863362385 30.498990217429196 C 0.0 **** -0.24
11262 H 143.37897752459912 33.922061287735396 29.947584394429924 H 0.0 **** 0.06
11263 H 142.78663803135137 35.60100216801196 29.945214786120914 H 0.0 **** 0.06
11264 H 143.24964752046836 34.82206228828034 31.477450413914653 H 0.0 **** 0.06
11265 H 141.77720948997572 34.30045126443261 30.62506302642936 H 0.0 **** 0.06
11266 C 12.96959809621859 109.02868956942594 116.19262916497574 C 0.0 **** -0.24
11267 H 13.76862976860724 109.50202253165385 115.62152761325898 H 0.0 **** 0.06
11268 H 12.122482922657895 109.71201421683098 116.26512078539697 H 0.0 **** 0.06
11269 H 13.330628725022109 108.78957328798744 117.19236759281559 H 0.0 **** 0.06
11270 H 12.65729969513933 108.11339737495324 115.6907790406472 H 0.0 **** 0.06
11271 C 12.120302613128864 50.98495442330935 117.98554515309142 C 0.0 **** -0.24
11272 H 12.501662925486201 52.00504202577778 118.03634163471732 H 0.0 **** 0.06
11273 H 12.942600913474088 50.29995878673286 117.777710675629 H 0.0 **** 0.06
11274 H 11.378740302129948 50.91438511555121 117.18967205422688 H 0.0 **** 0.06
11275 H 11.659402189653278 50.7221351702931 118.93716455062666 H 0.0 **** 0.06
11276 C 91.71852144659377 40.766668581002364 88.32994287313925 C 0.0 **** -0.24
11277 H 90.94941735130914 41.3397082964828 88.84684519757998 H 0.0 **** 0.06
11278 H 92.41385146090201 40.351230465583626 89.0595078271979 H 0.0 **** 0.06
11279 H 92.25940812384812 41.42045638956927 87.64463139275831 H 0.0 **** 0.06
11280 H 91.25292454915603 39.95692078856848 87.76869810286722 H 0.0 **** 0.06
11281 C 35.579530051895944 59.313769380113 13.139559972328271 C 0.0 **** -0.24
11282 H 35.896018875184524 58.418805415224 13.674645924193186 H 0.0 **** 0.06
11283 H 34.56534918097452 59.17440439202777 12.7664337160343 H 0.0 **** 0.06
11284 H 36.25401109905347 59.49355590982198 12.302497975867368 H 0.0 **** 0.06
11285 H 35.60431786548325 60.169044636774814 13.815650577737074 H 0.0 **** 0.06
11286 C 138.14050679471308 30.976229091975853 17.45551519971356 C 0.0 **** -0.24
11287 H 138.7268705859826 30.335259466161858 16.797054784464187 H 0.0 **** 0.06
11288 H 138.35560789827366 32.02105338914876 17.231905341545797 H 0.0 **** 0.06
11289 H 138.40049373384718 30.76461888122381 18.49238768989308 H 0.0 **** 0.06
11290 H 137.07874598873164 30.781605780563893 17.300217200299024 H 0.0 **** 0.06
11291 C 129.1041924331332 75.37975326327037 10.8224269299171 C 0.0 **** -0.24
11292 H 129.69322573770125 75.06718975113318 11.684292039666701 H 0.0 **** 0.06
11293 H 128.28573186387723 76.01822033638335 11.154271395146537 H 0.0 **** 0.06
11294 H 128.70071024530642 74.50054642352465 10.32041286741034 H 0.0 **** 0.06
11295 H 129.73991931232996 75.93330616202232 10.130738977372829 H 0.0 **** 0.06
11296 C 54.23852735014654 135.3888727119005 53.274058548255326 C 0.0 **** -0.24
11297 H 55.125947224426 135.54359369427266 53.887801211271466 H 0.0 **** 0.06
11298 H 54.53833981364994 135.07587921951108 52.27433048238554 H 0.0 **** 0.06
11299 H 53.674150953553635 136.31879906902412 53.20998904585805 H 0.0 **** 0.06
11300 H 53.61586266355198 134.61626375725677 53.72586025672068 H 0.0 **** 0.06
11301 C 38.14784409869998 82.5193074276058 104.59743661455678 C 0.0 **** -0.24
11302 H 38.074763157202995 81.43221010165092 104.63928486467182 H 0.0 **** 0.06
11303 H 39.15536396777972 82.82593595905132 104.87717811028955 H 0.0 **** 0.06
11304 H 37.428222392046735 82.95809393003874 105.28908153583461 H 0.0 **** 0.06
11305 H 37.93179615510084 82.85825435897429 103.58414349699831 H 0.0 **** 0.06
11306 C 32.05442479033573 71.25289113153363 29.038657365208564 C 0.0 **** -0.24
11307 H 31.332394078629875 70.90362025616804 28.299657215292314 H 0.0 **** 0.06
11308 H 32.25479386734486 70.45539420379997 29.755087122558876 H 0.0 **** 0.06
11309 H 31.648690427409463 72.11871547168931 29.56081871141663 H 0.0 **** 0.06
11310 H 32.98104949889975 71.53126538615953 28.53687445527072 H 0.0 **** 0.06
11311 C 90.95836525791393 8.672477703495659 5.85194737400785 C 0.0 **** -0.24
11312 H 91.44087086630476 8.398311028934934 6.78994184844521 H 0.0 **** 0.06
11313 H 90.0941722848351 8.028908464224592 5.687454792044008 H 0.0 **** 0.06
11314 H 91.66454470337179 8.551625351791309 5.030885896830405 H 0.0 **** 0.06
11315 H 90.632830840924 9.711794439847473 5.902224155507028 H 0.0 **** 0.06
11316 C 103.77969088953046 9.202516206255034 39.15618729703431 C 0.0 **** -0.24
11317 H 104.47842596181863 9.248676111326589 38.3202792485132 H 0.0 **** 0.06
11318 H 102.78706053547262 8.948107035422225 38.785813706980434 H 0.0 **** 0.06
11319 H 103.7448202296398 10.172310312544127 39.65423865371673 H 0.0 **** 0.06
11320 H 104.11041185871125 8.44241126570207 39.86409392671362 H 0.0 **** 0.06
11321 C 83.52344622284568 131.4451689326625 47.7026387635741 C 0.0 **** -0.24
11322 H 83.7106780862564 130.6144848468589 48.38255701343809 H 0.0 **** 0.06
11323 H 84.17162860882456 132.2821898627169 47.96504927612472 H 0.0 **** 0.06
11324 H 82.48099665184873 131.75428772068693 47.78447497541481 H 0.0 **** 0.06
11325 H 83.73049595047797 131.13191218132874 46.679553099454836 H 0.0 **** 0.06
11326 C 4.131345171897749 1.7849365317389356 74.22967678532288 C 0.0 **** -0.24
11327 H 3.6920342337268437 2.7694907748386868 74.07093959773759 H 0.0 **** 0.06
11328 H 3.616625778432308 1.052304426648334 73.60786103816723 H 0.0 **** 0.06
11329 H 4.028112680637804 1.5075561363719316 75.27912181345962 H 0.0 **** 0.06
11330 H 5.1879459325263895 1.8114697817457 73.96288380118041 H 0.0 **** 0.06
11331 C 87.307337175137 40.3077298280204 57.649488418672604 C 0.0 **** -0.24
11332 H 87.40030409078817 39.531652776093495 56.889960786542375 H 0.0 **** 0.06
11333 H 87.0657593418045 39.8503509914469 58.609240699294986 H 0.0 **** 0.06
11334 H 86.51460267119556 40.99898007816671 57.36608637354692 H 0.0 **** 0.06
11335 H 88.24971170644767 40.84969850660545 57.731725151488746 H 0.0 **** 0.06
11336 C 79.07696640742984 58.310790628711516 135.96534523131916 C 0.0 **** -0.24
11337 H 79.23877384377002 58.27095455507575 134.88898281373332 H 0.0 **** 0.06
11338 H 79.35510480044212 59.29690774467578 136.33774924722158 H 0.0 **** 0.06
11339 H 79.68952081080221 57.55238448301954 136.45342402529232 H 0.0 **** 0.06
11340 H 78.02495895635744 58.12334858970216 136.18197971191074 H 0.0 **** 0.06
11341 C 34.27208559551579 114.23516451610324 75.1519566562464 C 0.0 **** -0.24
11342 H 33.22832290918683 113.92374639991844 75.10334693683888 H 0.0 **** 0.06
11343 H 34.90752463280232 113.358370989536 75.27766672299543 H 0.0 **** 0.06
11344 H 34.40944104202376 114.90930617859796 75.99733122865388 H 0.0 **** 0.06
11345 H 34.540071111093596 114.750664196062 74.22972647172162 H 0.0 **** 0.06
11346 C 22.0731443855447 56.048186848800356 43.6550224724059 C 0.0 **** -0.24
11347 H 22.555945285109402 55.25189335478487 44.222607421013834 H 0.0 **** 0.06
11348 H 21.000324980871234 55.857079196808115 43.603952662553354 H 0.0 **** 0.06
11349 H 22.48615127490934 56.07803478111737 42.64732259495611 H 0.0 **** 0.06
11350 H 22.24927135495816 57.00352607752308 44.14891203911276 H 0.0 **** 0.06
11351 C 130.31064149195748 142.39614091718744 140.2850131825022 C 0.0 **** -0.24
11352 H 129.71754066167 142.80789599878713 141.10161151112308 H 0.0 **** 0.06
11353 H 131.3509854951626 142.69728657565707 140.4034162371158 H 0.0 **** 0.06
11354 H 129.92899134667428 142.77085528067954 139.335569153481 H 0.0 **** 0.06
11355 H 130.24246397061395 141.30803345035744 140.30049420735043 H 0.0 **** 0.06
11356 C 125.01530002117799 56.43114362485987 5.9793937153838215 C 0.0 **** -0.24
11357 H 125.30260836618895 55.43937778301908 6.330560549278118 H 0.0 **** 0.06
11358 H 125.05850831167162 57.1366097317342 6.809879912938641 H 0.0 **** 0.06
11359 H 124.00000175177023 56.39614667430409 5.584017543083178 H 0.0 **** 0.06
11360 H 125.70042374893963 56.75010730478404 5.193780371094476 H 0.0 **** 0.06
11361 C 123.6947072127382 79.36164218051043 136.79883379314748 C 0.0 **** -0.24
11362 H 124.44000995339269 79.10381202179936 137.55137223764845 H 0.0 **** 0.06
11363 H 123.69775683483613 78.6068195757578 136.0124609758791 H 0.0 **** 0.06
11364 H 123.93356130465605 80.3349840246688 136.36964028647643 H 0.0 **** 0.06
11365 H 122.70959470339687 79.40073334875345 137.2626148426716 H 0.0 **** 0.06
11366 C 114.32912737113007 99.65787911045949 55.76199623381622 C 0.0 **** -0.24
11367 H 114.86866651782891 98.96768460839765 55.11411916159204 H 0.0 **** 0.06
11368 H 114.98444685691949 100.48315656905304 56.039794984379355 H 0.0 **** 0.06
11369 H 114.00436333273443 99.1332851485252 56.66164351384769 H 0.0 **** 0.06
11370 H 113.45815143699504 100.0466091257128 55.234328184929595 H 0.0 **** 0.06
11371 C 69.32939205914157 70.06572134241006 86.57567529453732 C 0.0 **** -0.24
11372 H 69.37750360551148 69.03010028461665 86.91382172663488 H 0.0 **** 0.06
11373 H 70.29806798185237 70.36137442667146 86.17196016970617 H 0.0 **** 0.06
11374 H 69.07237486976624 70.71036949234349 87.4159083470565 H 0.0 **** 0.06
11375 H 68.56962000864247 70.15927649962629 85.79963757676059 H 0.0 **** 0.06
11376 C 111.56161012870344 63.095319766900985 87.42348622982647 C 0.0 **** -0.24
11377 H 111.60504294214233 62.02320715035009 87.23630518874684 H 0.0 **** 0.06
11378 H 112.35408352716148 63.59385857894418 86.86497065308312 H 0.0 **** 0.06
11379 H 111.6924695495634 63.2838167561338 88.48897595867348 H 0.0 **** 0.06
11380 H 110.59312580119304 63.48120379940973 87.10251216519235 H 0.0 **** 0.06
11381 C 12.577645505930718 77.35519819130582 19.277735944761794 C 0.0 **** -0.24
11382 H 13.51121742639316 77.91649077645457 19.274031084151538 H 0.0 **** 0.06
11383 H 12.444181729497984 76.86590381174011 18.312932285746896 H 0.0 **** 0.06
11384 H 11.745536037091767 78.03602486680356 19.457715243778914 H 0.0 **** 0.06
11385 H 12.608154408346792 76.60325067344078 20.066319999998015 H 0.0 **** 0.06
11386 C 41.019187527316376 23.03054592086781 49.76491724534752 C 0.0 **** -0.24
11387 H 40.8586788919024 23.752107475128525 48.963607326673554 H 0.0 **** 0.06
11388 H 40.26480220823947 22.246476155052505 49.704278598823606 H 0.0 **** 0.06
11389 H 40.943345468152415 23.535330151412182 50.72813141752539 H 0.0 **** 0.06
11390 H 42.01190265777848 22.59000211179233 49.66261105878242 H 0.0 **** 0.06
11391 C 102.59611232555557 60.35339082446187 68.98340991524148 C 0.0 **** -0.24
11392 H 101.80865867916651 60.31828320242583 69.7353918552545 H 0.0 **** 0.06
11393 H 102.46342136073491 61.23702471276616 68.35880768603336 H 0.0 **** 0.06
11394 H 102.54449111595449 59.45802023721187 68.3630499640873 H 0.0 **** 0.06
11395 H 103.56703118493698 60.39932028213072 69.47572251305549 H 0.0 **** 0.06
11396 C 119.0533239094641 39.66820656863024 77.11887103954675 C 0.0 **** -0.24
11397 H 119.64784467129226 39.0082135406397 77.75111463169459 H 0.0 **** 0.06
11398 H 118.64779792337265 40.48043989867796 77.72279188620254 H 0.0 **** 0.06
11399 H 118.23461765737414 39.103236811738725 76.67298100408664 H 0.0 **** 0.06
11400 H 119.68337997674053 40.07924314315005 76.33033318698972 H 0.0 **** 0.06
11401 C 116.80186707177836 156.46507005369907 81.71420258414788 C 0.0 **** -0.24
11402 H 115.71949620990466 156.33957307031937 81.73639458137497 H 0.0 **** 0.06
11403 H 117.26991822697454 155.68992803042602 82.32104575444394 H 0.0 **** 0.06
11404 H 117.06162110013969 157.44520481672188 82.11215146273716 H 0.0 **** 0.06
11405 H 117.15468532389554 156.38480509149474 80.68605449902762 H 0.0 **** 0.06
11406 C 127.26856124559771 46.15455478385242 51.54697337499367 C 0.0 **** -0.24
11407 H 127.79215707937726 45.234387741572775 51.28655120425047 H 0.0 **** 0.06
11408 H 127.25090241716731 46.266786728048416 52.6308773450335 H 0.0 **** 0.06
11409 H 126.24837273982865 46.11142745549387 51.168245172347085 H 0.0 **** 0.06
11410 H 127.78648126684595 47.00494229992188 51.102514577623324 H 0.0 **** 0.06
11411 C 111.34574041839984 156.53255471739507 144.63526309854262 C 0.0 **** -0.24
11412 H 112.10014488846132 155.9743864845482 145.1886623687452 H 0.0 **** 0.06
11413 H 111.46769322602877 157.5986190117924 144.8287808682184 H 0.0 **** 0.06
11414 H 110.35304575853671 156.21680557323242 144.9541273633922 H 0.0 **** 0.06
11415 H 111.4622752974921 156.3407349429497 143.56855766989884 H 0.0 **** 0.06
11416 C 71.18426952184983 133.86251078129447 97.78692227918917 C 0.0 **** -0.24
11417 H 70.98707253083278 134.12251570916436 98.82669121468406 H 0.0 **** 0.06
11418 H 72.22236988778135 134.0944491386149 97.54525731151016 H 0.0 **** 0.06
11419 H 70.5232744222944 134.43522375298545 97.13734013547344 H 0.0 **** 0.06
11420 H 71.00624208989217 132.79768526329337 97.63905917276136 H 0.0 **** 0.06
11421 C 42.20567503422346 118.05571103088892 115.55006522807055 C 0.0 **** -0.24
11422 H 41.80347570933152 117.07856395412915 115.81557969319051 H 0.0 **** 0.06
11423 H 42.62617983967971 118.52944798750991 116.43634657811258 H 0.0 **** 0.06
11424 H 41.40678968462275 118.67993061450227 115.14777573920215 H 0.0 **** 0.06
11425 H 42.98509112472772 117.93556090894936 114.7970644284314 H 0.0 **** 0.06
11426 C 36.470633487905616 25.500271174596513 101.66007904983375 C 0.0 **** -0.24
11427 H 36.8417077716104 25.823348851559643 100.68761344596804 H 0.0 **** 0.06
11428 H 35.73313800943339 26.216113573902916 102.02306768502787 H 0.0 **** 0.06
11429 H 37.2999407444963 25.442401375767624 102.36461095888079 H 0.0 **** 0.06
11430 H 36.006759519638535 24.517854478100574 101.56394843756523 H 0.0 **** 0.06
11431 C 32.943559005287305 143.91510414234278 121.2133242451569 C 0.0 **** -0.24
11432 H 32.044939995878934 144.36008177225173 120.78592927717172 H 0.0 **** 0.06
11433 H 33.65174701080013 144.70320229265496 121.47166078253944 H 0.0 **** 0.06
11434 H 33.396669842258554 143.24247483585128 120.48547258638105 H 0.0 **** 0.06
11435 H 32.67970036955172 143.3557843649378 122.11081835279676 H 0.0 **** 0.06
11436 C 131.8472729932622 32.58208989814317 132.2876635908813 C 0.0 **** -0.24
11437 H 131.41395047486785 32.5332369792677 133.2858883199829 H 0.0 **** 0.06
11438 H 131.0572847167341 32.759417789555044 131.5577231681948 H 0.0 **** 0.06
11439 H 132.34534080040447 31.638832029821963 132.0613700776325 H 0.0 **** 0.06
11440 H 132.57096495532545 33.39501265550379 132.24530619225186 H 0.0 **** 0.06
11441 C 31.485894708794575 35.356932597019785 49.82960060018644 C 0.0 **** -0.24
11442 H 31.386081744226644 36.05609148471389 50.66003596967926 H 0.0 **** 0.06
11443 H 32.54189672314942 35.21120545438306 49.602241818625885 H 0.0 **** 0.06
11444 H 30.977439161525126 35.759601265104294 48.95338225875844 H 0.0 **** 0.06
11445 H 31.036363695858824 34.402482595553685 50.10295517495797 H 0.0 **** 0.06
11446 C 143.07923574171235 78.48521459458463 67.08331354334214 C 0.0 **** -0.24
11447 H 142.30778990885204 79.24944288911158 66.997214399656 H 0.0 **** 0.06
11448 H 143.84861279629524 78.82181612288736 67.77856532999073 H 0.0 **** 0.06
11449 H 143.52560745999625 78.30792048935992 66.10455934643548 H 0.0 **** 0.06
11450 H 142.63568500295423 77.56103602526089 67.45305989887126 H 0.0 **** 0.06
11451 C 71.44729270298518 119.60191665246629 75.4056952568589 C 0.0 **** -0.24
11452 H 70.49958724700144 119.47309376553909 74.88195225275852 H 0.0 **** 0.06
11453 H 72.11904700408212 120.20687236888955 74.79577112388185 H 0.0 **** 0.06
11454 H 71.89792889898266 118.62557797693086 75.58362073619958 H 0.0 **** 0.06
11455 H 71.27142959896241 120.10052055100795 76.35842919866231 H 0.0 **** 0.06
11456 C 101.03311631096692 98.8883614251173 88.64098173309941 C 0.0 **** -0.24
11457 H 101.7295422697105 98.41500839288089 87.94857977279189 H 0.0 **** 0.06
11458 H 100.500516333639 99.69023871501186 88.12905423049922 H 0.0 **** 0.06
11459 H 101.58453913037827 99.29999194833893 89.48633246408836 H 0.0 **** 0.06
11460 H 100.31836834661787 98.1470223259543 88.99937172218326 H 0.0 **** 0.06
11461 C 79.39458251299263 111.90229685445439 22.835227191808002 C 0.0 **** -0.24
11462 H 80.36516660047478 111.94243755561973 23.328898033568052 H 0.0 **** 0.06
11463 H 79.10647948745952 112.90485011739969 22.517963430047054 H 0.0 **** 0.06
11464 H 78.64911919680348 111.512921840275 23.528514440715277 H 0.0 **** 0.06
11465 H 79.45690934474753 111.2494830689069 21.96401124272576 H 0.0 **** 0.06
11466 C 141.33755901356318 107.96784942587327 44.942320500329274 C 0.0 **** -0.24
11467 H 140.96546570735592 108.95711825862286 44.67638552678042 H 0.0 **** 0.06
11468 H 141.9244265565274 108.03394314756152 45.85881479868284 H 0.0 **** 0.06
11469 H 141.96469913751295 107.5861348787894 44.13594653132165 H 0.0 **** 0.06
11470 H 140.49498374298102 107.29306667984339 45.09761013846207 H 0.0 **** 0.06
11471 C 51.70450455874173 34.704380968259514 82.63130727612752 C 0.0 **** -0.24
11472 H 50.979881730352886 35.49898183002607 82.81049129755918 H 0.0 **** 0.06
11473 H 51.186432329458896 33.7472558912584 82.56978143734501 H 0.0 **** 0.06
11474 H 52.42296631754614 34.677996662351816 83.45115681782508 H 0.0 **** 0.06
11475 H 52.22906695110845 34.89459834646789 81.69527560084741 H 0.0 **** 0.06
11476 C 104.56536769852677 43.28905383521082 116.8879227704919 C 0.0 **** -0.24
11477 H 104.55141805242245 42.283027944152764 117.3067126591206 H 0.0 **** 0.06
11478 H 104.26593330116854 43.24944129324899 115.83986236670178 H 0.0 **** 0.06
11479 H 105.57119632381371 43.70073987844768 116.96449309659441 H 0.0 **** 0.06
11480 H 103.87011185530027 43.92124675063653 117.44066060741183 H 0.0 **** 0.06
11481 C 28.06041918954069 80.1440421816493 48.03954357751424 C 0.0 **** -0.24
11482 H 29.001237415893023 79.99941576354604 48.57106493217971 H 0.0 **** 0.06
11483 H 27.906714585310525 81.20791261398011 47.85712568069147 H 0.0 **** 0.06
11484 H 27.239850776040427 79.75629823777598 48.642591468783934 H 0.0 **** 0.06
11485 H 28.094918863928598 79.61293937258102 47.08825852400162 H 0.0 **** 0.06
11486 C 132.98530348978824 51.30992540384268 82.29338549322283 C 0.0 **** -0.24
11487 H 132.28187545020785 50.56774262786594 81.91873055434046 H 0.0 **** 0.06
11488 H 133.45147999600414 51.82583745453137 81.45323435660943 H 0.0 **** 0.06
11489 H 133.75359907284263 50.81497664869795 82.88764074757805 H 0.0 **** 0.06
11490 H 132.4547077432778 52.03279206711376 82.91364320925307 H 0.0 **** 0.06
11491 C 120.47165668752376 52.451686571690004 154.09374567067366 C 0.0 **** -0.24
11492 H 120.84438106554052 52.45361960994401 155.1181296214288 H 0.0 **** 0.06
11493 H 121.30773001912479 52.56569994627327 153.40263058886816 H 0.0 **** 0.06
11494 H 119.77410304283183 53.27923490474683 153.95915225753356 H 0.0 **** 0.06
11495 H 119.96039713983652 51.509602936047884 153.89497751513252 H 0.0 **** 0.06
11496 C 142.7476779643501 47.40891232170907 89.96531973933334 C 0.0 **** -0.24
11497 H 143.2753933263575 46.5905564919625 89.47518413144564 H 0.0 **** 0.06
11498 H 141.96155083580467 47.77961716478467 89.30719380711975 H 0.0 **** 0.06
11499 H 143.4498058332914 48.21415167486032 90.18251717496004 H 0.0 **** 0.06
11500 H 142.30643665438467 47.05045264513802 90.89492901939836 H 0.0 **** 0.06
11501 C 83.00938963138043 112.87297329012705 36.39593438410134 C 0.0 **** -0.24
11502 H 82.33317962391264 113.56747625522559 35.89668960211441 H 0.0 **** 0.06
11503 H 83.37935627883323 113.32539134622624 37.31639148577676 H 0.0 **** 0.06
11504 H 83.84905142753057 112.6480747008581 35.73821379971105 H 0.0 **** 0.06
11505 H 82.4756910790889 111.95335994066039 36.6320990619476 H 0.0 **** 0.06
11506 C 22.3272440083918 78.67714219273971 38.42464207308052 C 0.0 **** -0.24
11507 H 21.415979991198526 78.09643515797792 38.56905784115071 H 0.0 **** 0.06
11508 H 23.128899616522233 78.01816278889856 38.091652445472164 H 0.0 **** 0.06
11509 H 22.611482444329056 79.14743209588397 39.36661692835082 H 0.0 **** 0.06
11510 H 22.151825823458637 79.44630156663958 37.6727651045523 H 0.0 **** 0.06
11511 C 30.860605249616526 65.25989715370417 127.07970471138647 C 0.0 **** -0.24
11512 H 30.161660125077333 64.46250499262736 126.82817715850122 H 0.0 **** 0.06
11513 H 30.83071942976801 66.02621730290306 126.30564533904494 H 0.0 **** 0.06
11514 H 31.86808209912357 64.8512846377727 127.1495748768739 H 0.0 **** 0.06
11515 H 30.579382566251297 65.69887716262936 128.03762697732873 H 0.0 **** 0.06
11516 C 68.71356947150605 72.66861509874222 144.6472069379354 C 0.0 **** -0.24
11517 H 67.9584987190434 72.66603162458831 143.8598739598964 H 0.0 **** 0.06
11518 H 68.28827262028005 72.24866068461212 145.55850246427275 H 0.0 **** 0.06
11519 H 69.03830241166213 73.69247773148264 144.83489424772566 H 0.0 **** 0.06
11520 H 69.5676484127855 72.06850437678791 144.33308600657134 H 0.0 **** 0.06
11521 C 81.26618528784277 79.28812779063139 68.49785390026534 C 0.0 **** -0.24
11522 H 81.69493981914117 79.40132952509691 69.49358307574744 H 0.0 **** 0.06
11523 H 81.25794337169302 80.25527272749292 67.994793838092 H 0.0 **** 0.06
11524 H 80.24613091397883 78.91323309558948 68.58075569422999 H 0.0 **** 0.06
11525 H 81.8670796767665 78.58375448727122 67.92219960301901 H 0.0 **** 0.06
11526 C 63.221419592884644 52.522755284349955 156.33895334313883 C 0.0 **** -0.24
11527 H 64.18018719132024 52.98635013016013 156.10272201014465 H 0.0 **** 0.06
11528 H 62.41272806828266 53.19188416638053 156.04533586643976 H 0.0 **** 0.06
11529 H 63.16568278459164 52.3330385125804 157.41123905674544 H 0.0 **** 0.06
11530 H 63.130080239526066 51.58151109023527 155.7974617541638 H 0.0 **** 0.06
11531 C 73.91303836996337 155.94864575878734 48.59068297774297 C 0.0 **** -0.24
11532 H 73.08786624150122 155.8648286359246 49.29876232267998 H 0.0 **** 0.06
11533 H 74.85401433660638 155.75703468877268 49.10703471913746 H 0.0 **** 0.06
11534 H 73.9275876329807 156.95365266454718 48.1682636026228 H 0.0 **** 0.06
11535 H 73.78076664733817 155.2192390814391 47.791879030751375 H 0.0 **** 0.06
11536 C 120.5170110731235 42.24647447221426 79.1161880737127 C 0.0 **** -0.24
11537 H 121.31175875105957 42.111058582943485 79.84976379316558 H 0.0 **** 0.06
11538 H 120.75639791243769 41.68424009215991 78.21275508614777 H 0.0 **** 0.06
11539 H 120.42451100951688 43.30443012891949 78.87148984165182 H 0.0 **** 0.06
11540 H 119.57486822673927 41.88584639083135 79.5299451767717 H 0.0 **** 0.06
11541 C 97.57730230864354 123.26353621299371 140.64359541862254 C 0.0 **** -0.24
11542 H 98.5282886788732 122.88089126912034 141.01629837491612 H 0.0 **** 0.06
11543 H 97.75200592682583 123.85073384458842 139.740891521165 H 0.0 **** 0.06
11544 H 97.11606658356368 123.89311315208981 141.40421302283852 H 0.0 **** 0.06
11545 H 96.91632810343782 122.42917339279272 140.41206484122623 H 0.0 **** 0.06
11546 C 142.5720184229519 114.04803691334183 133.18606105999012 C 0.0 **** -0.24
11547 H 142.2199694875385 113.45794704701643 134.03268328637787 H 0.0 **** 0.06
11548 H 143.42921665620904 113.55144642242425 132.7295243143683 H 0.0 **** 0.06
11549 H 142.86776120402303 115.03842998654841 133.53239968800463 H 0.0 **** 0.06
11550 H 141.77291580275687 114.14253765260867 132.45125138244816 H 0.0 **** 0.06
11551 C 144.44924092693242 150.69011686665755 32.45578626066111 C 0.0 **** -0.24
11552 H 143.70793133278866 150.64327222934062 31.657592449035974 H 0.0 **** 0.06
11553 H 144.98451999748383 149.7413898805556 32.509731970212016 H 0.0 **** 0.06
11554 H 143.94961464247083 150.87984969134246 33.405857156597165 H 0.0 **** 0.06
11555 H 145.1553540059473 151.4942060149659 32.24910867419478 H 0.0 **** 0.06
11556 C 119.72112815786626 17.006803173906633 153.4157344747424 C 0.0 **** -0.24
11557 H 118.67841829782166 16.748409897240947 153.23408454278405 H 0.0 **** 0.06
11558 H 120.28652761907468 16.910026045579855 152.48936398808425 H 0.0 **** 0.06
11559 H 120.13605726021744 16.334324045106314 154.16695571564046 H 0.0 **** 0.06
11560 H 119.78296837639037 18.034706904963173 153.7749091131928 H 0.0 **** 0.06
11561 C 147.78786645570477 104.99007718364224 3.668725912449929 C 0.0 **** -0.24
11562 H 147.16659702126722 104.72995482240599 2.8112538464458794 H 0.0 **** 0.06
11563 H 148.59598239653576 104.26332267330118 3.7650651938457145 H 0.0 **** 0.06
11564 H 147.1807208188626 104.98096676348466 4.573311348197535 H 0.0 **** 0.06
11565 H 148.20949531916523 105.98503707936773 3.522998062867714 H 0.0 **** 0.06
11566 C 0.8656312377178352 19.21421948825804 0.5662522742688729 C 0.0 **** -0.24
11567 H 1.4115786843136142 18.928853284528827 1.4654915011104634 H 0.0 **** 0.06
11568 H 1.0516764874886313 18.481058662880145 -0.21843558263016405 H 0.0 **** 0.06
11569 H 1.2003636617298739 20.196021192674806 0.23412243576958502 H 0.0 **** 0.06
11570 H -0.2013723233930662 19.248428999783982 0.78544116135145 H 0.0 **** 0.06
11571 C 95.60270135589114 77.1663528862037 27.399716212250382 C 0.0 **** -0.24
11572 H 96.02397398186079 77.19242473084824 26.394298222394546 H 0.0 **** 0.06
11573 H 95.34726139703338 76.13836257712248 27.659727889515395 H 0.0 **** 0.06
11574 H 94.70450690725819 77.78366598995842 27.43221176446601 H 0.0 **** 0.06
11575 H 96.33383919098998 77.55013581207334 28.11094598515284 H 0.0 **** 0.06
11576 C 57.37545791788115 33.0618422526307 42.98250603396001 C 0.0 **** -0.24
11577 H 57.72780335047959 33.842801308236176 42.307468721428734 H 0.0 **** 0.06
11578 H 57.948400407802765 33.09703071694406 43.9085056612022 H 0.0 **** 0.06
11579 H 57.50522086340172 32.088272992312966 42.50951961362301 H 0.0 **** 0.06
11580 H 56.319312899394404 33.22153678630235 43.20126857571512 H 0.0 **** 0.06
11581 C 75.58652307357602 121.3615870915866 130.6561904307191 C 0.0 **** -0.24
11582 H 75.33580212389506 121.32405018448323 131.71673306869212 H 0.0 **** 0.06
11583 H 74.92552392067694 122.06778207952003 130.15186762652084 H 0.0 **** 0.06
11584 H 75.46183609659616 120.37088347043861 130.21783418346422 H 0.0 **** 0.06
11585 H 76.62158482877828 121.68324080821485 130.53851826433424 H 0.0 **** 0.06
11586 C 90.15927346253658 122.3228388730979 135.38619308989672 C 0.0 **** -0.24
11587 H 89.67084945882296 122.54153310126675 136.33536666339495 H 0.0 **** 0.06
11588 H 89.70804199327334 122.9257275514576 134.59801539391742 H 0.0 **** 0.06
11589 H 90.03838133310093 121.26547510730087 135.15107051587347 H 0.0 **** 0.06
11590 H 91.22068361826074 122.55920192198509 135.46127745133816 H 0.0 **** 0.06
11591 C 140.99316976957434 14.880489098173861 125.44127566428944 C 0.0 **** -0.24
11592 H 140.70249855715508 14.299942898856031 126.31680352040513 H 0.0 **** 0.06
11593 H 140.39741884547843 14.565817356061203 124.58322072993855 H 0.0 **** 0.06
11594 H 142.04914468183452 14.714909475592236 125.23065989124791 H 0.0 **** 0.06
11595 H 140.82194039295456 15.938607969885538 125.63430043693648 H 0.0 **** 0.06
11596 C 11.163756692061128 70.71866100160929 17.294444420071557 C 0.0 **** -0.24
11597 H 10.264723749160169 70.60726658101714 16.688458682018393 H 0.0 **** 0.06
11598 H 11.505811298723557 69.7366159842868 17.620968383639593 H 0.0 **** 0.06
11599 H 10.94083179872041 71.33467284164306 18.165194988367716 H 0.0 **** 0.06
11600 H 11.943141521730126 71.19722862408736 16.701596223923104 H 0.0 **** 0.06
11601 C 46.86598994405915 147.10158423613473 92.51852192178451 C 0.0 **** -0.24
11602 H 46.02780465142774 146.4874329926449 92.1903888484794 H 0.0 **** 0.06
11603 H 47.80227730687892 146.59877190686262 92.27560955385948 H 0.0 **** 0.06
11604 H 46.804209019690575 147.2541918058952 93.5968088843543 H 0.0 **** 0.06
11605 H 46.82960719810609 148.06603141619064 92.0126903498297 H 0.0 **** 0.06
11606 C 95.28155946714733 49.21672789188763 27.061517431053318 C 0.0 **** -0.24
11607 H 95.47650797454526 48.757325478505834 26.092340366998485 H 0.0 **** 0.06
11608 H 95.99503752210632 50.02340995094778 27.231213652051338 H 0.0 **** 0.06
11609 H 95.38449020510186 48.467831946838245 27.846845260855247 H 0.0 **** 0.06
11610 H 94.26913207291909 49.6196341936235 27.073884110575165 H 0.0 **** 0.06
11611 C 87.98567649444708 38.3702014642497 110.40300949682552 C 0.0 **** -0.24
11612 H 88.33481554043152 38.50031974749152 109.37931091461792 H 0.0 **** 0.06
11613 H 88.74743942506595 38.729926495317955 111.09558140712505 H 0.0 **** 0.06
11614 H 87.79516186511624 37.313287860998514 110.58976464886842 H 0.0 **** 0.06
11615 H 87.0660001476443 38.93622470670073 110.54801207697238 H 0.0 **** 0.06
11616 C 55.50076212933604 47.69674966326626 153.02527003043036 C 0.0 **** -0.24
11617 H 55.82056221595951 46.78407450033092 153.52727560324254 H 0.0 **** 0.06
11618 H 54.46931443830164 47.58397289414225 152.6894981248939 H 0.0 **** 0.06
11619 H 56.14490035302245 47.88374908953486 152.16548350610196 H 0.0 **** 0.06
11620 H 55.56750566175464 48.53644452865379 153.71789008704667 H 0.0 **** 0.06
11621 C 88.93056941871112 16.761615671816827 128.04729098960564 C 0.0 **** -0.24
11622 H 89.43014023146253 17.7298991475339 128.02245606157982 H 0.0 **** 0.06
11623 H 89.34136908179096 16.16064011678145 128.8588793744736 H 0.0 **** 0.06
11624 H 89.08752530998333 16.248547642356726 127.09883398214286 H 0.0 **** 0.06
11625 H 87.86264891263266 16.908384933318132 128.20820165009525 H 0.0 **** 0.06
11626 C 80.23720041000216 122.26902099580826 1.6278361540108222 C 0.0 **** -0.24
11627 H 79.60459791714172 121.3812617292948 1.6696249703410935 H 0.0 **** 0.06
11628 H 81.28196029473717 121.96661789155922 1.5591498861267858 H 0.0 **** 0.06
11629 H 80.08780844062782 122.8625696111099 2.529912514530171 H 0.0 **** 0.06
11630 H 79.97097602314126 122.86330902574508 0.7539328565773715 H 0.0 **** 0.06
11631 C 15.40741304586112 148.30020161919919 89.51178664684211 C 0.0 **** -0.24
11632 H 16.26456505911591 147.65469818808612 89.31832750200415 H 0.0 **** 0.06
11633 H 14.502798743114909 147.69450803034806 89.57059080127127 H 0.0 **** 0.06
11634 H 15.30818665151918 149.02387533327436 88.70170812978813 H 0.0 **** 0.06
11635 H 15.554485651560867 148.82728568797393 90.45375249551903 H 0.0 **** 0.06
11636 C 120.78278806476078 97.27444515836135 52.345793255724516 C 0.0 **** -0.24
11637 H 121.07362987397568 97.52721753103003 51.32613799868082 H 0.0 **** 0.06
11638 H 121.22205376715556 96.31576126771694 52.62189924414504 H 0.0 **** 0.06
11639 H 119.69641448094796 97.20776946969147 52.40851865571021 H 0.0 **** 0.06
11640 H 121.13905413696381 98.04703236500688 53.02661712436229 H 0.0 **** 0.06
11641 C 48.53913787229264 89.49043002183926 138.07985449565138 C 0.0 **** -0.24
11642 H 49.22291777831521 88.6800548434083 137.82702889563834 H 0.0 **** 0.06
11643 H 48.70177714367557 89.79290518942967 139.11408507648136 H 0.0 **** 0.06
11644 H 47.510919956053215 89.14775631471602 137.95863008004108 H 0.0 **** 0.06
11645 H 48.72067760181588 90.33769771741872 137.41973299157695 H 0.0 **** 0.06
11646 C 142.64679172901458 103.72055954318859 114.38076676537389 C 0.0 **** -0.24
11647 H 143.4247053599611 104.26688057225743 113.84826666509565 H 0.0 **** 0.06
11648 H 143.00034090071657 102.71596106839763 114.60998612517466 H 0.0 **** 0.06
11649 H 141.75551668131612 103.65885425526079 113.75541649956392 H 0.0 **** 0.06
11650 H 142.4048883424118 104.24208432177886 115.30681337694915 H 0.0 **** 0.06
11651 C 41.04291747065493 121.39963175199449 17.123053467416497 C 0.0 **** -0.24
11652 H 40.68507963554738 122.1053794669213 16.373700477672287 H 0.0 **** 0.06
11653 H 42.01750721825857 121.01417200842923 16.82195163677389 H 0.0 **** 0.06
11654 H 40.33733238559563 120.57349168658573 17.210979292374503 H 0.0 **** 0.06
11655 H 41.13226983715988 121.90472510313947 18.08450784107052 H 0.0 **** 0.06
11656 C 26.63435802215443 91.03217537298917 125.51958084035289 C 0.0 **** -0.24
11657 H 26.204268306080778 91.12252340769561 126.51717682444826 H 0.0 **** 0.06
11658 H 25.915963035681557 90.54820618395348 124.85792372468114 H 0.0 **** 0.06
11659 H 27.544217864350976 90.43390091561292 125.56919350725974 H 0.0 **** 0.06
11660 H 26.871989616956803 92.02481168497351 125.13614235541172 H 0.0 **** 0.06
11661 C 83.74724542688361 87.27371872956792 18.587328584008787 C 0.0 **** -0.24
11662 H 84.11465768688785 86.28275661270334 18.31809628622301 H 0.0 **** 0.06
11663 H 84.48094935236057 87.77329060951331 19.219343720423296 H 0.0 **** 0.06
11664 H 82.80611235460148 87.17720611037771 19.128034144445166 H 0.0 **** 0.06
11665 H 83.58836274107395 87.85928048493497 17.681764452562447 H 0.0 **** 0.06
11666 C 65.47218790666052 18.62650385204671 128.82603696506322 C 0.0 **** -0.24
11667 H 65.44580771725492 18.2445403184351 127.80543144883808 H 0.0 **** 0.06
11668 H 65.63972990173826 19.703799690816822 128.80626180779416 H 0.0 **** 0.06
11669 H 66.28080168131387 18.142471377744357 129.37341616401034 H 0.0 **** 0.06
11670 H 64.52292144805834 18.415471509331155 129.31774642170603 H 0.0 **** 0.06
11671 C 136.62637191480832 115.80828536346597 144.87631670535123 C 0.0 **** -0.24
11672 H 136.6223951263189 116.8976827573852 144.8557705188669 H 0.0 **** 0.06
11673 H 135.64164749038667 115.4363308015494 144.58826223575224 H 0.0 **** 0.06
11674 H 136.86435010685898 115.46493014220032 145.8830829360548 H 0.0 **** 0.06
11675 H 137.37492911329315 115.43434588738312 144.17761500359077 H 0.0 **** 0.06
11676 C 82.23276559385928 101.14114490043534 111.04573970453481 C 0.0 **** -0.24
11677 H 81.41542879115627 101.3420510656577 110.35265243974538 H 0.0 **** 0.06
11678 H 81.83225039503697 100.71731292144779 111.96701367171755 H 0.0 **** 0.06
11679 H 82.75582656606491 102.07096553268656 111.27083636349636 H 0.0 **** 0.06
11680 H 82.92755662317899 100.43425008194924 110.59245634317972 H 0.0 **** 0.06
11681 C 24.721799941026973 22.95619668831108 103.51052073897932 C 0.0 **** -0.24
11682 H 24.811413734985393 21.989909271254533 103.01227809928594 H 0.0 **** 0.06
11683 H 24.87245622254372 23.754664714620333 102.78329505218693 H 0.0 **** 0.06
11684 H 25.47516960859079 23.031247972860797 104.29511053103664 H 0.0 **** 0.06
11685 H 23.729098482444584 23.04638243037226 103.95072750101889 H 0.0 **** 0.06
11686 C 122.86114856891629 105.6364813137421 55.59040221456448 C 0.0 **** -0.24
11687 H 123.90578426844843 105.4007826776293 55.791168365711755 H 0.0 **** 0.06
11688 H 122.76231247690743 106.013651833554 54.571925638187054 H 0.0 **** 0.06
11689 H 122.51862536694313 106.39626956701782 56.29439611076937 H 0.0 **** 0.06
11690 H 122.25768545907061 104.73622726614853 55.7061069811035 H 0.0 **** 0.06
11691 C 24.66088986827019 47.42290101493133 129.91274832575806 C 0.0 **** -0.24
11692 H 25.618574728214682 47.274415889524406 129.4118694858583 H 0.0 **** 0.06
11693 H 24.453910634114713 46.56982018689645 130.55865262055443 H 0.0 **** 0.06
11694 H 23.872164624330566 47.51543437200783 129.1660444070638 H 0.0 **** 0.06
11695 H 24.702478391919087 48.332044542690866 130.51236495515047 H 0.0 **** 0.06
11696 C 68.16822209633352 86.77480309184246 103.60983480069746 C 0.0 **** -0.24
11697 H 68.48362882759312 85.73516672566852 103.70551936549822 H 0.0 **** 0.06
11698 H 68.17532314984405 87.06048031159887 102.55714499450733 H 0.0 **** 0.06
11699 H 68.85272256377476 87.41470764476789 104.16582932697315 H 0.0 **** 0.06
11700 H 67.16010859530138 86.88640430517542 104.00918428845335 H 0.0 **** 0.06
11701 C 31.634584035711825 67.8170633521002 16.858978689013668 C 0.0 **** -0.24
11702 H 32.06625807305178 68.4690334029417 17.61728482449871 H 0.0 **** 0.06
11703 H 31.68766750576041 66.78123912906013 17.19742080598013 H 0.0 **** 0.06
11704 H 32.19200977808214 67.9234924908083 15.928252060100021 H 0.0 **** 0.06
11705 H 30.59314903850948 68.09177022560068 16.69272906377239 H 0.0 **** 0.06
11706 C 91.20047907891069 42.43644696451145 52.153882468646984 C 0.0 **** -0.24
11707 H 91.75457655723102 41.92906203284514 51.364695443961864 H 0.0 **** 0.06
11708 H 91.88828094161565 43.02707551509468 52.759172638784534 H 0.0 **** 0.06
11709 H 90.70583181665597 41.69633380396405 52.78378428875007 H 0.0 **** 0.06
11710 H 90.4529090049246 43.09169222095784 51.70838806585175 H 0.0 **** 0.06
11711 C 53.55365211282047 52.953804257619666 140.27557626865035 C 0.0 **** -0.24
11712 H 54.011855123768925 53.31834005653545 139.35533261904283 H 0.0 **** 0.06
11713 H 54.31920288222186 52.848785317158985 141.04501421039095 H 0.0 **** 0.06
11714 H 53.087837335954916 51.98615797602184 140.0902497343388 H 0.0 **** 0.06
11715 H 52.79663976620165 53.66428722443179 140.61009530526337 H 0.0 **** 0.06
11716 C 93.61201169431004 25.221683030949748 100.16546748596112 C 0.0 **** -0.24
11717 H 93.51715142741381 24.135942929543205 100.13442468427418 H 0.0 **** 0.06
11718 H 93.37404203088823 25.634362765086223 99.18439583169949 H 0.0 **** 0.06
11719 H 94.63376082710374 25.488380480093014 100.43491291312851 H 0.0 **** 0.06
11720 H 92.92263995016128 25.625031355869737 100.90729523041095 H 0.0 **** 0.06
11721 C 30.097637255572764 113.9237804896066 141.02174301507236 C 0.0 **** -0.24
11722 H 29.203342957794234 114.02309184216836 140.40659861507044 H 0.0 **** 0.06
11723 H 30.862017299214017 114.61576782194743 140.66658475522573 H 0.0 **** 0.06
11724 H 30.472870558952003 112.90298694458102 140.95632019868813 H 0.0 **** 0.06
11725 H 29.85160402390961 114.15477961782017 142.05926496459443 H 0.0 **** 0.06
11726 C 130.26456720435502 77.13221645861962 61.61382322367649 C 0.0 **** -0.24
11727 H 131.2514712764274 76.80661853101702 61.283650477061656 H 0.0 **** 0.06
11728 H 129.73947750278796 77.60019563161866 60.779443776725714 H 0.0 **** 0.06
11729 H 130.37153848907946 77.85138892432448 62.42538699404241 H 0.0 **** 0.06
11730 H 129.69602111407744 76.27102359782151 61.963095082415975 H 0.0 **** 0.06
11731 C 126.94257307915684 11.031364862061196 17.80393743682302 C 0.0 **** -0.24
11732 H 127.21289475218985 10.567005195968363 16.855810889432092 H 0.0 **** 0.06
11733 H 127.17929882476407 12.094491451167642 17.76784822845019 H 0.0 **** 0.06
11734 H 127.5034855924299 10.561059512391296 18.611719405386822 H 0.0 **** 0.06
11735 H 125.87429948628456 10.902110417683446 17.980893722707776 H 0.0 **** 0.06
11736 C 63.04444593961409 107.0875197301908 14.434316588007086 C 0.0 **** -0.24
11737 H 62.74658673399324 107.89971939113319 15.098213650426132 H 0.0 **** 0.06
11738 H 62.18178335855765 106.75824207667681 13.854776959166117 H 0.0 **** 0.06
11739 H 63.42475420179744 106.25553652248034 15.027046915171546 H 0.0 **** 0.06
11740 H 63.82451534103663 107.43918601657838 13.759015746518521 H 0.0 **** 0.06
11741 C 25.32405704256025 145.85977865600339 37.114351737081506 C 0.0 **** -0.24
11742 H 25.276121939509217 145.15278904822804 37.94252779830481 H 0.0 **** 0.06
11743 H 24.72428457362743 145.48665330001114 36.28314347051986 H 0.0 **** 0.06
11744 H 26.359984223747325 145.97206575844993 36.79276941840993 H 0.0 **** 0.06
11745 H 24.936314381129414 146.8254718890044 37.43786350179926 H 0.0 **** 0.06
11746 C 110.36411615307219 124.74339526672908 93.8005104173201 C 0.0 **** -0.24
11747 H 110.2480984738392 125.33822776049179 94.70645626061332 H 0.0 **** 0.06
11748 H 111.41269216553474 124.47672221534258 93.6734810615864 H 0.0 **** 0.06
11749 H 110.02936147216087 125.32292304724514 92.94028979476744 H 0.0 **** 0.06
11750 H 109.76556407521764 123.83636898977774 93.88175939590406 H 0.0 **** 0.06
11751 C 120.13125287792565 17.5687632481729 33.88199292746327 C 0.0 **** -0.24
11752 H 120.65476928940143 18.408826734201625 34.33868930955322 H 0.0 **** 0.06
11753 H 120.59899772109003 17.325358372885603 32.92837378060062 H 0.0 **** 0.06
11754 H 119.08753279300856 17.838520156353695 33.71753533248943 H 0.0 **** 0.06
11755 H 120.18362389192407 16.705133587396745 34.54385447645495 H 0.0 **** 0.06
11756 C 82.87336723628589 149.52761804467116 82.09081631768166 C 0.0 **** -0.24
11757 H 83.16772790614314 148.8581736769367 81.28250467736066 H 0.0 **** 0.06
11758 H 83.62911334428772 150.30386506883508 82.21356431482562 H 0.0 **** 0.06
11759 H 82.78193034085464 148.96007444812227 83.01705723696892 H 0.0 **** 0.06
11760 H 81.91507956557048 149.98760798842403 81.85067751275358 H 0.0 **** 0.06
11761 C 49.653612039269646 126.26186729152515 63.435114085763686 C 0.0 **** -0.24
11762 H 48.73992878125739 125.98238321693138 62.91053499024811 H 0.0 **** 0.06
11763 H 50.279011823045465 125.38010503373424 63.5720011864958 H 0.0 **** 0.06
11764 H 49.398720449325566 126.68275294955215 64.40815172009269 H 0.0 **** 0.06
11765 H 50.19571068568881 127.00391615112103 62.848772696172546 H 0.0 **** 0.06
11766 C 121.74966135999576 14.819756719741612 87.42465378103185 C 0.0 **** -0.24
11767 H 122.75156903498394 14.450124318970367 87.20649657136059 H 0.0 **** 0.06
11768 H 121.38466879347042 14.359512611249471 88.34245138131305 H 0.0 **** 0.06
11769 H 121.08240306177963 14.567422862593943 86.60087368895354 H 0.0 **** 0.06
11770 H 121.7807472914886 15.90290183745119 87.54803543249045 H 0.0 **** 0.06
11771 C 38.77552423608958 67.62088704320053 73.06530106326461 C 0.0 **** -0.24
11772 H 38.0211186265676 68.27698127766719 73.49880790726716 H 0.0 **** 0.06
11773 H 38.89256853259403 66.73734195312618 73.6927947902818 H 0.0 **** 0.06
11774 H 39.72499868390993 68.15134467183847 73.00275023732128 H 0.0 **** 0.06
11775 H 38.461248075050705 67.31807908293517 72.06632032502888 H 0.0 **** 0.06
11776 C 106.31806144694478 85.60299421578262 103.73165485585315 C 0.0 **** -0.24
11777 H 105.77865381599749 84.6561582507977 103.73719689665575 H 0.0 **** 0.06
11778 H 105.83910182443329 86.29743663758704 104.42232416353073 H 0.0 **** 0.06
11779 H 106.30584179949948 86.02320705017482 102.7259488712885 H 0.0 **** 0.06
11780 H 107.34955021853817 85.43489754751249 104.04220294166447 H 0.0 **** 0.06
11781 C 39.013754233350014 32.26420943300538 73.94864001211454 C 0.0 **** -0.24
11782 H 39.50599327086701 32.347876355891124 72.98066264269755 H 0.0 **** 0.06
11783 H 38.22249175463939 31.51611184877042 73.89125189637645 H 0.0 **** 0.06
11784 H 38.58416694555467 33.22753152532514 74.22227289964565 H 0.0 **** 0.06
11785 H 39.74283784627353 31.964909136773763 74.70198794488397 H 0.0 **** 0.06
11786 C 136.8873744567254 137.6944970915785 35.257257254644664 C 0.0 **** -0.24
11787 H 137.49191203058228 138.5861716238481 35.42209204743292 H 0.0 **** 0.06
11788 H 136.85090939468324 137.1067021216141 36.1748939306959 H 0.0 **** 0.06
11789 H 137.32917773174705 137.09730904892757 34.460367087524126 H 0.0 **** 0.06
11790 H 135.87649571348214 137.98812835599887 34.97388730639933 H 0.0 **** 0.06
11791 C 30.326413304558336 97.868454014263 127.380334002273 C 0.0 **** -0.24
11792 H 31.18742048876129 97.87557079970294 126.71167365214956 H 0.0 **** 0.06
11793 H 29.411262274312485 97.80109733879087 126.79222658446838 H 0.0 **** 0.06
11794 H 30.31561501149308 98.78653226726081 127.96810810942588 H 0.0 **** 0.06
11795 H 30.393270637833098 97.01033056868935 128.0498285516677 H 0.0 **** 0.06
11796 C 64.78572042603463 107.2066595432197 71.29690515376372 C 0.0 **** -0.24
11797 H 63.861232450490746 107.73910070768062 71.5224979103521 H 0.0 **** 0.06
11798 H 64.77961051065157 106.23897746486193 71.79905926514945 H 0.0 **** 0.06
11799 H 65.63605898703429 107.79332500730203 71.64614099428638 H 0.0 **** 0.06
11800 H 64.8647610073331 107.05777031962714 70.21962743468183 H 0.0 **** 0.06
11801 C 148.24484054365595 114.3887982947864 64.28103894783904 C 0.0 **** -0.24
11802 H 147.63706687772373 113.80596697163236 63.5893753948358 H 0.0 **** 0.06
11803 H 147.91561027337826 114.19703500385646 65.3024546085553 H 0.0 **** 0.06
11804 H 148.13427664464027 115.44941490830576 64.05695041652177 H 0.0 **** 0.06
11805 H 149.29112940964063 114.10212238472832 64.1763432227892 H 0.0 **** 0.06
11806 C 27.35867737937408 132.6237525472591 107.1501025558364 C 0.0 **** -0.24
11807 H 27.57043543118924 133.68455700269243 107.01828037601423 H 0.0 **** 0.06
11808 H 26.319649480320287 132.4953225743122 107.45223897193857 H 0.0 **** 0.06
11809 H 28.01555112363235 132.2151405784114 107.91848451728266 H 0.0 **** 0.06
11810 H 27.531319975567193 132.0999937291737 106.20918069414576 H 0.0 **** 0.06
11811 C 64.27550276618791 53.86414733710046 16.215940384311494 C 0.0 **** -0.24
11812 H 65.02008605550658 53.65740062412061 15.447730668985344 H 0.0 **** 0.06
11813 H 63.27808603042108 53.81991000908113 15.776327317278628 H 0.0 **** 0.06
11814 H 64.44695182590014 54.85797538062354 16.629182084698073 H 0.0 **** 0.06
11815 H 64.35582255372921 53.12139524457734 17.009595050499797 H 0.0 **** 0.06
11816 C 60.84400674173669 129.66554983240192 130.03679152591042 C 0.0 **** -0.24
11817 H 60.28845342202921 129.99155250626217 129.15790449534532 H 0.0 **** 0.06
11818 H 60.21337925465346 129.7603546952767 130.9217343132854 H 0.0 **** 0.06
11819 H 61.73233860427939 130.2849510885089 130.1556368807638 H 0.0 **** 0.06
11820 H 61.14134804701234 128.62384060034734 129.9125911870293 H 0.0 **** 0.06
11821 C 110.88217233873189 103.2778051601678 11.516257227048072 C 0.0 **** -0.24
11822 H 110.9489197523306 102.93405299678857 10.484075604788416 H 0.0 **** 0.06
11823 H 110.02269764231033 103.93989973274252 11.623736113454271 H 0.0 **** 0.06
11824 H 111.79207026131212 103.81659667377149 11.779624136859326 H 0.0 **** 0.06
11825 H 110.76387094226055 102.41874512591794 12.1774851332965 H 0.0 **** 0.06
11826 C 80.26159140651774 14.824188842778113 84.32519535134816 C 0.0 **** -0.24
11827 H 80.95889431961771 15.590431637571271 84.66437422395734 H 0.0 **** 0.06
11828 H 79.83983707512058 14.309073280691536 85.18777919404266 H 0.0 **** 0.06
11829 H 80.78818662203768 14.107839019859824 83.69515800434078 H 0.0 **** 0.06
11830 H 79.46004513785785 15.29101836320541 83.75203440036648 H 0.0 **** 0.06
11831 C 29.397895788713235 101.58140168998477 78.4790068986072 C 0.0 **** -0.24
11832 H 29.89412468855611 102.28078669572938 77.80595328043896 H 0.0 **** 0.06
11833 H 28.8153406155105 102.13754453181389 79.21481621162422 H 0.0 **** 0.06
11834 H 30.146481282082895 100.97610226621947 78.99002160613628 H 0.0 **** 0.06
11835 H 28.735426874075458 100.93314007347038 77.90553285315764 H 0.0 **** 0.06
11836 C 144.6427429914288 49.640394996040996 129.27239491226646 C 0.0 **** -0.24
11837 H 143.62304622313465 49.53580113076525 128.90102136361384 H 0.0 **** 0.06
11838 H 144.75701207723384 49.06193907750068 130.1895012412026 H 0.0 **** 0.06
11839 H 144.84918672609288 50.690697997555816 129.47682153083463 H 0.0 **** 0.06
11840 H 145.3409332952158 49.272409701649224 128.52027736234686 H 0.0 **** 0.06
11841 C 19.098176758547936 18.5276909615922 6.1685302258379195 C 0.0 **** -0.24
11842 H 18.7500450517241 19.52846875416443 5.909594228113299 H 0.0 **** 0.06
11843 H 20.138180007658036 18.415451859766513 5.862649062572878 H 0.0 **** 0.06
11844 H 18.485908656955473 17.78654117153509 5.655027135607256 H 0.0 **** 0.06
11845 H 19.018417420143635 18.383294347377728 7.245428409689211 H 0.0 **** 0.06
11846 C 105.0389776245405 8.657548880887937 43.629446013206504 C 0.0 **** -0.24
11847 H 104.75619019471365 9.34708456764281 42.834032612787425 H 0.0 **** 0.06
11848 H 104.14109046604223 8.212147079605842 44.059611802997665 H 0.0 **** 0.06
11849 H 105.58318700590858 9.19933565353817 44.402855933872814 H 0.0 **** 0.06
11850 H 105.67413780986634 7.871854417078218 43.21948206018932 H 0.0 **** 0.06
11851 C 10.147742330769546 34.54228954226089 121.62687461812247 C 0.0 **** -0.24
11852 H 10.13923254672872 33.5990593831056 122.17290494243856 H 0.0 **** 0.06
11853 H 10.82104081116637 35.24228893165496 122.12270293231087 H 0.0 **** 0.06
11854 H 9.140573805083022 34.95960830382905 121.60647091535041 H 0.0 **** 0.06
11855 H 10.489634519144687 34.36917617868432 120.60737223683459 H 0.0 **** 0.06
11856 C 150.0063671055281 59.168567456513216 62.05410946647682 C 0.0 **** -0.24
11857 H 149.13145756420334 59.69746540228414 62.43234211135457 H 0.0 **** 0.06
11858 H 150.4221985290751 58.54363878082786 62.84457139118038 H 0.0 **** 0.06
11859 H 150.755518566038 59.89132083714759 61.7301213089024 H 0.0 **** 0.06
11860 H 149.71538026820696 58.543299298087916 61.210834886356 H 0.0 **** 0.06
11861 C 59.69703273136753 56.73469595396877 3.513649514348799 C 0.0 **** -0.24
11862 H 59.27541958068582 57.18860749302337 4.409990581275139 H 0.0 **** 0.06
11863 H 59.277622796717935 57.21711119431066 2.6304193439340793 H 0.0 **** 0.06
11864 H 59.456424267324735 55.672007257225346 3.496015664594296 H 0.0 **** 0.06
11865 H 60.77951466103059 56.86295674449498 3.517353140574045 H 0.0 **** 0.06
11866 C 18.630493502310827 133.80021196189628 73.24493818506538 C 0.0 **** -0.24
11867 H 19.012598994857143 132.77875172611203 73.25668963657948 H 0.0 **** 0.06
11868 H 17.802611954044835 133.8861759444457 73.94833991160014 H 0.0 **** 0.06
11869 H 18.281744576238793 134.04568492776448 72.24147672394865 H 0.0 **** 0.06
11870 H 19.426216098259374 134.48765316787262 73.53154384249241 H 0.0 **** 0.06
11871 C 112.60281781990629 148.09404238361384 83.33451499246031 C 0.0 **** -0.24
11872 H 111.53248264683906 148.18157550471102 83.14285565076526 H 0.0 **** 0.06
11873 H 113.0258215764426 149.0864894310167 83.49149704538809 H 0.0 **** 0.06
11874 H 113.08671859847674 147.6235818477927 82.4787255416022 H 0.0 **** 0.06
11875 H 112.76327860838997 147.48490548130528 84.22396495430968 H 0.0 **** 0.06
11876 C 100.0805351827762 11.695476164748591 101.3781011787097 C 0.0 **** -0.24
11877 H 99.16001574424615 11.296957458322446 101.80379056268379 H 0.0 **** 0.06
11878 H 100.00020096931542 11.715440441554684 100.29104803971052 H 0.0 **** 0.06
11879 H 100.91933565122878 11.06121955223378 101.66867486339436 H 0.0 **** 0.06
11880 H 100.24442243630375 12.70706755668116 101.74927699949546 H 0.0 **** 0.06
11881 C 104.64313370326373 151.82373068149812 61.6096674605503 C 0.0 **** -0.24
11882 H 105.30490023587409 151.79975042033547 62.474970093738165 H 0.0 **** 0.06
11883 H 104.18772323300318 150.84279724131113 61.47308573968773 H 0.0 **** 0.06
11884 H 105.21673249596297 152.08417295555685 60.719895617770575 H 0.0 **** 0.06
11885 H 103.86251527015698 152.56722804509056 61.7694491543359 H 0.0 **** 0.06
11886 C 5.136254887870784 18.45689516515864 57.75978770743936 C 0.0 **** -0.24
11887 H 4.519563338261904 18.28171870803638 56.87783451339483 H 0.0 **** 0.06
11888 H 4.665093320144074 17.998953167360582 58.629650100787174 H 0.0 **** 0.06
11889 H 5.238676909182033 19.529681662483654 57.92394171580719 H 0.0 **** 0.06
11890 H 6.121401571899291 18.017042492796747 57.605514254455215 H 0.0 **** 0.06
11891 C 27.718101006222504 42.63792668279471 23.133067110640468 C 0.0 **** -0.24
11892 H 27.233702970149295 43.481840646157835 23.624807340521244 H 0.0 **** 0.06
11893 H 28.112575226694638 41.956511885075486 23.885950627876525 H 0.0 **** 0.06
11894 H 28.533439364485872 43.00109846100108 22.507181097105644 H 0.0 **** 0.06
11895 H 26.991428042964458 42.113400499110725 22.512878148436016 H 0.0 **** 0.06
11896 C 99.08003892904966 114.66448360261218 130.08345276604595 C 0.0 **** -0.24
11897 H 99.53036807860708 113.69918259531228 129.85407695089611 H 0.0 **** 0.06
11898 H 99.47750030957896 115.03531387045298 131.0288902705299 H 0.0 **** 0.06
11899 H 97.99820527946262 114.55208229673313 130.16274091531167 H 0.0 **** 0.06
11900 H 99.3136660235118 115.37291058968573 129.28874259690437 H 0.0 **** 0.06
11901 C 27.072963718098556 145.1757396242315 61.48177385928139 C 0.0 **** -0.24
11902 H 26.319348557336703 145.95432889833015 61.6069723354623 H 0.0 **** 0.06
11903 H 27.667499902810675 145.3869994290247 60.59280946209823 H 0.0 **** 0.06
11904 H 26.580299212525077 144.20946847458842 61.36999976980047 H 0.0 **** 0.06
11905 H 27.721578839719662 145.1536383492776 62.35749620568092 H 0.0 **** 0.06
11906 C 78.46131558712693 142.17603008875017 101.92349833276971 C 0.0 **** -0.24
11907 H 79.01490431099505 141.51741231376127 102.59241896259978 H 0.0 **** 0.06
11908 H 78.2854863189418 141.66651491888928 100.97586494102724 H 0.0 **** 0.06
11909 H 79.03878517171445 143.08263886128924 101.7469932805668 H 0.0 **** 0.06
11910 H 77.50616043144042 142.43625077189984 102.37925976639737 H 0.0 **** 0.06
11911 C 8.783806849593134 6.063628570176149 0.2759533699830534 C 0.0 **** -0.24
11912 H 9.38869008956641 5.458829003370283 0.9514416497667675 H 0.0 **** 0.06
11913 H 9.304301125462189 6.997612728387935 0.06013625318805893 H 0.0 **** 0.06
11914 H 7.825246901856559 6.282181268636805 0.7456736990964714 H 0.0 **** 0.06
11915 H 8.617958486493364 5.516876281634552 -0.651680118480499 H 0.0 **** 0.06
11916 C 86.22748684826863 85.71346211493824 30.54714240334104 C 0.0 **** -0.24
11917 H 86.89894185731825 86.57235861038683 30.54238136649508 H 0.0 **** 0.06
11918 H 86.80432186651308 84.80026309930342 30.40436440571399 H 0.0 **** 0.06
11919 H 85.50176154722271 85.81496666689159 29.739947074548837 H 0.0 **** 0.06
11920 H 85.70380742573639 85.66710701019294 31.50207734554904 H 0.0 **** 0.06
11921 C 17.42719764599633 131.69979650650038 144.64301661455178 C 0.0 **** -0.24
11922 H 17.923701016858814 131.83661722167062 143.68233135532273 H 0.0 **** 0.06
11923 H 17.16545016089009 132.6731828147575 145.05826476983864 H 0.0 **** 0.06
11924 H 18.09930756225586 131.18199459632393 145.32764215332367 H 0.0 **** 0.06
11925 H 16.52232276062901 131.10827440469703 144.50332151964818 H 0.0 **** 0.06
11926 C 50.00650312026089 136.1551027704666 151.6182037472764 C 0.0 **** -0.24
11927 H 49.908567448826986 135.06926570341426 151.6355001681245 H 0.0 **** 0.06
11928 H 51.0311290660311 136.4314537875007 151.86835466280203 H 0.0 **** 0.06
11929 H 49.32284929966836 136.59350079746667 152.34476019633217 H 0.0 **** 0.06
11930 H 49.76442026310825 136.52473820695235 150.62120312409667 H 0.0 **** 0.06
11931 C 1.9918123980210964 135.7199241047215 9.562437473986506 C 0.0 **** -0.24
11932 H 2.721428576265396 135.0346390499513 9.994423946426195 H 0.0 **** 0.06
11933 H 2.4139887896504604 136.18280007299145 8.669889639510757 H 0.0 **** 0.06
11934 H 1.7430671494115018 136.49120522116073 10.290099381188838 H 0.0 **** 0.06
11935 H 1.0907679712150582 135.16838392260001 9.293969522198893 H 0.0 **** 0.06
11936 C 98.67473372311365 109.99834441389787 34.26733971776206 C 0.0 **** -0.24
11937 H 99.50084155987967 110.6710720556349 34.498318162177206 H 0.0 **** 0.06
11938 H 97.74773398813352 110.56908885735915 34.2081623723248 H 0.0 **** 0.06
11939 H 98.58913933107104 109.2455763685088 35.05057373097822 H 0.0 **** 0.06
11940 H 98.86206588816096 109.50824368159063 33.31134513644607 H 0.0 **** 0.06
11941 C 112.46264104136803 63.47623240859919 72.83255976177685 C 0.0 **** -0.24
11942 H 113.44824253381249 63.82859055622322 72.52830311657598 H 0.0 **** 0.06
11943 H 112.36492791049805 63.563092546309335 73.91531189190499 H 0.0 **** 0.06
11944 H 112.34376872857972 62.433510601011434 72.53937508954101 H 0.0 **** 0.06
11945 H 111.69608967604175 64.08008821007742 72.34892272557559 H 0.0 **** 0.06
11946 C 36.65986033267245 151.17188349017192 113.84589608754415 C 0.0 **** -0.24
11947 H 36.0354204825623 150.44292012489774 113.32890191657968 H 0.0 **** 0.06
11948 H 37.0132714008638 151.91649205732995 113.13225655206269 H 0.0 **** 0.06
11949 H 37.51261848567674 150.66433417793382 114.29604148343005 H 0.0 **** 0.06
11950 H 36.07586675356089 151.66189515971791 114.62524758004547 H 0.0 **** 0.06
11951 C 126.66542395437777 64.57066221949611 145.2893704704238 C 0.0 **** -0.24
11952 H 127.26052740196458 65.45971727879643 145.49920058106474 H 0.0 **** 0.06
11953 H 126.55058502640195 63.98732667804683 146.20413241100175 H 0.0 **** 0.06
11954 H 127.16811838100513 63.967273278767635 144.53385888637123 H 0.0 **** 0.06
11955 H 125.6838706699149 64.86914992641897 144.92300198623872 H 0.0 **** 0.06
11956 C 122.16711268801627 4.138037940734023 98.34399915425178 C 0.0 **** -0.24
11957 H 122.59682403007913 4.668308904290143 99.1941130012105 H 0.0 **** 0.06
11958 H 121.22770363622708 3.6736025454844707 98.64217030537336 H 0.0 **** 0.06
11959 H 122.86217670981544 3.3684223256659607 98.00731606335255 H 0.0 **** 0.06
11960 H 121.98392909398159 4.842267546966866 97.5322133966 H 0.0 **** 0.06
11961 C 131.7866054254381 45.88151679296574 48.38930026202979 C 0.0 **** -0.24
11962 H 130.77017908934573 45.651181825491776 48.06965047667779 H 0.0 **** 0.06
11963 H 131.75493139245128 46.42742267495768 49.33242920758153 H 0.0 **** 0.06
11964 H 132.27528246364886 46.494178406129706 47.631412284923385 H 0.0 **** 0.06
11965 H 132.34379280274106 44.95528272256648 48.52362557391655 H 0.0 **** 0.06
11966 C 28.314947772538524 36.98051641021989 93.62598496814967 C 0.0 **** -0.24
11967 H 29.381669333854035 37.15542831002091 93.76900817054019 H 0.0 **** 0.06
11968 H 28.137782936936063 36.63391433265461 92.60827957659063 H 0.0 **** 0.06
11969 H 27.769207295525483 37.90844199441284 93.79486685039262 H 0.0 **** 0.06
11970 H 27.972907210777997 36.22419476422091 94.33314161624837 H 0.0 **** 0.06
11971 C 30.98171479345612 7.012483461715846 17.176980578886074 C 0.0 **** -0.24
11972 H 30.760976066644545 6.651609133968286 16.17210256353063 H 0.0 **** 0.06
11973 H 30.607450004859224 6.297689758508483 17.909280704363994 H 0.0 **** 0.06
11974 H 30.497499765329962 7.977495315189074 17.32986168379803 H 0.0 **** 0.06
11975 H 32.059276690059356 7.12369409966508 17.29352323676494 H 0.0 **** 0.06
11976 C 40.2206306373037 107.66213485386284 56.73481229038825 C 0.0 **** -0.24
11977 H 40.1756075281623 107.113230528729 57.67547409714517 H 0.0 **** 0.06
11978 H 40.91574222586658 108.49655036401099 56.83432785192757 H 0.0 **** 0.06
11979 H 39.2295982759714 108.04315582144984 56.488935204113005 H 0.0 **** 0.06
11980 H 40.56194578754915 106.99681509152099 55.94113837469878 H 0.0 **** 0.06
11981 C 128.7228554042517 130.5575638233086 107.33135375702095 C 0.0 **** -0.24
11982 H 129.5401730556929 131.1760497456499 107.70386782461075 H 0.0 **** 0.06
11983 H 129.09956938005556 129.56291393092621 107.09294687299497 H 0.0 **** 0.06
11984 H 128.30432096596257 131.01246041029125 106.43333554763363 H 0.0 **** 0.06
11985 H 127.94809113867895 130.4803791325461 108.09351351383101 H 0.0 **** 0.06
11986 C 125.3579819660099 9.941961382040176 36.49874140287791 C 0.0 **** -0.24
11987 H 124.90791649296142 9.976492473730673 35.50626351079468 H 0.0 **** 0.06
11988 H 125.69078547609166 8.92600792676592 36.71146910148438 H 0.0 **** 0.06
11989 H 124.62217146288697 10.246322760712928 37.24236072120864 H 0.0 **** 0.06
11990 H 126.2122996829703 10.6190463454123 36.53366858663827 H 0.0 **** 0.06
11991 C 73.52991008123082 46.3330023139096 148.48592001068053 C 0.0 **** -0.24
11992 H 73.40071673367778 47.05079322718328 147.67628741955014 H 0.0 **** 0.06
11993 H 74.07523661743933 45.46449697820391 148.11691443682076 H 0.0 **** 0.06
11994 H 72.5526810471973 46.020101650262845 148.8541526451007 H 0.0 **** 0.06
11995 H 74.09212567342695 46.798552761928505 149.29635207373786 H 0.0 **** 0.06
11996 C 60.55927514853647 19.754870880568888 71.32789314130619 C 0.0 **** -0.24
11997 H 60.91147959260107 19.751775539504806 72.35985154579453 H 0.0 **** 0.06
11998 H 60.10940696905176 18.789757009587092 71.09572618413546 H 0.0 **** 0.06
11999 H 61.399448090216936 19.936173648774698 70.65768168195305 H 0.0 **** 0.06
12000 H 59.816824896889585 20.5432041433156 71.20003387264165 H 0.0 **** 0.06
12001 C 131.7860028795501 107.24591586938533 87.7853164107437 C 0.0 **** -0.24
12002 H 131.10170488024914 107.7343399687253 88.47846270946783 H 0.0 **** 0.06
12003 H 131.29035417984022 106.38722234600192 87.33059613907504 H 0.0 **** 0.06
12004 H 132.67227080496053 106.9119840535559 88.3241432402824 H 0.0 **** 0.06
12005 H 132.07828484202324 107.9512222425771 87.00638194946306 H 0.0 **** 0.06
12006 C 52.49747888461832 106.33975606315465 29.35236025700867 C 0.0 **** -0.24
12007 H 52.77574265706073 105.43724379137336 28.80827061390545 H 0.0 **** 0.06
12008 H 52.66195829365586 107.21035930522481 28.716599904732618 H 0.0 **** 0.06
12009 H 53.10765159908402 106.42553945996673 30.250681519794483 H 0.0 **** 0.06
12010 H 51.44497976840108 106.28622057844149 29.630937422843246 H 0.0 **** 0.06
12011 C 136.1320222346077 30.341020616931836 106.95365604670553 C 0.0 **** -0.24
12012 H 137.081140226924 30.3898931489215 107.48701162196244 H 0.0 **** 0.06
12013 H 135.80273669822984 29.304142720356943 106.89205321094227 H 0.0 **** 0.06
12014 H 136.26066416300773 30.742008758138248 105.94774826198267 H 0.0 **** 0.06
12015 H 135.38511073540926 30.92896345447008 107.4865069480719 H 0.0 **** 0.06
12016 C 72.4796377113446 68.9699742887868 37.31748709662202 C 0.0 **** -0.24
12017 H 73.33276766364673 69.6469940476222 37.36238926770939 H 0.0 **** 0.06
12018 H 72.31254234347414 68.53050116537855 38.301073491323834 H 0.0 **** 0.06
12019 H 72.68196236836698 68.17857014196596 36.59574345597237 H 0.0 **** 0.06
12020 H 71.59289465023636 69.52320910781992 37.010759862228184 H 0.0 **** 0.06
12021 C 116.88332925720344 63.14575593629007 148.74985048318692 C 0.0 **** -0.24
12022 H 116.20713125516333 62.73809683453294 149.5016350310304 H 0.0 **** 0.06
12023 H 116.5214392399382 64.12319438802729 148.42921144321173 H 0.0 **** 0.06
12024 H 116.9216538378853 62.472717880161326 147.89340569948965 H 0.0 **** 0.06
12025 H 117.88129661873371 63.248823775029905 149.17600871588706 H 0.0 **** 0.06
12026 C 27.389408639424516 155.30001516783688 133.94023690694232 C 0.0 **** -0.24
12027 H 27.459915694250732 154.4327578485046 133.28379942662315 H 0.0 **** 0.06
12028 H 26.379291728442865 155.36843048514356 134.34441984898507 H 0.0 **** 0.06
12029 H 27.615722876731795 156.2031454084093 133.37384985631252 H 0.0 **** 0.06
12030 H 28.10287051067371 155.19603725657294 134.75794249923206 H 0.0 **** 0.06
12031 C 39.77736151553751 58.85504326249651 143.1446483530379 C 0.0 **** -0.24
12032 H 38.90082897371775 59.0553126395028 142.5291936256046 H 0.0 **** 0.06
12033 H 40.3916570581614 58.091922555892836 142.66564994104397 H 0.0 **** 0.06
12034 H 39.45952706318721 58.50307600555209 144.12591282885842 H 0.0 **** 0.06
12035 H 40.35822548801909 59.77100181941421 143.25810616940436 H 0.0 **** 0.06
12036 C 67.25619596685443 125.84562751369383 31.253023538731128 C 0.0 **** -0.24
12037 H 66.95184131948147 125.12360358626468 32.010457597515824 H 0.0 **** 0.06
12038 H 68.26862656391474 125.61687614257285 30.919122668427235 H 0.0 **** 0.06
12039 H 67.23140051100884 126.849355303309 31.67659568266083 H 0.0 **** 0.06
12040 H 66.57274477625185 125.79140403342073 30.405321956249296 H 0.0 **** 0.06
12041 C 8.271600876977118 50.20332520425211 29.425345993734567 C 0.0 **** -0.24
12042 H 8.857369380107059 51.054766961040826 29.081309931006473 H 0.0 **** 0.06
12043 H 8.490989590910857 50.01120362562837 30.475688112975376 H 0.0 **** 0.06
12044 H 8.526222603636057 49.324788300454216 28.83311518308639 H 0.0 **** 0.06
12045 H 7.21020154487303 50.422669001192205 29.310105276045306 H 0.0 **** 0.06
12046 C 120.05065033288935 32.81378820999791 29.836896431460843 C 0.0 **** -0.24
12047 H 121.1241447557424 32.7956775600305 29.649382719203032 H 0.0 **** 0.06
12048 H 119.8133316858254 32.13756577824657 30.657761664799978 H 0.0 **** 0.06
12049 H 119.52077315631783 32.49544002266947 28.93871754923464 H 0.0 **** 0.06
12050 H 119.74400653344384 33.82666924646763 30.099306950641875 H 0.0 **** 0.06
12051 C 2.2481664780386765 44.05940764832667 70.01974499709327 C 0.0 **** -0.24
12052 H 2.4142409000060248 43.718337802933945 71.04080536014251 H 0.0 **** 0.06
12053 H 2.8600465702169657 44.9404190942023 69.82649580488989 H 0.0 **** 0.06
12054 H 1.1961290346248994 44.31253394450596 69.88855823817559 H 0.0 **** 0.06
12055 H 2.5207081952343593 43.26670086644549 69.32241747840828 H 0.0 **** 0.06
12056 C 25.539484422057278 105.49992321530065 141.61112926492675 C 0.0 **** -0.24
12057 H 26.02819189990712 106.3693865280021 142.05027753760308 H 0.0 **** 0.06
12058 H 25.044900480059212 104.92655529676723 142.39495871959403 H 0.0 **** 0.06
12059 H 26.285199217214767 104.8747590678479 141.1186874440253 H 0.0 **** 0.06
12060 H 24.8005693003578 105.828618081393 140.88050433328073 H 0.0 **** 0.06
12061 C 111.19349480093302 9.016059715834352 112.03546024896725 C 0.0 **** -0.24
12062 H 110.8621164980135 8.000679846116554 111.81880199252198 H 0.0 **** 0.06
12063 H 111.24887825841836 9.585758298387098 111.10656200588723 H 0.0 **** 0.06
12064 H 112.17808241552467 8.984893000397605 112.50243513846185 H 0.0 **** 0.06
12065 H 110.48397121455969 9.49216619657269 112.71278335898343 H 0.0 **** 0.06
12066 C 7.209643736015693 103.63534395893389 28.730243892616784 C 0.0 **** -0.24
12067 H 7.453852261132653 103.44954545030565 27.68385686407629 H 0.0 **** 0.06
12068 H 6.286691063554031 103.11469152381842 28.98534205765094 H 0.0 **** 0.06
12069 H 7.079915403804478 104.70554767656755 28.888983331991426 H 0.0 **** 0.06
12070 H 8.01945606164611 103.27009019659691 29.361817607300964 H 0.0 **** 0.06
12071 C 30.8396049718069 143.11895511651687 45.28100580267028 C 0.0 **** -0.24
12072 H 30.575588759178423 142.06225786589854 45.2932523425315 H 0.0 **** 0.06
12073 H 30.03654742158441 143.6995607685236 45.73552569763655 H 0.0 **** 0.06
12074 H 30.987458717424538 143.44500479503517 44.251138543901334 H 0.0 **** 0.06
12075 H 31.76097222992678 143.26967269306894 45.845072566683996 H 0.0 **** 0.06
12076 C 9.326146277911114 118.84336891465689 144.96308078228418 C 0.0 **** -0.24
12077 H 8.560432941576877 119.3898290271644 144.41303161800283 H 0.0 **** 0.06
12078 H 10.313180073525501 119.16327785362442 144.6265970778208 H 0.0 **** 0.06
12079 H 9.208650509059723 117.77482642036294 144.78504054326254 H 0.0 **** 0.06
12080 H 9.22243682028683 119.04749204581022 146.02913227839514 H 0.0 **** 0.06
12081 C 143.336024723783 55.50811243066687 46.08875495554463 C 0.0 **** -0.24
12082 H 144.19589234611502 55.44058133973277 46.75506335883648 H 0.0 **** 0.06
12083 H 143.36275061381937 56.460620019479336 45.55681249273243 H 0.0 **** 0.06
12084 H 142.41733106695906 55.444567609649766 46.673008097206605 H 0.0 **** 0.06
12085 H 143.36752949733895 54.68879279996838 45.370565939963626 H 0.0 **** 0.06
12086 C 86.51470709117788 93.29861750486117 155.18071258066198 C 0.0 **** -0.24
12087 H 86.06112338740874 94.27966354287264 155.32397173714054 H 0.0 **** 0.06
12088 H 87.57355469301126 93.34625005088753 155.43466053139053 H 0.0 **** 0.06
12089 H 86.40371186685263 92.99516571486976 154.1395201129383 H 0.0 **** 0.06
12090 H 86.01872672485919 92.5721442539168 155.82592946422437 H 0.0 **** 0.06
12091 C 129.54993538399316 53.71429626046233 12.735018656757148 C 0.0 **** -0.24
12092 H 130.59681023196134 53.89395690580642 12.979885516412374 H 0.0 **** 0.06
12093 H 128.91489090372232 54.200021171730555 13.476775040196543 H 0.0 **** 0.06
12094 H 129.35571530648315 52.64213116103517 12.737069226274905 H 0.0 **** 0.06
12095 H 129.3322562671979 54.121799460318925 11.747557959342636 H 0.0 **** 0.06
12096 C 23.173301901590435 71.6149059953429 74.30056576202152 C 0.0 **** -0.24
12097 H 23.245440450184844 70.52978986714528 74.23418311235507 H 0.0 **** 0.06
12098 H 22.18366696069569 71.93437291176869 73.97459761821888 H 0.0 **** 0.06
12099 H 23.93042548266766 72.06823989008778 73.65995748291049 H 0.0 **** 0.06
12100 H 23.335152008274576 71.92739526572488 75.3315786759109 H 0.0 **** 0.06
12101 C 67.25768057899487 97.90556864995388 38.58846122960989 C 0.0 **** -0.24
12102 H 66.5884740790329 97.98316464305032 37.732026078234924 H 0.0 **** 0.06
12103 H 67.93597702199877 98.75971807852888 38.59737264596589 H 0.0 **** 0.06
12104 H 67.83499568173814 96.98365876689381 38.5165437779271 H 0.0 **** 0.06
12105 H 66.67153039900906 97.89767170981608 39.506817500586465 H 0.0 **** 0.06
12106 C 109.28884437249452 49.99953575265347 57.86049315180513 C 0.0 **** -0.24
12107 H 110.19388093856499 49.6586986516687 58.363219272306495 H 0.0 **** 0.06
12108 H 109.39583660024958 49.85773641720523 56.78371351913276 H 0.0 **** 0.06
12109 H 109.13051194725914 51.057403847039865 58.073703513257485 H 0.0 **** 0.06
12110 H 108.43523311506466 49.42476004355632 58.22000028911424 H 0.0 **** 0.06
12111 C 42.940683097440115 36.36839791505615 75.13260237385008 C 0.0 **** -0.24
12112 H 43.29929154730513 35.51673987783704 75.71118880414315 H 0.0 **** 0.06
12113 H 43.70847868897448 37.1435027580323 75.11484949246702 H 0.0 **** 0.06
12114 H 42.03496867756439 36.764825002738476 75.59094570251155 H 0.0 **** 0.06
12115 H 42.72288989412573 36.049080053599056 74.11397493502629 H 0.0 **** 0.06
12116 C 91.65575413782938 24.325727977509693 125.20900954195338 C 0.0 **** -0.24
12117 H 91.46049352518725 23.264669453421966 125.0539844810641 H 0.0 **** 0.06
12118 H 92.54376160358828 24.617775757910934 124.64818558152592 H 0.0 **** 0.06
12119 H 91.8173121835215 24.513183695757107 126.27044725362094 H 0.0 **** 0.06
12120 H 90.80081213116001 24.906112463664208 124.86389413424229 H 0.0 **** 0.06
12121 C 42.929686618342984 58.24029617544835 62.07288874238695 C 0.0 **** -0.24
12122 H 42.1917444864945 57.484828254262894 62.33939248154631 H 0.0 **** 0.06
12123 H 42.562352315765665 59.22510538036846 62.36354670114912 H 0.0 **** 0.06
12124 H 43.10003340225937 58.21852007362807 60.996123460562046 H 0.0 **** 0.06
12125 H 43.865021772990616 58.03329956144991 62.593208098229354 H 0.0 **** 0.06
12126 C 82.1817164629245 116.70674258342149 15.20638420397023 C 0.0 **** -0.24
12127 H 82.01710518515054 116.85977265880013 16.272845448586907 H 0.0 **** 0.06
12128 H 83.18679703656983 116.31501689250541 15.046247596818091 H 0.0 **** 0.06
12129 H 82.0739143577675 117.65663889840368 14.682964333164875 H 0.0 **** 0.06
12130 H 81.4496554599364 115.99579015946739 14.824235035266724 H 0.0 **** 0.06
12131 C 42.220225662802136 141.16850058432544 95.49788108830946 C 0.0 **** -0.24
12132 H 42.576004768855626 141.86297071113108 96.25773770730939 H 0.0 **** 0.06
12133 H 41.342671369814866 141.58844003062086 95.00358150038733 H 0.0 **** 0.06
12134 H 41.953984488687524 140.221633905026 95.96757864889861 H 0.0 **** 0.06
12135 H 43.00629758308378 141.0003927183497 94.7616777504726 H 0.0 **** 0.06
12136 C 22.397244331984552 141.61087277566105 6.05430172667382 C 0.0 **** -0.24
12137 H 21.676413444351624 142.2445508445813 5.536568549288575 H 0.0 **** 0.06
12138 H 22.850269820554047 142.16956679443794 6.872804961641762 H 0.0 **** 0.06
12139 H 23.171735596120214 141.29690871107292 5.354488522665342 H 0.0 **** 0.06
12140 H 21.88845909103148 140.7319537950542 6.451263566708796 H 0.0 **** 0.06
12141 C 140.97291199955455 32.46241294362992 47.097977374223206 C 0.0 **** -0.24
12142 H 140.26188214596388 32.656936975809955 47.90077287256673 H 0.0 **** 0.06
12143 H 140.54279872844518 31.74724705404011 46.396911763468864 H 0.0 **** 0.06
12144 H 141.89161521620562 32.05276797235083 47.518372525337185 H 0.0 **** 0.06
12145 H 141.19596063871424 33.393940765448264 46.57787460597274 H 0.0 **** 0.06
12146 C 150.41043060698533 32.61375018299975 9.387386741901366 C 0.0 **** -0.24
12147 H 149.6212415848847 32.91076918460476 8.696716726679227 H 0.0 **** 0.06
12148 H 151.15735635882203 33.40588126831187 9.44819765719052 H 0.0 **** 0.06
12149 H 150.87964509685867 31.69711230508051 9.030313321757376 H 0.0 **** 0.06
12150 H 149.98201962093157 32.44170270330244 10.375605045320697 H 0.0 **** 0.06
12151 C 75.56679590436573 19.44016815551089 6.633784343751131 C 0.0 **** -0.24
12152 H 76.22028463897374 20.131222557798424 6.100352068657713 H 0.0 **** 0.06
12153 H 76.14561722359235 18.898172513477107 7.38253284512524 H 0.0 **** 0.06
12154 H 75.13235050397188 18.7329457460213 5.927313307131612 H 0.0 **** 0.06
12155 H 74.77038966742305 19.999699110682513 7.124878937855641 H 0.0 **** 0.06
12156 C 119.86943006530873 24.347701060748292 135.86715911692983 C 0.0 **** -0.24
12157 H 120.88608062892877 23.99515435130745 135.69611208128714 H 0.0 **** 0.06
12158 H 119.37735195560214 24.516079731436953 134.90826522860982 H 0.0 **** 0.06
12159 H 119.89802778354687 25.280996226030474 136.42960465145705 H 0.0 **** 0.06
12160 H 119.31591674362198 23.598335302804188 136.4324578119863 H 0.0 **** 0.06
12161 C 38.11333995003828 33.410589609207854 46.27425741314377 C 0.0 **** -0.24
12162 H 39.03062334988657 33.276803166968726 46.84706802851875 H 0.0 **** 0.06
12163 H 37.516551872081365 34.204227085852025 46.725065857971515 H 0.0 **** 0.06
12164 H 37.54392559046465 32.48100279600076 46.278765637161996 H 0.0 **** 0.06
12165 H 38.36084226070247 33.67954865033896 45.24797125858821 H 0.0 **** 0.06
12166 C 11.193321666156592 28.309627814675878 125.87822429266019 C 0.0 **** -0.24
12167 H 11.840955241808388 29.160891329459716 125.66765871762509 H 0.0 **** 0.06
12168 H 10.380688695785395 28.62409002222904 126.53340126112936 H 0.0 **** 0.06
12169 H 11.771537549401856 27.5247450999735 126.36534047293965 H 0.0 **** 0.06
12170 H 10.779504104514274 27.92907907800057 124.94357226880031 H 0.0 **** 0.06
12171 C 132.0625216102452 43.38405587747208 114.08041851630365 C 0.0 **** -0.24
12172 H 132.77613678631826 42.647477041395035 113.70951999817258 H 0.0 **** 0.06
12173 H 132.55498803735316 44.034322830260734 114.8032645386411 H 0.0 **** 0.06
12174 H 131.22939430243468 42.87098979906352 114.55976570466807 H 0.0 **** 0.06
12175 H 131.69070293853042 43.980633737622895 113.24775629008052 H 0.0 **** 0.06
12176 C 22.766107440821273 139.80725008311376 17.26411312006617 C 0.0 **** -0.24
12177 H 21.89556938059097 140.04031707013968 16.651052818808473 H 0.0 **** 0.06
12178 H 23.67222646957753 139.93363063335028 16.672117416409094 H 0.0 **** 0.06
12179 H 22.699443262094604 138.77643923765044 17.61255618544427 H 0.0 **** 0.06
12180 H 22.796103423134795 140.47969568101956 18.1220093034279 H 0.0 **** 0.06
12181 C 93.99797802607267 56.83693205285539 125.4394375965885 C 0.0 **** -0.24
12182 H 93.99361603898164 55.76005440818108 125.2717946058882 H 0.0 **** 0.06
12183 H 93.38501625617077 57.32498632845764 124.68046683028592 H 0.0 **** 0.06
12184 H 95.02007314106359 57.20990097583572 125.37673658472988 H 0.0 **** 0.06
12185 H 93.59269510045876 57.051700517183946 126.42800469755343 H 0.0 **** 0.06
12186 C 7.71434391071864 40.271103214165635 40.577180690516755 C 0.0 **** -0.24
12187 H 7.428920967642796 39.22394967030675 40.470358816778855 H 0.0 **** 0.06
12188 H 8.009658207510256 40.46252415121697 41.60892880431112 H 0.0 **** 0.06
12189 H 6.868433076727854 40.906797440891694 40.316876329715 H 0.0 **** 0.06
12190 H 8.551098848509184 40.48778075455243 39.91296408818839 H 0.0 **** 0.06
12191 C 45.763754467254 76.23727015378071 55.31934959932414 C 0.0 **** -0.24
12192 H 46.6413969749556 76.87339883234928 55.20466480105729 H 0.0 **** 0.06
12193 H 44.86573770640365 76.81694002579816 55.10890159286093 H 0.0 **** 0.06
12194 H 45.72194720679012 75.85836546051951 56.34055626792059 H 0.0 **** 0.06
12195 H 45.82815935570994 75.40058985943736 54.62338136645518 H 0.0 **** 0.06
12196 C 155.251415041557 32.23246117761681 87.34890760595229 C 0.0 **** -0.24
12197 H 155.85814185602288 32.61603278758844 86.52921252085561 H 0.0 **** 0.06
12198 H 155.18934372726613 32.98286099340302 88.13722223155054 H 0.0 **** 0.06
12199 H 155.70963443410773 31.326191620656942 87.74656473514939 H 0.0 **** 0.06
12200 H 154.25095578076727 32.0034443813401 86.98382926050978 H 0.0 **** 0.06
12201 C 106.71964048547062 72.4276082424065 107.79744988647836 C 0.0 **** -0.24
12202 H 106.19885198616396 72.67856123444832 106.87309031179741 H 0.0 **** 0.06
12203 H 107.68867766090705 72.92760051665971 107.81483922992034 H 0.0 **** 0.06
12204 H 106.86567540101817 71.34829566333022 107.85051458525534 H 0.0 **** 0.06
12205 H 106.1248842266761 72.75618734933991 108.65049998829879 H 0.0 **** 0.06
12206 C 112.29553406508137 98.42692928549718 152.7273025030056 C 0.0 **** -0.24
12207 H 112.35759827003756 97.74334131149473 151.88023272673854 H 0.0 **** 0.06
12208 H 111.70954845161526 99.30250578406664 152.44482350813547 H 0.0 **** 0.06
12209 H 113.29844945590997 98.73883216503165 153.01662575173657 H 0.0 **** 0.06
12210 H 111.81503320312271 97.92337500285213 153.56591067399 H 0.0 **** 0.06
12211 C 27.64993062762762 0.07655171011901984 16.026076729187963 C 0.0 **** -0.24
12212 H 28.02837172085671 -0.3489526874997466 15.096769454646392 H 0.0 **** 0.06
12213 H 28.440678080925053 0.06924426796365424 16.776449134695042 H 0.0 **** 0.06
12214 H 26.80726464816928 -0.5176161638082419 16.379938656289596 H 0.0 **** 0.06
12215 H 27.32402341412783 1.1008881895921263 15.850352856714835 H 0.0 **** 0.06
12216 C 66.7125189364542 87.78777596963815 95.00591259346393 C 0.0 **** -0.24
12217 H 66.65729398888611 88.33499974682417 95.94672925937736 H 0.0 **** 0.06
12218 H 67.75675870030453 87.65642482474173 94.7233566791834 H 0.0 **** 0.06
12219 H 66.19280160975039 88.34833811521906 94.2288130785005 H 0.0 **** 0.06
12220 H 66.2418875929706 86.81112022628992 95.12516617376149 H 0.0 **** 0.06
12221 C 31.071650163503563 37.68069221462696 38.26192589507221 C 0.0 **** -0.24
12222 H 30.5103973259438 38.53478197861989 37.88243859503481 H 0.0 **** 0.06
12223 H 31.699706510508932 38.00030281970089 39.09381830099366 H 0.0 **** 0.06
12224 H 31.698956341952055 37.276023350216946 37.46755145805638 H 0.0 **** 0.06
12225 H 30.377888312800252 36.91301148601531 38.60366181998393 H 0.0 **** 0.06
12226 C 154.82011609430702 118.57284685050685 109.62866324392554 C 0.0 **** -0.24
12227 H 154.70003136304797 118.45557471004766 108.55162165867004 H 0.0 **** 0.06
12228 H 155.8800228087789 118.54755462793106 109.88125921151844 H 0.0 **** 0.06
12229 H 154.30365024647568 117.76134407704221 110.14203637460015 H 0.0 **** 0.06
12230 H 154.39461962187454 119.5263138085975 109.93997843635931 H 0.0 **** 0.06
12231 C 131.36376061366013 34.011110050722095 113.99790118203039 C 0.0 **** -0.24
12232 H 130.7567401471359 34.02591245352198 114.90415929913807 H 0.0 **** 0.06
12233 H 131.6447093406494 32.98333483027932 113.76611764376587 H 0.0 **** 0.06
12234 H 132.26283688556842 34.607705274836576 114.15478232206497 H 0.0 **** 0.06
12235 H 130.78979631713722 34.42765574456371 113.17001692080147 H 0.0 **** 0.06
12236 C 80.46266482422074 81.08301118185649 155.91312178940848 C 0.0 **** -0.24
12237 H 80.95287379200514 80.28219668761687 156.46653391192433 H 0.0 **** 0.06
12238 H 79.817020502344 80.65189468532861 155.1471689909844 H 0.0 **** 0.06
12239 H 81.21667179270736 81.71268531744563 155.4405504686115 H 0.0 **** 0.06
12240 H 79.86416109601544 81.68315056480144 156.59751833831382 H 0.0 **** 0.06
12241 C 101.75764652580216 5.225067877734375 102.62377790439747 C 0.0 **** -0.24
12242 H 101.29327439488014 4.7677972491389085 101.74940681321992 H 0.0 **** 0.06
12243 H 102.15755592435067 6.201655681235337 102.35226292820927 H 0.0 **** 0.06
12244 H 102.56591598980714 4.5860067584739 102.97999840690393 H 0.0 **** 0.06
12245 H 101.01292588677848 5.341954228088866 103.41120753868934 H 0.0 **** 0.06
12246 C 18.69748982123241 71.60578176339203 73.4292340824887 C 0.0 **** -0.24
12247 H 19.65226078095037 71.11119424457092 73.24933331273998 H 0.0 **** 0.06
12248 H 18.037995763686524 70.93380926998532 73.97803843107268 H 0.0 **** 0.06
12249 H 18.239183178980227 71.86672632076252 72.4746081481522 H 0.0 **** 0.06
12250 H 18.8616958453822 72.51193369871353 74.012875875615 H 0.0 **** 0.06
12251 C 1.0218753582753664 145.85732037508805 39.254364799379715 C 0.0 **** -0.24
12252 H 1.2738572808539175 146.5522174129093 38.453123951008465 H 0.0 **** 0.06
12253 H 1.6128126343562599 144.94717074320297 39.14338951957022 H 0.0 **** 0.06
12254 H -0.03854792049909861 145.611540773738 39.201501623555984 H 0.0 **** 0.06
12255 H 1.2408015383654742 146.3180592618734 40.217743584505314 H 0.0 **** 0.06
12256 C 15.047336787044742 94.46473748751993 103.25249119245444 C 0.0 **** -0.24
12257 H 15.607705098921883 93.53076970072084 103.29751570724392 H 0.0 **** 0.06
12258 H 15.515803127494252 95.20193887903196 103.90457482858181 H 0.0 **** 0.06
12259 H 14.022536750866465 94.28993835901832 103.57922013622141 H 0.0 **** 0.06
12260 H 15.043525550536003 94.83633118197451 102.22725789826865 H 0.0 **** 0.06
12261 C 151.62232654961244 31.717068940380017 145.74971922346853 C 0.0 **** -0.24
12262 H 151.18394289888704 32.57380744139053 146.26167097156227 H 0.0 **** 0.06
12263 H 150.85716008015 31.221392051264218 145.15149318131256 H 0.0 **** 0.06
12264 H 152.0176680161687 31.016489076092512 146.4857672346431 H 0.0 **** 0.06
12265 H 152.4298399470871 32.05505296965764 145.10034908529323 H 0.0 **** 0.06
12266 C 151.75144672614806 0.5984557215857649 94.63305663535368 C 0.0 **** -0.24
12267 H 151.59301241143416 -0.021163959998546034 93.7502176353068 H 0.0 **** 0.06
12268 H 151.62877462059762 -0.00844431413241864 95.52935319752595 H 0.0 **** 0.06
12269 H 151.0233126811963 1.4105919041579114 94.64049705596895 H 0.0 **** 0.06
12270 H 152.75869392338205 1.0143064955807972 94.60935249021793 H 0.0 **** 0.06
12271 C 141.1083852215405 1.3068665845933936 33.919906204204835 C 0.0 **** -0.24
12272 H 140.4159050997476 0.6128089934547347 34.39539541248312 H 0.0 **** 0.06
12273 H 140.7757969646754 1.5115029549295116 32.902498880497006 H 0.0 **** 0.06
12274 H 142.1049728504135 0.8656830115746175 33.8954964833534 H 0.0 **** 0.06
12275 H 141.1363802421909 2.237511133096973 34.48756165182683 H 0.0 **** 0.06
12276 C 96.79595099337513 74.5099860740505 156.07992044514282 C 0.0 **** -0.24
12277 H 95.90586590103976 74.86793781535923 156.59799743997826 H 0.0 **** 0.06
12278 H 97.12482879641948 73.57213020861401 156.52764629914628 H 0.0 **** 0.06
12279 H 97.58971149254774 75.25237161053559 156.16531756855733 H 0.0 **** 0.06
12280 H 96.56146404055141 74.34799771731824 155.02771166312908 H 0.0 **** 0.06
12281 C 71.14836774467342 34.0657340702069 20.73055057266157 C 0.0 **** -0.24
12282 H 70.94855531381961 34.263339929020816 19.677108781210393 H 0.0 **** 0.06
12283 H 70.5605269859961 33.20722307611558 21.056185036275167 H 0.0 **** 0.06
12284 H 70.87470720237185 34.93886990707346 21.32181476764029 H 0.0 **** 0.06
12285 H 72.2091712119916 33.85291553732266 20.864997459532674 H 0.0 **** 0.06
12286 C 80.3431794258148 58.05014907919343 131.99102079466803 C 0.0 **** -0.24
12287 H 80.27762049880938 56.974148983768686 131.83503862405715 H 0.0 **** 0.06
12288 H 80.83312134199576 58.24958489867629 132.94501345863395 H 0.0 **** 0.06
12289 H 79.34024770936577 58.476680137374984 132.0011150068371 H 0.0 **** 0.06
12290 H 80.92183724737481 58.49966222749151 131.18422669636584 H 0.0 **** 0.06
12291 C 128.0209950018953 65.71247285868301 135.6172152858546 C 0.0 **** -0.24
12292 H 127.12028134961933 66.32514649384127 135.5863836745092 H 0.0 **** 0.06
12293 H 127.83142187765681 64.76155427596912 135.1198446664081 H 0.0 **** 0.06
12294 H 128.30231546907316 65.53171207910164 136.65450598577476 H 0.0 **** 0.06
12295 H 128.8313987128546 66.23411502667462 135.10671847932323 H 0.0 **** 0.06
12296 C 90.26993496151732 97.96745576203072 151.18825391324998 C 0.0 **** -0.24
12297 H 89.8258221463123 97.15447453663398 150.61441771295125 H 0.0 **** 0.06
12298 H 90.60587955173162 98.75092519513069 150.50869702594062 H 0.0 **** 0.06
12299 H 91.12078526174184 97.58901009576249 151.7547301387622 H 0.0 **** 0.06
12300 H 89.52817478716332 98.37517539374414 151.87412502095043 H 0.0 **** 0.06
12301 C 141.47511337949726 109.38388864382739 35.706779904389705 C 0.0 **** -0.24
12302 H 141.93914525239276 108.563159670213 35.15929742796947 H 0.0 **** 0.06
12303 H 141.62636042620557 110.31611929912941 35.16201662865046 H 0.0 **** 0.06
12304 H 141.92697141204223 109.46264808352078 36.69501110386339 H 0.0 **** 0.06
12305 H 140.4062035375278 109.19236878304883 35.80966634710282 H 0.0 **** 0.06
12306 C 143.01801827993125 45.081445704737035 22.400787907515337 C 0.0 **** -0.24
12307 H 143.3501537729852 45.64516805550328 21.528648688814428 H 0.0 **** 0.06
12308 H 143.82623535642705 45.0312927882122 23.13062454863018 H 0.0 **** 0.06
12309 H 142.74039767832508 44.07216901598524 22.095443731718603 H 0.0 **** 0.06
12310 H 142.1550980414179 45.576658370486854 22.84678540840065 H 0.0 **** 0.06
12311 C 21.003015770528407 104.46853202721256 54.10723144855385 C 0.0 **** -0.24
12312 H 20.108487895707015 105.00354468942818 53.78791810317797 H 0.0 **** 0.06
12313 H 20.719350827500108 103.6490814160418 54.76767869758753 H 0.0 **** 0.06
12314 H 21.6647894420841 105.1524618395495 54.63951738748702 H 0.0 **** 0.06
12315 H 21.51930004569141 104.07027775880375 53.23314061150653 H 0.0 **** 0.06
12316 C 134.03334883873524 65.76781347027418 6.945007428127084 C 0.0 **** -0.24
12317 H 133.95073280718645 65.83812828575776 8.029676084799576 H 0.0 **** 0.06
12318 H 135.05134596853492 65.48554717728749 6.675305231030194 H 0.0 **** 0.06
12319 H 133.79433215821615 66.73406311228048 6.499315416365256 H 0.0 **** 0.06
12320 H 133.33758760862491 65.0156656574573 6.575622007038447 H 0.0 **** 0.06
12321 C 26.488906803887417 2.521102352698108 37.532941853259715 C 0.0 **** -0.24
12322 H 27.490973725442984 2.215322023546719 37.232513926121854 H 0.0 **** 0.06
12323 H 25.955243740997773 2.9154296979205583 36.66782661751421 H 0.0 **** 0.06
12324 H 26.559320590324823 3.292365112131165 38.299602344234586 H 0.0 **** 0.06
12325 H 25.951023377363697 1.6610323857050844 37.93158045840778 H 0.0 **** 0.06
12326 C 70.65028259432466 110.57429805571064 141.94780800113202 C 0.0 **** -0.24
12327 H 71.05333466772203 111.16361971614373 141.12415171381036 H 0.0 **** 0.06
12328 H 71.01702569692984 109.55075571103339 141.8754255940122 H 0.0 **** 0.06
12329 H 69.56169427069099 110.57527155064554 141.89608593666057 H 0.0 **** 0.06
12330 H 70.96990285072468 111.00866970296681 142.89579580741764 H 0.0 **** 0.06
12331 C 81.09937731950684 105.51337937043769 54.33473581567108 C 0.0 **** -0.24
12332 H 82.06226615394446 106.02463095402817 54.375079946115406 H 0.0 **** 0.06
12333 H 80.4145632455967 105.97157172653027 55.04838007102536 H 0.0 **** 0.06
12334 H 81.23768312777521 104.46188466190716 54.587421528053454 H 0.0 **** 0.06
12335 H 80.68712003001879 105.59491970615306 53.330238582634934 H 0.0 **** 0.06
12336 C 25.757296550493244 45.84874052981587 55.555926435384606 C 0.0 **** -0.24
12337 H 25.842176813004436 44.80917489529406 55.871358330926824 H 0.0 **** 0.06
12338 H 26.30434556495785 45.991588862360004 54.623698769665964 H 0.0 **** 0.06
12339 H 26.174745776124873 46.49691016964323 56.325641897307975 H 0.0 **** 0.06
12340 H 24.706630883619276 46.097263288158445 55.40242137789704 H 0.0 **** 0.06
12341 C 140.00280412459932 56.926762069308936 87.25837203792705 C 0.0 **** -0.24
12342 H 140.35501936414835 56.24109581885551 86.48709133642403 H 0.0 **** 0.06
12343 H 139.87434958438376 57.92095935771687 86.82792003973796 H 0.0 **** 0.06
12344 H 140.7338783492541 56.972007140817325 88.06523696749495 H 0.0 **** 0.06
12345 H 139.04932608952436 56.57373023813663 87.64983314428763 H 0.0 **** 0.06
12346 C 23.182420829191642 112.29494554718924 155.236277116269 C 0.0 **** -0.24
12347 H 23.304107540036227 113.01860168925505 154.42984681751727 H 0.0 **** 0.06
12348 H 22.85287234910831 112.80881060986157 156.13924398424518 H 0.0 **** 0.06
12349 H 24.134409145105224 111.79996463048703 155.426231810133 H 0.0 **** 0.06
12350 H 22.43739856850496 111.55259897493171 154.94774616365672 H 0.0 **** 0.06
12351 C 133.82750485334753 24.51584320199811 49.37246316137737 C 0.0 **** -0.24
12352 H 133.3475088050493 23.928471971844942 48.58906126210043 H 0.0 **** 0.06
12353 H 133.33020465785785 25.481645535672783 49.45862010799935 H 0.0 **** 0.06
12354 H 134.8775433018542 24.667181476580083 49.12039435265375 H 0.0 **** 0.06
12355 H 133.75455123676005 23.982680049830492 50.320215494461934 H 0.0 **** 0.06
12356 C 80.30156483189104 58.74978853081967 150.00203692255496 C 0.0 **** -0.24
12357 H 80.37982526706072 58.126208660557495 150.89344881906496 H 0.0 **** 0.06
12358 H 80.57184671230158 59.77587686990333 150.2529375428676 H 0.0 **** 0.06
12359 H 79.27724059969957 58.72430993753193 149.62973678484863 H 0.0 **** 0.06
12360 H 80.97740965881526 58.37265921501739 149.23485056791196 H 0.0 **** 0.06
12361 C 83.09022808982544 72.52316850374417 61.39496592461313 C 0.0 **** -0.24
12362 H 82.80268949293792 72.97822103108383 62.34343546244956 H 0.0 **** 0.06
12363 H 84.16514409187563 72.34125742276308 61.39155524723098 H 0.0 **** 0.06
12364 H 82.83161559628509 73.19558401119862 60.57735684000414 H 0.0 **** 0.06
12365 H 82.56139707575268 71.57849205864555 61.27038331249136 H 0.0 **** 0.06
12366 C 133.51725418279437 150.0979902653913 108.14983752740649 C 0.0 **** -0.24
12367 H 134.39245101517895 149.78801035226897 108.72276221760428 H 0.0 **** 0.06
12368 H 133.5993453598375 151.15815104850668 107.90822243110078 H 0.0 **** 0.06
12369 H 132.6181267651034 149.9276132459306 108.74066760295308 H 0.0 **** 0.06
12370 H 133.46364103410588 149.51807813846804 107.22884230282737 H 0.0 **** 0.06
12371 C 148.3844996953719 80.56766049550349 25.622074591275123 C 0.0 **** -0.24
12372 H 148.5926628495955 81.43966574475019 25.002937624592562 H 0.0 **** 0.06
12373 H 148.1479633097974 80.89026188364639 26.636901479014654 H 0.0 **** 0.06
12374 H 149.26061186328573 79.91919194702949 25.642634141508495 H 0.0 **** 0.06
12375 H 147.53764771483523 80.02109110050624 25.20724898153705 H 0.0 **** 0.06
12376 C 39.948909798626175 149.6321067616117 33.050658032330205 C 0.0 **** -0.24
12377 H 41.03563595164583 149.58821267069084 33.12215799931482 H 0.0 **** 0.06
12378 H 39.545895523388836 150.12256699535158 33.93784120848534 H 0.0 **** 0.06
12379 H 39.54878912817939 148.62073395017123 32.981223557081876 H 0.0 **** 0.06
12380 H 39.66526337158997 150.1967646380386 32.16281466752571 H 0.0 **** 0.06
12381 C 98.78657698434264 90.53612093142414 10.243620908974322 C 0.0 **** -0.24
12382 H 99.07639420885448 89.76221886533543 10.95462108515656 H 0.0 **** 0.06
12383 H 99.66241208115093 90.86062640538059 9.682146299801559 H 0.0 **** 0.06
12384 H 98.36417736427751 91.38408011029635 10.781550664071403 H 0.0 **** 0.06
12385 H 98.04171431452397 90.13518648204408 9.555280961643348 H 0.0 **** 0.06
12386 C 100.77637144750327 27.719208375167398 126.81536237228379 C 0.0 **** -0.24
12387 H 100.8394980520871 28.144329669922996 127.8169494032944 H 0.0 **** 0.06
12388 H 99.73358977637344 27.687006395714064 126.49986421756948 H 0.0 **** 0.06
12389 H 101.18696136519628 26.709308107177065 126.82243720660229 H 0.0 **** 0.06
12390 H 101.34664076506408 28.338030737271737 126.12179947269793 H 0.0 **** 0.06
12391 C 54.549451765764104 8.211752654613122 151.6721827317143 C 0.0 **** -0.24
12392 H 55.49155610645509 8.749313958993923 151.7876252869354 H 0.0 **** 0.06
12393 H 53.82104928832602 8.858470969055304 151.18282710479104 H 0.0 **** 0.06
12394 H 54.17663048916698 7.919534273495799 152.65396956739747 H 0.0 **** 0.06
12395 H 54.71229099494954 7.321169272047541 151.0652986483057 H 0.0 **** 0.06
12396 C 67.9564357468077 95.51819954683435 7.7283143806111525 C 0.0 **** -0.24
12397 H 68.39072456311663 95.67138551663953 8.716506148343058 H 0.0 **** 0.06
12398 H 68.47398942565954 94.69882094186362 7.227434526665888 H 0.0 **** 0.06
12399 H 68.06229661063514 96.4293601807498 7.1402553533789614 H 0.0 **** 0.06
12400 H 66.89958263263247 95.27249941736211 7.830381026554164 H 0.0 **** 0.06
12401 C 25.121390271255116 104.9111268659031 90.62409320994396 C 0.0 **** -0.24
12402 H 25.610448702151366 104.72179480006002 89.66875302028501 H 0.0 **** 0.06
12403 H 24.809121282875658 105.95587789399497 90.6717811858694 H 0.0 **** 0.06
12404 H 25.81704692141725 104.70240983320684 91.43638236460555 H 0.0 **** 0.06
12405 H 24.247108738538543 104.26644130698975 90.71820498876798 H 0.0 **** 0.06
12406 C 139.7996377434489 120.44160202528018 95.86018779658166 C 0.0 **** -0.24
12407 H 140.79362995749554 120.22280468494553 96.25038758496835 H 0.0 **** 0.06
12408 H 139.33766057927122 119.5190968899257 95.50704606848929 H 0.0 **** 0.06
12409 H 139.88118124162193 121.14670573361873 95.03322765495612 H 0.0 **** 0.06
12410 H 139.18719410061036 120.8759159409078 96.65054207600807 H 0.0 **** 0.06
12411 C 145.19189840870155 22.528177593633416 94.37150054165647 C 0.0 **** -0.24
12412 H 144.5296563866245 23.331798334020988 94.69286772430985 H 0.0 **** 0.06
12413 H 144.6383494512997 21.589535019549743 94.34643381672646 H 0.0 **** 0.06
12414 H 146.02289006030728 22.44167858323584 95.07163157998048 H 0.0 **** 0.06
12415 H 145.57654783323534 22.750435555737113 93.37662926472109 H 0.0 **** 0.06
12416 C 113.8344884435635 33.207707231791154 67.15981775433065 C 0.0 **** -0.24
12417 H 113.04999846530534 33.24443755197568 67.91552935356708 H 0.0 **** 0.06
12418 H 113.9260071480437 32.19020566715056 66.77874743311827 H 0.0 **** 0.06
12419 H 114.78116670597434 33.51610816232677 67.60473891865246 H 0.0 **** 0.06
12420 H 113.58161800356653 33.88128360646392 66.34117493228186 H 0.0 **** 0.06
12421 C 118.0831280882651 59.43235810528611 42.3946180363954 C 0.0 **** -0.24
12422 H 117.71632147817606 59.029173274918435 43.337678756207495 H 0.0 **** 0.06
12423 H 117.29667064480024 60.021479579193084 41.92125422268073 H 0.0 **** 0.06
12424 H 118.36866902422993 58.612885516481214 41.735710840587984 H 0.0 **** 0.06
12425 H 118.94941573304853 60.06733614725624 42.582464518854934 H 0.0 **** 0.06
12426 C 135.25972732240294 22.132016058212997 71.29237558020198 C 0.0 **** -0.24
12427 H 135.3127877302016 21.137325613241188 71.73320109262555 H 0.0 **** 0.06
12428 H 134.66841026218572 22.092654668037 70.37716822153712 H 0.0 **** 0.06
12429 H 136.26622272308242 22.48115218811708 71.06129193810432 H 0.0 **** 0.06
12430 H 134.79097395328512 22.817459243603338 71.99940855943956 H 0.0 **** 0.06
12431 C 4.1345676970772445 122.63562730134508 149.82634555276766 C 0.0 **** -0.24
12432 H 4.274608098280396 121.55615225407054 149.76925807137613 H 0.0 **** 0.06
12433 H 5.060763407313061 123.13812289482063 149.54446719058353 H 0.0 **** 0.06
12434 H 3.867360076471357 122.91270858588295 150.8465106112908 H 0.0 **** 0.06
12435 H 3.3365636729785706 122.9344920994149 149.146844211384 H 0.0 **** 0.06
12436 C 114.03989553699171 34.614352129562064 58.848795660764 C 0.0 **** -0.24
12437 H 113.80558202685063 35.56553671116717 59.32736933409562 H 0.0 **** 0.06
12438 H 113.74778274028574 34.653887607411605 57.799946913602014 H 0.0 **** 0.06
12439 H 113.49578939857548 33.81266052599062 59.348387256090234 H 0.0 **** 0.06
12440 H 115.111118459333 34.42547240146507 58.9216007622788 H 0.0 **** 0.06
12441 C 53.2432027334647 50.913812279992044 148.16221628219796 C 0.0 **** -0.24
12442 H 52.22025124135082 50.949683832620536 147.7874855138041 H 0.0 **** 0.06
12443 H 53.34558534140467 50.08171132752118 148.85937731364888 H 0.0 **** 0.06
12444 H 53.47498541860246 51.84778408958226 148.6743238125445 H 0.0 **** 0.06
12445 H 53.93134887962259 50.776715847106146 147.3280945161452 H 0.0 **** 0.06
12446 C 85.29098612955005 122.91185454796454 21.742574530477043 C 0.0 **** -0.24
12447 H 85.56404036248493 121.86066105412027 21.83229230801706 H 0.0 **** 0.06
12448 H 86.00621792246093 123.41907814885411 21.095269066623587 H 0.0 **** 0.06
12449 H 85.30204655658783 123.37465889085632 22.729825515090567 H 0.0 **** 0.06
12450 H 84.29204412103908 122.99248954659384 21.314158230583416 H 0.0 **** 0.06
12451 C 44.56646752543574 25.5938756632192 143.0107524783462 C 0.0 **** -0.24
12452 H 43.61154725655935 25.713722505166622 142.49797404604124 H 0.0 **** 0.06
12453 H 44.80980390588479 26.51238304401869 143.54374143769604 H 0.0 **** 0.06
12454 H 45.346137230285294 25.378023210762336 142.2808295276771 H 0.0 **** 0.06
12455 H 44.49539381505201 24.769950071635762 143.7206783982142 H 0.0 **** 0.06
12456 C 89.28147431282733 142.1794006629092 24.74316889086225 C 0.0 **** -0.24
12457 H 88.87134245876939 142.3481265334031 25.738215156815727 H 0.0 **** 0.06
12458 H 88.47959711299741 141.8879520518781 24.064368953727637 H 0.0 **** 0.06
12459 H 90.02701046462023 141.38467972096458 24.787521830167037 H 0.0 **** 0.06
12460 H 89.74914385623731 143.09611037161164 24.382741078719903 H 0.0 **** 0.06
12461 C 92.58984664712212 114.68382622625784 39.47865780878669 C 0.0 **** -0.24
12462 H 91.87213206928045 113.91407707177616 39.1960438046214 H 0.0 **** 0.06
12463 H 92.26804106428565 115.6455803146937 39.079619088591514 H 0.0 **** 0.06
12464 H 93.57018166704796 114.43170789675072 39.07464387410681 H 0.0 **** 0.06
12465 H 92.64925655637363 114.74287026927338 40.56566836585901 H 0.0 **** 0.06
12466 C 124.87086627766877 102.6004523018065 79.07850955226633 C 0.0 **** -0.24
12467 H 124.2768493970787 101.99187141674103 79.75980970639 H 0.0 **** 0.06
12468 H 125.36916165321793 103.39212413830667 79.63956672335422 H 0.0 **** 0.06
12469 H 124.21973889232862 103.04296001211974 78.32466293376979 H 0.0 **** 0.06
12470 H 125.61858057827311 101.97529393192882 78.59023809597284 H 0.0 **** 0.06
12471 C 123.51086449804016 4.548689159175069 81.26937954626882 C 0.0 **** -0.24
12472 H 123.31257209530925 3.751577986117354 81.98531777328606 H 0.0 **** 0.06
12473 H 123.36565395740105 5.515480838919814 81.75140072671812 H 0.0 **** 0.06
12474 H 122.82740629779074 4.45642084042629 80.42467181494715 H 0.0 **** 0.06
12475 H 124.53876903661212 4.469686833074263 80.91398737322254 H 0.0 **** 0.06
12476 C 45.99265219194456 33.84320715275552 69.83031936788268 C 0.0 **** -0.24
12477 H 46.429820772775145 32.849408361802205 69.9244642045195 H 0.0 **** 0.06
12478 H 46.52510666700316 34.40308114844255 69.06142794907629 H 0.0 **** 0.06
12479 H 46.073201648564705 34.36753931074968 70.78324553976978 H 0.0 **** 0.06
12480 H 44.94174821810209 33.753289282959784 69.5544257257335 H 0.0 **** 0.06
12481 C 28.5352610370241 61.96602002087192 136.22589114316207 C 0.0 **** -0.24
12482 H 27.52135234220674 62.03159181768304 135.83180339497952 H 0.0 **** 0.06
12483 H 28.80724118240812 62.91399579111646 136.69099912893128 H 0.0 **** 0.06
12484 H 29.227626578146868 61.74845725329938 135.41180201143501 H 0.0 **** 0.06
12485 H 28.585863149365878 61.16934582626439 136.96775791633405 H 0.0 **** 0.06
12486 C 65.86143925863426 134.35342330740812 99.44521866423402 C 0.0 **** -0.24
12487 H 66.0178510932106 134.2933724263975 98.36760930079946 H 0.0 **** 0.06
12488 H 65.76445666072885 135.3986772282035 99.73985625459859 H 0.0 **** 0.06
12489 H 66.71246396075553 133.90880657665738 99.96022794528541 H 0.0 **** 0.06
12490 H 64.95316487369179 133.81413152696882 99.71157677672123 H 0.0 **** 0.06
12491 C 25.10044464339785 115.43227722119984 107.7787656549206 C 0.0 **** -0.24
12492 H 25.571983837602772 116.16107574198536 108.43762236072355 H 0.0 **** 0.06
12493 H 25.565091815942708 114.45605414488675 107.92537826112824 H 0.0 **** 0.06
12494 H 25.22711803203157 115.74300402599359 106.74229503965402 H 0.0 **** 0.06
12495 H 24.037473034579023 115.36704701941476 108.0112738368018 H 0.0 **** 0.06
12496 C 122.70417000710763 88.10158021117164 135.01937721114902 C 0.0 **** -0.24
12497 H 123.13967545193672 87.59658400095029 135.88186113639415 H 0.0 **** 0.06
12498 H 123.45599735974419 88.7392376143082 134.55399204814847 H 0.0 **** 0.06
12499 H 121.86052667934065 88.71197849368238 135.34373594730374 H 0.0 **** 0.06
12500 H 122.36008378950216 87.35946905426141 134.29963535061628 H 0.0 **** 0.06
12501 C 2.4815676288766895 53.59664360175688 4.041370663658206 C 0.0 **** -0.24
12502 H 3.2208056779226126 53.045584155564995 3.460046946748701 H 0.0 **** 0.06
12503 H 2.982212043160189 54.36919749623689 4.625578968819191 H 0.0 **** 0.06
12504 H 1.9636026496635282 52.91135133975001 4.712989972318745 H 0.0 **** 0.06
12505 H 1.7603990882296046 54.059215545429225 3.3685803854486736 H 0.0 **** 0.06
12506 C 80.00747177669894 39.73417163222376 40.50080547905492 C 0.0 **** -0.24
12507 H 79.46599219428245 40.67875355904077 40.55041908337199 H 0.0 **** 0.06
12508 H 79.82818058832319 39.26408591738941 39.534157278791156 H 0.0 **** 0.06
12509 H 79.66056106242911 39.0744961465104 41.296969986600175 H 0.0 **** 0.06
12510 H 81.07402402782441 39.92036950231821 40.62297457567911 H 0.0 **** 0.06
12511 C 104.04357450085286 123.37953942605787 10.136594993622651 C 0.0 **** -0.24
12512 H 104.8764073261516 123.21968753970322 9.451170629570413 H 0.0 **** 0.06
12513 H 104.3063942245123 122.99515597441689 11.122069408410454 H 0.0 **** 0.06
12514 H 103.16300043829625 122.85496976172777 9.764837436879503 H 0.0 **** 0.06
12515 H 103.83019859229864 124.44571107642452 10.20626114179089 H 0.0 **** 0.06
12516 C 36.304239197283124 141.093874614828 45.921758511017046 C 0.0 **** -0.24
12517 H 36.38126175968888 140.67660903467925 46.92579468194441 H 0.0 **** 0.06
12518 H 35.26810393219837 141.04235909850388 45.58536948483622 H 0.0 **** 0.06
12519 H 36.935982540636275 140.52267217426248 45.24193590732877 H 0.0 **** 0.06
12520 H 36.63055305545896 142.13294076380822 45.9341446393024 H 0.0 **** 0.06
12521 C 83.99743767514049 11.732587903541642 128.94511330140898 C 0.0 **** -0.24
12522 H 83.07854349246054 11.438162898405224 128.4381201375412 H 0.0 **** 0.06
12523 H 83.77296863211794 11.997013175876575 129.97817408192753 H 0.0 **** 0.06
12524 H 84.43305376996369 12.592272961663667 128.43589734482424 H 0.0 **** 0.06
12525 H 84.70425234218108 10.903341936810726 128.92603955436957 H 0.0 **** 0.06
12526 C 113.26817162284925 90.26901774573507 156.05576727984976 C 0.0 **** -0.24
12527 H 112.51457838630904 89.5162772101926 156.28969596174557 H 0.0 **** 0.06
12528 H 113.03606057835884 90.72953156958994 155.0957448136994 H 0.0 **** 0.06
12529 H 114.24855998213843 89.7976791345287 156.0057455300044 H 0.0 **** 0.06
12530 H 113.27152883737915 91.03324291514797 156.8340572935607 H 0.0 **** 0.06
12531 C 111.69623130011716 83.61311117092693 7.801913524865398 C 0.0 **** -0.24
12532 H 112.17793959563717 82.97362208548383 7.062803606319818 H 0.0 **** 0.06
12533 H 110.83164329268435 83.0962541993212 8.219955582591922 H 0.0 **** 0.06
12534 H 111.37254719110423 84.53872565188728 7.326155084023043 H 0.0 **** 0.06
12535 H 112.4036437103653 83.84177391691456 8.59874078773936 H 0.0 **** 0.06
12536 C 33.40842041980038 78.71781163828925 89.62487570185124 C 0.0 **** -0.24
12537 H 32.917980577852575 77.74722781069431 89.55069035974154 H 0.0 **** 0.06
12538 H 33.880070013473315 78.95976169646008 88.67213097152023 H 0.0 **** 0.06
12539 H 34.165894954302075 78.68319389740827 90.40751839997205 H 0.0 **** 0.06
12540 H 32.66814026682465 79.48113865409039 89.86849404262347 H 0.0 **** 0.06
12541 C 77.35139414658734 132.70129581351875 5.402525240311263 C 0.0 **** -0.24
12542 H 76.26141658197713 132.68727827499276 5.433959699435633 H 0.0 **** 0.06
12543 H 77.68889611656456 132.39941286907163 4.41116316183809 H 0.0 **** 0.06
12544 H 77.7450426581847 132.01034122672405 6.147207213487036 H 0.0 **** 0.06
12545 H 77.70710551162635 133.70910083110635 5.617146179712677 H 0.0 **** 0.06
12546 C 14.129979678290738 44.06406834621329 74.82865185357997 C 0.0 **** -0.24
12547 H 14.317215763160448 43.089811352220494 75.28006477560274 H 0.0 **** 0.06
12548 H 14.40022779526089 44.84883689909914 75.53536887802125 H 0.0 **** 0.06
12549 H 13.073863592573389 44.150029187105815 74.57450781131229 H 0.0 **** 0.06
12550 H 14.73144804396793 44.16673767932845 73.9251328985604 H 0.0 **** 0.06
12551 C 105.55535952922718 67.45460389830163 23.58428317802433 C 0.0 **** -0.24
12552 H 105.06170144599467 66.61055939044627 24.066600767828746 H 0.0 **** 0.06
12553 H 105.71431652024263 68.24785513401915 24.31499025637499 H 0.0 **** 0.06
12554 H 104.92899846281198 67.82569181941892 22.773169600862182 H 0.0 **** 0.06
12555 H 106.51565576619292 67.13144299451568 23.182817328910545 H 0.0 **** 0.06
12556 C 63.12963811883206 16.66271340211626 6.551939308832175 C 0.0 **** -0.24
12557 H 63.96315605876559 16.26500646459838 7.129785019444398 H 0.0 **** 0.06
12558 H 62.41674833842056 15.86493552005713 6.344970076163207 H 0.0 **** 0.06
12559 H 63.502302684240135 17.069986485127316 5.61136795499641 H 0.0 **** 0.06
12560 H 62.63761303413622 17.45243967127066 7.120185228350977 H 0.0 **** 0.06
12561 C 149.30732642670628 56.9247362394928 10.47576545331168 C 0.0 **** -0.24
12562 H 149.33502588170043 58.01087865252484 10.379660707522532 H 0.0 **** 0.06
12563 H 150.31435204418378 56.55139517339691 10.665416630746165 H 0.0 **** 0.06
12564 H 148.9255845257438 56.488999004409635 9.552461682348053 H 0.0 **** 0.06
12565 H 148.6556537708795 56.65068037154498 11.305039703300793 H 0.0 **** 0.06
12566 C 71.09408950817087 139.4811180196839 90.75935524030803 C 0.0 **** -0.24
12567 H 71.7563140266646 138.84827161052817 90.1693469781142 H 0.0 **** 0.06
12568 H 70.29991839832343 138.8719566315357 91.19145746827336 H 0.0 **** 0.06
12569 H 70.65774463716286 140.24774230923663 90.11987811895996 H 0.0 **** 0.06
12570 H 71.66377749394493 139.95634300556833 91.55847757842913 H 0.0 **** 0.06
12571 C 132.08511646757216 31.07088491150779 119.67039130769518 C 0.0 **** -0.24
12572 H 133.15950186038734 31.068619927501487 119.8582359701137 H 0.0 **** 0.06
12573 H 131.81149558820684 30.16982979610603 119.1204504015036 H 0.0 **** 0.06
12574 H 131.8209907369711 31.95023562738359 119.08334056608277 H 0.0 **** 0.06
12575 H 131.55101200094376 31.093927161280988 120.62038559744474 H 0.0 **** 0.06
12576 C 117.26285754982558 102.79375957995985 48.87941517766869 C 0.0 **** -0.24
12577 H 117.52696958188523 102.0621932043699 49.643231354555965 H 0.0 **** 0.06
12578 H 116.74928887815611 102.29318332398488 48.058323638239884 H 0.0 **** 0.06
12579 H 118.16916874113036 103.27103563840247 48.504965845962914 H 0.0 **** 0.06
12580 H 116.60726961465855 103.5494037696934 49.31202930579546 H 0.0 **** 0.06
12581 C 26.903055683013115 78.24773712462118 55.38103648250706 C 0.0 **** -0.24
12582 H 26.59895462310864 79.18953482587264 54.92459010380287 H 0.0 **** 0.06
12583 H 26.034644706627816 77.59844021887189 55.48907606960336 H 0.0 **** 0.06
12584 H 27.33506520697808 78.4430960044564 56.36261040039568 H 0.0 **** 0.06
12585 H 27.64554041901348 77.76079340251846 54.7483510010336 H 0.0 **** 0.06
12586 C 127.88742169418764 21.747131275998186 68.79228294634842 C 0.0 **** -0.24
12587 H 127.1269440000731 21.18510274570002 68.24905342030723 H 0.0 **** 0.06
12588 H 127.72817963460089 21.63102335487406 69.86379848604138 H 0.0 **** 0.06
12589 H 127.81778730454919 22.801622230019575 68.52570548486523 H 0.0 **** 0.06
12590 H 128.87454694439884 21.37012498383868 68.52764051253831 H 0.0 **** 0.06
12591 C 33.40835344613395 100.8294504663257 144.4613090228018 C 0.0 **** -0.24
12592 H 33.731057191831376 101.08213489594316 145.47120730254596 H 0.0 **** 0.06
12593 H 34.280365373223454 100.6021952896484 143.8477318324094 H 0.0 **** 0.06
12594 H 32.86986399583172 101.67334358963784 144.02976854081703 H 0.0 **** 0.06
12595 H 32.752127223649346 99.96012809007361 144.49652841543494 H 0.0 **** 0.06
12596 C 61.11761138617885 53.13135224041662 11.745508434884925 C 0.0 **** -0.24
12597 H 61.18641865962263 52.46763723670216 12.607845172616408 H 0.0 **** 0.06
12598 H 60.13024671389968 53.592651043792245 11.72050651911826 H 0.0 **** 0.06
12599 H 61.27350284068484 52.55613049150827 10.832221785893694 H 0.0 **** 0.06
12600 H 61.88059968147138 53.90656491285647 11.821579917926101 H 0.0 **** 0.06
12601 C 79.5538625521515 85.66372361405291 118.2121753105675 C 0.0 **** -0.24
12602 H 80.57087820195946 85.32026950092725 118.02043814159093 H 0.0 **** 0.06
12603 H 79.18222637501492 86.20282936856857 117.34076885648808 H 0.0 **** 0.06
12604 H 79.55197772699708 86.32749032845705 119.0778790302008 H 0.0 **** 0.06
12605 H 78.91206799110972 84.80536166596316 118.41061214502493 H 0.0 **** 0.06
12606 C 34.26978162206308 9.290666922299856 6.6029005829233824 C 0.0 **** -0.24
12607 H 35.17212861617065 9.777000952397238 6.9739973307221135 H 0.0 **** 0.06
12608 H 33.96798854059227 8.506872050876183 7.298466714316902 H 0.0 **** 0.06
12609 H 34.46935615104667 8.851708437415006 5.625303973634232 H 0.0 **** 0.06
12610 H 33.47081070806803 10.026346171745345 6.5141696953054975 H 0.0 **** 0.06
12611 C 7.487096820466661 126.43379915479998 113.04135704825086 C 0.0 **** -0.24
12612 H 7.5731156873847 125.35395239538003 113.16369025126795 H 0.0 **** 0.06
12613 H 6.66764357362905 126.80557967078671 113.65720388326645 H 0.0 **** 0.06
12614 H 7.291068445757361 126.66587145439159 111.9954087052443 H 0.0 **** 0.06
12615 H 8.418488590922806 126.90956385597617 113.35061751308109 H 0.0 **** 0.06
12616 C 76.5709853991085 128.9002094653206 4.4948071480495955 C 0.0 **** -0.24
12617 H 76.19983543944558 129.88031970975572 4.794449082593964 H 0.0 **** 0.06
12618 H 75.74239996560812 128.29611719536854 4.124744463581315 H 0.0 **** 0.06
12619 H 77.0258683312049 128.4070412553582 5.353495849252347 H 0.0 **** 0.06
12620 H 77.31550506671486 129.01866716249762 3.706963292893107 H 0.0 **** 0.06
12621 C 69.56168744390351 53.45226143636978 80.55222176533455 C 0.0 **** -0.24
12622 H 70.49866805565142 53.71761111823389 81.0428882334976 H 0.0 **** 0.06
12623 H 69.61770144076831 53.71708421779556 79.49618151502591 H 0.0 **** 0.06
12624 H 68.74028435992503 53.99545152907331 81.02031277443652 H 0.0 **** 0.06
12625 H 69.39080267661336 52.380857337106704 80.6503200774874 H 0.0 **** 0.06
12626 C 64.40018892356909 84.94077829016453 24.818561461889324 C 0.0 **** -0.24
12627 H 64.10390247055142 85.9826363118708 24.934530534824404 H 0.0 **** 0.06
12628 H 63.86160541342676 84.50148608699874 23.978184241610187 H 0.0 **** 0.06
12629 H 64.16275563532162 84.39213784811375 25.729738038887092 H 0.0 **** 0.06
12630 H 65.472606687461 84.88641658793131 24.630900541739265 H 0.0 **** 0.06
12631 C 147.19766746747226 156.29454319977265 68.91022192587779 C 0.0 **** -0.24
12632 H 147.83502318991444 156.19396055487303 68.03224216761738 H 0.0 **** 0.06
12633 H 146.42512015483533 157.0388956718216 68.71477947850173 H 0.0 **** 0.06
12634 H 147.799588088703 156.6106545994814 69.76153666378644 H 0.0 **** 0.06
12635 H 146.73093843643616 155.33466197291457 69.13232939360567 H 0.0 **** 0.06
12636 C 117.07094267243258 81.90632829396867 88.5813843495463 C 0.0 **** -0.24
12637 H 117.64103180427668 81.39507421184106 89.35683925065194 H 0.0 **** 0.06
12638 H 117.70388606203318 82.0603331782911 87.70709958359592 H 0.0 **** 0.06
12639 H 116.73059440583813 82.87104591777671 88.95777993624581 H 0.0 **** 0.06
12640 H 116.2096646911969 81.29986466523002 88.30370516127199 H 0.0 **** 0.06
12641 C 23.118312290395068 126.15044762948186 139.60635206687482 C 0.0 **** -0.24
12642 H 23.235312477017317 125.12056738727581 139.26856911127194 H 0.0 **** 0.06
12643 H 22.127965652226123 126.27831054180176 140.04325283391063 H 0.0 **** 0.06
12644 H 23.23119566612195 126.82539925068765 138.75855887893368 H 0.0 **** 0.06
12645 H 23.878071850910317 126.37566420769973 140.35398535629548 H 0.0 **** 0.06
12646 C 126.39105792549826 3.360468261769835 75.45083166935092 C 0.0 **** -0.24
12647 H 126.73762887521899 2.4902009335401907 76.00763235703982 H 0.0 **** 0.06
12648 H 126.74220902437902 3.296838547097124 74.42045122177484 H 0.0 **** 0.06
12649 H 126.78329986564718 4.26659536331298 75.91309633790097 H 0.0 **** 0.06
12650 H 125.30174290804554 3.3889933001468826 75.46315111612667 H 0.0 **** 0.06
12651 C 72.10976212383183 71.08142069649041 154.61643857955409 C 0.0 **** -0.24
12652 H 72.31717895510745 72.06009802935989 154.18350716182584 H 0.0 **** 0.06
12653 H 71.6068788439806 70.45664996648354 153.87844291208333 H 0.0 **** 0.06
12654 H 71.46796055429347 71.20024457848382 155.49037528008205 H 0.0 **** 0.06
12655 H 73.04602045751653 70.61039902151684 154.9156785862125 H 0.0 **** 0.06
12656 C 96.74716456581126 54.429234254781875 41.87292961371247 C 0.0 **** -0.24
12657 H 97.49877138787821 55.12395298083342 42.246957321680725 H 0.0 **** 0.06
12658 H 96.60938907211283 54.58300397590716 40.802598140922214 H 0.0 **** 0.06
12659 H 95.80342933131928 54.60258215869004 42.38919597290345 H 0.0 **** 0.06
12660 H 97.0762946818536 53.40541545357854 42.053653534592286 H 0.0 **** 0.06
12661 C 136.32826092187025 139.0916252858961 21.39247996211784 C 0.0 **** -0.24
12662 H 135.33289021235686 138.81262487684222 21.73894729258614 H 0.0 **** 0.06
12663 H 136.8136894710559 138.2231795550826 20.945002731929478 H 0.0 **** 0.06
12664 H 136.9201326662367 139.44616399952258 22.235876538241193 H 0.0 **** 0.06
12665 H 136.24359961832738 139.8846440346794 20.648858130344017 H 0.0 **** 0.06
12666 C 70.56970058274914 122.23686610621549 66.2336781716162 C 0.0 **** -0.24
12667 H 70.17484508584286 123.08135607043901 65.66734296740117 H 0.0 **** 0.06
12668 H 71.6045580681876 122.43740075190256 66.5105870062164 H 0.0 **** 0.06
12669 H 70.52473710724053 121.33729286278545 65.62104868593505 H 0.0 **** 0.06
12670 H 69.97301358659337 122.09374129731042 67.13436656257741 H 0.0 **** 0.06
12671 C 38.436902145840335 18.316901679728495 86.83333286323042 C 0.0 **** -0.24
12672 H 39.02719508196854 17.952515803063243 87.67340477431979 H 0.0 **** 0.06
12673 H 37.39173441399899 18.041968778379633 86.97760692590111 H 0.0 **** 0.06
12674 H 38.806137038321026 17.873195858313515 85.90912055769601 H 0.0 **** 0.06
12675 H 38.52181935036792 19.402312459686108 86.77453490061004 H 0.0 **** 0.06
12676 C 1.4589613039914298 149.26342992294144 66.5085481911924 C 0.0 **** -0.24
12677 H 0.989959941106406 149.44454512277082 67.47577912717912 H 0.0 **** 0.06
12678 H 1.4132419945360368 150.1720491439857 65.90709198319831 H 0.0 **** 0.06
12679 H 0.9326751990548132 148.46021192908427 65.99398874634679 H 0.0 **** 0.06
12680 H 2.5008646685753035 148.97869731785676 66.65745224251359 H 0.0 **** 0.06
12681 C 154.7918363975113 153.88013373910198 76.66375669100552 C 0.0 **** -0.24
12682 H 153.881658103324 154.39736371918673 76.96690398744425 H 0.0 **** 0.06
12683 H 155.3862411678664 153.6431063851583 77.54672707961817 H 0.0 **** 0.06
12684 H 155.3699738023785 154.5209341322717 75.99754599769358 H 0.0 **** 0.06
12685 H 154.5288535406168 152.95810213880355 76.1445973322887 H 0.0 **** 0.06
12686 C 118.66496535406337 102.07152092773329 62.989971627270464 C 0.0 **** -0.24
12687 H 118.30577649411337 101.97909430442148 64.01473420469553 H 0.0 **** 0.06
12688 H 119.71758875449116 102.35604157663018 62.9995465662076 H 0.0 **** 0.06
12689 H 118.08606721320375 102.83333129141003 62.46934264970254 H 0.0 **** 0.06
12690 H 118.55170156508534 101.11551463113601 62.477984349833136 H 0.0 **** 0.06
12691 C 51.36328065978792 110.3697627436793 154.7955479750908 C 0.0 **** -0.24
12692 H 51.98301863301528 111.0773177405585 154.24441509316807 H 0.0 **** 0.06
12693 H 51.93286363610912 109.45957946747922 154.98474978769747 H 0.0 **** 0.06
12694 H 50.477523107277435 110.12937390899629 154.2083210958842 H 0.0 **** 0.06
12695 H 51.06148814240066 110.81348245771841 155.74409726225412 H 0.0 **** 0.06
12696 C 1.8967908597040264 99.51556327656209 140.5179419705562 C 0.0 **** -0.24
12697 H 1.557490056951849 98.97679891464855 141.40233361478036 H 0.0 **** 0.06
12698 H 2.705655437915709 100.19262216667471 140.79391669453963 H 0.0 **** 0.06
12699 H 1.067859241513986 100.08878770854233 140.1026314877988 H 0.0 **** 0.06
12700 H 2.255325932338394 98.80480980488238 139.77481499258747 H 0.0 **** 0.06
12701 C 17.04097504737993 123.61807895247479 147.64097661174256 C 0.0 **** -0.24
12702 H 16.187146745900634 123.06384800344075 147.24984492952845 H 0.0 **** 0.06
12703 H 17.421672047187116 123.118715191732 148.53161755029274 H 0.0 **** 0.06
12704 H 16.72846886627775 124.63110647157741 147.89689621818587 H 0.0 **** 0.06
12705 H 17.824492905049766 123.65987214559242 146.8841319919846 H 0.0 **** 0.06
12706 C 54.63631649998263 71.30106738465491 69.25272865194202 C 0.0 **** -0.24
12707 H 54.019979285853054 71.21127265910789 68.35730692487974 H 0.0 **** 0.06
12708 H 54.525083188631584 72.30201798951136 69.67014537594629 H 0.0 **** 0.06
12709 H 55.6807373631064 71.12980209137987 68.99338735489579 H 0.0 **** 0.06
12710 H 54.31690612464669 70.56238993232691 69.98784449541847 H 0.0 **** 0.06
12711 C 86.12967242337459 64.25632208769761 146.65681645077265 C 0.0 **** -0.24
12712 H 87.08344812551195 63.73283660555994 146.59828867874748 H 0.0 **** 0.06
12713 H 85.31675138868752 63.55010735429573 146.48608908590333 H 0.0 **** 0.06
12714 H 86.09714603368991 65.03929008606362 145.898811281256 H 0.0 **** 0.06
12715 H 86.02057181106727 64.70344316251722 147.64557755255177 H 0.0 **** 0.06
12716 C 41.43111094290305 47.18334115249792 5.028232628953674 C 0.0 **** -0.24
12717 H 40.7314163926699 46.73388222480827 5.73354951579347 H 0.0 **** 0.06
12718 H 41.332756241673536 48.26890207482535 5.062004589310192 H 0.0 **** 0.06
12719 H 41.20839538438014 46.82881937733481 4.022011603960692 H 0.0 **** 0.06
12720 H 42.44914090595017 46.900810680905494 5.296150889495635 H 0.0 **** 0.06
12721 C 121.82273987972309 47.27254570935827 151.2142948825465 C 0.0 **** -0.24
12722 H 121.04307104335538 46.510650183101006 151.22544819788757 H 0.0 **** 0.06
12723 H 121.39575245210648 48.22488890009714 150.8988129058144 H 0.0 **** 0.06
12724 H 122.60803832266828 46.97797071964331 150.5176840711202 H 0.0 **** 0.06
12725 H 122.2442398491147 47.37642198639821 152.21384985771135 H 0.0 **** 0.06
12726 C 10.02489655031431 73.51239632562721 25.31724216209531 C 0.0 **** -0.24
12727 H 9.686013530618823 74.4927520860995 24.981556937648897 H 0.0 **** 0.06
12728 H 9.360877481392265 72.74379592349158 24.922404535322237 H 0.0 **** 0.06
12729 H 10.013751211414359 73.47840508714057 26.406293135403082 H 0.0 **** 0.06
12730 H 11.03898556437025 73.33635515602816 24.958886697589044 H 0.0 **** 0.06
12731 C 59.80737143476618 116.71162897169141 46.57783965781141 C 0.0 **** -0.24
12732 H 60.27160220923918 115.80806768390612 46.181116204961654 H 0.0 **** 0.06
12733 H 60.54300866269769 117.27469709134546 47.15265253984876 H 0.0 **** 0.06
12734 H 58.97253365495558 116.43723142116362 47.22282922505872 H 0.0 **** 0.06
12735 H 59.442776341941084 117.32393682696814 45.75329786549878 H 0.0 **** 0.06
12736 C 31.46242553174919 146.66437313990775 13.600739121153481 C 0.0 **** -0.24
12737 H 31.174788289064708 147.68364616281852 13.344064280194686 H 0.0 **** 0.06
12738 H 30.57080436593941 146.08667600836432 13.843962032718679 H 0.0 **** 0.06
12739 H 32.13129421299669 146.68102899392798 14.46133074709985 H 0.0 **** 0.06
12740 H 31.972815258995965 146.20614139452016 12.753599424600566 H 0.0 **** 0.06
12741 C 73.25997874098469 119.76835995116043 1.3723257836199032 C 0.0 **** -0.24
12742 H 73.30422989080884 120.43294419525922 0.5098779486959586 H 0.0 **** 0.06
12743 H 72.2175848806041 119.56393303419303 1.6194257428796064 H 0.0 **** 0.06
12744 H 73.74886613017526 120.24316211459144 2.2220290514578416 H 0.0 **** 0.06
12745 H 73.7680386925108 118.83293347501846 1.1361392229224165 H 0.0 **** 0.06
12746 C 125.23623906763682 71.78522295594128 155.26946279255563 C 0.0 **** -0.24
12747 H 124.39845163488435 71.11117430649884 155.44708963824 H 0.0 **** 0.06
12748 H 125.98774964219585 71.64317864526862 156.04667895987092 H 0.0 **** 0.06
12749 H 124.88343028173226 72.81564932399831 155.2878769854772 H 0.0 **** 0.06
12750 H 125.6749937862373 71.56919603764706 154.29605522490323 H 0.0 **** 0.06
12751 C 57.41724404287622 4.998935081803836 83.48420680281205 C 0.0 **** -0.24
12752 H 56.99670254492615 4.482792016568055 84.3472165674763 H 0.0 **** 0.06
12753 H 58.26453037534134 5.60813726321885 83.80251218585386 H 0.0 **** 0.06
12754 H 56.65595494487877 5.638709558340736 83.03837366759836 H 0.0 **** 0.06
12755 H 57.75262723944195 4.265703767559955 82.75075903996415 H 0.0 **** 0.06
12756 C 58.99323393555993 117.52074417526381 117.20352385758288 C 0.0 **** -0.24
12757 H 57.90742651336903 117.4312311216118 117.23354583878417 H 0.0 **** 0.06
12758 H 59.44280158148912 116.65355985270327 117.68855787187657 H 0.0 **** 0.06
12759 H 59.297194832735954 118.4280079853927 117.72587702517065 H 0.0 **** 0.06
12760 H 59.32547534043236 117.56919376158788 116.16628908505443 H 0.0 **** 0.06
12761 C 45.99349643370978 156.83907457754734 78.85478069775405 C 0.0 **** -0.24
12762 H 44.95076594815308 157.08577563327282 79.05647209141274 H 0.0 **** 0.06
12763 H 46.45162650669204 157.64241376588853 78.27744659136319 H 0.0 **** 0.06
12764 H 46.04418311099957 155.90936107555657 78.2884201032921 H 0.0 **** 0.06
12765 H 46.52713656708315 156.71932654659034 79.79755229394628 H 0.0 **** 0.06
12766 C 108.95813686417698 6.9382330660779274 126.2963838629485 C 0.0 **** -0.24
12767 H 108.8321595277505 8.020660544974298 126.31291034559838 H 0.0 **** 0.06
12768 H 108.91551535021974 6.584272100510681 125.2651832084416 H 0.0 **** 0.06
12769 H 108.16191024924827 6.470496438026075 126.87524678876254 H 0.0 **** 0.06
12770 H 109.92384044389927 6.677946359050644 126.7299517402257 H 0.0 **** 0.06
12771 C 66.9073469261066 31.395017899643676 89.55821000107238 C 0.0 **** -0.24
12772 H 67.50237428762942 30.52696239368288 89.27335079220938 H 0.0 **** 0.06
12773 H 66.74866556420983 32.02896618275213 88.6846726309206 H 0.0 **** 0.06
12774 H 67.43508914160532 31.960265577266625 90.32615978912548 H 0.0 **** 0.06
12775 H 65.94522812076927 31.063763921640486 89.94720464436108 H 0.0 **** 0.06
12776 C 73.04118366134003 82.20590208488991 94.15913697278137 C 0.0 **** -0.24
12777 H 72.39627884849398 82.05142332641574 93.29433540489407 H 0.0 **** 0.06
12778 H 73.33505642727988 83.25515107872548 94.20978353555131 H 0.0 **** 0.06
12779 H 73.9297430069712 81.5826974995864 94.0653981875522 H 0.0 **** 0.06
12780 H 72.50163567165288 81.93566303001393 95.06663434345586 H 0.0 **** 0.06
12781 C 0.6516330152088017 101.86409102066494 88.05279848882174 C 0.0 **** -0.24
12782 H 1.265588487762443 101.96871996464722 88.9469350046814 H 0.0 **** 0.06
12783 H 1.2147487233544325 102.2056663664539 87.18383664939972 H 0.0 **** 0.06
12784 H -0.2512866619307772 102.46606138680727 88.15997796029853 H 0.0 **** 0.06
12785 H 0.3777022007614619 100.81727898199915 87.92013671182693 H 0.0 **** 0.06
12786 C 136.4749019228267 72.66622165539172 140.60057605857665 C 0.0 **** -0.24
12787 H 136.25871917173325 73.31200387742916 141.4511864188682 H 0.0 **** 0.06
12788 H 137.35774829607246 72.0645366426703 140.81636552704856 H 0.0 **** 0.06
12789 H 136.65922013156907 73.27820710825472 139.71804886346416 H 0.0 **** 0.06
12790 H 135.62314337446054 72.0112586101564 140.41632496360864 H 0.0 **** 0.06
12791 C 92.51242769395873 20.23119121209743 85.22150940062767 C 0.0 **** -0.24
12792 H 91.95306125069902 19.307529229116597 85.07304259003541 H 0.0 **** 0.06
12793 H 92.80383841921406 20.315017202458193 86.26879144696994 H 0.0 **** 0.06
12794 H 91.88859185155962 21.082274979398505 84.947805282156 H 0.0 **** 0.06
12795 H 93.40500538402466 20.219263099264225 84.59543953142555 H 0.0 **** 0.06
12796 C 7.232976643787623 116.17887489817203 26.89683489921407 C 0.0 **** -0.24
12797 H 6.198283706981499 116.5199064888756 26.91789734880541 H 0.0 **** 0.06
12798 H 7.545832972763179 115.90517880727437 27.904332308525625 H 0.0 **** 0.06
12799 H 7.871068483561828 116.97896988064052 26.522689916723834 H 0.0 **** 0.06
12800 H 7.315438874143808 115.31151035121486 26.241827726692918 H 0.0 **** 0.06
12801 C 156.24020710572188 25.35159425110502 120.98049013654197 C 0.0 **** -0.24
12802 H 155.95570407363138 26.280450299582462 121.47299909860747 H 0.0 **** 0.06
12803 H 155.34280589632084 24.812666148494024 120.6756274452341 H 0.0 **** 0.06
12804 H 156.81697905155866 24.735520234899 121.67136396457177 H 0.0 **** 0.06
12805 H 156.84553000512892 25.576341009634092 120.10189479304829 H 0.0 **** 0.06
12806 C 97.48821933992281 132.15639748433415 132.96973929634404 C 0.0 **** -0.24
12807 H 96.74984216134843 131.66562791384314 133.60496216233548 H 0.0 **** 0.06
12808 H 97.97852355667374 132.95154633235677 133.53120590190704 H 0.0 **** 0.06
12809 H 96.99193524037801 132.57973995275918 132.0964014909225 H 0.0 **** 0.06
12810 H 98.2307393349202 131.42685048852573 132.64820256151128 H 0.0 **** 0.06
12811 C 52.65454279576328 14.942654144907493 149.80531388492938 C 0.0 **** -0.24
12812 H 52.06438502232467 15.28901384315143 150.6538752790769 H 0.0 **** 0.06
12813 H 53.535765533837264 14.41267504046715 150.16802773193533 H 0.0 **** 0.06
12814 H 52.96571663166094 15.798803650477673 149.20678691183824 H 0.0 **** 0.06
12815 H 52.05214255045104 14.270061711018535 149.1950090254063 H 0.0 **** 0.06
12816 C 64.97012324325725 155.68276831273224 1.424468336948081 C 0.0 **** -0.24
12817 H 64.28954509434901 155.83808080593005 2.2608295278511576 H 0.0 **** 0.06
12818 H 65.75379287486818 154.98354243073044 1.7187790514110581 H 0.0 **** 0.06
12819 H 65.41944081484031 156.6338838339212 1.1401434668996835 H 0.0 **** 0.06
12820 H 64.41708502768407 155.27430048753553 0.5780739425841084 H 0.0 **** 0.06
12821 C 56.31647266965311 73.46147714118467 129.99468173191894 C 0.0 **** -0.24
12822 H 55.33335929067701 73.52445534347163 129.53035271564949 H 0.0 **** 0.06
12823 H 56.57176612499768 72.41565736961746 130.16504288575678 H 0.0 **** 0.06
12824 H 56.30340884058333 73.99156247094675 130.94678232329923 H 0.0 **** 0.06
12825 H 57.058755551107865 73.91432307411822 129.3367346341127 H 0.0 **** 0.06
12826 C 106.781568805085 120.57962486047632 137.27076367313492 C 0.0 **** -0.24
12827 H 107.3261610891117 119.67849506235677 137.55542848050692 H 0.0 **** 0.06
12828 H 106.50083728867075 121.13193999936232 138.16815238981755 H 0.0 **** 0.06
12829 H 105.88446464689885 120.30252811536428 136.7190199592207 H 0.0 **** 0.06
12830 H 107.41611857242849 121.20482161530418 136.64341747799116 H 0.0 **** 0.06
12831 C 71.73238209653226 125.60490015954964 59.61097986665612 C 0.0 **** -0.24
12832 H 71.92693674654674 126.34539835139564 58.83568407787811 H 0.0 **** 0.06
12833 H 71.35172056157472 124.69099581722556 59.152169009891 H 0.0 **** 0.06
12834 H 70.99312854362512 125.99598160737132 60.310597750149554 H 0.0 **** 0.06
12835 H 72.656725798215 125.38513830171756 60.144685871917204 H 0.0 **** 0.06
12836 C 148.64306074347354 59.738378519812954 23.55413736610752 C 0.0 **** -0.24
12837 H 148.11792118061237 60.65056275247689 23.83936196558959 H 0.0 **** 0.06
12838 H 148.13547144336968 59.277547969831346 22.707475723621734 H 0.0 **** 0.06
12839 H 148.6500459430547 59.04523901018902 24.394956298814748 H 0.0 **** 0.06
12840 H 149.6681842397855 59.982304421912545 23.275773153375745 H 0.0 **** 0.06
12841 C 43.19246436898959 155.76611728597285 107.30476753978398 C 0.0 **** -0.24
12842 H 44.28086361900881 155.73680442495532 107.36633488158752 H 0.0 **** 0.06
12843 H 42.88436331883071 155.66377375800985 106.26467178127645 H 0.0 **** 0.06
12844 H 42.83234885598614 156.71594284008137 107.69937099592069 H 0.0 **** 0.06
12845 H 42.774725463380605 154.9483440966725 107.89089964656357 H 0.0 **** 0.06
12846 C 22.211156364917542 122.83490919782628 136.61214380104877 C 0.0 **** -0.24
12847 H 22.165735497376318 121.96556263495745 137.268380939268 H 0.0 **** 0.06
12848 H 21.44054424882995 122.75260875424095 135.84631794476365 H 0.0 **** 0.06
12849 H 23.19220178391413 122.88013043132548 136.13820537692192 H 0.0 **** 0.06
12850 H 22.04870114340406 123.74044562202113 137.19696323153477 H 0.0 **** 0.06
12851 C 35.55929805528653 128.5143571328054 65.37186577661817 C 0.0 **** -0.24
12852 H 36.11869243933022 127.62828803350419 65.66961080101223 H 0.0 **** 0.06
12853 H 34.50418773722719 128.37511491086474 65.61051518508788 H 0.0 **** 0.06
12854 H 35.671382084495534 128.67231112172522 64.29979099456887 H 0.0 **** 0.06
12855 H 35.941428548467314 129.38197209379075 65.90946435047744 H 0.0 **** 0.06
12856 C 25.808541485313448 28.971280643452417 24.742156074845184 C 0.0 **** -0.24
12857 H 25.131453339050097 29.686097105888507 24.275633080567445 H 0.0 **** 0.06
12858 H 26.03126243799064 29.292234441734422 25.76037007451555 H 0.0 **** 0.06
12859 H 26.732911790877957 28.918345088046294 24.168224032430714 H 0.0 **** 0.06
12860 H 25.33818714446879 27.98800220549606 24.765693184674717 H 0.0 **** 0.06
12861 C 22.08919765751333 142.05415161010657 97.43206453366244 C 0.0 **** -0.24
12862 H 22.808039196225394 141.58054131019722 98.10051557109338 H 0.0 **** 0.06
12863 H 22.424652080569835 141.94206565378838 96.40034422936266 H 0.0 **** 0.06
12864 H 22.011488060003693 143.11405176115417 97.67512743189403 H 0.0 **** 0.06
12865 H 21.11471690691483 141.58063981885786 97.55197501970915 H 0.0 **** 0.06
12866 C 131.78320676998692 119.32641307708502 29.63397699593591 C 0.0 **** -0.24
12867 H 132.82143752023686 119.2691964792279 29.309850815111332 H 0.0 **** 0.06
12868 H 131.1268684704344 119.27267304919775 28.765133666098393 H 0.0 **** 0.06
12869 H 131.6177801126343 120.26818635105485 30.157213836962512 H 0.0 **** 0.06
12870 H 131.5660959454305 118.49453661454635 30.305570012610275 H 0.0 **** 0.06
12871 C 119.02947075220673 84.21328816046933 96.85548507440814 C 0.0 **** -0.24
12872 H 119.82515101488924 84.93127984153787 96.65824025758741 H 0.0 **** 0.06
12873 H 119.45707669558398 83.21610864855667 96.95761653080007 H 0.0 **** 0.06
12874 H 118.31893062710073 84.22180839940062 96.02895690987299 H 0.0 **** 0.06
12875 H 118.51529143376472 84.48519404460514 97.7777689332969 H 0.0 **** 0.06
12876 C 133.22852198934612 106.27418584423818 7.716023658678154 C 0.0 **** -0.24
12877 H 132.19522170300877 106.57454802829035 7.889841807712898 H 0.0 **** 0.06
12878 H 133.31433153730407 105.82976173083394 6.724351532381355 H 0.0 **** 0.06
12879 H 133.52611750926266 105.54463373563878 8.468376140874348 H 0.0 **** 0.06
12880 H 133.87717232235926 107.14792714540549 7.78086626878423 H 0.0 **** 0.06
12881 C 49.79775852219424 150.16614356216576 152.8463064767567 C 0.0 **** -0.24
12882 H 49.0894609627631 150.52319560108037 152.09918395946892 H 0.0 **** 0.06
12883 H 49.86403491167671 149.07914985401425 152.79237305242236 H 0.0 **** 0.06
12884 H 49.45789358861313 150.460418630684 153.8390993405339 H 0.0 **** 0.06
12885 H 50.77806522318794 150.60022953604118 152.654484295237 H 0.0 **** 0.06
12886 C 112.8429995235594 22.00730397467123 10.57209294656468 C 0.0 **** -0.24
12887 H 111.94177003012112 21.44001514119327 10.808669598831273 H 0.0 **** 0.06
12888 H 113.45734369000144 21.43796837143077 9.874418313281467 H 0.0 **** 0.06
12889 H 113.40558358115828 22.190962798258454 11.487259748102872 H 0.0 **** 0.06
12890 H 112.5642266936224 22.958600898305434 10.118899232774595 H 0.0 **** 0.06
12891 C 65.3681835505609 77.69276389345987 130.6140876691623 C 0.0 **** -0.24
12892 H 65.49416991398382 78.77214410723484 130.536748010586 H 0.0 **** 0.06
12893 H 64.75903693474338 77.45978530282835 131.48823473481468 H 0.0 **** 0.06
12894 H 66.34433835924031 77.21953195760089 130.7151468639811 H 0.0 **** 0.06
12895 H 64.87462221762785 77.31888743361334 129.71664446935364 H 0.0 **** 0.06
12896 C 64.40235138826112 101.6955521450573 55.608628942772384 C 0.0 **** -0.24
12897 H 63.64502386276982 102.26049976267332 56.150777291303484 H 0.0 **** 0.06
12898 H 64.69843569602062 102.24729917322962 54.7157381257569 H 0.0 **** 0.06
12899 H 63.994646439349935 100.72696081627593 55.31804297049183 H 0.0 **** 0.06
12900 H 65.27177336393272 101.54603418867153 56.24829171154647 H 0.0 **** 0.06
12901 C 53.049714662493656 154.12909306625411 89.77407234110038 C 0.0 **** -0.24
12902 H 53.99989050162709 153.96828661848969 89.26426468301172 H 0.0 **** 0.06
12903 H 53.167896927151844 154.91464039071306 90.52124572395786 H 0.0 **** 0.06
12904 H 52.73882014897953 153.20667816955333 90.2629894917313 H 0.0 **** 0.06
12905 H 52.29502945724691 154.42857841410526 89.0477945750202 H 0.0 **** 0.06
12906 C 66.7549638550247 134.71420999705396 30.291294938431037 C 0.0 **** -0.24
12907 H 66.9762159636768 134.92864536578213 29.2455135730781 H 0.0 **** 0.06
12908 H 67.1313463569798 135.52460000410184 30.915876344364904 H 0.0 **** 0.06
12909 H 67.23586602942748 133.77900120529 30.579585268733837 H 0.0 **** 0.06
12910 H 65.67668191992084 134.62386860285056 30.42210459981908 H 0.0 **** 0.06
12911 C 35.36554249059196 53.30750520650713 55.86020277965247 C 0.0 **** -0.24
12912 H 36.35075482013855 53.74873455884513 55.71095138384055 H 0.0 **** 0.06
12913 H 35.461842516585534 52.22403609269902 55.94125035237124 H 0.0 **** 0.06
12914 H 34.72530373074085 53.55401445119071 55.01322155670448 H 0.0 **** 0.06
12915 H 34.92564724968105 53.70339618142238 56.77566069268357 H 0.0 **** 0.06
12916 C 5.238510011730554 66.836259582465 125.11171548562793 C 0.0 **** -0.24
12917 H 4.480608964954321 67.11643938026965 124.3789720029357 H 0.0 **** 0.06
12918 H 5.606448807203321 67.73130411112687 125.6131434459859 H 0.0 **** 0.06
12919 H 6.0642909240857605 66.33576069683079 124.60587813303827 H 0.0 **** 0.06
12920 H 4.799582682043599 66.16121650920684 125.84681026807245 H 0.0 **** 0.06
12921 C 154.13134593090905 21.175619646775147 87.02927080062209 C 0.0 **** -0.24
12922 H 154.8319256421105 20.43775032012698 87.42070611911149 H 0.0 **** 0.06
12923 H 154.50912046159306 22.1781058142343 87.23354659948784 H 0.0 **** 0.06
12924 H 153.16242342187866 21.046230814107957 87.51109894404888 H 0.0 **** 0.06
12925 H 154.02363298969829 21.039206205575198 85.95388579068421 H 0.0 **** 0.06
12926 C 116.37903105559373 54.16509006608837 125.28254599790993 C 0.0 **** -0.24
12927 H 116.64206275073796 53.437029254113554 126.04926525579022 H 0.0 **** 0.06
12928 H 115.396491969221 53.926367938562706 124.87632273734833 H 0.0 **** 0.06
12929 H 117.12037545752993 54.135283790027486 124.48395678017748 H 0.0 **** 0.06
12930 H 116.3581038088259 55.16255047110613 125.72128219857568 H 0.0 **** 0.06
12931 C 110.03010802157236 74.26132619518104 64.16194929289915 C 0.0 **** -0.24
12932 H 109.68912188421315 75.20014782141138 63.72652759894203 H 0.0 **** 0.06
12933 H 109.2025856306194 73.55159235059526 64.19081577796405 H 0.0 **** 0.06
12934 H 110.39095442683164 74.44017082044145 65.17477313731489 H 0.0 **** 0.06
12935 H 110.83907286472082 73.85285258777843 63.5557810937926 H 0.0 **** 0.06
12936 C 128.07734906931205 146.25245943294965 138.11255186632454 C 0.0 **** -0.24
12937 H 127.83724395198958 145.47433755440906 137.38795573892685 H 0.0 **** 0.06
12938 H 128.37706693907523 147.15899626652853 137.58570380948902 H 0.0 **** 0.06
12939 H 128.89426622411253 145.91501299820078 138.74992531753938 H 0.0 **** 0.06
12940 H 127.20079341217932 146.46141678397544 138.72521054163147 H 0.0 **** 0.06
12941 C 65.88016213837565 128.20856692651864 125.27867157307129 C 0.0 **** -0.24
12942 H 65.77091902893316 128.0378252881871 124.20820164311927 H 0.0 **** 0.06
12943 H 66.4146720371181 129.14417338778094 125.44419921575765 H 0.0 **** 0.06
12944 H 66.44048536733347 127.38561003990003 125.72193616668598 H 0.0 **** 0.06
12945 H 64.8936176309159 128.2667235209778 125.74005803023358 H 0.0 **** 0.06
12946 C 35.73103235000275 75.77739374141038 58.56745160816726 C 0.0 **** -0.24
12947 H 35.677797812866004 75.96118612134093 59.64029553908456 H 0.0 **** 0.06
12948 H 36.629485858827834 75.20259554260127 58.34213404732267 H 0.0 **** 0.06
12949 H 35.76506017912736 76.72897927542598 58.036657147412186 H 0.0 **** 0.06
12950 H 34.852041850221475 75.2158911087337 58.25100704106005 H 0.0 **** 0.06
12951 C 49.6829584882658 5.192835600250483 143.57202294852985 C 0.0 **** -0.24
12952 H 49.86980736541253 5.8202307528775705 144.44455692930848 H 0.0 **** 0.06
12953 H 49.8935354721244 5.760714691271758 142.66511094479816 H 0.0 **** 0.06
12954 H 48.64028723740097 4.877414636155834 143.5693957493178 H 0.0 **** 0.06
12955 H 50.328596862543804 4.315494346973331 143.6109084932015 H 0.0 **** 0.06
12956 C 67.36843091605407 59.947929086724514 35.631356061068686 C 0.0 **** -0.24
12957 H 66.32449882160164 60.12719254358609 35.375264188718624 H 0.0 **** 0.06
12958 H 67.69618573690765 60.690262405125964 36.35976784311596 H 0.0 **** 0.06
12959 H 67.98137605457136 60.0245313141117 34.733708578920904 H 0.0 **** 0.06
12960 H 67.4716630511355 58.94973008407413 36.05668363351927 H 0.0 **** 0.06
12961 C 12.266202945776286 48.44368486033301 110.77235043105081 C 0.0 **** -0.24
12962 H 12.786841013541277 48.03272206002612 109.90742890378955 H 0.0 **** 0.06
12963 H 11.191435276173138 48.31006290953201 110.64712934702384 H 0.0 **** 0.06
12964 H 12.492408504462958 49.507161724327034 110.86014412809386 H 0.0 **** 0.06
12965 H 12.594607797625656 47.926247596694395 111.67389167314015 H 0.0 **** 0.06
12966 C 143.01741348929386 8.07173144497753 125.13433076225381 C 0.0 **** -0.24
12967 H 143.84238213778673 8.013261999667115 124.42464582571971 H 0.0 **** 0.06
12968 H 143.4114198887566 8.077327728591783 126.15031909408135 H 0.0 **** 0.06
12969 H 142.36327343484476 7.209721824597324 125.00193405843008 H 0.0 **** 0.06
12970 H 142.45129739194354 8.987247891799392 124.95778635683486 H 0.0 **** 0.06
12971 C 37.62281482761858 91.8793726675633 4.6392829613099025 C 0.0 **** -0.24
12972 H 37.04130670904078 90.98942586904633 4.879625776948103 H 0.0 **** 0.06
12973 H 37.73919908472379 92.49025056053534 5.5347094456045625 H 0.0 **** 0.06
12974 H 37.10649278276679 92.45497255601788 3.8710798739407153 H 0.0 **** 0.06
12975 H 38.60515660742527 91.58247024334668 4.271472874581036 H 0.0 **** 0.06
12976 C 120.74302999047399 66.0592587968236 7.767509657775456 C 0.0 **** -0.24
12977 H 121.4726410642611 65.80177103555374 8.535671375436976 H 0.0 **** 0.06
12978 H 121.183894058416 66.77535459353862 7.073457513232512 H 0.0 **** 0.06
12979 H 119.86379296113188 66.5014247469035 8.236618607940215 H 0.0 **** 0.06
12980 H 120.45212926572015 65.15896319413804 7.226203580476515 H 0.0 **** 0.06
12981 C 13.367071429209233 35.82813468472932 8.37895672864439 C 0.0 **** -0.24
12982 H 13.711491602677881 35.258217471465656 7.515760459301255 H 0.0 **** 0.06
12983 H 14.219916795781415 36.30390645022115 8.863791443405738 H 0.0 **** 0.06
12984 H 12.874138693454853 35.157892616732255 9.08277740330152 H 0.0 **** 0.06
12985 H 12.662250402422217 36.59222887766185 8.050386993517094 H 0.0 **** 0.06
12986 C 89.33563371976805 22.609481992459763 90.63214420468381 C 0.0 **** -0.24
12987 H 90.0251530482821 21.77347034447385 90.75484438234116 H 0.0 **** 0.06
12988 H 89.54677057939591 23.367677532772717 91.38536620202112 H 0.0 **** 0.06
12989 H 88.3118146428323 22.254509529481183 90.74877057336785 H 0.0 **** 0.06
12990 H 89.46028267985292 23.03913062565055 89.63820539464349 H 0.0 **** 0.06
12991 C 25.9348432339425 3.142948251837126 54.2061503920047 C 0.0 **** -0.24
12992 H 26.425400118102573 3.6647590260425815 53.3838869541496 H 0.0 **** 0.06
12993 H 26.386198909004634 3.448009580197965 55.15010553019687 H 0.0 **** 0.06
12994 H 26.055467342796817 2.0676515482758084 54.07563799250545 H 0.0 **** 0.06
12995 H 24.874195250742076 3.3919454524336814 54.21230550358001 H 0.0 **** 0.06
12996 C 7.999984023755218 74.80229620532852 6.261112036176392 C 0.0 **** -0.24
12997 H 8.41834734358386 73.82775440784792 6.514080630717558 H 0.0 **** 0.06
12998 H 8.306363940511062 75.5330894005891 7.00910822695225 H 0.0 **** 0.06
12999 H 6.9126964552984305 74.73666625521814 6.239896788249027 H 0.0 **** 0.06
13000 H 8.365288220678394 75.10934287887416 5.28038990332599 H 0.0 **** 0.06
13001 C 119.69007676270195 52.32244441385346 16.86450113753576 C 0.0 **** -0.24
13002 H 119.36830980832372 51.28175829873996 16.857148616814904 H 0.0 **** 0.06
13003 H 119.5291836207611 52.74566211575724 17.856160783817295 H 0.0 **** 0.06
13004 H 119.11288580949866 52.88586683595139 16.130868073955895 H 0.0 **** 0.06
13005 H 120.74920413306552 52.37662956623643 16.61315109096533 H 0.0 **** 0.06
13006 C 39.23986208142118 31.72064287035704 32.35826244641717 C 0.0 **** -0.24
13007 H 39.85702990599175 30.919807322932456 32.76576947661516 H 0.0 **** 0.06
13008 H 38.24241697565259 31.6688613857024 32.795505663966765 H 0.0 **** 0.06
13009 H 39.16890624792187 31.608423629367394 31.276348963395122 H 0.0 **** 0.06
13010 H 39.691060893427164 32.683798316229144 32.595008859297366 H 0.0 **** 0.06
13011 C 137.25998632190453 16.989765469039824 96.01182582996948 C 0.0 **** -0.24
13012 H 137.9081650902658 17.171357050340838 96.86973111949966 H 0.0 **** 0.06
13013 H 137.8683153836331 16.877268695218923 95.11453050975607 H 0.0 **** 0.06
13014 H 136.57787597156656 17.831132071042937 95.88694427118868 H 0.0 **** 0.06
13015 H 136.68475476716947 16.078239226399326 96.17813963503599 H 0.0 **** 0.06
13016 C 49.04330442262071 61.04304984510543 128.69847793700887 C 0.0 **** -0.24
13017 H 49.28906758076906 60.52218757517872 129.6240500011914 H 0.0 **** 0.06
13018 H 47.961668415228985 61.03566743383105 128.55515383681768 H 0.0 **** 0.06
13019 H 49.52486979564915 60.54089160260847 127.85976073619823 H 0.0 **** 0.06
13020 H 49.395039781795205 62.072892926766315 128.75741115718222 H 0.0 **** 0.06
13021 C 111.3275801030524 21.599982889797232 154.90572902263827 C 0.0 **** -0.24
13022 H 110.59275024417558 21.0281043396511 154.33868697107098 H 0.0 **** 0.06
13023 H 111.31613962651831 21.27534236379337 155.94638137944435 H 0.0 **** 0.06
13024 H 111.08216586718312 22.66009669514306 154.85122022461096 H 0.0 **** 0.06
13025 H 112.31939433815596 21.434578434765953 154.48445764444196 H 0.0 **** 0.06
13026 C 140.14304862646185 98.80099219846626 16.627857312351978 C 0.0 **** -0.24
13027 H 139.0575760866509 98.87797550490852 16.67500125677728 H 0.0 **** 0.06
13028 H 140.4984492224052 98.17541376364669 17.44753453894168 H 0.0 **** 0.06
13029 H 140.58247182705904 99.79501986931031 16.71143909048908 H 0.0 **** 0.06
13030 H 140.43488662384829 98.35374418775135 15.676915928027 H 0.0 **** 0.06
13031 C 86.06259503969693 84.35056450204877 82.32347199791332 C 0.0 **** -0.24
13032 H 85.69542828612163 85.01064916056936 81.53836725903938 H 0.0 **** 0.06
13033 H 86.68965793446955 83.57491228664125 81.88213483962056 H 0.0 **** 0.06
13034 H 85.216596159078 83.88800814446415 82.833388885967 H 0.0 **** 0.06
13035 H 86.64747098194542 84.92800257532093 83.03983998586591 H 0.0 **** 0.06
13036 C 96.26361531887983 129.82184353084773 49.01296971235942 C 0.0 **** -0.24
13037 H 96.15330446696925 130.22336848494342 48.00551901567694 H 0.0 **** 0.06
13038 H 96.46457019877948 128.75115786952716 48.95680851023738 H 0.0 **** 0.06
13039 H 95.3451932427634 129.9910164134005 49.57425668563047 H 0.0 **** 0.06
13040 H 97.09363142241557 130.32092775011256 49.51381989532062 H 0.0 **** 0.06
13041 C 142.28102618923967 37.44408239797049 113.89965116595016 C 0.0 **** -0.24
13042 H 141.64980381016554 36.6205642912565 114.23661551777496 H 0.0 **** 0.06
13043 H 143.16471220415292 37.50736746076302 114.53497920203972 H 0.0 **** 0.06
13044 H 141.72167291868192 38.37808245254497 113.960532321208 H 0.0 **** 0.06
13045 H 142.58567746252157 37.26854962436539 112.86817237270736 H 0.0 **** 0.06
13046 C 112.31427646759015 45.606027432612365 23.717734283069717 C 0.0 **** -0.24
13047 H 112.03507849506543 46.63884059274328 23.92885315014167 H 0.0 **** 0.06
13048 H 112.59125153494743 45.107038803070296 24.64571854493677 H 0.0 **** 0.06
13049 H 113.16023540097989 45.591881341589314 23.029953018549193 H 0.0 **** 0.06
13050 H 111.46922942117764 45.087409324261856 23.26463558880078 H 0.0 **** 0.06
13051 C 115.44782022740107 80.17258746810086 150.60133527495077 C 0.0 **** -0.24
13052 H 116.27923871681831 79.46925568148396 150.55769634950676 H 0.0 **** 0.06
13053 H 115.08641627517666 80.36959354247318 149.5918762754029 H 0.0 **** 0.06
13054 H 115.78424769676776 81.10508156571086 151.05570409201067 H 0.0 **** 0.06
13055 H 114.64250029973026 79.74727185827285 151.20018176239378 H 0.0 **** 0.06
13056 C 45.571298216389835 55.48229234221617 155.54183238109977 C 0.0 **** -0.24
13057 H 46.29517123457583 54.72919305455645 155.85293040748002 H 0.0 **** 0.06
13058 H 45.01577143263626 55.832788784791376 156.41176910987747 H 0.0 **** 0.06
13059 H 44.88080647307652 55.044321526101555 154.82020129232433 H 0.0 **** 0.06
13060 H 46.09408260602348 56.32046709476916 155.08074426773408 H 0.0 **** 0.06
13061 C 93.63488637372188 26.598559886251905 8.580431417749246 C 0.0 **** -0.24
13062 H 92.89767344595094 27.40015292412133 8.569016131163913 H 0.0 **** 0.06
13063 H 94.63778666964345 27.026574380459067 8.581944602669935 H 0.0 **** 0.06
13064 H 93.50759436050157 25.975793105396264 7.694572527512243 H 0.0 **** 0.06
13065 H 93.49721980742618 25.990525595760715 9.474181308849175 H 0.0 **** 0.06
13066 C 145.90854085410197 17.36799628822743 51.441983600613824 C 0.0 **** -0.24
13067 H 145.57784726514453 17.658251482410293 50.44444544964978 H 0.0 **** 0.06
13068 H 145.45941612625762 16.411117314856767 51.70825655162706 H 0.0 **** 0.06
13069 H 145.60091118593556 18.126933888982222 52.1622574508104 H 0.0 **** 0.06
13070 H 146.9940074868281 17.27611979107394 51.45160265814398 H 0.0 **** 0.06
13071 C 20.161759019891747 47.72548031178684 119.71781725512976 C 0.0 **** -0.24
13072 H 19.360013450743395 48.14679845531026 120.32318961355101 H 0.0 **** 0.06
13073 H 20.211977909896518 48.250161829016974 118.7643231531175 H 0.0 **** 0.06
13074 H 19.965997714618197 46.667539696840834 119.54170407244276 H 0.0 **** 0.06
13075 H 21.10985999534722 47.836971974378855 120.24431875987021 H 0.0 **** 0.06
13076 C 32.993275739439476 90.67675589503469 91.00829138189002 C 0.0 **** -0.24
13077 H 32.55061328637649 90.21214570677044 91.88973112328972 H 0.0 **** 0.06
13078 H 33.46930493792194 91.61567569877494 91.29350099166734 H 0.0 **** 0.06
13079 H 32.21357949338223 90.87305702820373 90.27227215472786 H 0.0 **** 0.06
13080 H 33.7383059507748 90.0065858125577 90.57969050796689 H 0.0 **** 0.06
13081 C 88.29334827611478 0.5164631375571105 25.566580376310448 C 0.0 **** -0.24
13082 H 87.52110843423749 -0.25285893620963407 25.588599999763204 H 0.0 **** 0.06
13083 H 88.38254650893711 0.9114134298660304 24.55391771970794 H 0.0 **** 0.06
13084 H 89.24558807652491 0.08291290177203336 25.873210850456594 H 0.0 **** 0.06
13085 H 88.02311067400532 1.3216889292870349 26.248964945353144 H 0.0 **** 0.06
13086 C 40.84505446802437 26.10440414659123 5.673574329369416 C 0.0 **** -0.24
13087 H 41.29668899976171 25.232395450241903 5.201549198359373 H 0.0 **** 0.06
13088 H 41.233388698855876 26.210300474741068 6.687137945447432 H 0.0 **** 0.06
13089 H 39.76307819930851 25.978096222020056 5.7099381602415065 H 0.0 **** 0.06
13090 H 41.08752862782164 26.996389940470827 5.096442388425032 H 0.0 **** 0.06
13091 C 77.19270496776176 72.97751535291205 119.96615482298206 C 0.0 **** -0.24
13092 H 77.83977053069896 72.22201040009747 119.52100869029321 H 0.0 **** 0.06
13093 H 77.76878937890467 73.88373678098297 120.15698771325297 H 0.0 **** 0.06
13094 H 76.78728327099384 72.60031461588622 120.9050161136009 H 0.0 **** 0.06
13095 H 76.37497669044922 73.20399961468156 119.28160677478117 H 0.0 **** 0.06
13096 C 23.386552212515596 75.407119234243 74.35564620754893 C 0.0 **** -0.24
13097 H 22.525334186314808 75.2883645624782 73.69734495070024 H 0.0 **** 0.06
13098 H 23.18001021601583 76.18879180071013 75.085780462425 H 0.0 **** 0.06
13099 H 24.259229229656853 75.6832921181647 73.76310417497714 H 0.0 **** 0.06
13100 H 23.580746999934888 74.46782703869331 74.87233391729885 H 0.0 **** 0.06
13101 C 143.0193295965866 41.895486790806814 39.0668765908932 C 0.0 **** -0.24
13102 H 143.3847511575247 41.29943635741358 38.23092885392094 H 0.0 **** 0.06
13103 H 143.64027747476283 42.784794286876405 39.17858875598154 H 0.0 **** 0.06
13104 H 143.06341506677208 41.30429961748543 39.98120412900698 H 0.0 **** 0.06
13105 H 141.98756024518883 42.19452588913495 38.87657850348626 H 0.0 **** 0.06
13106 C 47.483366904886125 144.66141680868273 146.12411903968132 C 0.0 **** -0.24
13107 H 47.369313237033694 143.57797168241382 146.1477213283737 H 0.0 **** 0.06
13108 H 47.872070723262766 144.96476122746444 145.15180829250218 H 0.0 **** 0.06
13109 H 48.17747956119935 144.9706147227739 146.90557661392336 H 0.0 **** 0.06
13110 H 46.51460409804865 145.13231960207898 146.2913699239259 H 0.0 **** 0.06
13111 C 22.627627848750734 75.57115661661993 126.28285622881214 C 0.0 **** -0.24
13112 H 23.01394026233055 74.58399682546069 126.02782690037219 H 0.0 **** 0.06
13113 H 23.402678144736115 76.14500135263394 126.7909860663375 H 0.0 **** 0.06
13114 H 21.76407123448223 75.46445485751885 126.93907065077815 H 0.0 **** 0.06
13115 H 22.32867375129058 76.08972736293507 125.37117671079505 H 0.0 **** 0.06
13116 C 41.35241449129566 138.90799698154512 20.04194429471889 C 0.0 **** -0.24
13117 H 41.485730888686135 137.93695771152017 20.518734754603372 H 0.0 **** 0.06
13118 H 41.29873454804638 138.77732779586623 18.961022139012726 H 0.0 **** 0.06
13119 H 42.196370608115046 139.5520059274237 20.289644173850547 H 0.0 **** 0.06
13120 H 40.4289786534857 139.36385186214764 20.399630280654833 H 0.0 **** 0.06
13121 C 63.014749966952536 19.21537723626507 18.720728051199046 C 0.0 **** -0.24
13122 H 63.2510812153393 19.871579120048715 17.883383269484824 H 0.0 **** 0.06
13123 H 63.11572432204598 19.76846366310067 19.654857739489273 H 0.0 **** 0.06
13124 H 63.70201896788075 18.369047711013337 18.72255639204866 H 0.0 **** 0.06
13125 H 61.99226768966899 18.852688648835198 18.620870072647563 H 0.0 **** 0.06
13126 C 147.9049869751263 70.01974845277192 92.80859694970542 C 0.0 **** -0.24
13127 H 148.6666286191228 69.65016575927291 93.49518511560527 H 0.0 **** 0.06
13128 H 147.4808874131346 69.18320558064232 92.25295563966569 H 0.0 **** 0.06
13129 H 148.35491171187527 70.72774809555898 92.1131554473781 H 0.0 **** 0.06
13130 H 147.1163695626352 70.51783132366009 93.37438557385028 H 0.0 **** 0.06
13131 C 42.8285038805917 115.38987210996443 30.730310531477812 C 0.0 **** -0.24
13132 H 43.08799856623166 115.93846340233422 31.63553468090703 H 0.0 **** 0.06
13133 H 43.59586991821621 115.55401131651958 29.972723962686473 H 0.0 **** 0.06
13134 H 41.86689989539455 115.74281044171788 30.35539715986772 H 0.0 **** 0.06
13135 H 42.76104196492166 114.3261233627638 30.956020810002542 H 0.0 **** 0.06
13136 C 79.55087121880007 17.98477698682916 13.680277133171046 C 0.0 **** -0.24
13137 H 80.2021029229237 17.87626356463616 14.547366957503982 H 0.0 **** 0.06
13138 H 78.65798457928176 18.54082861319708 13.96413039347766 H 0.0 **** 0.06
13139 H 79.26420684737136 16.997652222048544 13.315876324227702 H 0.0 **** 0.06
13140 H 80.07983628282707 18.522225091887208 12.893835695231758 H 0.0 **** 0.06
13141 C 127.52979999332159 107.6044500576141 81.64575466424236 C 0.0 **** -0.24
13142 H 128.26553541635172 106.82751512735591 81.43787447273053 H 0.0 **** 0.06
13143 H 126.80955680406053 107.23601723746664 82.37663611513406 H 0.0 **** 0.06
13144 H 127.01064550049522 107.86851762988844 80.7241671120465 H 0.0 **** 0.06
13145 H 128.03425483207684 108.4851555998129 82.04447607952005 H 0.0 **** 0.06
13146 C 21.439163501752773 57.90333851656794 124.81214546458033 C 0.0 **** -0.24
13147 H 21.88932221015952 57.45159359612569 125.69693266089944 H 0.0 **** 0.06
13148 H 21.4279964727412 57.17559509696923 123.99949206360769 H 0.0 **** 0.06
13149 H 22.02198920470019 58.773764744901456 124.51293983065004 H 0.0 **** 0.06
13150 H 20.41788918088085 58.20888137732433 125.03978332447927 H 0.0 **** 0.06
13151 C 73.35703652483176 0.47261665228813854 112.52087856243891 C 0.0 **** -0.24
13152 H 72.65544621110627 1.306206888863386 112.56262834574714 H 0.0 **** 0.06
13153 H 73.53430440514637 0.20026418019446623 111.48022496228653 H 0.0 **** 0.06
13154 H 72.93878079832865 -0.3807117228024879 113.05348391295713 H 0.0 **** 0.06
13155 H 74.29818207619803 0.766429088388378 112.98518122249295 H 0.0 **** 0.06
13156 C 76.94369258439342 142.0377314680758 10.716736599662852 C 0.0 **** -0.24
13157 H 75.97010820429038 141.58376410047018 10.902078882009782 H 0.0 **** 0.06
13158 H 77.62186685982336 141.7862979732282 11.532947700518292 H 0.0 **** 0.06
13159 H 76.83362019625947 143.119691850117 10.655007983248204 H 0.0 **** 0.06
13160 H 77.34794188997964 141.6592090615948 9.778532507031066 H 0.0 **** 0.06
13161 C 122.69864518517944 124.12746571997515 74.20632921205828 C 0.0 **** -0.24
13162 H 122.36211986387157 125.14614221993507 74.01567627740079 H 0.0 **** 0.06
13163 H 122.68955795691703 123.56109360325745 73.27550178840085 H 0.0 **** 0.06
13164 H 122.03114468081365 123.6530290433824 74.92646088374704 H 0.0 **** 0.06
13165 H 123.71100743364794 124.1489961640555 74.60871430290331 H 0.0 **** 0.06
13166 C 125.68608206893934 32.788783855709255 65.69031009216494 C 0.0 **** -0.24
13167 H 126.00439510566086 33.82507314813142 65.57607791842652 H 0.0 **** 0.06
13168 H 124.8125290888977 32.60562056571018 65.06465837537621 H 0.0 **** 0.06
13169 H 125.43286064852829 32.60071825981743 66.73400733632188 H 0.0 **** 0.06
13170 H 126.4957540706075 32.125292487983586 65.38874901870405 H 0.0 **** 0.06
13171 C 130.72147371682826 29.316017182120135 31.84380174654774 C 0.0 **** -0.24
13172 H 129.72022768824058 28.983699734353905 32.11591227270981 H 0.0 **** 0.06
13173 H 131.27708780157297 28.48212567369822 31.415133339146735 H 0.0 **** 0.06
13174 H 131.23799672188375 29.678163845545868 32.73391944695544 H 0.0 **** 0.06
13175 H 130.65210671498608 30.12085854422122 31.111994208548907 H 0.0 **** 0.06
13176 C 110.42647488905556 119.91164886413897 17.364028747619983 C 0.0 **** -0.24
13177 H 109.83390683382765 118.9981731429905 17.314280620491743 H 0.0 **** 0.06
13178 H 110.61192375720998 120.16763975630768 18.408215570636244 H 0.0 **** 0.06
13179 H 109.88264475420817 120.72435825346331 16.882321460873108 H 0.0 **** 0.06
13180 H 111.37678443428649 119.75805311667919 16.85301135413551 H 0.0 **** 0.06
13181 C 35.20375001824501 143.43762955832028 94.44713357497216 C 0.0 **** -0.24
13182 H 36.27239671087037 143.61022619839417 94.32305179707569 H 0.0 **** 0.06
13183 H 35.0027812642313 143.11837032607923 95.47010610437749 H 0.0 **** 0.06
13184 H 34.87871210654719 142.6608961266342 93.75334594547041 H 0.0 **** 0.06
13185 H 34.66039770334466 144.35912165745754 94.23982409636466 H 0.0 **** 0.06
13186 C 47.66749086580796 44.18147076835366 2.370396410286503 C 0.0 **** -0.24
13187 H 46.82437595788713 44.04332983862919 3.0464185760055216 H 0.0 **** 0.06
13188 H 47.38453000374511 44.86471519490135 1.5695063540895262 H 0.0 **** 0.06
13189 H 47.952843906761814 43.2199370364788 1.9441638672332715 H 0.0 **** 0.06
13190 H 48.51065070509753 44.597812962974615 2.921726925894859 H 0.0 **** 0.06
13191 C 104.91893852192361 85.69653661296523 80.01739265348519 C 0.0 **** -0.24
13192 H 105.01389173049854 84.77597549675664 79.4412444085645 H 0.0 **** 0.06
13193 H 103.9050307065021 86.08500760868313 79.91907218706707 H 0.0 **** 0.06
13194 H 105.62862673236121 86.43470696634304 79.64201033001405 H 0.0 **** 0.06
13195 H 105.13090455746094 85.49173403508506 81.06696112997199 H 0.0 **** 0.06
13196 C 99.9525703760773 1.3354193888327757 18.711378714119235 C 0.0 **** -0.24
13197 H 99.75940993581129 1.8623438089328204 19.645938706502676 H 0.0 **** 0.06
13198 H 100.1747291346067 0.288867693538009 18.923411151119637 H 0.0 **** 0.06
13199 H 100.8041067875845 1.7925412695771001 18.20692057735073 H 0.0 **** 0.06
13200 H 99.07338147998475 1.397882257215315 18.071029662662 H 0.0 **** 0.06
13201 C 42.17671487879821 108.70865574883464 153.49012024215529 C 0.0 **** -0.24
13202 H 41.260872314215035 108.4552593096605 154.02404093929727 H 0.0 **** 0.06
13203 H 42.95700304913156 107.99213428553878 153.74596203330725 H 0.0 **** 0.06
13204 H 42.49608153318344 109.71218266405748 153.77327811081136 H 0.0 **** 0.06
13205 H 41.99124647818179 108.67708813686318 152.41615578657303 H 0.0 **** 0.06
13206 C 33.02123887511103 35.569594154095114 12.699203277119203 C 0.0 **** -0.24
13207 H 33.64266913181629 35.87214347425855 13.54214160286724 H 0.0 **** 0.06
13208 H 33.63431131746944 35.04131931172813 11.967744732155666 H 0.0 **** 0.06
13209 H 32.58328413196526 36.453415593572345 12.235519147442673 H 0.0 **** 0.06
13210 H 32.226922834375344 34.911907419471646 13.050484956256327 H 0.0 **** 0.06
13211 C 13.838218832213414 151.65855241115975 8.779682154735426 C 0.0 **** -0.24
13212 H 13.44009818294964 152.5304988553054 9.298329441371877 H 0.0 **** 0.06
13213 H 13.923446340622462 151.87536424502912 7.715387770888022 H 0.0 **** 0.06
13214 H 13.166484676980133 150.8118539509411 8.924949666096225 H 0.0 **** 0.06
13215 H 14.821546778685871 151.41447580733654 9.181863006153378 H 0.0 **** 0.06
13216 C 49.45188372449701 95.94748999591289 117.00709612953841 C 0.0 **** -0.24
13217 H 50.449230050829996 95.75018143628508 117.40188386213771 H 0.0 **** 0.06
13218 H 48.738589238164295 95.26282777954167 117.46774387984993 H 0.0 **** 0.06
13219 H 49.452619560582704 95.79979076666432 115.9274878471287 H 0.0 **** 0.06
13220 H 49.168394004303835 96.97468090621446 117.23461108660285 H 0.0 **** 0.06
13221 C 19.099213195151947 13.778040883914045 2.832460231402763 C 0.0 **** -0.24
13222 H 18.695477317726386 13.510772371562922 1.8559047775548834 H 0.0 **** 0.06
13223 H 19.03763538356486 14.857896853066528 2.9677485632183505 H 0.0 **** 0.06
13224 H 20.142134690134924 13.46284595167851 2.8924657599931436 H 0.0 **** 0.06
13225 H 18.523883987434374 13.280456783139364 3.6128434833075005 H 0.0 **** 0.06
13226 C 102.42705066222929 63.71039855795834 65.13648610620889 C 0.0 **** -0.24
13227 H 102.7433088778741 62.85449367052715 64.53985954751771 H 0.0 **** 0.06
13228 H 103.27608144881545 64.37669643202236 65.29365347960835 H 0.0 **** 0.06
13229 H 102.05307465234175 63.36367796672431 66.09866040096443 H 0.0 **** 0.06
13230 H 101.63695190769444 64.24724613103297 64.61107738350668 H 0.0 **** 0.06
13231 C 61.96090521754189 70.7348131032926 0.6067467882255073 C 0.0 **** -0.24
13232 H 62.71073004583961 70.61906158514608 1.388337430742979 H 0.0 **** 0.06
13233 H 61.94868288016637 69.84309898058962 -0.020160075555622825 H 0.0 **** 0.06
13234 H 62.20342486809611 71.60494508585316 -0.003160760152582043 H 0.0 **** 0.06
13235 H 60.9797088562529 70.87306113752567 1.0620707253617638 H 0.0 **** 0.06
13236 C 48.5411273850456 152.7694457931637 26.49948470671876 C 0.0 **** -0.24
13237 H 48.622372556178505 153.7011667407699 25.940328248390756 H 0.0 **** 0.06
13238 H 49.53506838534258 152.3497521968044 26.651941973556006 H 0.0 **** 0.06
13239 H 47.928360063622335 152.06176081039442 25.940218332014695 H 0.0 **** 0.06
13240 H 48.07690718579482 152.9655444407825 27.46669959611097 H 0.0 **** 0.06
13241 C 56.71215643066206 25.816572028180218 38.58470192698064 C 0.0 **** -0.24
13242 H 56.56038146381911 24.946975635359934 37.945499975578045 H 0.0 **** 0.06
13243 H 57.78093739833878 25.98631538697893 38.718985731093525 H 0.0 **** 0.06
13244 H 56.24762166458443 25.63905806590813 39.55462404434812 H 0.0 **** 0.06
13245 H 56.260199967853225 26.692304943448733 38.119952685570254 H 0.0 **** 0.06
13246 C 23.917268952542713 148.96813016853127 61.66155291611568 C 0.0 **** -0.24
13247 H 24.970723472000515 149.13782123515335 61.438117912461166 H 0.0 **** 0.06
13248 H 23.81235976408533 148.04448505955406 62.231680516497306 H 0.0 **** 0.06
13249 H 23.357511977930983 148.8860970088159 60.73090674386856 H 0.0 **** 0.06
13250 H 23.532015428295978 149.80317710648256 62.24629473069075 H 0.0 **** 0.06
13251 C 128.3436777662347 25.182731259987264 110.90150433666285 C 0.0 **** -0.24
13252 H 127.37560145193858 24.90192835038647 110.48475297331454 H 0.0 **** 0.06
13253 H 128.1935246430054 25.8714795944054 111.73387114058703 H 0.0 **** 0.06
13254 H 128.94294730214995 25.666992011852926 110.13148020151506 H 0.0 **** 0.06
13255 H 128.85857651298124 24.289813248197333 111.25594244716608 H 0.0 **** 0.06
13256 C 142.7369796520073 87.31667210779625 26.028758560322196 C 0.0 **** -0.24
13257 H 143.3754874416335 86.78209903427636 26.732784224351725 H 0.0 **** 0.06
13258 H 142.47825771421157 86.65817030534207 25.199846627947167 H 0.0 **** 0.06
13259 H 143.26876198309938 88.18869160253745 25.64746439532719 H 0.0 **** 0.06
13260 H 141.82750135738738 87.63890047669508 26.535445611975497 H 0.0 **** 0.06
13261 C 74.93853481432761 113.18894075890806 64.74776310970793 C 0.0 **** -0.24
13262 H 75.1857128354456 112.32383242283716 65.36280477780929 H 0.0 **** 0.06
13263 H 75.0621891231724 114.09875312094185 65.33622533368089 H 0.0 **** 0.06
13264 H 73.90518093092557 113.11203818657312 64.41136546125279 H 0.0 **** 0.06
13265 H 75.60087519353709 113.22187655864657 63.8827601483145 H 0.0 **** 0.06
13266 C 39.252856122945204 57.87656765062668 50.668273864800994 C 0.0 **** -0.24
13267 H 38.594276072001904 57.06002120457116 50.96243513577656 H 0.0 **** 0.06
13268 H 40.26062951929025 57.682023895564 51.037127800391204 H 0.0 **** 0.06
13269 H 38.88492511518736 58.810557682183784 51.093439806215144 H 0.0 **** 0.06
13270 H 39.27251951377305 57.95441428730969 49.58085814397748 H 0.0 **** 0.06
13271 C 104.35655200330946 110.54098948209814 41.11259447863277 C 0.0 **** -0.24
13272 H 104.22416892379862 110.5241054147104 40.03045107604609 H 0.0 **** 0.06
13273 H 104.22688648537279 109.53390224415507 41.50948468333401 H 0.0 **** 0.06
13274 H 103.61716836373186 111.20642529513377 41.55784460109649 H 0.0 **** 0.06
13275 H 105.35780088670874 110.89884592063639 41.349514439891806 H 0.0 **** 0.06
13276 C 0.6184153994214228 13.634831489560952 126.00520398529333 C 0.0 **** -0.24
13277 H 0.03423919787064733 13.099466306208143 125.25683579279435 H 0.0 **** 0.06
13278 H 1.6467644075532064 13.738219049562304 125.65856150506566 H 0.0 **** 0.06
13279 H 0.6053088056585807 13.078502156650444 126.94299212488629 H 0.0 **** 0.06
13280 H 0.18662299170802044 14.623528183055498 126.16450519796275 H 0.0 **** 0.06
13281 C 41.55056641600663 74.77842590115804 22.560453195261744 C 0.0 **** -0.24
13282 H 42.12892084072104 74.86842673898292 23.480747564651722 H 0.0 **** 0.06
13283 H 41.24058861951312 75.76909094633007 22.22853273625506 H 0.0 **** 0.06
13284 H 40.66974685330638 74.16340427233459 22.743494034207288 H 0.0 **** 0.06
13285 H 42.165029271754975 74.31233294358795 21.78988623486771 H 0.0 **** 0.06
13286 C 14.399634213516684 19.36602113364073 154.5118433157929 C 0.0 **** -0.24
13287 H 13.40610147496269 19.026283012014268 154.80303286190244 H 0.0 **** 0.06
13288 H 14.903984356967584 19.79592232738927 155.3784347042882 H 0.0 **** 0.06
13289 H 14.311771906151101 20.122146643792377 153.7314157968844 H 0.0 **** 0.06
13290 H 14.976828283146446 18.52154442685633 154.13726392504523 H 0.0 **** 0.06
13291 C 75.68452221744563 80.95029430392921 8.213784412037569 C 0.0 **** -0.24
13292 H 76.7318350873136 80.82723969895505 8.489643049659946 H 0.0 **** 0.06
13293 H 75.50492876598372 80.47282508802934 7.250845166310512 H 0.0 **** 0.06
13294 H 75.45104405749743 82.01264785952173 8.142738338804577 H 0.0 **** 0.06
13295 H 75.05266436758377 80.4897303221293 8.972758143202896 H 0.0 **** 0.06
13296 C 151.16292193921808 94.24328705014358 118.75038063800395 C 0.0 **** -0.24
13297 H 151.80227908518592 93.66658825393458 119.41905067746393 H 0.0 **** 0.06
13298 H 151.57412741843316 94.21492893403142 117.7412668953981 H 0.0 **** 0.06
13299 H 151.11568226339313 95.27642270388696 119.09522671764978 H 0.0 **** 0.06
13300 H 150.16079778651232 93.81417082886765 118.74719754503872 H 0.0 **** 0.06
13301 C 52.31358877104017 101.73220195276599 32.06450295998359 C 0.0 **** -0.24
13302 H 52.51410765464928 101.05349430546545 32.89425823616686 H 0.0 **** 0.06
13303 H 52.280267885245166 101.16560742607027 31.133500243495526 H 0.0 **** 0.06
13304 H 53.103912046786036 102.48032434129959 32.007453290667 H 0.0 **** 0.06
13305 H 51.35493705800991 102.2264036283413 32.22372382614807 H 0.0 **** 0.06
13306 C 122.02999210430471 62.792100741445665 69.0274565968744 C 0.0 **** -0.24
13307 H 122.24774730761698 63.100447483238554 68.00446653892428 H 0.0 **** 0.06
13308 H 121.56638233256956 63.61946774121748 69.56532044578728 H 0.0 **** 0.06
13309 H 122.95682189231377 62.50733624708948 69.52565174378452 H 0.0 **** 0.06
13310 H 121.34928915591951 61.940833308841945 69.0130368475617 H 0.0 **** 0.06
13311 C 126.06045243998295 127.55564924331179 11.08745075721864 C 0.0 **** -0.24
13312 H 125.89273298623851 127.57721659834777 12.164038278005357 H 0.0 **** 0.06
13313 H 125.54118216419431 126.69801430145702 10.657281688892475 H 0.0 **** 0.06
13314 H 127.12749854219311 127.47192755091487 10.887078882089739 H 0.0 **** 0.06
13315 H 125.67655336473484 128.47281986638768 10.642018177497334 H 0.0 **** 0.06
13316 C 24.259218454200074 30.81160374309477 75.02703437151085 C 0.0 **** -0.24
13317 H 23.813165976149037 30.051651879626718 75.66916757157077 H 0.0 **** 0.06
13318 H 25.295774351835917 30.97343275516768 75.32310179490406 H 0.0 **** 0.06
13319 H 23.702431475774027 31.743806106982 75.12801318380919 H 0.0 **** 0.06
13320 H 24.223693584598344 30.477421929103798 73.99024646537796 H 0.0 **** 0.06
13321 C 64.69196953293168 128.23466433736394 140.72721673886812 C 0.0 **** -0.24
13322 H 63.67591561226698 127.85950197365848 140.61100032892915 H 0.0 **** 0.06
13323 H 65.01854995840665 128.0851574983887 141.75678637311285 H 0.0 **** 0.06
13324 H 64.71573536360822 129.29811917340115 140.48824250472165 H 0.0 **** 0.06
13325 H 65.35767719744493 127.69587870400728 140.05283774870875 H 0.0 **** 0.06
13326 C 89.80822175414328 38.2831578785549 115.5921110008619 C 0.0 **** -0.24
13327 H 89.02941800779409 38.605510920252016 114.90167209600389 H 0.0 **** 0.06
13328 H 89.85343296303805 37.193383707409595 115.6057098985574 H 0.0 **** 0.06
13329 H 89.57968642604142 38.64966113067561 116.59309234661833 H 0.0 **** 0.06
13330 H 90.76917122130914 38.683308016600506 115.26970808580006 H 0.0 **** 0.06
13331 C 84.62163686388428 42.64527445456281 126.37668737647716 C 0.0 **** -0.24
13332 H 83.64146053403228 42.1836619506434 126.49860927376928 H 0.0 **** 0.06
13333 H 84.56381083415555 43.698728004035445 126.6522222573537 H 0.0 **** 0.06
13334 H 84.93710571696596 42.558016908036336 125.3375963537829 H 0.0 **** 0.06
13335 H 85.34272675997084 42.140478002215474 127.01968938196809 H 0.0 **** 0.06
13336 C 156.10352060487028 22.701757397217307 72.34601440993742 C 0.0 **** -0.24
13337 H 155.5811047241121 21.92541467948314 71.78807062693659 H 0.0 **** 0.06
13338 H 155.6814618916176 22.775148872986875 73.34867478572971 H 0.0 **** 0.06
13339 H 155.99006273938085 23.65659773594396 71.83359672791454 H 0.0 **** 0.06
13340 H 157.16157426780978 22.450130470378753 72.41467289626905 H 0.0 **** 0.06
13341 C 77.63293397865111 35.40860498047235 26.45068836767564 C 0.0 **** -0.24
13342 H 78.49793447048738 34.81276876473987 26.160886718480583 H 0.0 **** 0.06
13343 H 76.7195148768821 34.880598505377975 26.17849294340718 H 0.0 **** 0.06
13344 H 77.66416995203198 36.36969668699689 25.935193661858023 H 0.0 **** 0.06
13345 H 77.65039746418229 35.574321095229436 27.52853989434618 H 0.0 **** 0.06
13346 C 13.324420601547018 127.8726870373302 110.6669202943421 C 0.0 **** -0.24
13347 H 14.174993304565604 128.42539978236954 110.26931454066931 H 0.0 **** 0.06
13348 H 13.231030253980968 126.92237354627161 110.1399817517568 H 0.0 **** 0.06
13349 H 12.414439945327338 128.45639980275348 110.52703715737533 H 0.0 **** 0.06
13350 H 13.47623668281652 127.68602365902353 111.73003192140055 H 0.0 **** 0.06
13351 C 20.295366856511805 138.369321602782 85.58265957453148 C 0.0 **** -0.24
13352 H 19.883882501908204 139.37639339629717 85.51181669437466 H 0.0 **** 0.06
13353 H 20.40239223684904 138.0933759175332 86.63146661177382 H 0.0 **** 0.06
13354 H 21.271433346540334 138.34109301814334 85.0979895475408 H 0.0 **** 0.06
13355 H 19.623980326685114 137.6674732969009 85.08844328803153 H 0.0 **** 0.06
13356 C 83.87011260112979 120.89338045596968 139.77670298517415 C 0.0 **** -0.24
13357 H 83.62951993968804 120.11192490362843 139.05558782301495 H 0.0 **** 0.06
13358 H 83.49738733813383 120.60679623306807 140.7602943869975 H 0.0 **** 0.06
13359 H 83.4010314183463 121.82838054691017 139.4683421810194 H 0.0 **** 0.06
13360 H 84.95074539856707 121.02705201950165 139.82101240723125 H 0.0 **** 0.06
13361 C 25.753126168572862 100.64476474830161 116.96217107099532 C 0.0 **** -0.24
13362 H 26.122351686134408 101.4261074763545 116.29849667563623 H 0.0 **** 0.06
13363 H 24.761445441307814 100.91552830547107 117.32482808196205 H 0.0 **** 0.06
13364 H 26.432433137864905 100.5354430258372 117.80747957607885 H 0.0 **** 0.06
13365 H 25.69588258704266 99.70289725998464 116.41780590582162 H 0.0 **** 0.06
13366 C 90.70217667130355 45.95259392940403 101.54012737786876 C 0.0 **** -0.24
13367 H 91.70197463961286 46.341106428723265 101.34921458321729 H 0.0 **** 0.06
13368 H 90.33310098750717 45.445065482616826 100.64914271365483 H 0.0 **** 0.06
13369 H 90.03423613732328 46.77732880403866 101.79199153749617 H 0.0 **** 0.06
13370 H 90.73856432160477 45.24803539608075 102.37114235363306 H 0.0 **** 0.06
13371 C 2.095773734665613 80.9825787617259 61.910988194342636 C 0.0 **** -0.24
13372 H 2.646255358085199 81.13702083879042 62.83924102212464 H 0.0 **** 0.06
13373 H 1.3868359817928422 80.16521150879652 62.04133654867023 H 0.0 **** 0.06
13374 H 2.7946588066909896 80.73432879990884 61.11190415624206 H 0.0 **** 0.06
13375 H 1.5569180053611262 81.89496390823996 61.652501118966754 H 0.0 **** 0.06
13376 C 48.594625111046284 150.82162755875984 15.381941089471944 C 0.0 **** -0.24
13377 H 48.45207644502901 149.9441100172831 16.01441447817276 H 0.0 **** 0.06
13378 H 47.692073554806456 151.43321976334644 15.402247880260973 H 0.0 **** 0.06
13379 H 48.796832633736074 150.50308363719228 14.359560757521002 H 0.0 **** 0.06
13380 H 49.437878120395325 151.40341045297106 15.754648359140589 H 0.0 **** 0.06
13381 C 82.35620520175979 149.3802143660596 36.3850205695781 C 0.0 **** -0.24
13382 H 82.32666825019862 149.12756560550784 35.32486781621871 H 0.0 **** 0.06
13383 H 83.34708449923026 149.16180759662976 36.78248925159039 H 0.0 **** 0.06
13384 H 81.61117820158299 148.79079194062965 36.9185696430133 H 0.0 **** 0.06
13385 H 82.13976174244841 150.44097505042612 36.510705344041355 H 0.0 **** 0.06
13386 C 30.04040663486927 150.1177581614753 26.46665516128121 C 0.0 **** -0.24
13387 H 30.435018362843437 149.29873842724209 27.06744872765654 H 0.0 **** 0.06
13388 H 30.81158787410095 150.87779739572454 26.336930199374763 H 0.0 **** 0.06
13389 H 29.179356464143098 150.55600969464643 26.97145796891573 H 0.0 **** 0.06
13390 H 29.735227209809636 149.73869534125538 25.49165898365669 H 0.0 **** 0.06
13391 C 60.39755872274888 64.43321263633581 54.07014170108167 C 0.0 **** -0.24
13392 H 60.0594148931512 63.59169134465033 53.464719230738496 H 0.0 **** 0.06
13393 H 59.77222303752616 65.30203785824173 53.86613271417535 H 0.0 **** 0.06
13394 H 61.43415601365294 64.66468434755932 53.82284913676881 H 0.0 **** 0.06
13395 H 60.32605413737737 64.17201319268345 55.126142471976465 H 0.0 **** 0.06
13396 C 121.31241653003003 21.46503830033481 104.5856160597858 C 0.0 **** -0.24
13397 H 121.18106107910707 20.716165814679755 105.36731577828094 H 0.0 **** 0.06
13398 H 120.34246181651271 21.72179966995077 104.1619108980811 H 0.0 **** 0.06
13399 H 121.95619328716164 21.06299910422257 103.80331136066697 H 0.0 **** 0.06
13400 H 121.77143566158738 22.357173729494633 105.01185835000852 H 0.0 **** 0.06
13401 C 19.373990215612267 133.90362157028954 67.77966458000353 C 0.0 **** -0.24
13402 H 18.989050061372048 133.2247466976018 67.01835014182872 H 0.0 **** 0.06
13403 H 18.728394642395806 134.77930330725087 67.84505965254256 H 0.0 **** 0.06
13404 H 20.382974126894297 134.21599598353677 67.51018105819837 H 0.0 **** 0.06
13405 H 19.396379155595532 133.39524028925703 68.74315451368231 H 0.0 **** 0.06
13406 C 120.24607629882973 8.549659682065567 150.45663595001628 C 0.0 **** -0.24
13407 H 121.00047525187182 8.955493319102466 149.78323345275464 H 0.0 **** 0.06
13408 H 119.54388200908642 9.337460945682338 150.73221183780848 H 0.0 **** 0.06
13409 H 120.73049370781905 8.164615650558694 151.3544809084659 H 0.0 **** 0.06
13410 H 119.71073160605874 7.742690632522631 149.9579360084237 H 0.0 **** 0.06
13411 C 89.5201044939588 129.77968718939582 54.4948336049647 C 0.0 **** -0.24
13412 H 89.91526290999752 129.00455909153402 55.15184574082481 H 0.0 **** 0.06
13413 H 88.73944186725788 130.33349315723808 55.016719126184725 H 0.0 **** 0.06
13414 H 89.10310074771704 129.31816095773013 53.59965033376456 H 0.0 **** 0.06
13415 H 90.32265309934678 130.460179647343 54.21178874173191 H 0.0 **** 0.06
13416 C 141.51249144841842 122.90957543505253 68.65326718395528 C 0.0 **** -0.24
13417 H 140.93861732905566 123.1481399002851 67.75834420931955 H 0.0 **** 0.06
13418 H 141.15298351025706 121.97093558017009 69.0753382053656 H 0.0 **** 0.06
13419 H 141.3922939568152 123.70756453284183 69.38621850925875 H 0.0 **** 0.06
13420 H 142.56643890817895 122.81036082733065 68.39358298309685 H 0.0 **** 0.06
13421 C 99.74313932171528 46.14886105584168 47.831039651579545 C 0.0 **** -0.24
13422 H 99.6972828461849 45.308165323081724 47.138659304615885 H 0.0 **** 0.06
13423 H 99.25987197399853 47.01669100261236 47.380849063355356 H 0.0 **** 0.06
13424 H 100.78466245572882 46.38457561695799 48.049220477058284 H 0.0 **** 0.06
13425 H 99.22905322342596 45.88561894576202 48.75541822370873 H 0.0 **** 0.06
13426 C 116.53632723394877 106.93368394673104 16.846874709629958 C 0.0 **** -0.24
13427 H 116.25979925683548 107.90337767002893 16.43283722927049 H 0.0 **** 0.06
13428 H 117.14535910294184 107.08011569278443 17.73960906964254 H 0.0 **** 0.06
13429 H 117.10614090025639 106.37276715200238 16.106357057943455 H 0.0 **** 0.06
13430 H 115.63451745847128 106.38032491496284 17.107546072781076 H 0.0 **** 0.06
13431 C 74.16319565841832 40.57365192597034 31.09492535825592 C 0.0 **** -0.24
13432 H 75.08476921881137 40.28227616622719 31.597764274871565 H 0.0 **** 0.06
13433 H 74.39934564250822 40.985071864963544 30.11373705886527 H 0.0 **** 0.06
13434 H 73.64601284862925 41.32660715747113 31.691016865612767 H 0.0 **** 0.06
13435 H 73.52147147614619 39.69998278138675 30.978649875627923 H 0.0 **** 0.06
13436 C 70.58745242055925 86.62672709791357 22.8268733943965 C 0.0 **** -0.24
13437 H 70.48766271916521 85.78038033402852 22.14683599714374 H 0.0 **** 0.06
13438 H 69.9293454367588 87.43329933161482 22.501110972490096 H 0.0 **** 0.06
13439 H 71.61965687093748 86.9750986194672 22.82550058045996 H 0.0 **** 0.06
13440 H 70.3097207379431 86.31600374794887 23.834915476678503 H 0.0 **** 0.06
13441 C 137.81402779901623 9.582006361947492 47.65259050008069 C 0.0 **** -0.24
13442 H 137.4934077272935 10.14309599472395 46.77466973305343 H 0.0 **** 0.06
13443 H 138.90185807634674 9.50841755223027 47.65896777115012 H 0.0 **** 0.06
13444 H 137.38122726352645 8.58252232015306 47.62275784088007 H 0.0 **** 0.06
13445 H 137.47927639671764 10.096967162368514 48.55409901598546 H 0.0 **** 0.06
13446 C 16.720724026533645 44.1567299037946 14.59907184597376 C 0.0 **** -0.24
13447 H 15.962372909724195 43.40250310060486 14.809939563712092 H 0.0 **** 0.06
13448 H 16.29345320988776 44.933226180634506 13.964371239007505 H 0.0 **** 0.06
13449 H 17.563717203518223 43.691718437093414 14.088665647732839 H 0.0 **** 0.06
13450 H 17.06127870193933 44.598529307039826 15.535920550807035 H 0.0 **** 0.06
13451 C 137.3631182168604 113.31227328223609 83.08052368048648 C 0.0 **** -0.24
13452 H 138.35740915645397 112.87339143133364 82.99118748623579 H 0.0 **** 0.06
13453 H 137.2010791637573 113.6371530837469 84.10815937582275 H 0.0 **** 0.06
13454 H 136.61341856295064 112.5687224617965 82.81069176021937 H 0.0 **** 0.06
13455 H 137.2830449549004 114.16870453420275 82.41128348176495 H 0.0 **** 0.06
13456 C 57.70993470788983 21.895149887650973 91.73226199172913 C 0.0 **** -0.24
13457 H 58.186622226172375 22.266456287729113 90.82494052405048 H 0.0 **** 0.06
13458 H 56.840594130614804 22.511685730624322 91.96432284325789 H 0.0 **** 0.06
13459 H 58.41827257962768 21.940920260381375 92.55857498062073 H 0.0 **** 0.06
13460 H 57.393970323882215 20.863076223984876 91.5796116111517 H 0.0 **** 0.06
13461 C 123.51698242921442 125.51922557697843 128.4957782420595 C 0.0 **** -0.24
13462 H 124.51188476019983 125.96188521291008 128.55042704027036 H 0.0 **** 0.06
13463 H 122.79587270662098 126.18877344950961 128.96347477898902 H 0.0 **** 0.06
13464 H 123.51659275112353 124.56248895923001 129.01790328344046 H 0.0 **** 0.06
13465 H 123.24568486292749 125.36310345454781 127.45168668260287 H 0.0 **** 0.06
13466 C 132.73677574486456 40.79383750029527 140.2035896322409 C 0.0 **** -0.24
13467 H 133.47647477833715 40.71065486566323 141.0001407450976 H 0.0 **** 0.06
13468 H 132.26251867396036 39.82516860762945 140.04649261708113 H 0.0 **** 0.06
13469 H 133.22750228792 41.11285951179201 139.28444869387408 H 0.0 **** 0.06
13470 H 131.98116877995474 41.527511669083 140.48609986206293 H 0.0 **** 0.06
13471 C 19.42498073025454 147.8095720340201 123.73635940847886 C 0.0 **** -0.24
13472 H 19.942003637433416 148.03640134806062 124.66860800121422 H 0.0 **** 0.06
13473 H 18.43375733117596 147.412721136294 123.95785261555666 H 0.0 **** 0.06
13474 H 19.995844433128624 147.06867466223213 123.17709527442803 H 0.0 **** 0.06
13475 H 19.328766341637127 148.71882717074038 123.14330667373103 H 0.0 **** 0.06
13476 C 116.69408587541166 56.64677840227476 6.529708979125083 C 0.0 **** -0.24
13477 H 117.71269186784947 56.26165943985802 6.477999187441839 H 0.0 **** 0.06
13478 H 116.47189840426488 56.94844543692058 7.553512873111934 H 0.0 **** 0.06
13479 H 115.9953940647995 55.870450160359866 6.219593112584711 H 0.0 **** 0.06
13480 H 116.59803074041393 57.508116563364126 5.868613179096776 H 0.0 **** 0.06
13481 C 63.886544829650404 102.73039434610479 113.90173912764998 C 0.0 **** -0.24
13482 H 62.9086080174406 102.25143467130619 113.95619013927661 H 0.0 **** 0.06
13483 H 64.34106885614892 102.73988567760978 114.89255419849486 H 0.0 **** 0.06
13484 H 63.76973273570309 103.75387873829601 113.54529094267612 H 0.0 **** 0.06
13485 H 64.52442976257646 102.17677160534475 113.21352963240155 H 0.0 **** 0.06
13486 C 84.90320103423494 75.47131489718097 117.8243136169425 C 0.0 **** -0.24
13487 H 85.89645364595381 75.53543282785387 118.26932803333136 H 0.0 **** 0.06
13488 H 84.9867709168139 75.53898798927656 116.7392163274742 H 0.0 **** 0.06
13489 H 84.28775595145737 76.29130444417268 118.1925501171454 H 0.0 **** 0.06
13490 H 84.44455180785911 74.52147082606987 118.09526145245513 H 0.0 **** 0.06
13491 C 48.51952625394122 63.24952758559124 151.82422523204377 C 0.0 **** -0.24
13492 H 48.40512093770917 62.38887204148803 152.48270158430137 H 0.0 **** 0.06
13493 H 48.81441760241046 62.91077210033738 150.8308675436798 H 0.0 **** 0.06
13494 H 49.285294307759216 63.91395280572934 152.22438280342715 H 0.0 **** 0.06
13495 H 47.57154024716834 63.78549106569895 151.75916051617457 H 0.0 **** 0.06
13496 C 117.67031454093103 41.21404243437567 118.19562997530568 C 0.0 **** -0.24
13497 H 117.68860278156632 42.03314555501488 118.91519047959628 H 0.0 **** 0.06
13498 H 118.45952841372656 40.50189761141249 118.43564428601417 H 0.0 **** 0.06
13499 H 117.82961589075768 41.60957015883778 117.19239093256425 H 0.0 **** 0.06
13500 H 116.7025408280756 40.71439209000941 118.23942777040946 H 0.0 **** 0.06
13501 C 50.409660966749485 153.63555986034999 45.330911710075256 C 0.0 **** -0.24
13502 H 50.41879409116133 153.14493342648137 44.35790505995175 H 0.0 **** 0.06
13503 H 51.207227861135266 153.22651593770118 45.95150965131565 H 0.0 **** 0.06
13504 H 49.44872270166394 153.4645180987735 45.815099695051956 H 0.0 **** 0.06
13505 H 50.56529492238475 154.7064968840273 45.19917087868998 H 0.0 **** 0.06
13506 C 52.85616041654876 88.31571868219201 122.63006625206242 C 0.0 **** -0.24
13507 H 52.63556871384725 87.70469535175533 121.75441650287496 H 0.0 **** 0.06
13508 H 52.37330761979797 87.8828251600404 123.50584820428628 H 0.0 **** 0.06
13509 H 52.481944603337126 89.32721950634276 122.47046269129578 H 0.0 **** 0.06
13510 H 53.934289150158065 88.34821634214195 122.7873526427764 H 0.0 **** 0.06
13511 C 143.1594874697323 28.075618831128338 7.531755863653814 C 0.0 **** -0.24
13512 H 142.3304421400065 27.534274940563932 7.076762148038142 H 0.0 **** 0.06
13513 H 142.82277467446522 29.068117288868706 7.833729414231755 H 0.0 **** 0.06
13514 H 143.9699328004495 28.171674504554232 6.808730021944996 H 0.0 **** 0.06
13515 H 143.5141793557312 27.52965368089835 8.405785830178786 H 0.0 **** 0.06
13516 C 136.26191673173153 4.381326532640458 34.327658608532715 C 0.0 **** -0.24
13517 H 136.62203083968947 5.006481261098543 35.144508076998704 H 0.0 **** 0.06
13518 H 135.39257197757303 4.850716974932993 33.867257717258155 H 0.0 **** 0.06
13519 H 135.98388023035304 3.4017375640454475 34.71547016245465 H 0.0 **** 0.06
13520 H 137.0505143098047 4.268028340972592 33.58270485023459 H 0.0 **** 0.06
13521 C 15.457864930499518 80.46074015650743 115.33835163922417 C 0.0 **** -0.24
13522 H 15.332960192031187 79.57747337580851 114.71160265685579 H 0.0 **** 0.06
13523 H 15.554478710216351 80.15467223328072 116.38019610284734 H 0.0 **** 0.06
13524 H 14.589167048755364 81.11031289258513 115.22873896693342 H 0.0 **** 0.06
13525 H 16.355323854688137 80.9981042920407 115.03269673490841 H 0.0 **** 0.06
13526 C 97.0451867511737 92.45767406695144 2.4142196406897263 C 0.0 **** -0.24
13527 H 96.4277178976255 92.59600961687902 1.5265889923957054 H 0.0 **** 0.06
13528 H 98.06094836626262 92.79323509246758 2.2058094659216643 H 0.0 **** 0.06
13529 H 97.05880668610162 91.40251880904921 2.6871840126988538 H 0.0 **** 0.06
13530 H 96.63148686062164 93.0401077086035 3.2379484497336364 H 0.0 **** 0.06
13531 C 90.49247952122465 119.10684222972475 142.73997276156769 C 0.0 **** -0.24
13532 H 90.5977282201822 118.0667411219082 143.0485210844362 H 0.0 **** 0.06
13533 H 89.64504455135284 119.2005102817318 142.0607526617007 H 0.0 **** 0.06
13534 H 91.40233472335956 119.42874740101422 142.23409410105188 H 0.0 **** 0.06
13535 H 90.32455937940364 119.72974616631507 143.61903317503888 H 0.0 **** 0.06
13536 C 70.81510980537959 101.12776575624129 9.269957243678363 C 0.0 **** -0.24
13537 H 70.85875655262203 101.26773931638381 10.34983780185513 H 0.0 **** 0.06
13538 H 71.62262306937366 100.46598395376428 8.956437144179404 H 0.0 **** 0.06
13539 H 70.92253782668612 102.09278293886307 8.774475927168623 H 0.0 **** 0.06
13540 H 69.85653513688814 100.68554268442419 8.999245186254143 H 0.0 **** 0.06
13541 C 92.6405906675995 87.17575765524644 118.35490811545462 C 0.0 **** -0.24
13542 H 93.49984954229059 87.6236179966005 117.85454024071423 H 0.0 **** 0.06
13543 H 91.98240600362794 86.72490582813816 117.61176730127842 H 0.0 **** 0.06
13544 H 92.09785551494318 87.94544473185434 118.90297928340375 H 0.0 **** 0.06
13545 H 92.9846316375235 86.40868818675821 119.04990305581755 H 0.0 **** 0.06
13546 C 64.97918827973557 76.71357699401844 43.12365582045726 C 0.0 **** -0.24
13547 H 65.40116791870264 76.81835068093211 44.12287316900142 H 0.0 **** 0.06
13548 H 65.7816612059989 76.53817960761334 42.406767650280756 H 0.0 **** 0.06
13549 H 64.44719937271691 77.62756001572754 42.8571665112147 H 0.0 **** 0.06
13550 H 64.28675566888663 75.87211548628329 43.10718550192877 H 0.0 **** 0.06
13551 C 5.657543147816618 99.53149700696802 4.131362023968904 C 0.0 **** -0.24
13552 H 5.77230024835881 100.1206759773937 5.0411612422497 H 0.0 **** 0.06
13553 H 6.52902559204049 98.88934097483207 4.003308693390011 H 0.0 **** 0.06
13554 H 5.56897217932061 100.19992999838526 3.2740987985586116 H 0.0 **** 0.06
13555 H 4.7606565084216825 98.91703528874018 4.207511962149852 H 0.0 **** 0.06
13556 C 34.98848982655551 51.03544557992939 52.11593039256293 C 0.0 **** -0.24
13557 H 35.71109948747147 50.64076075631148 52.82938662939003 H 0.0 **** 0.06
13558 H 34.24155649395425 50.27102205833441 51.895551092714896 H 0.0 **** 0.06
13559 H 35.501963408689505 51.316966908749606 51.19628790179709 H 0.0 **** 0.06
13560 H 34.49735210225214 51.910598443815545 52.541435825743406 H 0.0 **** 0.06
13561 C 67.17284195163235 42.251233295056 78.85092435293748 C 0.0 **** -0.24
13562 H 66.26889688743653 41.98405454323429 78.30251616189196 H 0.0 **** 0.06
13563 H 67.03152953370876 42.036461903116304 79.91064212348516 H 0.0 **** 0.06
13564 H 67.37676224457363 43.31353854125203 78.7194415591585 H 0.0 **** 0.06
13565 H 68.01283073860519 41.6695904892088 78.47182128097774 H 0.0 **** 0.06
13566 C 94.6523851513987 73.04416017814397 133.1450048964817 C 0.0 **** -0.24
13567 H 95.68212564033709 72.69939808995615 133.0469114545315 H 0.0 **** 0.06
13568 H 94.61870644105352 73.89715504502755 133.82454315947473 H 0.0 **** 0.06
13569 H 94.03643302960384 72.23762142723066 133.54257488213156 H 0.0 **** 0.06
13570 H 94.27456718648152 73.34211473509687 132.16761024905006 H 0.0 **** 0.06
13571 C 137.8662092944607 39.311149983210186 92.06627022157274 C 0.0 **** -0.24
13572 H 137.21171059715093 39.938709428096445 91.46227996199599 H 0.0 **** 0.06
13573 H 137.69921586247264 38.263632744869454 91.81478362031004 H 0.0 **** 0.06
13574 H 137.64975351050282 39.47083748779676 93.12270501628527 H 0.0 **** 0.06
13575 H 138.90607612086856 39.571025896586434 91.86490933548862 H 0.0 **** 0.06
13576 C 117.11827631508653 68.97055626074298 54.17677137905844 C 0.0 **** -0.24
13577 H 116.55812480952652 68.373461973762 54.89556852511873 H 0.0 **** 0.06
13578 H 118.02610505167395 69.3480919375754 54.64804782778475 H 0.0 **** 0.06
13579 H 116.50557305417009 69.80888757138389 53.845330589053276 H 0.0 **** 0.06
13580 H 117.3836648098032 68.35274241482081 53.31953475292295 H 0.0 **** 0.06
13581 C 87.88232148392422 109.23699960630381 57.48031422201859 C 0.0 **** -0.24
13582 H 88.50631931076754 108.40763631046508 57.14692568709279 H 0.0 **** 0.06
13583 H 87.33176140222679 109.64214731357731 56.631001783181546 H 0.0 **** 0.06
13584 H 88.51275598343676 110.01602459116185 57.90921291833206 H 0.0 **** 0.06
13585 H 87.17941072781423 108.88245242786707 58.234033951800825 H 0.0 **** 0.06
13586 C 156.01357954128127 41.37422950154064 70.76895681101382 C 0.0 **** -0.24
13587 H 155.37184625177343 41.76761367564632 69.98092322642884 H 0.0 **** 0.06
13588 H 156.74716481311253 40.69481386964384 70.33436420163434 H 0.0 **** 0.06
13589 H 155.40719802969386 40.837097144027894 71.49747237454545 H 0.0 **** 0.06
13590 H 156.52948783694478 42.19754956052583 71.26279420852961 H 0.0 **** 0.06
13591 C 43.65087433673675 97.6030501482043 117.00534728546178 C 0.0 **** -0.24
13592 H 42.85584404072283 98.01245394928209 116.3834244814828 H 0.0 **** 0.06
13593 H 44.13332503635479 96.77726000318742 116.48204656515186 H 0.0 **** 0.06
13594 H 43.22785970203918 97.24179623120231 117.94282950097043 H 0.0 **** 0.06
13595 H 44.38610849913222 98.38073399869694 117.21445553081072 H 0.0 **** 0.06
13596 C 69.03098602703055 113.74302916285552 26.026951511013152 C 0.0 **** -0.24
13597 H 69.6052663639908 114.08988707030358 25.167791826819098 H 0.0 **** 0.06
13598 H 68.27660448900244 113.02892932809652 25.69529864710259 H 0.0 **** 0.06
13599 H 68.54204551766472 114.5927707809592 26.50291371282833 H 0.0 **** 0.06
13600 H 69.69971390975734 113.261346190643 26.739744031829076 H 0.0 **** 0.06
13601 C 98.43017431172812 152.3725520781881 139.41462598655056 C 0.0 **** -0.24
13602 H 97.5812638417776 153.03108053019184 139.60006056331878 H 0.0 **** 0.06
13603 H 99.35694636253776 152.93765272556456 139.51613219213294 H 0.0 **** 0.06
13604 H 98.36096226342127 151.96640786244936 138.4049858167482 H 0.0 **** 0.06
13605 H 98.41997999818426 151.55566710745487 140.1358240682573 H 0.0 **** 0.06
13606 C 133.04965289544307 19.51501923176224 71.63626669278673 C 0.0 **** -0.24
13607 H 133.7090480626807 19.511249131856957 70.76859195133471 H 0.0 **** 0.06
13608 H 132.76972608943132 18.490822345667176 71.88413241203261 H 0.0 **** 0.06
13609 H 132.1538398180254 20.092216546021135 71.40876320092514 H 0.0 **** 0.06
13610 H 133.56740976728364 19.965844395672597 72.48363214211972 H 0.0 **** 0.06
13611 C 49.25919764493547 126.93306315211991 118.725331567235 C 0.0 **** -0.24
13612 H 49.10355078234299 125.96255938500299 118.25507723682858 H 0.0 **** 0.06
13613 H 48.60545640485461 127.02608396731746 119.59298254217913 H 0.0 **** 0.06
13614 H 49.028837711353034 127.72379218875024 118.01072286914365 H 0.0 **** 0.06
13615 H 50.29847500253442 127.0211920465817 119.04160128776556 H 0.0 **** 0.06
13616 C 154.70487101551805 23.155741539640417 111.63491783770263 C 0.0 **** -0.24
13617 H 154.85083460959194 23.11799872697207 112.71413549824717 H 0.0 **** 0.06
13618 H 155.67314575285064 23.12151157269198 111.13488180399713 H 0.0 **** 0.06
13619 H 154.19097881662583 24.079992975795392 111.36935092307453 H 0.0 **** 0.06
13620 H 154.10277077635743 22.302245030514143 111.32063971936071 H 0.0 **** 0.06
13621 C 154.291527329575 143.56441131278856 70.81173482322382 C 0.0 **** -0.24
13622 H 153.34807910585107 144.0942865482618 70.94189374660067 H 0.0 **** 0.06
13623 H 154.6846642783812 143.7607251935143 69.81408965573826 H 0.0 **** 0.06
13624 H 154.12706209669653 142.4939386242062 70.93407482305918 H 0.0 **** 0.06
13625 H 155.00691722337422 143.90857300035316 71.55878081271709 H 0.0 **** 0.06
13626 C 105.48798705684844 97.97684459470675 8.597051638028148 C 0.0 **** -0.24
13627 H 105.54147731718193 97.33332890458247 7.718856316425274 H 0.0 **** 0.06
13628 H 106.38593527074873 98.59298268687499 8.651195451594532 H 0.0 **** 0.06
13629 H 105.41390399928197 97.36181722689939 9.493952251782417 H 0.0 **** 0.06
13630 H 104.61081072196968 98.61920592535147 8.52280035871587 H 0.0 **** 0.06
13631 C 24.719534187590853 59.99725266130622 32.596431395979664 C 0.0 **** -0.24
13632 H 24.218767428002877 60.3364265989249 33.503668073516366 H 0.0 **** 0.06
13633 H 24.650403881451382 60.771901232391656 31.832129562329676 H 0.0 **** 0.06
13634 H 24.241501219610683 59.08623129117879 32.23636304622748 H 0.0 **** 0.06
13635 H 25.76784049635367 59.7951231599086 32.81589030845063 H 0.0 **** 0.06
13636 C 98.55907254519104 93.63386289963711 130.9869375166708 C 0.0 **** -0.24
13637 H 98.11289158037486 93.14863636042155 130.11868500009626 H 0.0 **** 0.06
13638 H 97.91093607331932 94.44367906608716 131.32277613856598 H 0.0 **** 0.06
13639 H 99.53519090415664 94.03733178872484 130.71649621727775 H 0.0 **** 0.06
13640 H 98.67658058004668 92.9055133553423 131.7891310499349 H 0.0 **** 0.06
13641 C 101.75327843459337 6.477028436819722 135.72923044257524 C 0.0 **** -0.24
13642 H 101.07075748537653 6.1373122224188705 136.50779880573316 H 0.0 **** 0.06
13643 H 101.66572855623741 7.557479721617597 135.61586508546827 H 0.0 **** 0.06
13644 H 101.4996499086754 5.991349194601071 134.7871901563242 H 0.0 **** 0.06
13645 H 102.77556874151685 6.221935305087015 136.00618288056273 H 0.0 **** 0.06
13646 C 25.14044296240715 137.3216993903904 53.69370208496902 C 0.0 **** -0.24
13647 H 26.181354481722025 136.99777213678698 53.68533385903761 H 0.0 **** 0.06
13648 H 25.086769950756292 138.37762979722822 53.428459066669745 H 0.0 **** 0.06
13649 H 24.722727959312806 137.17541367667667 54.69050265810793 H 0.0 **** 0.06
13650 H 24.572021368836744 136.73579942437934 52.97183660419374 H 0.0 **** 0.06
13651 C 64.4785250997271 57.97410165724317 73.25704327650283 C 0.0 **** -0.24
13652 H 64.83796428729525 58.63601511156314 72.46927826464629 H 0.0 **** 0.06
13653 H 65.3075543472651 57.70889643053441 73.91385785892022 H 0.0 **** 0.06
13654 H 64.06390758484598 57.07052700941196 72.81145848759256 H 0.0 **** 0.06
13655 H 63.70589260676108 58.482844831819236 73.83457520112769 H 0.0 **** 0.06
13656 C 110.29759861877302 132.09296106897656 80.19841154986818 C 0.0 **** -0.24
13657 H 110.05888567924065 131.37297659554514 79.41424432761235 H 0.0 **** 0.06
13658 H 111.04348076957784 132.7970643079626 79.82995923395673 H 0.0 **** 0.06
13659 H 110.69394388062953 131.56478770901 81.06631537272271 H 0.0 **** 0.06
13660 H 109.39494975069617 132.63251147288676 80.4821455768855 H 0.0 **** 0.06
13661 C 57.24903842396321 60.16257450860641 57.183270669741205 C 0.0 **** -0.24
13662 H 57.77082277263014 60.98683819287538 57.669578335094855 H 0.0 **** 0.06
13663 H 56.85958290271856 59.48156791334924 57.94097188565513 H 0.0 **** 0.06
13664 H 57.94111817380343 59.626172788064935 56.53459319595714 H 0.0 **** 0.06
13665 H 56.42448633347948 60.55509570565272 56.58954886812546 H 0.0 **** 0.06
13666 C 11.478578640734533 67.35394595318311 14.140150824389877 C 0.0 **** -0.24
13667 H 11.317815012417341 66.37203395563694 13.69601849253121 H 0.0 **** 0.06
13668 H 10.528368179212634 67.74753417801384 14.504531312285849 H 0.0 **** 0.06
13669 H 11.888781925740744 68.02949111560494 13.389212955006087 H 0.0 **** 0.06
13670 H 12.17795963932194 67.26672986654253 14.971102216120698 H 0.0 **** 0.06
13671 C 66.59635304265692 11.607133200658296 53.292218253364666 C 0.0 **** -0.24
13672 H 65.84695598376993 11.511225797769555 52.506252921190764 H 0.0 **** 0.06
13673 H 66.36586282255314 10.911682449002228 54.09939307225186 H 0.0 **** 0.06
13674 H 66.5897337802673 12.626232556707748 53.67754970278148 H 0.0 **** 0.06
13675 H 67.58095065565698 11.37803391139002 52.884961925479175 H 0.0 **** 0.06
13676 C 18.057112486003568 36.21095665067925 72.07795690436248 C 0.0 **** -0.24
13677 H 17.21159821078691 36.131893425699815 71.39374032546361 H 0.0 **** 0.06
13678 H 18.133338839490328 35.29721133160256 72.66756415917966 H 0.0 **** 0.06
13679 H 17.90880748545947 37.06106219417299 72.74223605686136 H 0.0 **** 0.06
13680 H 18.974266306089 36.3519722103411 71.50584575961516 H 0.0 **** 0.06
13681 C 119.37041471902806 133.57738362291735 73.01875791156796 C 0.0 **** -0.24
13682 H 119.5394040157512 134.64221702663679 73.17729211404993 H 0.0 **** 0.06
13683 H 119.78675883448089 133.01504107914533 73.85367890499637 H 0.0 **** 0.06
13684 H 119.85524016209631 133.26698834358933 72.09267435073485 H 0.0 **** 0.06
13685 H 118.29887484536299 133.38619640635753 72.94909108080094 H 0.0 **** 0.06
13686 C 87.56971817261899 135.69350187228753 134.9367745976386 C 0.0 **** -0.24
13687 H 87.3548371255647 135.84743434374533 135.99457449551267 H 0.0 **** 0.06
13688 H 87.37473683994722 134.65334841722614 134.67430219042893 H 0.0 **** 0.06
13689 H 88.61614474468581 135.92842877793638 134.74177599945034 H 0.0 **** 0.06
13690 H 86.93362712652709 136.34550220521464 134.33825608267546 H 0.0 **** 0.06
13691 C 109.63880912988635 151.2055910165592 62.700087643457096 C 0.0 **** -0.24
13692 H 109.2493624275724 150.72457910191923 61.802282259514755 H 0.0 **** 0.06
13693 H 109.03282586584895 150.91563926331108 63.558907741159715 H 0.0 **** 0.06
13694 H 109.6020888856372 152.28774666352842 62.57677327030399 H 0.0 **** 0.06
13695 H 110.6698881963121 150.89330121583814 62.86076015794174 H 0.0 **** 0.06
13696 C 35.73369367903487 52.313197191401926 109.71824521994887 C 0.0 **** -0.24
13697 H 35.323088528287045 52.69027854040553 110.65521307254426 H 0.0 **** 0.06
13698 H 35.106306465769144 51.50153824538069 109.34771079095333 H 0.0 **** 0.06
13699 H 36.74438504826324 51.94308008624337 109.88831559684189 H 0.0 **** 0.06
13700 H 35.75854412858 53.11778377322841 108.98397379399069 H 0.0 **** 0.06
13701 C 143.3406585341226 10.959646653573998 114.76119293919756 C 0.0 **** -0.24
13702 H 143.49993555561684 9.995756175667026 115.24619262930621 H 0.0 **** 0.06
13703 H 144.2364733318491 11.238101998556942 114.20606039370101 H 0.0 **** 0.06
13704 H 143.13050999937153 11.716191815805246 115.51708954285392 H 0.0 **** 0.06
13705 H 142.49681914114566 10.885328976424432 114.07613119483882 H 0.0 **** 0.06
13706 C 110.27703541349054 101.49884352194134 76.41872546222145 C 0.0 **** -0.24
13707 H 111.02499199026828 102.17199770001285 76.00025554748866 H 0.0 **** 0.06
13708 H 110.73814778756316 100.53574313544068 76.63835857811063 H 0.0 **** 0.06
13709 H 109.47042942922302 101.35979417747392 75.69745727041997 H 0.0 **** 0.06
13710 H 109.87442897295021 101.92727542181753 77.33572207129536 H 0.0 **** 0.06
13711 C 89.30721584597474 60.58271583527642 97.99302931318653 C 0.0 **** -0.24
13712 H 89.03791158589581 61.353303563970826 98.71457861981563 H 0.0 **** 0.06
13713 H 88.40728902922505 60.062548297992294 97.66449143447414 H 0.0 **** 0.06
13714 H 89.98903437373134 59.87155773122663 98.45818872812052 H 0.0 **** 0.06
13715 H 89.7941439986554 61.044630951167164 97.1342423390672 H 0.0 **** 0.06
13716 C 9.49285093261176 30.499588713392882 136.2990611666464 C 0.0 **** -0.24
13717 H 8.765469825261562 29.70819151689909 136.1188894012057 H 0.0 **** 0.06
13718 H 10.336008883914417 30.38041102611436 135.61898028640954 H 0.0 **** 0.06
13719 H 9.84491506267858 30.442230119647945 137.32936429322697 H 0.0 **** 0.06
13720 H 9.022834309673215 31.46953317608552 136.12948268505718 H 0.0 **** 0.06
13721 C 43.4380565197099 42.23992628123676 105.21921626038205 C 0.0 **** -0.24
13722 H 42.49814573821912 42.65345825406355 104.8539784025295 H 0.0 **** 0.06
13723 H 43.265763251219425 41.73041963724057 106.16827144412768 H 0.0 **** 0.06
13724 H 44.158220488172205 43.045507695545496 105.36456458250656 H 0.0 **** 0.06
13725 H 43.83031478089822 41.52870799428433 104.49158537192794 H 0.0 **** 0.06
13726 C 6.566015432161322 105.96150331263628 25.460234351965994 C 0.0 **** -0.24
13727 H 6.725078070104217 107.00196029340448 25.74547119313729 H 0.0 **** 0.06
13728 H 6.4551315813169765 105.3520841182485 26.35748889186715 H 0.0 **** 0.06
13729 H 7.420589496648233 105.60898025696356 24.884363470111282 H 0.0 **** 0.06
13730 H 5.662490369937871 105.88519216964612 24.854354181864238 H 0.0 **** 0.06
13731 C 138.89384808029024 15.812810187168452 58.26605669904602 C 0.0 **** -0.24
13732 H 139.17306245719624 16.316556499934876 57.33997101404181 H 0.0 **** 0.06
13733 H 139.43892278573873 14.872382635030846 58.34589559086287 H 0.0 **** 0.06
13734 H 137.82209917536298 15.612478377136938 58.260943519194825 H 0.0 **** 0.06
13735 H 139.14182220645097 16.449638018511763 59.11446684513433 H 0.0 **** 0.06
13736 C 133.0540250363321 97.35190385171654 45.70627566596704 C 0.0 **** -0.24
13737 H 132.63677489390915 98.27550137996607 45.30592260542926 H 0.0 **** 0.06
13738 H 134.09420634111743 97.25741120378363 45.39320428379244 H 0.0 **** 0.06
13739 H 132.4823038391693 96.50213139084347 45.33055452601769 H 0.0 **** 0.06
13740 H 133.00201641637776 97.37120562856119 46.79471638803784 H 0.0 **** 0.06
13741 C 43.600741662417306 75.81539593489957 65.71018867507655 C 0.0 **** -0.24
13742 H 43.58729011645626 76.6935289751143 66.35571875770984 H 0.0 **** 0.06
13743 H 42.814813414787 75.90626800373401 64.95955975910454 H 0.0 **** 0.06
13744 H 43.429396461056044 74.92167313783033 66.3096693125247 H 0.0 **** 0.06
13745 H 44.56905468658361 75.74253157232675 65.21638679181183 H 0.0 **** 0.06
13746 C 52.618677371270365 135.32051563736178 96.45894160921453 C 0.0 **** -0.24
13747 H 51.7261196074752 135.334142592222 97.08457298677031 H 0.0 **** 0.06
13748 H 52.33279226989055 135.4635207748666 95.4157033864492 H 0.0 **** 0.06
13749 H 53.12542982313076 134.36208043193562 96.56994867257644 H 0.0 **** 0.06
13750 H 53.28851245725856 136.1244137017257 96.76446008051623 H 0.0 **** 0.06
13751 C 106.57338261329748 92.04193864863076 37.30163943302216 C 0.0 **** -0.24
13752 H 106.33333632494733 92.29815899012122 36.270255143802444 H 0.0 **** 0.06
13753 H 107.57564881874482 91.61380906321135 37.3459140035757 H 0.0 **** 0.06
13754 H 105.85056296095514 91.31586174579043 37.67354096300659 H 0.0 **** 0.06
13755 H 106.53463688223671 92.94058827317606 37.917210134370436 H 0.0 **** 0.06
13756 C 65.9170186337408 65.46889466195685 6.040699248759282 C 0.0 **** -0.24
13757 H 66.14073435641981 64.53545867675388 6.5572727780797635 H 0.0 **** 0.06
13758 H 64.88095419688634 65.75091037850441 6.232504731118539 H 0.0 **** 0.06
13759 H 66.06431675473276 65.33601969976533 4.968505140062057 H 0.0 **** 0.06
13760 H 66.57963093435598 66.25328802464651 6.404301520048911 H 0.0 **** 0.06
13761 C 92.5456279682221 56.576877000590684 140.40209096925122 C 0.0 **** -0.24
13762 H 91.82708046130176 57.24905107259724 140.87151101644176 H 0.0 **** 0.06
13763 H 93.16148541695634 57.1384969327393 139.69856884749845 H 0.0 **** 0.06
13764 H 92.0118146770651 55.78926163942391 139.8695967361628 H 0.0 **** 0.06
13765 H 93.1811300312213 56.1320605094557 141.1672236749293 H 0.0 **** 0.06
13766 C 44.338524985614924 40.5604899124931 30.352263848972022 C 0.0 **** -0.24
13767 H 45.008382511573174 41.093915218554656 29.677854471735984 H 0.0 **** 0.06
13768 H 43.82566559973327 39.77026533947162 29.804554049119496 H 0.0 **** 0.06
13769 H 43.60584880584173 41.25620154399665 30.7611288745164 H 0.0 **** 0.06
13770 H 44.916840459419745 40.12293961689382 31.16595274465081 H 0.0 **** 0.06
13771 C 15.230758639194164 47.839440981011975 139.47918497391856 C 0.0 **** -0.24
13772 H 15.78444834952655 48.15674413960927 140.36272052743786 H 0.0 **** 0.06
13773 H 15.45290015830173 46.79368045330317 139.26848919581693 H 0.0 **** 0.06
13774 H 15.523784474709977 48.453615636947205 138.62787479949523 H 0.0 **** 0.06
13775 H 14.1616692980067 47.955101384678954 139.66049233294524 H 0.0 **** 0.06
13776 C 62.57046008158308 110.37995968788346 18.734575308624244 C 0.0 **** -0.24
13777 H 62.946009109328514 110.2092744888904 17.725910277738194 H 0.0 **** 0.06
13778 H 63.089157990232394 111.23116584818081 19.176566542792273 H 0.0 **** 0.06
13779 H 62.744671283418214 109.49280651856083 19.342382301539374 H 0.0 **** 0.06
13780 H 61.50108213393668 110.5877883477877 18.694292142527047 H 0.0 **** 0.06
13781 C 148.58249107597544 12.483212942536966 86.26208454696535 C 0.0 **** -0.24
13782 H 148.3475597538852 13.534707264740518 86.42412035273244 H 0.0 **** 0.06
13783 H 147.86988711096308 11.86337253047435 86.80649995197189 H 0.0 **** 0.06
13784 H 149.59195214980193 12.277019089597616 86.62049795056012 H 0.0 **** 0.06
13785 H 148.52184450713045 12.257155465342919 85.19713773728188 H 0.0 **** 0.06
13786 C 111.87939331351514 89.43812013907107 24.52078771389978 C 0.0 **** -0.24
13787 H 112.75928456507965 89.283770610253 25.145939938326535 H 0.0 **** 0.06
13788 H 111.94858263681182 90.41037681236973 24.031619531537928 H 0.0 **** 0.06
13789 H 110.98359608988663 89.4049314070956 25.14068569287747 H 0.0 **** 0.06
13790 H 111.82825800739032 88.65318061221144 23.766062069073513 H 0.0 **** 0.06
13791 C 137.07646246729303 20.01425899250711 139.69691901925242 C 0.0 **** -0.24
13792 H 137.97131771303128 20.118654852894338 139.0836945483069 H 0.0 **** 0.06
13793 H 137.35721915372417 19.997401616260333 140.7501640969749 H 0.0 **** 0.06
13794 H 136.56690327528307 19.0853917599876 139.44106210821653 H 0.0 **** 0.06
13795 H 136.40956773876795 20.856915999241835 139.51116568579127 H 0.0 **** 0.06
13796 C 130.67566496465435 87.63676332460444 0.3474685225023286 C 0.0 **** -0.24
13797 H 131.24018338639468 86.70401531664322 0.34941680512454454 H 0.0 **** 0.06
13798 H 129.78662751648073 87.52159140859757 -0.27319929679760335 H 0.0 **** 0.06
13799 H 131.29772024405005 88.436704711525 -0.053300310503658466 H 0.0 **** 0.06
13800 H 130.37737005679628 87.88266012437194 1.3672585134626587 H 0.0 **** 0.06
13801 C 70.44646038235987 70.52623270277748 58.18542818374179 C 0.0 **** -0.24
13802 H 71.18031251408863 70.87707918452284 58.91091937028878 H 0.0 **** 0.06
13803 H 69.48710692783641 71.00589032533458 58.378987422119636 H 0.0 **** 0.06
13804 H 70.33681410411168 69.44524851918695 58.27390173060385 H 0.0 **** 0.06
13805 H 70.78210160814018 70.77710285304559 57.17868152257431 H 0.0 **** 0.06
13806 C 17.68946040938252 0.7583059504364371 32.528876717413326 C 0.0 **** -0.24
13807 H 16.87292212101221 1.247439387087752 31.99746973131616 H 0.0 **** 0.06
13808 H 17.31319011409505 0.3333769266936031 33.46042259387604 H 0.0 **** 0.06
13809 H 18.466776761175936 1.4884600843381008 32.74982430836771 H 0.0 **** 0.06
13810 H 18.102061097418925 -0.03676196072484572 31.908159112029786 H 0.0 **** 0.06
13811 C 24.365907666316346 66.52216255802699 130.2053858855213 C 0.0 **** -0.24
13812 H 25.020830387175565 67.38782305926021 130.3048836256271 H 0.0 **** 0.06
13813 H 23.652277732015527 66.51002108106297 131.02874094094744 H 0.0 **** 0.06
13814 H 24.96348343442446 65.61044629651855 130.22810933029254 H 0.0 **** 0.06
13815 H 23.828441498206395 66.58078541061211 129.2588864652944 H 0.0 **** 0.06
13816 C 136.15429964380036 149.81423494703145 120.73288201975726 C 0.0 **** -0.24
13817 H 137.11934863587663 150.31179373400477 120.84252443270623 H 0.0 **** 0.06
13818 H 135.7087282465443 149.66804818523286 121.71675204433353 H 0.0 **** 0.06
13819 H 136.29845343772575 148.84692480461905 120.25035276441861 H 0.0 **** 0.06
13820 H 135.49581178793602 150.43134404946144 120.12298226136397 H 0.0 **** 0.06
13821 C 48.1584396006341 121.98200709065509 134.40229625785838 C 0.0 **** -0.24
13822 H 48.81890601985003 121.72081577046396 133.57512282239946 H 0.0 **** 0.06
13823 H 47.42363856027407 122.71205811959891 134.0636097044587 H 0.0 **** 0.06
13824 H 48.7464820721309 122.40662894054623 135.21577213264788 H 0.0 **** 0.06
13825 H 47.64586041400571 121.0858138779692 134.75350846064657 H 0.0 **** 0.06
13826 C 145.2236777316038 18.961343038163193 92.39789692712115 C 0.0 **** -0.24
13827 H 145.67524193777473 19.82793017529002 91.91567897820492 H 0.0 **** 0.06
13828 H 144.71487936116483 18.353263160056997 91.6482971469792 H 0.0 **** 0.06
13829 H 144.5036788907015 19.2946088424286 93.14569587221214 H 0.0 **** 0.06
13830 H 146.0005151725247 18.368044930180815 92.88032891231497 H 0.0 **** 0.06
13831 C 30.999859399911998 98.0103677942277 136.58149655297763 C 0.0 **** -0.24
13832 H 30.10603681963471 98.59737536192019 136.79068057229716 H 0.0 **** 0.06
13833 H 31.871092087959937 98.66579896614044 136.57090059753915 H 0.0 **** 0.06
13834 H 30.89740726203891 97.52755737185898 135.6096368270202 H 0.0 **** 0.06
13835 H 31.125262961794704 97.25123361724548 137.35314796265692 H 0.0 **** 0.06
13836 C 60.1084963652886 113.32995275663802 18.161605973943466 C 0.0 **** -0.24
13837 H 60.44121972757529 112.38730956600102 18.595600945248492 H 0.0 **** 0.06
13838 H 60.97621066081592 113.91579038074332 17.85596910176273 H 0.0 **** 0.06
13839 H 59.534335927145605 113.88804149415586 18.901350140048237 H 0.0 **** 0.06
13840 H 59.48163267539644 113.12793157876035 17.292449448970686 H 0.0 **** 0.06
13841 C 33.08740486673955 7.561097377549707 51.34646983429582 C 0.0 **** -0.24
13842 H 32.63133769426787 6.735580477727346 51.89235739849482 H 0.0 **** 0.06
13843 H 34.13429899056672 7.33048124700715 51.146673445342884 H 0.0 **** 0.06
13844 H 33.023122424540446 8.47113432649919 51.943246342955646 H 0.0 **** 0.06
13845 H 32.561510902634126 7.707889835573724 50.4032990277985 H 0.0 **** 0.06
13846 C 109.31172770087068 103.61127134664225 7.174335525356355 C 0.0 **** -0.24
13847 H 109.91999666893946 104.29014149965094 7.771636817303886 H 0.0 **** 0.06
13848 H 108.2600354777984 103.8757667860017 7.2830106951083735 H 0.0 **** 0.06
13849 H 109.46658900562386 102.58817842417143 7.518038221190579 H 0.0 **** 0.06
13850 H 109.60112738810028 103.69133339538574 6.126933724949538 H 0.0 **** 0.06
13851 C 20.153780329365816 116.2340346695737 26.255829931804925 C 0.0 **** -0.24
13852 H 20.22177493206931 115.99897741677404 27.318225577441467 H 0.0 **** 0.06
13853 H 20.44165046886326 117.272588320789 26.095178942492424 H 0.0 **** 0.06
13854 H 19.130024045857624 116.08306550829417 25.91524365022002 H 0.0 **** 0.06
13855 H 20.8238744066482 115.58016525312934 25.696203772106173 H 0.0 **** 0.06
13856 C 28.351389093860206 135.03399378979267 80.5863619187277 C 0.0 **** -0.24
13857 H 27.294657856532666 135.29075699477366 80.5199135584374 H 0.0 **** 0.06
13858 H 28.90849507226733 135.8863153946959 80.97513624559174 H 0.0 **** 0.06
13859 H 28.725160963147744 134.77622973961454 79.59515811904843 H 0.0 **** 0.06
13860 H 28.4766244726394 134.18145989863243 81.25485707735156 H 0.0 **** 0.06
13861 C 63.92874252961633 1.0547628554201438 136.96291553074923 C 0.0 **** -0.24
13862 H 63.075800851477254 1.2433837154032794 136.31063388084854 H 0.0 **** 0.06
13863 H 64.8534822936416 1.2029004204678984 136.4035369798079 H 0.0 **** 0.06
13864 H 63.886008930178605 0.0287068268521935 137.3289914162177 H 0.0 **** 0.06
13865 H 63.89960512388373 1.7429908009294692 137.80757757740886 H 0.0 **** 0.06
13866 C 91.18151930490018 138.78294385374357 38.13862973121218 C 0.0 **** -0.24
13867 H 90.14355945511596 138.9110171087795 37.830939507880316 H 0.0 **** 0.06
13868 H 91.7580443998526 139.66030392278952 37.846743160126096 H 0.0 **** 0.06
13869 H 91.59692976743531 137.8972482937911 37.65697194447017 H 0.0 **** 0.06
13870 H 91.2261211174025 138.66217262622138 39.22124585766585 H 0.0 **** 0.06
13871 C 127.98884026513242 32.00941716416396 10.245623064226407 C 0.0 **** -0.24
13872 H 127.05659119713762 32.2678145237185 10.747676990407655 H 0.0 **** 0.06
13873 H 128.83057530279945 32.27194182059529 10.887191948268793 H 0.0 **** 0.06
13874 H 128.060875297336 32.560158513438935 9.307436190064863 H 0.0 **** 0.06
13875 H 128.00660650346276 30.938923772690117 10.04195441352988 H 0.0 **** 0.06
13876 C 34.4972379338278 122.56087122841556 105.35273221955889 C 0.0 **** -0.24
13877 H 33.64105504751397 122.8755878003664 105.94943400194423 H 0.0 **** 0.06
13878 H 35.14428218594965 123.4183966149619 105.16484752667075 H 0.0 **** 0.06
13879 H 34.14702784234578 122.15451717433878 104.40325395021723 H 0.0 **** 0.06
13880 H 35.054836390682574 121.79524899190845 105.89202733118815 H 0.0 **** 0.06
13881 C 25.693186096825414 5.185706130265771 21.858522501722973 C 0.0 **** -0.24
13882 H 24.92126125888013 5.736780850533819 21.32225266583447 H 0.0 **** 0.06
13883 H 25.9078919232417 4.255909650339504 21.330825034355883 H 0.0 **** 0.06
13884 H 25.34391254257057 4.9594949706631155 22.866105836206202 H 0.0 **** 0.06
13885 H 26.59849547362571 5.79024060388997 21.91424211366092 H 0.0 **** 0.06
13886 C 125.32329483003635 45.67857742028433 101.74945229068004 C 0.0 **** -0.24
13887 H 126.31986852905511 45.903805277289706 101.36977618672177 H 0.0 **** 0.06
13888 H 124.6011552019262 45.74049417449099 100.93502896065837 H 0.0 **** 0.06
13889 H 125.05882888674158 46.397678394262215 102.52490972617039 H 0.0 **** 0.06
13890 H 125.3134401680406 44.67277435409511 102.16898385931148 H 0.0 **** 0.06
13891 C 97.3082525391776 54.02700489543679 82.49564638903834 C 0.0 **** -0.24
13892 H 97.990305451759 53.692697266920774 83.27733040530967 H 0.0 **** 0.06
13893 H 97.80736434298598 53.97038124222911 81.52911610596311 H 0.0 **** 0.06
13894 H 97.00894598812233 55.05648394766892 82.69142465343373 H 0.0 **** 0.06
13895 H 96.42477681584971 53.38765094743745 82.4871089429576 H 0.0 **** 0.06
13896 C 99.48580154157776 109.9142571287128 70.31691847896123 C 0.0 **** -0.24
13897 H 99.13794545780624 110.7956558680108 70.85555107623733 H 0.0 **** 0.06
13898 H 99.66124095525385 110.1729892151685 69.27312474352512 H 0.0 **** 0.06
13899 H 98.72839699856615 109.13108773245254 70.37578955423955 H 0.0 **** 0.06
13900 H 100.41271913630175 109.55689972137905 70.76505586218133 H 0.0 **** 0.06
13901 C 45.05449203171061 91.52352140149542 96.06018475176134 C 0.0 **** -0.24
13902 H 44.81536097229346 92.47158440988143 96.54150951312172 H 0.0 **** 0.06
13903 H 44.313559445759836 91.31093794638213 95.2894715424436 H 0.0 **** 0.06
13904 H 45.04405655618915 90.72669648613115 96.80411474723552 H 0.0 **** 0.06
13905 H 46.04400096148781 91.58524775764737 95.60733863790173 H 0.0 **** 0.06
13906 C 125.71001072445465 119.56675432198229 12.086038794696435 C 0.0 **** -0.24
13907 H 125.99313442940245 118.8149968829406 12.823468400901902 H 0.0 **** 0.06
13908 H 124.76158924050362 119.28718945265224 11.627941834987837 H 0.0 **** 0.06
13909 H 126.48142276961507 119.62867219503683 11.317361125503908 H 0.0 **** 0.06
13910 H 125.6075864730383 120.53568835930871 12.575787516088042 H 0.0 **** 0.06
13911 C 61.164390753000475 102.175034935106 42.34319003333974 C 0.0 **** -0.24
13912 H 61.61371386452652 102.55696106905293 41.42625281916622 H 0.0 **** 0.06
13913 H 61.303548369920804 102.89866831040229 43.145527570196236 H 0.0 **** 0.06
13914 H 61.64140259593256 101.23292147261702 42.61556043495301 H 0.0 **** 0.06
13915 H 60.09910476082439 102.00920460730418 42.18361021483156 H 0.0 **** 0.06
13916 C 85.34334856150144 108.41762207588846 31.30499610436067 C 0.0 **** -0.24
13917 H 84.61883541587444 108.53813303141243 30.500353672545657 H 0.0 **** 0.06
13918 H 84.89674844978472 107.83612511074278 32.11232090384894 H 0.0 **** 0.06
13919 H 85.63545116190582 109.3974003184295 31.681338101689988 H 0.0 **** 0.06
13920 H 86.22319935716169 107.89693027882936 30.926799981930856 H 0.0 **** 0.06
13921 C 127.94190151882736 82.71159258131769 98.78500081542614 C 0.0 **** -0.24
13922 H 127.28571578742105 82.46880766990671 99.62096938684373 H 0.0 **** 0.06
13923 H 128.57129731539425 83.56113380545537 99.05277937772114 H 0.0 **** 0.06
13924 H 127.3402368975635 82.96532419968469 97.91245075491011 H 0.0 **** 0.06
13925 H 128.57002827009762 81.85082651549735 98.5559981323073 H 0.0 **** 0.06
13926 C 114.54367726897233 100.06135930987939 125.87223454495397 C 0.0 **** -0.24
13927 H 114.14224195656028 100.10000789597815 124.85922878419849 H 0.0 **** 0.06
13928 H 115.6323087659559 100.10637135148399 125.832927165567 H 0.0 **** 0.06
13929 H 114.23459595016014 99.13232080139876 126.34963459608103 H 0.0 **** 0.06
13930 H 114.16524649725211 100.90872286837414 126.4449210715127 H 0.0 **** 0.06
13931 C 70.62845364807013 20.744667431130637 7.231186021415169 C 0.0 **** -0.24
13932 H 71.71420182542931 20.718833115134018 7.1369673182174935 H 0.0 **** 0.06
13933 H 70.24591900313426 19.72692844115314 7.312403537590086 H 0.0 **** 0.06
13934 H 70.19900388627732 21.22596423759127 6.3526833471216975 H 0.0 **** 0.06
13935 H 70.35456059291114 21.30766672300539 8.123368770986282 H 0.0 **** 0.06
13936 C 32.35616046514465 79.76543374410446 68.93761122237507 C 0.0 **** -0.24
13937 H 31.76112288342234 79.13567311580876 69.59921496159184 H 0.0 **** 0.06
13938 H 32.80572155147753 79.15028077795822 68.15867329054906 H 0.0 **** 0.06
13939 H 33.14101880442474 80.25586608938843 69.51326143425412 H 0.0 **** 0.06
13940 H 31.7154262047829 80.51910619395531 68.48164404830365 H 0.0 **** 0.06
13941 C 93.67379642533487 46.520546076891605 31.0823437394219 C 0.0 **** -0.24
13942 H 92.61221443549559 46.59244351287691 31.319035754765082 H 0.0 **** 0.06
13943 H 94.04819788146919 47.503139377624606 30.79115530781229 H 0.0 **** 0.06
13944 H 93.81560045056335 45.81958567300856 30.260685202054447 H 0.0 **** 0.06
13945 H 94.21807442887953 46.16919922166586 31.95833773423891 H 0.0 **** 0.06
13946 C 8.41604337439636 51.72611451492837 41.63515707021543 C 0.0 **** -0.24
13947 H 9.343844465411834 52.06977280416527 42.09120722930834 H 0.0 **** 0.06
13948 H 8.643653627754844 51.021855088732224 40.83538467624294 H 0.0 **** 0.06
13949 H 7.875229259361291 52.57961427652606 41.22612048762653 H 0.0 **** 0.06
13950 H 7.801410143423816 51.2338409520292 42.38869565319618 H 0.0 **** 0.06
13951 C 51.551324475927856 58.90854711678253 47.03991993678969 C 0.0 **** -0.24
13952 H 50.92660034381612 59.64238624855116 47.549798922886325 H 0.0 **** 0.06
13953 H 51.56953065126277 57.982793830804724 47.61660366184434 H 0.0 **** 0.06
13954 H 52.56438567367212 59.2982162014315 46.944433511008796 H 0.0 **** 0.06
13955 H 51.14316696512384 58.71069980128705 46.04822260750291 H 0.0 **** 0.06
13956 C 90.65897388752548 9.248762735858023 17.211779247845868 C 0.0 **** -0.24
13957 H 91.7487968240828 9.24103355527977 17.202953737478197 H 0.0 **** 0.06
13958 H 90.30221723329225 10.276316432891235 17.144379345396203 H 0.0 **** 0.06
13959 H 90.30080614002175 8.798682315122512 18.13763892923629 H 0.0 **** 0.06
13960 H 90.28619987557927 8.676901700083796 16.36221750725241 H 0.0 **** 0.06
13961 C 48.55480129512058 29.59853745107398 27.583570713296808 C 0.0 **** -0.24
13962 H 48.65664846058229 30.570044301580708 28.06662065577885 H 0.0 **** 0.06
13963 H 49.52800003089908 29.274080638100543 27.214293460455394 H 0.0 **** 0.06
13964 H 47.857901574038664 29.67836123132321 26.7493671359002 H 0.0 **** 0.06
13965 H 48.178744925630085 28.87273922557091 28.30469151982976 H 0.0 **** 0.06
13966 C 148.31783676809238 110.41609424757621 104.14787656586712 C 0.0 **** -0.24
13967 H 148.5606928989027 109.53936534021722 103.54759747293024 H 0.0 **** 0.06
13968 H 148.87156879170482 111.27693913910377 103.77404295612793 H 0.0 **** 0.06
13969 H 148.5898066785836 110.23119584104705 105.1865004529469 H 0.0 **** 0.06
13970 H 147.24793160659627 110.61537671681305 104.08197409906104 H 0.0 **** 0.06
13971 C 117.81302544349056 90.48096896691227 143.99521572376037 C 0.0 **** -0.24
13972 H 118.11586229900759 90.99871253994137 144.90500255723524 H 0.0 **** 0.06
13973 H 117.83986009535066 91.17560652465023 143.15533046154064 H 0.0 **** 0.06
13974 H 116.80122970107813 90.09396396963174 144.11654248394527 H 0.0 **** 0.06
13975 H 118.49733786463544 89.65354057127846 143.8039685621547 H 0.0 **** 0.06
13976 C 73.91636421522809 63.35786227309525 134.16499695569001 C 0.0 **** -0.24
13977 H 74.04333594902003 62.939557429661065 133.16644254485004 H 0.0 **** 0.06
13978 H 73.06163673285891 64.03424315269909 134.1699473860387 H 0.0 **** 0.06
13979 H 74.81584954756917 63.90555826915383 134.4463488833092 H 0.0 **** 0.06
13980 H 73.74416251669636 62.55015029594752 134.87736670118613 H 0.0 **** 0.06
13981 C 101.16214594704199 40.36315246350091 26.338400502716468 C 0.0 **** -0.24
13982 H 100.33228174615031 40.937672127680116 25.924646597084887 H 0.0 **** 0.06
13983 H 101.65777602132412 39.81468257308467 25.537935481065517 H 0.0 **** 0.06
13984 H 100.78268454317298 39.66105300733466 27.080405252212472 H 0.0 **** 0.06
13985 H 101.8728633582199 41.041311151521995 26.80978802674923 H 0.0 **** 0.06
13986 C 123.93787172791282 33.49707699709984 121.43243984437608 C 0.0 **** -0.24
13987 H 124.93575172237466 33.928313996103554 121.5097562434671 H 0.0 **** 0.06
13988 H 123.22421400347984 34.27771414143828 121.16732477289766 H 0.0 **** 0.06
13989 H 123.65676094194752 33.05776202359263 122.3895306181421 H 0.0 **** 0.06
13990 H 123.93374998095344 32.72535117765142 120.66261392550616 H 0.0 **** 0.06
13991 C 94.44537920723614 98.86211266163816 111.66707837817034 C 0.0 **** -0.24
13992 H 93.46999698768457 98.98036738923686 111.19463893131433 H 0.0 **** 0.06
13993 H 94.75272675849843 99.81209779424323 112.10582824430537 H 0.0 **** 0.06
13994 H 95.17620694266044 98.55271399323496 110.92039575990907 H 0.0 **** 0.06
13995 H 94.3808195917401 98.10520190142371 112.44852435607629 H 0.0 **** 0.06
13996 C 134.91519224644622 5.516811797836851 110.46771718856945 C 0.0 **** -0.24
13997 H 135.96242168225064 5.664397375218471 110.20376136167812 H 0.0 **** 0.06
13998 H 134.33554090332808 6.38471514035956 110.15132689116285 H 0.0 **** 0.06
13999 H 134.8269681111144 5.393925629712669 111.54660880652403 H 0.0 **** 0.06
14000 H 134.53702776127278 4.625123517752229 109.96830624988394 H 0.0 **** 0.06
14001 C 53.058606708954 131.13395033147899 103.88226679062227 C 0.0 **** -0.24
14002 H 52.72278128715463 131.66022592056171 102.98825113584824 H 0.0 **** 0.06
14003 H 52.32659109014419 130.3710254975597 104.15086233396114 H 0.0 **** 0.06
14004 H 53.16231656198707 131.8432263832116 104.7030422777744 H 0.0 **** 0.06
14005 H 54.02051913686259 130.66178396666453 103.68598120314185 H 0.0 **** 0.06
14006 C 107.77804159581252 135.9439371682013 104.3319614714398 C 0.0 **** -0.24
14007 H 107.52252586029006 136.93919086548965 104.6979102536522 H 0.0 **** 0.06
14008 H 108.73354241213299 135.63549557878858 104.75665272319537 H 0.0 **** 0.06
14009 H 107.8526235302218 135.96524145902745 103.245103934126 H 0.0 **** 0.06
14010 H 107.00343309120039 135.23787721826554 104.62950919747368 H 0.0 **** 0.06
14011 C 59.39637971226415 81.21200253022704 99.34678618783897 C 0.0 **** -0.24
14012 H 59.84621880596029 80.49301578679643 100.0315770522385 H 0.0 **** 0.06
14013 H 58.31628485753157 81.06641420781789 99.32659164176607 H 0.0 **** 0.06
14014 H 59.80214366184887 81.06270128300638 98.3468064947661 H 0.0 **** 0.06
14015 H 59.62127086547372 82.22326609298865 99.68390576174806 H 0.0 **** 0.06
14016 C 85.03879095529872 42.899309810069724 31.48435755784061 C 0.0 **** -0.24
14017 H 84.82124831265685 43.23913142648121 30.47223300555379 H 0.0 **** 0.06
14018 H 84.1198226377835 42.892342492574926 32.07108183853978 H 0.0 **** 0.06
14019 H 85.76072437221109 43.57266554704853 31.946573815197212 H 0.0 **** 0.06
14020 H 85.45354368723703 41.891697788835074 31.447603306416056 H 0.0 **** 0.06
14021 C 1.072115644200693 117.12276524795378 123.61041414442775 C 0.0 **** -0.24
14022 H 0.9149950651614915 116.91680820619725 122.55112215090321 H 0.0 **** 0.06
14023 H 2.14074504184714 117.12158650170646 123.82504519990897 H 0.0 **** 0.06
14024 H 0.5795429081910868 116.3542444650597 124.20622668349034 H 0.0 **** 0.06
14025 H 0.6517336242264946 118.09766443155122 123.8569525888683 H 0.0 **** 0.06
14026 C 151.12366570933753 14.0216839868163 129.2223430628088 C 0.0 **** -0.24
14027 H 150.17515302677586 13.517499718586578 129.40664329984847 H 0.0 **** 0.06
14028 H 151.23551003028632 14.850411293228149 129.92200126071572 H 0.0 **** 0.06
14029 H 151.13926981569065 14.403512850052039 128.20147583073043 H 0.0 **** 0.06
14030 H 151.94357738350374 13.316540688725127 129.35965458607288 H 0.0 **** 0.06
14031 C 54.923072815688215 123.55769643840567 25.139877502399287 C 0.0 **** -0.24
14032 H 53.991159401937665 124.04866420113434 24.85640127083323 H 0.0 **** 0.06
14033 H 54.81585856674951 122.48014506799491 25.017497752023075 H 0.0 **** 0.06
14034 H 55.151304141765735 123.78611179825837 26.180605388382872 H 0.0 **** 0.06
14035 H 55.73091773050648 123.91771379422774 24.503197244005577 H 0.0 **** 0.06
14036 C 72.48977445578653 101.79890168216464 90.19933759828533 C 0.0 **** -0.24
14037 H 72.23525440669447 101.84787137800244 91.2574033515959 H 0.0 **** 0.06
14038 H 73.49989124650206 101.40226505605041 90.08632785224846 H 0.0 **** 0.06
14039 H 72.44061372546248 102.79800056185978 89.7666283262209 H 0.0 **** 0.06
14040 H 71.78328746390609 101.14519717287938 89.68607813752539 H 0.0 **** 0.06
14041 C 144.27121846981248 86.4227977240916 117.85647043307445 C 0.0 **** -0.24
14042 H 145.24038475125178 86.18884953328924 117.41664931826837 H 0.0 **** 0.06
14043 H 143.72718663514343 87.10134720892773 117.1984919602419 H 0.0 **** 0.06
14044 H 144.41758631723238 86.89667947827687 118.82696473962208 H 0.0 **** 0.06
14045 H 143.69888265995772 85.50317590950641 117.98386806079502 H 0.0 **** 0.06
14046 C 156.0273137598444 36.68315469494922 47.7696154103447 C 0.0 **** -0.24
14047 H 156.20192859394388 36.61687533480284 48.84332364127623 H 0.0 **** 0.06
14048 H 154.96729394511073 36.53479862451178 47.564052443174674 H 0.0 **** 0.06
14049 H 156.6082321055071 35.91437022796424 47.25929392657136 H 0.0 **** 0.06
14050 H 156.3329166429985 37.66700224425546 47.412547387649425 H 0.0 **** 0.06
14051 C 127.20751763759972 153.53710677924028 56.036268367678076 C 0.0 **** -0.24
14052 H 126.50296557426043 154.31098456972998 56.34150964586061 H 0.0 **** 0.06
14053 H 127.6914823137804 153.83378002602387 55.105557424605195 H 0.0 **** 0.06
14054 H 126.67413130032503 152.59849093519543 55.88658878605531 H 0.0 **** 0.06
14055 H 127.96246347258489 153.40696536255382 56.812773181264674 H 0.0 **** 0.06
14056 C 23.026772347428505 69.47542086784686 62.95273092741503 C 0.0 **** -0.24
14057 H 24.091669373068555 69.61107534449715 63.138482966605835 H 0.0 **** 0.06
14058 H 22.822466318009248 68.42202979730936 62.76259689278784 H 0.0 **** 0.06
14059 H 22.731527239575314 70.06538279060143 62.084825437453816 H 0.0 **** 0.06
14060 H 22.461573053235384 69.80418264137793 63.82508300036912 H 0.0 **** 0.06
14061 C 84.78302972337167 75.21919263553838 121.12394953288634 C 0.0 **** -0.24
14062 H 84.53325059182492 75.59817183873773 122.11494338728198 H 0.0 **** 0.06
14063 H 85.64738207371087 74.55899382363151 121.19561691971501 H 0.0 **** 0.06
14064 H 85.01794939142783 76.05450826810949 120.4636092846323 H 0.0 **** 0.06
14065 H 83.93453790239653 74.66588464841595 120.72224248642073 H 0.0 **** 0.06
14066 C 127.0653349083788 79.12781743366992 66.22127347631353 C 0.0 **** -0.24
14067 H 126.48537683809916 79.70387035655423 65.49878098114661 H 0.0 **** 0.06
14068 H 126.61232095887634 79.2225152554969 67.2076047191256 H 0.0 **** 0.06
14069 H 128.08682341079816 79.50626724920227 66.25088140271521 H 0.0 **** 0.06
14070 H 127.07537037404545 78.07923505664834 65.9240160872242 H 0.0 **** 0.06
14071 C 46.139126768599795 4.865356847493693 27.22242393236411 C 0.0 **** -0.24
14072 H 45.492409633233876 4.815092430296964 26.346250937156015 H 0.0 **** 0.06
14073 H 46.84074296761372 5.69271454780818 27.10927507261664 H 0.0 **** 0.06
14074 H 46.69072744446714 3.9306114490196293 27.32143603341433 H 0.0 **** 0.06
14075 H 45.53039979974005 5.023902432918376 28.1132249662121 H 0.0 **** 0.06
14076 C 75.6690392826334 96.97796376822122 36.42919355095347 C 0.0 **** -0.24
14077 H 76.60842598268857 97.21014089372143 35.92812563230109 H 0.0 **** 0.06
14078 H 75.87247305309387 96.39847503265975 37.33043226543157 H 0.0 **** 0.06
14079 H 75.03358325340555 96.39753255495569 35.76064370361354 H 0.0 **** 0.06
14080 H 75.16256052303075 97.90458347325985 36.699291420669624 H 0.0 **** 0.06
14081 C 67.08522808966862 26.61297924235285 66.10833132495668 C 0.0 **** -0.24
14082 H 67.60953856291198 27.222355729550884 66.84362953424667 H 0.0 **** 0.06
14083 H 67.50748618822223 25.60736644053742 66.10346200401068 H 0.0 **** 0.06
14084 H 67.19671289372404 27.05795339776637 65.12021201611458 H 0.0 **** 0.06
14085 H 66.02762968226412 26.56203316902659 66.36697929863996 H 0.0 **** 0.06
14086 C 60.9013105710076 57.49348915609178 112.54423174582418 C 0.0 **** -0.24
14087 H 60.38290584515636 58.43583229220495 112.72458324556972 H 0.0 **** 0.06
14088 H 60.19126691431603 56.66913637414498 112.61644805043484 H 0.0 **** 0.06
14089 H 61.68676035000101 57.3643017206588 113.28797893355427 H 0.0 **** 0.06
14090 H 61.342214471786306 57.50761628466515 111.54775102436027 H 0.0 **** 0.06
14091 C 14.862800561452332 101.27608145270001 1.4131662630382493 C 0.0 **** -0.24
14092 H 13.805188027688814 101.53557584163705 1.4517283911912102 H 0.0 **** 0.06
14093 H 15.433479792929802 101.99094031524861 2.004855074721604 H 0.0 **** 0.06
14094 H 15.205794843820058 101.30390560181023 0.3784197031624785 H 0.0 **** 0.06
14095 H 15.006013512427387 100.27326387708983 1.81663083267199 H 0.0 **** 0.06
14096 C 150.84244963529596 87.13958919186437 13.083852534956648 C 0.0 **** -0.24
14097 H 150.84489360863444 88.2082750392723 13.299864754319977 H 0.0 **** 0.06
14098 H 149.83856620312935 86.82952924271027 12.794721881915741 H 0.0 **** 0.06
14099 H 151.1512697188773 86.58927699083773 13.973136707175975 H 0.0 **** 0.06
14100 H 151.53672923745097 86.93322494732165 12.269249989874076 H 0.0 **** 0.06
14101 C 93.0821484639689 62.10434361401627 44.01025012217008 C 0.0 **** -0.24
14102 H 93.794389080955 62.76217923150895 43.512240811850006 H 0.0 **** 0.06
14103 H 93.58921665726305 61.19303157004833 44.32820593122733 H 0.0 **** 0.06
14104 H 92.27713868526641 61.852109527971606 43.32003139460903 H 0.0 **** 0.06
14105 H 92.66756986971677 62.61228097356047 44.881503774622615 H 0.0 **** 0.06
14106 C 54.741470902037705 119.68316172138317 58.03992875254002 C 0.0 **** -0.24
14107 H 55.44295735166196 120.01009205908032 58.80699326222779 H 0.0 **** 0.06
14108 H 54.08530197023239 118.91489105000524 58.451416595822494 H 0.0 **** 0.06
14109 H 55.29301798570562 119.27423162743248 57.19309247632326 H 0.0 **** 0.06
14110 H 54.14359619486932 120.5320838744296 57.70781025833729 H 0.0 **** 0.06
14111 C 18.780998682061302 86.4529227930186 124.26977748525697 C 0.0 **** -0.24
14112 H 18.282207840289438 87.32853953950574 124.68615196252567 H 0.0 **** 0.06
14113 H 18.05668942229994 85.84950035665952 123.72291907520527 H 0.0 **** 0.06
14114 H 19.210324492051775 85.86135378720331 125.07831080429641 H 0.0 **** 0.06
14115 H 19.57266041411046 86.77275455219763 123.59403645574234 H 0.0 **** 0.06
14116 C 17.517762113344304 119.87420884711624 102.88921191342227 C 0.0 **** -0.24
14117 H 16.995830312006035 120.23516219898231 102.00341536869824 H 0.0 **** 0.06
14118 H 18.593176244111675 119.97920585924108 102.74455798967362 H 0.0 **** 0.06
14119 H 17.273068631171554 118.82510397805173 103.05230609416411 H 0.0 **** 0.06
14120 H 17.208856342077183 120.45872690334896 103.75621165927349 H 0.0 **** 0.06
14121 C 100.44628182253979 101.14694676364661 77.34439082997409 C 0.0 **** -0.24
14122 H 101.35541239271254 100.68612739361288 76.95869435549139 H 0.0 **** 0.06
14123 H 100.52169464174028 101.24826867640667 78.42794724801911 H 0.0 **** 0.06
14124 H 99.58847398338139 100.52114170138441 77.09747299543312 H 0.0 **** 0.06
14125 H 100.31914478655568 102.13142863919205 76.8954896803757 H 0.0 **** 0.06
14126 C 138.53065664555612 54.467743256089435 109.5655564576832 C 0.0 **** -0.24
14127 H 137.70772009463028 53.787216032711854 109.78549468172598 H 0.0 **** 0.06
14128 H 138.8397438765223 54.33907934373913 108.52747871290013 H 0.0 **** 0.06
14129 H 139.37003704814973 54.24718228290715 110.22479697390885 H 0.0 **** 0.06
14130 H 138.20448700797306 55.494662224528454 109.72370322846136 H 0.0 **** 0.06
14131 C 125.3904263460709 112.78965567673248 96.61169425915128 C 0.0 **** -0.24
14132 H 125.27598478329541 113.2472159039724 95.62921045460436 H 0.0 **** 0.06
14133 H 126.4154078688572 112.92499704671695 96.9570640106774 H 0.0 **** 0.06
14134 H 125.16717348844573 111.72558313591225 96.5438457903408 H 0.0 **** 0.06
14135 H 124.70440984520572 113.26157300139994 97.31385877945108 H 0.0 **** 0.06
14136 C 138.97267700877433 74.65016450249408 15.90415431819671 C 0.0 **** -0.24
14137 H 138.91727704209825 75.39079742435354 15.106183517773687 H 0.0 **** 0.06
14138 H 139.71698247032737 73.89494650510659 15.647967104611766 H 0.0 **** 0.06
14139 H 137.99943515300436 74.17520157411315 16.027568965845298 H 0.0 **** 0.06
14140 H 139.25816432370578 75.14019822309334 16.835560594201212 H 0.0 **** 0.06
14141 C 95.10572605471276 76.01602508154016 127.79549590603544 C 0.0 **** -0.24
14142 H 95.89541761223546 75.97982903000006 128.54602223101898 H 0.0 **** 0.06
14143 H 95.26126100191004 76.87766827083773 127.14598179673213 H 0.0 **** 0.06
14144 H 94.13886836877055 76.10430972564659 128.29071777519562 H 0.0 **** 0.06
14145 H 95.1274201651006 75.10289490807703 127.20088484457783 H 0.0 **** 0.06
14146 C 89.42202758037813 44.689358058870795 24.774143396223614 C 0.0 **** -0.24
14147 H 89.70035330561755 44.698495198759204 25.8275677868315 H 0.0 **** 0.06
14148 H 88.85461396138153 43.784671663901264 24.555792800869654 H 0.0 **** 0.06
14149 H 90.32289732604993 44.71128533546272 24.1600248390166 H 0.0 **** 0.06
14150 H 88.81067278239802 45.564891971512026 24.55278533944228 H 0.0 **** 0.06
14151 C 97.97835055870026 50.45578183299507 95.67318825949356 C 0.0 **** -0.24
14152 H 97.37583936768986 49.97106677804136 96.44241729085347 H 0.0 **** 0.06
14153 H 99.02950305565716 50.21045883044188 95.82867061203825 H 0.0 **** 0.06
14154 H 97.84371651167078 51.53531110509876 95.73320378146585 H 0.0 **** 0.06
14155 H 97.66408557344995 50.1034235388513 94.69063249505699 H 0.0 **** 0.06
14156 C 143.45391413676532 123.79235596063633 23.623953662680094 C 0.0 **** -0.24
14157 H 143.75591117548976 122.85727403463478 24.09486790810695 H 0.0 **** 0.06
14158 H 144.30578163516057 124.22603318960144 23.098969340676433 H 0.0 **** 0.06
14159 H 143.1047383438194 124.48813205759309 24.387663422961907 H 0.0 **** 0.06
14160 H 142.6492253925915 123.59798456071606 22.914313978974803 H 0.0 **** 0.06
14161 C 104.27040275855057 111.99000316062848 73.61690283375894 C 0.0 **** -0.24
14162 H 103.50771418101169 111.49589166790025 74.2188817713503 H 0.0 **** 0.06
14163 H 103.80305464514606 112.45216705978532 72.74791324154663 H 0.0 **** 0.06
14164 H 105.00550865282713 111.25545045551854 73.28830838335149 H 0.0 **** 0.06
14165 H 104.76359164451719 112.75585025536986 74.21486152428064 H 0.0 **** 0.06
14166 C 112.2435583381665 103.40522035508472 124.5443575674713 C 0.0 **** -0.24
14167 H 112.56195471140701 104.38187041051061 124.17905069877854 H 0.0 **** 0.06
14168 H 112.50866288250508 102.64160747864726 123.81306718136925 H 0.0 **** 0.06
14169 H 111.1640012363798 103.40688586084109 124.69317068692474 H 0.0 **** 0.06
14170 H 112.74038310751054 103.19201034479407 125.49066475914027 H 0.0 **** 0.06
14171 C 95.59526435663136 56.22323781291465 153.70015760255896 C 0.0 **** -0.24
14172 H 94.72810292553814 55.56911997350498 153.79702664884147 H 0.0 **** 0.06
14173 H 96.43570319357246 55.654525303169834 153.30203536098486 H 0.0 **** 0.06
14174 H 95.85752476772653 56.62517751902165 154.6783562487497 H 0.0 **** 0.06
14175 H 95.35750808539626 57.04281254655021 153.02205150383668 H 0.0 **** 0.06
14176 C 116.35028791511024 94.03370162194112 83.13656257479637 C 0.0 **** -0.24
14177 H 115.73849380272799 93.30115640205011 83.66362344001352 H 0.0 **** 0.06
14178 H 115.70565003623176 94.7876768449202 82.68390589870337 H 0.0 **** 0.06
14179 H 116.92569525651732 93.53260348344868 82.35733169748363 H 0.0 **** 0.06
14180 H 117.030831111385 94.51154783787261 83.84071923157923 H 0.0 **** 0.06
14181 C 62.140336556566524 7.088055556209667 62.69354006195576 C 0.0 **** -0.24
14182 H 61.29273259671493 7.727362883434182 62.44497343775511 H 0.0 **** 0.06
14183 H 62.00542610330322 6.1104480689512 62.22963977668576 H 0.0 **** 0.06
14184 H 62.20102938456591 6.971875736659513 63.774979498699835 H 0.0 **** 0.06
14185 H 63.058945757599986 7.543360497822789 62.32454793345403 H 0.0 **** 0.06
14186 C 47.64245241196414 119.50547758820882 151.7596710233378 C 0.0 **** -0.24
14187 H 48.674460000168835 119.45121579661141 152.10530615700108 H 0.0 **** 0.06
14188 H 47.00896585593023 119.87702443518687 152.5656563972528 H 0.0 **** 0.06
14189 H 47.30665239949553 118.51222433810274 151.46086335938148 H 0.0 **** 0.06
14190 H 47.579731392261735 120.18144578293438 150.90685817971575 H 0.0 **** 0.06
14191 C 124.68505041728243 36.50164307191511 144.47147260752268 C 0.0 **** -0.24
14192 H 124.21376960624262 36.74464056207894 143.51892113847535 H 0.0 **** 0.06
14193 H 125.58202483236359 37.10821441532539 144.59720160790744 H 0.0 **** 0.06
14194 H 124.95514454409967 35.445933389912284 144.48407759733482 H 0.0 **** 0.06
14195 H 123.98925482225671 36.708751846270744 145.28393988988336 H 0.0 **** 0.06
14196 C 20.1015710542886 63.579802529452124 7.5549070798279345 C 0.0 **** -0.24
14197 H 20.810588589686347 62.756737324982 7.46976924102546 H 0.0 **** 0.06
14198 H 20.64110867370647 64.52720723994084 7.520640481576585 H 0.0 **** 0.06
14199 H 19.564377797953938 63.50116079220473 8.50018299736007 H 0.0 **** 0.06
14200 H 19.391872082668613 63.53559309399553 6.728895239282515 H 0.0 **** 0.06
14201 C 121.28356922896818 86.12218242859633 117.34398014422028 C 0.0 **** -0.24
14202 H 121.51199135552388 87.17412436359515 117.51696045346624 H 0.0 **** 0.06
14203 H 120.71902818707544 85.72894818013138 118.19028089249058 H 0.0 **** 0.06
14204 H 122.21170221479532 85.56249390010716 117.23342905307801 H 0.0 **** 0.06
14205 H 120.69011063917607 86.02452677222418 116.43501703116915 H 0.0 **** 0.06
14206 C 97.34485481447419 105.33786984041659 90.91493444364164 C 0.0 **** -0.24
14207 H 96.34234092399737 104.91503662238237 90.9643872543041 H 0.0 **** 0.06
14208 H 97.42293032015395 105.98725216038737 90.04249274558391 H 0.0 **** 0.06
14209 H 98.07609046554049 104.5336492606314 90.8362493841727 H 0.0 **** 0.06
14210 H 97.53887035616292 105.91764871346145 91.81755624281878 H 0.0 **** 0.06
14211 C 97.13490478582459 82.55567646892572 146.59621557859293 C 0.0 **** -0.24
14212 H 97.0149365807975 82.87712733274184 145.56113651114964 H 0.0 **** 0.06
14213 H 98.19417965818351 82.41331542996521 146.8108286251828 H 0.0 **** 0.06
14214 H 96.60277121921027 81.61699508955542 146.74868127276568 H 0.0 **** 0.06
14215 H 96.72761323641544 83.315874220347 147.26231363678147 H 0.0 **** 0.06
14216 C 32.91116040831222 78.67530401113356 21.404772871897336 C 0.0 **** -0.24
14217 H 33.366324536653075 79.6518146121914 21.24465642222728 H 0.0 **** 0.06
14218 H 32.648833327780395 78.56366236827625 22.45697452909488 H 0.0 **** 0.06
14219 H 33.61786313517398 77.89431778890741 21.122192823099226 H 0.0 **** 0.06
14220 H 32.01193312225303 78.58868529623618 20.794621934106033 H 0.0 **** 0.06
14221 C 88.3017978032961 14.817777545760379 79.67190370962884 C 0.0 **** -0.24
14222 H 88.65004109841246 14.162648479656298 78.87391802213972 H 0.0 **** 0.06
14223 H 88.48751361652603 15.855948604153639 79.39516703627865 H 0.0 **** 0.06
14224 H 88.83707188326562 14.585120198933879 80.59232257086488 H 0.0 **** 0.06
14225 H 87.23304132920975 14.668141877389047 79.82415490817993 H 0.0 **** 0.06
14226 C 74.45269678906644 63.747676628170495 82.96433642013555 C 0.0 **** -0.24
14227 H 73.88244789534569 64.4174000672869 82.32097076198133 H 0.0 **** 0.06
14228 H 73.78314385281668 63.006574728839524 83.40134045280219 H 0.0 **** 0.06
14229 H 74.92605135953664 64.32359788095945 83.75970981731521 H 0.0 **** 0.06
14230 H 75.21900078704645 63.24412208116931 82.37537830823847 H 0.0 **** 0.06
14231 C 25.689985725950123 103.76260576267919 56.2179645337897 C 0.0 **** -0.24
14232 H 26.106663761619814 104.72916682743795 55.93438068453358 H 0.0 **** 0.06
14233 H 26.478737538995745 103.00858083849681 56.20047864949545 H 0.0 **** 0.06
14234 H 24.904900368548283 103.48429768046799 55.51497786189505 H 0.0 **** 0.06
14235 H 25.272108013842058 103.82763394661197 57.22318802330612 H 0.0 **** 0.06
14236 C 15.482537460811614 6.070309572812619 131.85239638097033 C 0.0 **** -0.24
14237 H 16.148193583046236 6.596872916108964 131.16743018437398 H 0.0 **** 0.06
14238 H 15.46249592277104 5.010925105187596 131.5967079834117 H 0.0 **** 0.06
14239 H 14.47716358297123 6.483647123347708 131.77027991013756 H 0.0 **** 0.06
14240 H 15.843208727230603 6.191365530204791 132.87386511027566 H 0.0 **** 0.06
14241 C 78.56043688946701 130.27223250236767 82.20677546024442 C 0.0 **** -0.24
14242 H 78.29401915383514 131.28420309588 81.90149889039012 H 0.0 **** 0.06
14243 H 79.11599070040285 130.30948799155084 83.14388626803755 H 0.0 **** 0.06
14244 H 79.17818313423993 129.81159594154497 81.43586028519927 H 0.0 **** 0.06
14245 H 77.65341047707565 129.68421544900067 82.34457125832559 H 0.0 **** 0.06
14246 C 150.81341996650212 68.14709908124206 48.22893364045868 C 0.0 **** -0.24
14247 H 151.7157301343322 68.1128021347489 48.83998173321123 H 0.0 **** 0.06
14248 H 150.81570868274275 69.05729323777197 47.62815908029705 H 0.0 **** 0.06
14249 H 149.9362134189612 68.14130886821093 48.87514938266071 H 0.0 **** 0.06
14250 H 150.78666200199729 67.27732243793318 47.571745458577055 H 0.0 **** 0.06
14251 C 154.00060666909343 64.79960708516788 41.624698982605096 C 0.0 **** -0.24
14252 H 153.44869326906047 64.8747687828462 40.68825519931205 H 0.0 **** 0.06
14253 H 154.77175656179273 64.03497625090975 41.53080434553003 H 0.0 **** 0.06
14254 H 153.31655560390712 64.53010160053725 42.42940116671997 H 0.0 **** 0.06
14255 H 154.46618349286032 65.75970996709395 41.8499530331799 H 0.0 **** 0.06
14256 C 82.44495563017364 94.68737855336775 5.1029398550155065 C 0.0 **** -0.24
14257 H 82.3015379169243 95.59308379267378 4.512772010415318 H 0.0 **** 0.06
14258 H 82.82200283179611 93.89172626767811 4.459358809531977 H 0.0 **** 0.06
14259 H 81.49400945471902 94.38388498050787 5.538581486942661 H 0.0 **** 0.06
14260 H 83.16371880484712 94.88307068256051 5.898431997058026 H 0.0 **** 0.06
14261 C 11.852464098245036 36.490238092267646 45.217899305208476 C 0.0 **** -0.24
14262 H 11.180258325786212 36.67167273675284 46.057049808993725 H 0.0 **** 0.06
14263 H 12.253060132800215 37.44025141918257 44.861667322524426 H 0.0 **** 0.06
14264 H 11.303720797775668 36.00195152656937 44.4126144558806 H 0.0 **** 0.06
14265 H 12.671294202734998 35.84848092119381 45.54110763120559 H 0.0 **** 0.06
14266 C 42.947793733219356 67.86568198872743 152.36659983810833 C 0.0 **** -0.24
14267 H 43.49612734727867 67.26678609672575 153.09355418313245 H 0.0 **** 0.06
14268 H 41.96190955379301 68.10627562847031 152.76488085530414 H 0.0 **** 0.06
14269 H 42.839092716041634 67.30278652238422 151.4401547954999 H 0.0 **** 0.06
14270 H 43.49503670954091 68.78785265645709 152.17027341150808 H 0.0 **** 0.06
14271 C 142.53063211448946 112.4116479206657 15.925092827168612 C 0.0 **** -0.24
14272 H 141.82512088383845 111.7078964997146 15.485177538644336 H 0.0 **** 0.06
14273 H 143.40525679217959 112.50146419419065 15.280214228251793 H 0.0 **** 0.06
14274 H 142.83783983576856 112.05250316850817 16.907177409013514 H 0.0 **** 0.06
14275 H 142.05286607114306 113.38669944838335 16.027960921779652 H 0.0 **** 0.06
14276 C 60.68741186689411 75.3094672044478 43.03516654082128 C 0.0 **** -0.24
14277 H 60.364369352806136 74.27258181965084 43.12521590227384 H 0.0 **** 0.06
14278 H 61.06731454056546 75.65645916300656 43.99636955154608 H 0.0 **** 0.06
14279 H 59.84233088319694 75.92836030531868 42.73332363767122 H 0.0 **** 0.06
14280 H 61.475632691007746 75.38046752981509 42.28575707179388 H 0.0 **** 0.06
14281 C 91.94435987118011 44.1804478019169 48.65460912751928 C 0.0 **** -0.24
14282 H 91.30335272042146 44.87572409015323 49.19858381010273 H 0.0 **** 0.06
14283 H 91.32621779124945 43.50207692799408 48.06593432678869 H 0.0 **** 0.06
14284 H 92.54090604436321 43.60658634497352 49.36308095510579 H 0.0 **** 0.06
14285 H 92.60457709880764 44.73916769821328 47.99128118488731 H 0.0 **** 0.06
14286 C 15.204002356151804 9.354905746326729 92.53486197191896 C 0.0 **** -0.24
14287 H 14.486278305436905 8.65060101049928 92.1134124261155 H 0.0 **** 0.06
14288 H 15.775852696361298 8.862910677091143 93.32251402439051 H 0.0 **** 0.06
14289 H 14.671209037839162 10.210303498371267 92.95196949287444 H 0.0 **** 0.06
14290 H 15.881688366896881 9.695265087617152 91.75241399569748 H 0.0 **** 0.06
14291 C 97.76467773620456 154.39183108163516 91.77544082261295 C 0.0 **** -0.24
14292 H 97.23132727829864 153.46851359178595 91.5521635696984 H 0.0 **** 0.06
14293 H 97.69399075727569 154.60327150179126 92.84241550459382 H 0.0 **** 0.06
14294 H 97.32077259224712 155.2129784243703 91.21200763385326 H 0.0 **** 0.06
14295 H 98.8124321423886 154.28301407376765 91.4938502316374 H 0.0 **** 0.06
14296 C 91.00252249508503 130.49368181081758 70.7807185326464 C 0.0 **** -0.24
14297 H 91.92289304233582 129.90859624014934 70.77991584392731 H 0.0 **** 0.06
14298 H 90.16438206441464 129.8516144306731 70.51095799194826 H 0.0 **** 0.06
14299 H 91.08708898154288 131.3047247230788 70.05676576778791 H 0.0 **** 0.06
14300 H 90.83765950318968 130.9097966143653 71.77373075814273 H 0.0 **** 0.06
14301 C 1.855984647926448 13.122357037789044 101.50761301103262 C 0.0 **** -0.24
14302 H 1.9784506824093029 12.114160554512637 101.90532351172152 H 0.0 **** 0.06
14303 H 1.7926314208098013 13.078314377765139 100.41968868905957 H 0.0 **** 0.06
14304 H 2.7116330963892707 13.73202834316129 101.79747900609158 H 0.0 **** 0.06
14305 H 0.9434989530280831 13.563010068679603 101.90835533619048 H 0.0 **** 0.06
14306 C 121.20160820926998 18.977709846050935 71.96573715826969 C 0.0 **** -0.24
14307 H 120.95321668837187 19.431617326302273 72.9246486738824 H 0.0 **** 0.06
14308 H 120.35342045401546 18.391426036180043 71.6106857066013 H 0.0 **** 0.06
14309 H 122.06938979958392 18.328666429736423 72.08348871218283 H 0.0 **** 0.06
14310 H 121.43042724179594 19.76055599799939 71.2424036016938 H 0.0 **** 0.06
14311 C 41.4239064971901 35.903027491103785 139.51305094320344 C 0.0 **** -0.24
14312 H 41.76134162897728 36.52683933832378 140.33994630446213 H 0.0 **** 0.06
14313 H 40.46950063139002 35.44430990489792 139.77093324420835 H 0.0 **** 0.06
14314 H 42.16181945279999 35.12409120350799 139.32092753744763 H 0.0 **** 0.06
14315 H 41.30296427559324 36.51686951768582 138.6203966866957 H 0.0 **** 0.06
14316 C 46.70870881546176 32.07710929718951 119.16002998166164 C 0.0 **** -0.24
14317 H 47.51643127689546 31.35556329132993 119.03976594531412 H 0.0 **** 0.06
14318 H 46.56021917942745 32.61579045307394 118.22333464116497 H 0.0 **** 0.06
14319 H 46.96607832090322 32.78359100312741 119.94920183201538 H 0.0 **** 0.06
14320 H 45.79083755103754 31.553205216770436 119.4272630942528 H 0.0 **** 0.06
14321 C 110.19604522929302 85.8933721227371 30.10657814935172 C 0.0 **** -0.24
14322 H 110.25062894822429 85.33442126154868 31.040358744053577 H 0.0 **** 0.06
14323 H 110.5601104905898 85.27071355944736 29.28941998433993 H 0.0 **** 0.06
14324 H 110.81398420971522 86.78912257209582 30.1838781367978 H 0.0 **** 0.06
14325 H 109.16239294794627 86.17990978677923 29.914636033081194 H 0.0 **** 0.06
14326 C 114.49711281278034 39.06985068278135 61.12963767392807 C 0.0 **** -0.24
14327 H 114.18053127225356 38.387250135162844 61.91746585988787 H 0.0 **** 0.06
14328 H 114.28983087612674 40.09610811299808 61.43313324639203 H 0.0 **** 0.06
14329 H 113.95286089749008 38.84475607503521 60.21228825779707 H 0.0 **** 0.06
14330 H 115.56732159335174 38.9519212315156 60.955197044901865 H 0.0 **** 0.06
14331 C 110.86027603769939 128.4358867172907 44.33755122161476 C 0.0 **** -0.24
14332 H 111.49982498773112 127.7700440566385 44.9168459289408 H 0.0 **** 0.06
14333 H 109.818957793075 128.13821754410571 44.4607342096685 H 0.0 **** 0.06
14334 H 111.13401614994645 128.37567341021253 43.283972370523756 H 0.0 **** 0.06
14335 H 110.9904837625353 129.45984528557946 44.68820558092101 H 0.0 **** 0.06
14336 C 64.44318587693124 142.5626983490753 15.161691041459818 C 0.0 **** -0.24
14337 H 64.3143840294864 141.57556299833922 15.604742425669798 H 0.0 **** 0.06
14338 H 64.0175353267654 142.56940792352322 14.157696370912532 H 0.0 **** 0.06
14339 H 65.50575607581641 142.8012231023048 15.108982351814888 H 0.0 **** 0.06
14340 H 63.934541538159635 143.30577451944637 15.777426759834015 H 0.0 **** 0.06
14341 C 105.84406599285944 72.24722167239338 95.70968212238114 C 0.0 **** -0.24
14342 H 106.59498465335787 72.56818516490051 94.98760852581067 H 0.0 **** 0.06
14343 H 105.2344299244761 71.45665779319904 95.27122766210296 H 0.0 **** 0.06
14344 H 105.209237483646 73.09328938225576 95.9720918251074 H 0.0 **** 0.06
14345 H 106.3376171112946 71.87120133614306 96.60500755043353 H 0.0 **** 0.06
14346 C 27.714246126509067 27.379270796768054 75.69030459383633 C 0.0 **** -0.24
14347 H 27.904372490760778 27.218816480057797 76.7515067645029 H 0.0 **** 0.06
14348 H 28.415902847756 28.117579244095168 75.30364826727038 H 0.0 **** 0.06
14349 H 26.69480437297628 27.74033579477836 75.55555208293171 H 0.0 **** 0.06
14350 H 27.840945252209508 26.44029597012147 75.15253025518918 H 0.0 **** 0.06
14351 C 125.35052805809933 38.58899335204495 136.69506062335748 C 0.0 **** -0.24
14352 H 124.31424312796845 38.89393688755693 136.83896211033522 H 0.0 **** 0.06
14353 H 125.63692972465758 37.89573108164883 137.4867810443962 H 0.0 **** 0.06
14354 H 125.99531716496305 39.467039103417406 136.72928532617667 H 0.0 **** 0.06
14355 H 125.45464013201912 38.09946189986087 135.7274495132032 H 0.0 **** 0.06
14356 C 55.537518280858805 3.908205894753067 130.53362918709436 C 0.0 **** -0.24
14357 H 55.089638185480226 4.73654220447898 131.08234408594345 H 0.0 **** 0.06
14358 H 54.76465372805876 3.1824889425502576 130.27705363262743 H 0.0 **** 0.06
14359 H 56.29490833762026 3.4295335667714397 131.15365559462316 H 0.0 **** 0.06
14360 H 55.999120856032036 4.285639240244784 129.62130479535114 H 0.0 **** 0.06
14361 C 91.716624323297 47.11375099272969 55.194525049482024 C 0.0 **** -0.24
14362 H 91.25578668673108 46.37416276527158 55.84919564820092 H 0.0 **** 0.06
14363 H 92.65204239514344 47.45738341017069 55.63653124315948 H 0.0 **** 0.06
14364 H 91.04028592186526 47.95948859891337 55.07023128049045 H 0.0 **** 0.06
14365 H 91.91824183080774 46.66309188270388 54.22260096432197 H 0.0 **** 0.06
14366 C 156.37865861609012 22.672369319778646 54.50989733747588 C 0.0 **** -0.24
14367 H 155.5741446450754 22.471701339897677 55.21792581610475 H 0.0 **** 0.06
14368 H 157.27739546732874 22.137251996176914 54.81991388733587 H 0.0 **** 0.06
14369 H 156.58235603582366 23.742525957761558 54.48428915414763 H 0.0 **** 0.06
14370 H 156.08007464370368 22.335250866831032 53.51734586448163 H 0.0 **** 0.06
14371 C 109.36275677623631 108.36850216671496 67.87932998009383 C 0.0 **** -0.24
14372 H 109.24912251428911 109.4366850660603 68.06446566653811 H 0.0 **** 0.06
14373 H 109.15614137509907 107.81602315573059 68.7956261497931 H 0.0 **** 0.06
14374 H 110.38244355530166 108.16338020947086 67.5528356659864 H 0.0 **** 0.06
14375 H 108.66355296364948 108.05878336208536 67.10234286616534 H 0.0 **** 0.06
14376 C 27.589040232458956 13.253372562637509 146.61973906084796 C 0.0 **** -0.24
14377 H 26.75393157581206 13.08695553428155 147.30049054931652 H 0.0 **** 0.06
14378 H 27.473219509914102 12.61802392777276 145.74152931879422 H 0.0 **** 0.06
14379 H 28.523958670394954 13.009352562453849 147.12488007802153 H 0.0 **** 0.06
14380 H 27.604408842255687 14.298793614445124 146.31273046432364 H 0.0 **** 0.06
14381 C 4.2380216298290065 142.4331571483996 135.78506125523433 C 0.0 **** -0.24
14382 H 4.935691518634258 143.27100482267912 135.80154462164802 H 0.0 **** 0.06
14383 H 4.361506324169454 141.83993420691658 136.69179483403104 H 0.0 **** 0.06
14384 H 4.437982764713809 141.8103948710506 134.91382861052927 H 0.0 **** 0.06
14385 H 3.2174583452696197 142.8118473924741 135.73517206886612 H 0.0 **** 0.06
14386 C 117.27165848455998 145.9460298721612 58.22738489328388 C 0.0 **** -0.24
14387 H 117.62145995331453 146.50601291862753 59.09498077242469 H 0.0 **** 0.06
14388 H 118.0697292435227 145.89108410740033 57.48591355182295 H 0.0 **** 0.06
14389 H 116.40676758831877 146.44779202204927 57.79439860389387 H 0.0 **** 0.06
14390 H 116.99077026611458 144.93844393104177 58.53426770097039 H 0.0 **** 0.06
14391 C 90.80930146301436 25.893588258416763 14.260053544573793 C 0.0 **** -0.24
14392 H 91.25269996458317 26.85838145431878 14.012846054286001 H 0.0 **** 0.06
14393 H 89.76615086787181 26.035379763086134 14.543871619245493 H 0.0 **** 0.06
14394 H 91.3544977839421 25.444700597019896 15.090005647107716 H 0.0 **** 0.06
14395 H 90.86367352000721 25.236363995220074 13.392170707462498 H 0.0 **** 0.06
14396 C 112.65913473825104 52.74795151224225 131.7816490123457 C 0.0 **** -0.24
14397 H 112.3450822645516 52.48018641021042 130.77290496249395 H 0.0 **** 0.06
14398 H 112.5231868923844 51.89142041933883 132.4432685394351 H 0.0 **** 0.06
14399 H 112.05703585452044 53.583159816762134 132.13893276764168 H 0.0 **** 0.06
14400 H 113.70949300574368 53.0354926319809 131.77073028109726 H 0.0 **** 0.06
14401 C 129.98624258605304 91.42289590455471 11.272580887709324 C 0.0 **** -0.24
14402 H 130.80168395676637 90.70643156650772 11.373812837692412 H 0.0 **** 0.06
14403 H 130.38042874814082 92.43602284128673 11.355862168118762 H 0.0 **** 0.06
14404 H 129.2528984510867 91.25231750047539 12.061639253394475 H 0.0 **** 0.06
14405 H 129.50971374763552 91.29653086297378 10.299937147464618 H 0.0 **** 0.06
14406 C 11.447408576323483 8.671006878261878 140.13134927190424 C 0.0 **** -0.24
14407 H 10.558319917613062 9.126119270125372 140.56791626775555 H 0.0 **** 0.06
14408 H 11.65481684571148 9.134019183213198 139.165552112358 H 0.0 **** 0.06
14409 H 11.279929385792116 7.6028637655652105 139.99427384832842 H 0.0 **** 0.06
14410 H 12.297452220099444 8.822890193581657 140.79679419442306 H 0.0 **** 0.06
14411 C 26.533524684098218 74.45067194924289 136.77196337676435 C 0.0 **** -0.24
14412 H 26.763367814474222 75.50809363674624 136.91001859744637 H 0.0 **** 0.06
14413 H 27.319348764992448 73.9820605280192 136.17993001187094 H 0.0 **** 0.06
14414 H 25.579226529350954 74.35263242340172 136.25338937960507 H 0.0 **** 0.06
14415 H 26.47037380637355 73.96300891986209 137.7441060448971 H 0.0 **** 0.06
14416 C 48.18022629325725 86.96579632226826 62.85457224112305 C 0.0 **** -0.24
14417 H 48.992911433499955 87.21722847001145 62.172667975543746 H 0.0 **** 0.06
14418 H 48.42821964660652 87.31307257742239 63.85762915593588 H 0.0 **** 0.06
14419 H 48.038834906458646 85.88482719035555 62.8689215214188 H 0.0 **** 0.06
14420 H 47.26227039998929 87.44813157066993 62.51954188609456 H 0.0 **** 0.06
14421 C 29.988087166571574 104.87456299340424 89.82606215498004 C 0.0 **** -0.24
14422 H 29.669335168138446 104.45010147201741 88.87290617498411 H 0.0 **** 0.06
14423 H 30.61755238956175 105.74549661858667 89.64255783577246 H 0.0 **** 0.06
14424 H 30.553147537230643 104.12850968024621 90.38387921120102 H 0.0 **** 0.06
14425 H 29.111571563902714 105.17278473599593 90.4014992666178 H 0.0 **** 0.06
14426 C 41.44645631324225 86.71519400121669 96.46529682609258 C 0.0 **** -0.24
14427 H 41.99627140253254 86.30026182300065 95.62136419839385 H 0.0 **** 0.06
14428 H 40.96954899817733 85.90669535818216 97.02042660050793 H 0.0 **** 0.06
14429 H 40.68466766465953 87.4038044140474 96.10052647673552 H 0.0 **** 0.06
14430 H 42.13573721422188 87.24859626528604 97.12082682218147 H 0.0 **** 0.06
14431 C 64.11848865257872 1.291058443045614 17.24258984013545 C 0.0 **** -0.24
14432 H 64.55753473779141 1.238596169171899 16.246651140545964 H 0.0 **** 0.06
14433 H 63.10985587140725 0.8772616246892824 17.2173546897115 H 0.0 **** 0.06
14434 H 64.07752977600099 2.330548880549827 17.566564594924955 H 0.0 **** 0.06
14435 H 64.72981089000127 0.7167234434631666 17.939366083231562 H 0.0 **** 0.06
14436 C 66.9784576723827 57.899078549505816 87.74423569684207 C 0.0 **** -0.24
14437 H 65.97199943258036 58.03451645299083 87.34784817509514 H 0.0 **** 0.06
14438 H 67.1229453437522 56.85446256184389 88.0215035288637 H 0.0 **** 0.06
14439 H 67.11075321380835 58.53038619252331 88.62257800041489 H 0.0 **** 0.06
14440 H 67.70821417673218 58.17897510847263 86.98407054873964 H 0.0 **** 0.06
14441 C 101.05289429168063 75.63824739000533 36.308630785522865 C 0.0 **** -0.24
14442 H 101.47194021674788 76.6364371888417 36.43272061493978 H 0.0 **** 0.06
14443 H 99.98618263920322 75.71628718198495 36.096186099138166 H 0.0 **** 0.06
14444 H 101.20093193393431 75.06634962631288 37.22475003565039 H 0.0 **** 0.06
14445 H 101.55313545814987 75.13470266419442 35.48093447596801 H 0.0 **** 0.06
14446 C 113.66417573317547 139.3951701748856 95.36889710483493 C 0.0 **** -0.24
14447 H 114.09358366439746 139.5195834539647 96.36351958073175 H 0.0 **** 0.06
14448 H 112.97444898644757 140.2146514985725 95.1668796663786 H 0.0 **** 0.06
14449 H 113.12686033653686 138.4476224871562 95.32112431982324 H 0.0 **** 0.06
14450 H 114.46128654746725 139.3992871270018 94.62564945948691 H 0.0 **** 0.06
14451 C 132.83058521155905 18.23012998871738 96.36312111992186 C 0.0 **** -0.24
14452 H 132.18479683590255 18.78250653015732 97.04472009076179 H 0.0 **** 0.06
14453 H 132.22681304405185 17.550053119829045 95.76180064758853 H 0.0 **** 0.06
14454 H 133.55930328072262 17.657957785720725 96.93750916328676 H 0.0 **** 0.06
14455 H 133.35109172167512 18.92884079372297 95.70918778154947 H 0.0 **** 0.06
14456 C 80.9096150601024 30.53706743130931 151.99624756316157 C 0.0 **** -0.24
14457 H 80.37036260811118 30.026322310251658 151.1983334747316 H 0.0 **** 0.06
14458 H 81.57875430574339 31.280093056303002 151.5629667717791 H 0.0 **** 0.06
14459 H 81.49027488325403 29.81137704369212 152.56448101512177 H 0.0 **** 0.06
14460 H 80.19711526534029 31.030236377803647 152.65775048478378 H 0.0 **** 0.06
14461 C 19.09043774498207 95.28671239063718 47.70336070657382 C 0.0 **** -0.24
14462 H 19.68314473853937 94.47613403956535 48.126801154106346 H 0.0 **** 0.06
14463 H 19.357349383932387 95.42300522714405 46.65625419313892 H 0.0 **** 0.06
14464 H 19.28931568439529 96.20683114599774 48.25292118104204 H 0.0 **** 0.06
14465 H 18.030900906651027 95.04034119405316 47.78022831580512 H 0.0 **** 0.06
14466 C 141.42459060360954 101.62745639473906 123.88182939354691 C 0.0 **** -0.24
14467 H 142.43263888593162 101.22956922114702 123.99703406847838 H 0.0 **** 0.06
14468 H 140.82617172740072 101.35910879817646 124.7522902357576 H 0.0 **** 0.06
14469 H 140.96827000898193 101.20903463239443 122.98429307673773 H 0.0 **** 0.06
14470 H 141.47084380132875 102.71300720209808 123.7926959513916 H 0.0 **** 0.06
14471 C 30.286869541444347 10.491866058850746 67.32194238012366 C 0.0 **** -0.24
14472 H 29.268111467536194 10.83499953068133 67.50414858580079 H 0.0 **** 0.06
14473 H 30.259246458682952 9.55553167774687 66.76383612563434 H 0.0 **** 0.06
14474 H 30.79292374766365 10.333677938551602 68.27448704654986 H 0.0 **** 0.06
14475 H 30.825195495315647 11.242968719817782 66.74434164093707 H 0.0 **** 0.06
14476 C 52.7193203849871 37.96588703214735 42.28724693515623 C 0.0 **** -0.24
14477 H 52.1811999595692 38.808440966604394 42.72063696752795 H 0.0 **** 0.06
14478 H 53.77101475187331 38.22952900759233 42.16771202135409 H 0.0 **** 0.06
14479 H 52.29303260433517 37.723296675380084 41.31419591127815 H 0.0 **** 0.06
14480 H 52.63445443277183 37.101945767475314 42.94661628609849 H 0.0 **** 0.06
14481 C 143.60314761996023 105.37484936183233 70.5407198186147 C 0.0 **** -0.24
14482 H 144.58536029106276 104.9110490577977 70.64250531102466 H 0.0 **** 0.06
14483 H 142.88693929997896 104.84928051370639 71.17177265050113 H 0.0 **** 0.06
14484 H 143.28216292761124 105.31959737755733 69.50057621665982 H 0.0 **** 0.06
14485 H 143.66183813176573 106.41920858290354 70.84761706401733 H 0.0 **** 0.06
14486 C 16.046734491738988 59.177688630926696 12.223469890399542 C 0.0 **** -0.24
14487 H 16.99264184929487 58.64439784751471 12.318004971114476 H 0.0 **** 0.06
14488 H 15.78103882141798 59.619667826328936 13.184330394409358 H 0.0 **** 0.06
14489 H 15.266375394177459 58.480221553002906 11.917221525264779 H 0.0 **** 0.06
14490 H 16.146191944512452 59.96452550316678 11.476502966379485 H 0.0 **** 0.06
14491 C 105.51928077731311 37.482815042183006 141.07403869748055 C 0.0 **** -0.24
14492 H 104.69275710730811 37.07364485804439 140.49316173080723 H 0.0 **** 0.06
14493 H 106.34843224382412 37.72181524323449 140.40824337318293 H 0.0 **** 0.06
14494 H 105.84377374062375 36.74733781899238 141.81063374534318 H 0.0 **** 0.06
14495 H 105.190685832434 38.38726338962823 141.58566180966432 H 0.0 **** 0.06
14496 C 14.107335653982837 44.46684749328409 79.34128156891148 C 0.0 **** -0.24
14497 H 13.4451334291415 45.332597206240365 79.31034052901848 H 0.0 **** 0.06
14498 H 13.535101915193408 43.56460301134359 79.12242737977544 H 0.0 **** 0.06
14499 H 14.55099849142443 44.3846388189142 80.33330459216182 H 0.0 **** 0.06
14500 H 14.89660856849219 44.585760705920336 78.5982138583775 H 0.0 **** 0.06
14501 C 151.02661727508197 131.92001740221517 47.928676867543345 C 0.0 **** -0.24
14502 H 150.07672439831717 131.38915115717256 47.87199178630988 H 0.0 **** 0.06
14503 H 151.67564487801957 131.59131684117318 47.11619189813274 H 0.0 **** 0.06
14504 H 151.50483821332486 131.7067100477918 48.885469649783204 H 0.0 **** 0.06
14505 H 150.84951336513538 132.99225792834804 47.84229316470612 H 0.0 **** 0.06
14506 C 15.602580644002614 137.85282822081436 109.73725206221303 C 0.0 **** -0.24
14507 H 16.140479182701256 138.52222779217445 110.4098924599898 H 0.0 **** 0.06
14508 H 16.13993067741177 136.90758889774125 109.65889235792247 H 0.0 **** 0.06
14509 H 15.529175131584964 138.3129222805358 108.75115176178684 H 0.0 **** 0.06
14510 H 14.602587500634115 137.67163724341245 110.1295123939455 H 0.0 **** 0.06
14511 C 41.50562065991463 15.873694961190608 150.46636317215058 C 0.0 **** -0.24
14512 H 41.86526658902626 14.918590171731068 150.85131689903525 H 0.0 **** 0.06
14513 H 42.356226211043634 16.498980643598117 150.1956388231992 H 0.0 **** 0.06
14514 H 40.91532613903381 16.3749575745897 151.23288245749188 H 0.0 **** 0.06
14515 H 40.88628383691422 15.699619157978844 149.58691325329195 H 0.0 **** 0.06
14516 C 41.87826622395434 139.37377060315418 72.05701844974945 C 0.0 **** -0.24
14517 H 42.01421667312404 138.41859287170436 71.54871471756398 H 0.0 **** 0.06
14518 H 42.73001576394181 140.02143353171556 71.84567708552211 H 0.0 **** 0.06
14519 H 41.80745782878758 139.20531858329923 73.13204114278602 H 0.0 **** 0.06
14520 H 40.963828323392335 139.8469127301448 71.70167148251905 H 0.0 **** 0.06
14521 C 69.3925213949505 99.04886497618831 4.042580057850927 C 0.0 **** -0.24
14522 H 68.62143449909671 99.37546172075247 4.740350963865552 H 0.0 **** 0.06
14523 H 69.14783346186107 98.05399625850897 3.6704326113405443 H 0.0 **** 0.06
14524 H 70.35497124705839 99.01988525671369 4.5526576048229686 H 0.0 **** 0.06
14525 H 69.4448275633955 99.74708903905314 3.2070078559227966 H 0.0 **** 0.06
14526 C 137.2827952457909 146.18474313537644 118.44517253157478 C 0.0 **** -0.24
14527 H 137.60278799721345 145.20452934360594 118.79948772138796 H 0.0 **** 0.06
14528 H 137.58892993494746 146.31202848019808 117.40683748797291 H 0.0 **** 0.06
14529 H 137.741540431111 146.96092685190388 119.057440735669 H 0.0 **** 0.06
14530 H 136.19722955451593 146.25971325445607 118.51631545705386 H 0.0 **** 0.06
14531 C 71.68808005922124 100.34935890940073 16.545482028881764 C 0.0 **** -0.24
14532 H 72.16381040723333 99.37007060634039 16.502800704692817 H 0.0 **** 0.06
14533 H 72.40511019672293 101.11474696245187 16.246670017322174 H 0.0 **** 0.06
14534 H 71.35176456080575 100.54541298382082 17.563770970227154 H 0.0 **** 0.06
14535 H 70.8331139836202 100.36854973352933 15.869688872204279 H 0.0 **** 0.06
14536 C 29.720349387269707 69.78754023458083 52.638011386926266 C 0.0 **** -0.24
14537 H 29.16087649887404 70.37984415676766 53.362686383597904 H 0.0 **** 0.06
14538 H 30.60007020767823 70.34463885182913 52.316465020965296 H 0.0 **** 0.06
14539 H 29.08769266303638 69.57620656247428 51.776350087013356 H 0.0 **** 0.06
14540 H 30.03182549569759 68.8499199232568 53.09935993812179 H 0.0 **** 0.06
14541 C 22.49369521024076 48.70101701688651 154.50143136953153 C 0.0 **** -0.24
14542 H 22.638191054085517 49.77626447944331 154.6132193966403 H 0.0 **** 0.06
14543 H 22.115005955348188 48.488554044794796 153.5022048842447 H 0.0 **** 0.06
14544 H 21.77634726765386 48.35212658421494 155.24410899756245 H 0.0 **** 0.06
14545 H 23.445309652057304 48.190206479210985 154.64688997277707 H 0.0 **** 0.06
14546 C 49.43390975990178 71.60385955580296 128.28697567656087 C 0.0 **** -0.24
14547 H 48.755388761193046 71.90430618674472 127.48801837088915 H 0.0 **** 0.06
14548 H 48.88147028181561 71.04191733088487 129.03917856598636 H 0.0 **** 0.06
14549 H 49.87173744748702 72.49164683414477 128.7442320191327 H 0.0 **** 0.06
14550 H 50.225871679043394 70.97891642463253 127.87479724707028 H 0.0 **** 0.06
14551 C 19.187944812981016 132.09948288611557 116.78257843642444 C 0.0 **** -0.24
14552 H 20.097983677059744 131.56899937922577 117.06369265224481 H 0.0 **** 0.06
14553 H 18.385640775239466 131.38048506105469 116.61752988973893 H 0.0 **** 0.06
14554 H 19.36394350401784 132.66465201952164 115.868356953243 H 0.0 **** 0.06
14555 H 18.904408761255553 132.78244414918487 117.58375688817762 H 0.0 **** 0.06
14556 C 123.13679581750046 145.83625611893927 105.08573107813065 C 0.0 **** -0.24
14557 H 123.98603424624241 146.51044144230073 104.97745416030263 H 0.0 **** 0.06
14558 H 122.97121652118011 145.626997992694 106.14277848436403 H 0.0 **** 0.06
14559 H 123.34317798833206 144.90509363443041 104.55762643631918 H 0.0 **** 0.06
14560 H 122.24652256798282 146.30379177264803 104.66394480928405 H 0.0 **** 0.06
14561 C 1.0770409151269007 58.617252422722814 139.60128088709934 C 0.0 **** -0.24
14562 H 0.2818774883152173 59.16151664232173 139.09084060058905 H 0.0 **** 0.06
14563 H 2.0450196550465876 58.98017862308194 139.25522537907895 H 0.0 **** 0.06
14564 H 0.987708119085255 57.552870949490895 139.38067388501435 H 0.0 **** 0.06
14565 H 0.9920944052623781 58.77405908360555 140.676737740118 H 0.0 **** 0.06
14566 C 140.92066868113187 97.07190192445813 129.9453860684843 C 0.0 **** -0.24
14567 H 141.280077073003 96.57713292397 130.84790749678007 H 0.0 **** 0.06
14568 H 139.87530643523726 97.35046925175436 130.0773204456662 H 0.0 **** 0.06
14569 H 141.01201503175898 96.39122484377674 129.0984915927935 H 0.0 **** 0.06
14570 H 141.5156426831733 97.96557922188435 129.75972653023524 H 0.0 **** 0.06
14571 C 128.61298857649572 38.74319484650249 116.9333565361938 C 0.0 **** -0.24
14572 H 127.98591977172312 37.87349873699617 116.74032280480077 H 0.0 **** 0.06
14573 H 129.34054974239282 38.50135144097641 117.70843988909905 H 0.0 **** 0.06
14574 H 127.98963470689877 39.573808859860435 117.26648418358155 H 0.0 **** 0.06
14575 H 129.13529453552337 39.02435784053722 116.0189761328678 H 0.0 **** 0.06
14576 C 102.71695172213037 41.67628113665825 7.9422497256772715 C 0.0 **** -0.24
14577 H 103.27895911494682 40.76628024099034 8.15247278066937 H 0.0 **** 0.06
14578 H 101.68085422117531 41.419711985545405 7.7209582514259125 H 0.0 **** 0.06
14579 H 103.15709441181497 42.18420454962745 7.083973022958617 H 0.0 **** 0.06
14580 H 102.75183661626357 42.33428300717111 8.810754916265779 H 0.0 **** 0.06
14581 C 109.41136040266387 30.918543744857047 130.7588230764411 C 0.0 **** -0.24
14582 H 109.32429625805013 31.592075788136697 129.90693220622632 H 0.0 **** 0.06
14583 H 108.75878906821326 30.057495802202872 130.6101327742475 H 0.0 **** 0.06
14584 H 109.11831600022815 31.44420882206579 131.66841470084242 H 0.0 **** 0.06
14585 H 110.44341560360299 30.5813781239762 130.85172117171342 H 0.0 **** 0.06
14586 C 120.90755497833639 51.52525000122357 129.02392392522952 C 0.0 **** -0.24
14587 H 121.65127381939242 51.930113503414816 129.71023835734837 H 0.0 **** 0.06
14588 H 121.41108558592232 51.015064763926276 128.2027031106615 H 0.0 **** 0.06
14589 H 120.29861307333375 52.338848143019234 128.62840334873556 H 0.0 **** 0.06
14590 H 120.27054630831073 50.81867688286553 129.5549926777084 H 0.0 **** 0.06
14591 C 25.500923941920746 91.75402483036156 48.440635047183704 C 0.0 **** -0.24
14592 H 24.633192799829942 91.16825063692063 48.744610281410175 H 0.0 **** 0.06
14593 H 26.207502132711056 91.11107467025991 47.9154093471946 H 0.0 **** 0.06
14594 H 25.980430598770226 92.17621103940074 49.32416029538828 H 0.0 **** 0.06
14595 H 25.181046701363186 92.56024156574603 47.780721577438726 H 0.0 **** 0.06
14596 C 70.87752232379137 132.5475223277099 41.22310568785542 C 0.0 **** -0.24
14597 H 70.70949325512004 131.51933143393046 41.54154618023853 H 0.0 **** 0.06
14598 H 71.93872776273454 132.78555899932843 41.30936866145652 H 0.0 **** 0.06
14599 H 70.30154468168672 133.22318112048342 41.855777511803296 H 0.0 **** 0.06
14600 H 70.5621429232778 132.66309666750755 40.186455768148676 H 0.0 **** 0.06
14601 C 72.30036104101366 3.848627093045714 95.48565793451485 C 0.0 **** -0.24
14602 H 72.74883842129273 4.217515211414572 96.40739066380226 H 0.0 **** 0.06
14603 H 71.21504390956078 3.924680789153207 95.55367438663706 H 0.0 **** 0.06
14604 H 72.58311452165087 2.80618197424052 95.33663666478716 H 0.0 **** 0.06
14605 H 72.65523708008615 4.444996147552196 94.64522970282738 H 0.0 **** 0.06
14606 C 111.33296585673168 53.73933959219498 42.333126265267325 C 0.0 **** -0.24
14607 H 111.99445694267553 54.050344753816205 43.14203294760773 H 0.0 **** 0.06
14608 H 110.32513894913643 54.108838808347045 42.52644458812469 H 0.0 **** 0.06
14609 H 111.31649466247649 52.651397127092864 42.274274425111614 H 0.0 **** 0.06
14610 H 111.69559576249452 54.148440911628626 41.39020297644434 H 0.0 **** 0.06
14611 C 9.36827303501235 29.132139017219316 101.40512488983704 C 0.0 **** -0.24
14612 H 8.48509463439936 29.676838763339532 101.73932360276602 H 0.0 **** 0.06
14613 H 9.276030829490793 28.083578424979493 101.68847579708002 H 0.0 **** 0.06
14614 H 10.256062653351904 29.558277200374675 101.87328462826649 H 0.0 **** 0.06
14615 H 9.456001109668762 29.209794675790846 100.32164852189881 H 0.0 **** 0.06
14616 C 132.346655006224 11.555079999454392 33.99613921964475 C 0.0 **** -0.24
14617 H 132.19376231532232 10.813038437056434 33.21303974450626 H 0.0 **** 0.06
14618 H 132.41102479152084 11.055146583164856 34.96355476731288 H 0.0 **** 0.06
14619 H 131.51018542531753 12.254099708144224 34.00297781824936 H 0.0 **** 0.06
14620 H 133.27318906774775 12.097478809331676 33.806505752429715 H 0.0 **** 0.06
14621 C 111.6264865602352 117.48576559188812 78.40033222292584 C 0.0 **** -0.24
14622 H 112.19947737404551 118.37053595489583 78.67799858286878 H 0.0 **** 0.06
14623 H 111.30363042302959 116.96444819063076 79.30206876236167 H 0.0 **** 0.06
14624 H 112.24999029756658 116.82243798119823 77.80100073132417 H 0.0 **** 0.06
14625 H 110.75310249504783 117.78557070387289 77.82165025259803 H 0.0 **** 0.06
14626 C 52.48934381018367 11.24563918901454 21.142899183701957 C 0.0 **** -0.24
14627 H 53.15844405563871 10.475481483585149 20.757445316135403 H 0.0 **** 0.06
14628 H 51.74328963973055 11.489846820693181 20.386241731475636 H 0.0 **** 0.06
14629 H 53.06562620621344 12.138496304886736 21.3861962332303 H 0.0 **** 0.06
14630 H 51.99148438290855 10.878330959120774 22.04007604089651 H 0.0 **** 0.06
14631 C 11.35308091353491 13.926338585041385 106.39617670983087 C 0.0 **** -0.24
14632 H 11.189238551231057 14.962357764651564 106.69249513152779 H 0.0 **** 0.06
14633 H 10.592943887067634 13.630410746983102 105.67249023122223 H 0.0 **** 0.06
14634 H 11.289098120750737 13.282942586754679 107.27350187832569 H 0.0 **** 0.06
14635 H 12.341043095090527 13.829643241776303 105.94621959824762 H 0.0 **** 0.06
14636 C 43.20325220141012 109.7015158105658 10.214692573542607 C 0.0 **** -0.24
14637 H 43.75967045390439 110.51371452386694 10.682273200682943 H 0.0 **** 0.06
14638 H 43.49780885515702 108.75326543661139 10.66625357050134 H 0.0 **** 0.06
14639 H 43.4222548030192 109.67973084505378 9.147877268200602 H 0.0 **** 0.06
14640 H 42.13568386547581 109.8601106012466 10.364269253141742 H 0.0 **** 0.06
14641 C 42.81135133943263 87.52131195623699 13.060763119705427 C 0.0 **** -0.24
14642 H 42.84505813648627 88.52006789966693 13.496406436174908 H 0.0 **** 0.06
14643 H 42.19137444986842 86.87561682242206 13.682474557924138 H 0.0 **** 0.06
14644 H 43.82099943795595 87.11473731601856 13.007655389972427 H 0.0 **** 0.06
14645 H 42.388280435728916 87.57694466044205 12.058617607486212 H 0.0 **** 0.06
14646 C 13.865649625871868 14.600150498441849 130.7797800183109 C 0.0 **** -0.24
14647 H 14.56551177852974 14.376332641678289 131.5843707081489 H 0.0 **** 0.06
14648 H 14.285880028313876 14.26808851129158 129.8295979469268 H 0.0 **** 0.06
14649 H 13.68791145608764 15.674941473460478 130.74272363820535 H 0.0 **** 0.06
14650 H 12.924476649852487 14.081935172931423 130.9627744667806 H 0.0 **** 0.06
14651 C 19.65347143682734 156.76187914536254 70.97956173066385 C 0.0 **** -0.24
14652 H 19.209309535227177 157.4402485502853 71.70663171449382 H 0.0 **** 0.06
14653 H 20.23188737219901 157.33471843832604 70.25477016134977 H 0.0 **** 0.06
14654 H 18.86425355560501 156.214025639184 70.46383372920846 H 0.0 **** 0.06
14655 H 20.308651875797374 156.05764950009484 71.4925772074389 H 0.0 **** 0.06
14656 C 131.35876845426648 146.89286796401618 3.166231569200388 C 0.0 **** -0.24
14657 H 131.76444850841216 145.89743111769548 3.3477855845217057 H 0.0 **** 0.06
14658 H 131.16784559536347 147.01746024147351 2.1001382752867777 H 0.0 **** 0.06
14659 H 132.078549773827 147.64315656713353 3.4963324573920787 H 0.0 **** 0.06
14660 H 130.4283832407605 147.0129691192845 3.719427440302219 H 0.0 **** 0.06
14661 C 86.4634848836468 90.68375363004881 86.79627376752998 C 0.0 **** -0.24
14662 H 86.69950554203086 91.61477623824969 87.31103565707859 H 0.0 **** 0.06
14663 H 86.73459846020683 90.7718885119098 85.74363784677108 H 0.0 **** 0.06
14664 H 85.39483271725243 90.48263707063799 86.88069175341214 H 0.0 **** 0.06
14665 H 87.02399053101317 89.86598412604647 87.24878024790115 H 0.0 **** 0.06
14666 C 47.9994124970396 29.434947178806368 21.94390120558586 C 0.0 **** -0.24
14667 H 47.93911238969275 28.82995330866001 21.03875203955917 H 0.0 **** 0.06
14668 H 47.13592079880158 29.22688684553418 22.576838565757328 H 0.0 **** 0.06
14669 H 48.00797067046847 30.490685305826844 21.674961808109288 H 0.0 **** 0.06
14670 H 48.913746062137704 29.188959993051412 22.483542841385514 H 0.0 **** 0.06
14671 C 83.04169192748094 128.1185347861363 6.260296166785842 C 0.0 **** -0.24
14672 H 84.07912230809944 128.44892243208932 6.31443384184923 H 0.0 **** 0.06
14673 H 82.5992848559975 128.4648499963352 5.327349028673545 H 0.0 **** 0.06
14674 H 82.48568020656722 128.53099195707432 7.102811894817499 H 0.0 **** 0.06
14675 H 83.00471667824124 127.02964475987635 6.299717341458745 H 0.0 **** 0.06
14676 C 87.67429578728958 12.287228079060469 127.34132456763786 C 0.0 **** -0.24
14677 H 87.98194415976741 13.331250047977733 127.38703269999519 H 0.0 **** 0.06
14678 H 88.52041121824139 11.647706957304848 127.59609728774939 H 0.0 **** 0.06
14679 H 87.33267374041884 12.052974806214507 126.3327545528017 H 0.0 **** 0.06
14680 H 86.86317589569887 12.115820881435553 128.0486319605916 H 0.0 **** 0.06
14681 C 61.71424289518637 154.4164450978703 100.75450338683599 C 0.0 **** -0.24
14682 H 62.60253094312577 154.46909873754387 100.12404906795642 H 0.0 **** 0.06
14683 H 60.96021637971103 155.10687477338502 100.37778264440574 H 0.0 **** 0.06
14684 H 61.97755345370638 154.68741780150324 101.77649212747777 H 0.0 **** 0.06
14685 H 61.31909554811938 153.40076925868522 100.73898466007888 H 0.0 **** 0.06
14686 C 29.910602386064895 34.75492641383582 73.05717660771188 C 0.0 **** -0.24
14687 H 30.81280410340959 34.44926629139434 73.58776745624021 H 0.0 **** 0.06
14688 H 29.054694218794786 34.69276464156107 73.72946211579233 H 0.0 **** 0.06
14689 H 29.75063871208704 34.09680020328278 72.20302252827452 H 0.0 **** 0.06
14690 H 30.025190664018922 35.78102321846754 72.7080870238724 H 0.0 **** 0.06
14691 C 104.11099357446197 96.42658034127257 78.10769340039329 C 0.0 **** -0.24
14692 H 104.51406723992748 95.54089559614894 77.61650115094079 H 0.0 **** 0.06
14693 H 104.59525027791956 97.31676269785059 77.70480442613592 H 0.0 **** 0.06
14694 H 104.2977637524135 96.36442500477989 79.17949994392134 H 0.0 **** 0.06
14695 H 103.03718997231299 96.48330116856805 77.92795954648358 H 0.0 **** 0.06
14696 C 127.97707841487687 111.8411778951167 99.96264019802032 C 0.0 **** -0.24
14697 H 127.51709267721452 111.2594041350418 100.76190743085198 H 0.0 **** 0.06
14698 H 128.85681480952184 111.31512119472579 99.59164706915487 H 0.0 **** 0.06
14699 H 128.2722732700338 112.81771492850929 100.3484175163693 H 0.0 **** 0.06
14700 H 127.26166850747234 111.97175230270479 99.15146412628644 H 0.0 **** 0.06
14701 C 1.9326284480010258 106.89760985646426 29.744570173840188 C 0.0 **** -0.24
14702 H 2.221444171613406 107.73410978576105 29.10909792397456 H 0.0 **** 0.06
14703 H 2.8221936416442155 106.34052730605877 30.038706999162912 H 0.0 **** 0.06
14704 H 1.2574081601692448 106.24141110764874 29.19605908677614 H 0.0 **** 0.06
14705 H 1.4294678185773293 107.27439122638863 30.634416685446958 H 0.0 **** 0.06
14706 C 2.4376346379571174 137.0977586869363 59.2221955932133 C 0.0 **** -0.24
14707 H 3.1862685683809886 136.9935546361501 60.00781473651044 H 0.0 **** 0.06
14708 H 1.4485925305610827 137.18170875395336 59.6717728872723 H 0.0 **** 0.06
14709 H 2.4689634668920846 136.22405169289814 58.5712560699173 H 0.0 **** 0.06
14710 H 2.647615538464372 137.99389328547932 58.63725840616448 H 0.0 **** 0.06
14711 C 109.22389297235792 70.33579882121296 152.78520016906066 C 0.0 **** -0.24
14712 H 108.49091239525806 71.02961258264367 152.37390271053002 H 0.0 **** 0.06
14713 H 110.21771731467284 70.7797729781359 152.72367122131456 H 0.0 **** 0.06
14714 H 109.20408737465853 69.40722889429713 152.21404754101437 H 0.0 **** 0.06
14715 H 108.9820034622707 70.12767337948111 153.82742372233452 H 0.0 **** 0.06
14716 C 97.01292794215448 12.905658171119967 83.7311539512968 C 0.0 **** -0.24
14717 H 97.56879582131859 13.770481391173348 84.09408147442421 H 0.0 **** 0.06
14718 H 97.59023658168138 11.999382032244029 83.91588074102589 H 0.0 **** 0.06
14719 H 96.83590148117509 13.01158254629945 82.6603550137571 H 0.0 **** 0.06
14720 H 96.05851260231876 12.841926802045634 84.25273549568657 H 0.0 **** 0.06
14721 C 55.83032402125744 4.687346220265567 45.0468850259231 C 0.0 **** -0.24
14722 H 54.853479000212076 4.361519710349796 45.40405523285976 H 0.0 **** 0.06
14723 H 56.356072026433765 3.8401667784801816 44.60423870745687 H 0.0 **** 0.06
14724 H 56.41076282568349 5.07860490686852 45.88268351848676 H 0.0 **** 0.06
14725 H 55.70072422987295 5.467735308376234 44.296860730298064 H 0.0 **** 0.06
14726 C 97.0506609683535 85.52389199940065 32.033714383031196 C 0.0 **** -0.24
14727 H 97.27774797763664 86.3519708278595 32.705301772721135 H 0.0 **** 0.06
14728 H 97.68737584287624 85.58678070950354 31.15132680071642 H 0.0 **** 0.06
14729 H 96.00462264445179 85.5775122256263 31.73184459254179 H 0.0 **** 0.06
14730 H 97.23344665844627 84.58005167021189 32.54784715871986 H 0.0 **** 0.06
14731 C 96.52335757997537 82.46268575000914 68.39151139433108 C 0.0 **** -0.24
14732 H 96.76178553124976 82.45640720412189 67.32786278349943 H 0.0 **** 0.06
14733 H 95.94401400774274 83.35438923639427 68.62752312244027 H 0.0 **** 0.06
14734 H 97.4473719308786 82.46463760710918 68.97100116117434 H 0.0 **** 0.06
14735 H 95.9423832622785 81.57440011402522 68.63884544152504 H 0.0 **** 0.06
14736 C 1.0432698392214093 126.74114683913518 146.90649700799432 C 0.0 **** -0.24
14737 H 0.4402547857182526 127.12643201668033 147.728685457859 H 0.0 **** 0.06
14738 H 0.7505865894274848 125.71385687372742 146.691798428173 H 0.0 **** 0.06
14739 H 2.0959029145057855 126.76912158019923 147.1849276752616 H 0.0 **** 0.06
14740 H 0.8852682518365214 127.35763214350732 146.02148963854918 H 0.0 **** 0.06
14741 C 3.0472663519235255 106.3319837791117 94.51431087987953 C 0.0 **** -0.24
14742 H 2.317050978643948 106.50225178861983 93.72302016681084 H 0.0 **** 0.06
14743 H 3.53612157876006 107.273877732635 94.7656315072669 H 0.0 **** 0.06
14744 H 3.7934390231477835 105.61464202541028 94.1703459470161 H 0.0 **** 0.06
14745 H 2.5422487842132284 105.93638840792111 95.39553345637256 H 0.0 **** 0.06
14746 C 69.4011919687826 18.10068713573518 26.654326196530405 C 0.0 **** -0.24
14747 H 70.48332803072425 18.22683425041054 26.629666479161358 H 0.0 **** 0.06
14748 H 69.06926193931528 17.63167363313091 25.728067344413603 H 0.0 **** 0.06
14749 H 68.92429111123512 19.07449395353806 26.760620551624243 H 0.0 **** 0.06
14750 H 69.12855580075303 17.46915274727003 27.500045722778623 H 0.0 **** 0.06
14751 C 133.21515862560466 127.8942141503212 109.6301460175792 C 0.0 **** -0.24
14752 H 133.55669190303084 128.22955708144656 108.65000528049461 H 0.0 **** 0.06
14753 H 133.80792839724126 127.03534307505163 109.94549369436248 H 0.0 **** 0.06
14754 H 132.16471808549818 127.6087739615374 109.57118628249464 H 0.0 **** 0.06
14755 H 133.33352822708827 128.70252237032662 110.35175819169763 H 0.0 **** 0.06
14756 C 79.64050042066071 46.22531349153631 99.0309929093294 C 0.0 **** -0.24
14757 H 79.18560973235564 45.99263597037361 98.06821032688558 H 0.0 **** 0.06
14758 H 80.69210177922359 45.93757177450183 99.01387608342068 H 0.0 **** 0.06
14759 H 79.12549790652096 45.675698235014764 99.81874486479286 H 0.0 **** 0.06
14760 H 79.55867554643231 47.29577291046448 99.22179653135187 H 0.0 **** 0.06
14761 C 100.17000742173457 0.44739143336201437 146.57148904744517 C 0.0 **** -0.24
14762 H 99.0841121703703 0.39137051994376293 146.49772035568498 H 0.0 **** 0.06
14763 H 100.48622928454978 0.0906048134272055 147.55217031194252 H 0.0 **** 0.06
14764 H 100.4903461421373 1.480888619245178 146.4396734859219 H 0.0 **** 0.06
14765 H 100.61934208988066 -0.17329821916811738 145.7963920362313 H 0.0 **** 0.06
14766 C 16.119402675906684 47.02147617003547 99.6785400997926 C 0.0 **** -0.24
14767 H 15.387009870707004 46.215432507948634 99.66059545540696 H 0.0 **** 0.06
14768 H 17.036886531883454 46.6900497749985 99.19179108421781 H 0.0 **** 0.06
14769 H 16.33307226684272 47.29583689808243 100.71094269808606 H 0.0 **** 0.06
14770 H 15.719639387829886 47.886481181170154 99.14873321418872 H 0.0 **** 0.06
14771 C 114.35074506256105 43.08221239583939 115.68766837797841 C 0.0 **** -0.24
14772 H 115.25922474596986 42.7022479681343 116.15483469173842 H 0.0 **** 0.06
14773 H 114.53970877787667 44.0765572917347 115.28269723819233 H 0.0 **** 0.06
14774 H 113.55576655146412 43.13787490855427 116.43123378775658 H 0.0 **** 0.06
14775 H 114.04919742213595 42.41321289998008 114.88294215111733 H 0.0 **** 0.06
14776 C 107.9414036561205 108.63339625998277 56.028253813871515 C 0.0 **** -0.24
14777 H 108.80147652883731 108.60750154178159 55.358901291743095 H 0.0 **** 0.06
14778 H 107.4673298946209 109.6133968148912 55.97305730056428 H 0.0 **** 0.06
14779 H 108.27135023878866 108.44560390489958 57.04955539776209 H 0.0 **** 0.06
14780 H 107.22703543695347 107.86585552024648 55.729263922352445 H 0.0 **** 0.06
14781 C 26.272244013701524 36.08264715153341 118.000916675771 C 0.0 **** -0.24
14782 H 26.148833703872697 35.770465861390335 119.03788215482724 H 0.0 **** 0.06
14783 H 26.432411422236257 35.20429638904334 117.37483198183337 H 0.0 **** 0.06
14784 H 27.132308059368512 36.747377469373774 117.92276874336501 H 0.0 **** 0.06
14785 H 25.376734060522324 36.60739014177976 117.66996147120581 H 0.0 **** 0.06
14786 C 28.991841564401042 97.90271390272879 156.25325066014568 C 0.0 **** -0.24
14787 H 30.01455510097238 97.83503774883764 155.88386117115516 H 0.0 **** 0.06
14788 H 29.00536795113473 98.07525170807838 157.32968571715662 H 0.0 **** 0.06
14789 H 28.466822336958288 96.97024561055416 156.0412237021353 H 0.0 **** 0.06
14790 H 28.48067741228507 98.72793008719273 155.75770033874062 H 0.0 **** 0.06
14791 C 123.25177028139628 61.379328985838015 140.452362632501 C 0.0 **** -0.24
14792 H 122.31289559665983 61.0990114747986 140.9296173671626 H 0.0 **** 0.06
14793 H 123.10268241789474 62.28322461431992 139.8617746449054 H 0.0 **** 0.06
14794 H 123.58490510283055 60.56991133762648 139.80266351966822 H 0.0 **** 0.06
14795 H 124.00628460740081 61.56481694464384 141.2175809396764 H 0.0 **** 0.06
14796 C 102.58085751928049 68.1994710552006 84.57498626282349 C 0.0 **** -0.24
14797 H 101.83808945901488 68.0573717378109 83.79005119479059 H 0.0 **** 0.06
14798 H 102.19244748477153 67.81159210127038 85.51732764092719 H 0.0 **** 0.06
14799 H 102.79871079695666 69.26231627284051 84.680743861853 H 0.0 **** 0.06
14800 H 103.49414269811855 67.66586740915585 84.3111472723401 H 0.0 **** 0.06
14801 C 147.67865215528775 110.32758542484805 26.17171816742377 C 0.0 **** -0.24
14802 H 148.53140291249136 109.93669914853535 25.615686000930317 H 0.0 **** 0.06
14803 H 146.85363204480686 109.61652109255027 26.11836990856719 H 0.0 **** 0.06
14804 H 147.36796152174236 111.27831729676728 25.73920933644147 H 0.0 **** 0.06
14805 H 147.96313715863056 110.47728215349349 27.213009110401046 H 0.0 **** 0.06
14806 C 20.2608742879454 44.46957393737377 84.35860974980767 C 0.0 **** -0.24
14807 H 21.343859074935608 44.456606039276735 84.23554286543214 H 0.0 **** 0.06
14808 H 19.94242882476368 45.46718914030397 84.66195127857304 H 0.0 **** 0.06
14809 H 19.97324082950888 43.747853583122804 85.1227343308168 H 0.0 **** 0.06
14810 H 19.78521891208868 44.20726004590561 83.41318070299465 H 0.0 **** 0.06
14811 C 33.41543579676846 37.95894111922064 22.29324627560728 C 0.0 **** -0.24
14812 H 33.31171809865825 36.933653864505345 21.93895072698467 H 0.0 **** 0.06
14813 H 32.87589512851369 38.63016355365505 21.624620818826344 H 0.0 **** 0.06
14814 H 34.47100377274319 38.2313925205915 22.308185209741907 H 0.0 **** 0.06
14815 H 33.00516080579786 38.039287577980986 23.29972654816472 H 0.0 **** 0.06
14816 C 135.6683348069318 117.58029980756874 90.99829487487102 C 0.0 **** -0.24
14817 H 135.0785674053576 117.75455556419746 90.09862049033218 H 0.0 **** 0.06
14818 H 135.77121447716897 118.51427059300607 91.55173687876139 H 0.0 **** 0.06
14819 H 136.65582542125847 117.21183197113243 90.71945006252183 H 0.0 **** 0.06
14820 H 135.16654940073622 116.8410929158382 91.62282690240056 H 0.0 **** 0.06
14821 C 119.9534924036322 16.204633732851335 124.13843114679456 C 0.0 **** -0.24
14822 H 120.7548945923258 15.847710276087582 123.49170025803504 H 0.0 **** 0.06
14823 H 119.34459141480454 16.92789725799463 123.59593125509626 H 0.0 **** 0.06
14824 H 120.38356485065225 16.67956140001297 125.02043176100061 H 0.0 **** 0.06
14825 H 119.33214668341071 15.362375608513787 124.44494617404796 H 0.0 **** 0.06
14826 C 49.291303204276005 10.031676740123572 101.45203674594565 C 0.0 **** -0.24
14827 H 50.068976219134925 9.820258225061934 100.71857472037705 H 0.0 **** 0.06
14828 H 48.52139289859036 9.26129767082466 101.3980282617044 H 0.0 **** 0.06
14829 H 48.847172896961865 11.004572010379519 101.24016708637528 H 0.0 **** 0.06
14830 H 49.72611051485336 10.041259903000594 102.45105746999864 H 0.0 **** 0.06
14831 C 73.51134450095071 114.95684589162398 148.1348603991162 C 0.0 **** -0.24
14832 H 72.74085456567238 114.2708946828284 147.78391760435255 H 0.0 **** 0.06
14833 H 73.09560766806337 115.607064301839 148.90543850579218 H 0.0 **** 0.06
14834 H 73.86478688190584 115.56267666071439 147.29956387407046 H 0.0 **** 0.06
14835 H 74.34382439120725 114.38843971857516 148.54806287356848 H 0.0 **** 0.06
14836 C 71.23676310206628 154.35841198357474 127.4697911290282 C 0.0 **** -0.24
14837 H 70.46177429056131 153.6117009571483 127.29753652638708 H 0.0 **** 0.06
14838 H 71.27287905362826 154.6060714397097 128.531442746239 H 0.0 **** 0.06
14839 H 71.01088259480214 155.2562652395656 126.89473444478735 H 0.0 **** 0.06
14840 H 72.20095223354964 153.9585239022175 127.15757249090616 H 0.0 **** 0.06
14841 C 70.867827611753 126.4362279731717 133.18000893187627 C 0.0 **** -0.24
14842 H 70.82708555772379 125.34855166907715 133.1160320916422 H 0.0 **** 0.06
14843 H 70.30411225629192 126.86979366774233 132.35439253510887 H 0.0 **** 0.06
14844 H 71.90581709864654 126.76429687962298 133.12408674241192 H 0.0 **** 0.06
14845 H 70.43563731825563 126.76073560203434 134.12644435563374 H 0.0 **** 0.06
14846 C 122.15551636072495 102.66131288089561 99.8518880810309 C 0.0 **** -0.24
14847 H 121.55479531707466 101.75629538394277 99.76810149946768 H 0.0 **** 0.06
14848 H 121.91377043096249 103.17330266514013 100.78379208209695 H 0.0 **** 0.06
14849 H 121.94160132645258 103.31870131204876 99.00934403475297 H 0.0 **** 0.06
14850 H 123.21273409700915 102.39728227475511 99.84587582727009 H 0.0 **** 0.06
14851 C 147.6043571963276 15.474038915086936 14.24606351804735 C 0.0 **** -0.24
14852 H 147.21767624197355 14.527316836581726 14.62241281755837 H 0.0 **** 0.06
14853 H 148.54515509399087 15.706147618918962 14.746033080967777 H 0.0 **** 0.06
14854 H 146.88179518718707 16.266438355714527 14.444557806406408 H 0.0 **** 0.06
14855 H 147.77171848958477 15.395769742262651 13.172019854007317 H 0.0 **** 0.06
14856 C 71.37061771971577 88.23194779786506 156.37778357455505 C 0.0 **** -0.24
14857 H 71.23305961048084 89.31115526471446 156.30812230186154 H 0.0 **** 0.06
14858 H 70.7140822925848 87.83131402770445 157.14934137884543 H 0.0 **** 0.06
14859 H 72.40768611126279 88.01525447979046 156.63304189987872 H 0.0 **** 0.06
14860 H 71.12939427046257 87.77266314423458 155.41858048796473 H 0.0 **** 0.06
14861 C 149.14961400791526 73.59610698394663 96.12141486274218 C 0.0 **** -0.24
14862 H 148.77182632592232 73.59317052550395 97.14415604999422 H 0.0 **** 0.06
14863 H 148.74765571082133 72.73705540325005 95.58339570923421 H 0.0 **** 0.06
14864 H 150.23793602853948 73.53912794428157 96.13584514123147 H 0.0 **** 0.06
14865 H 148.84068041550375 74.51471069752235 95.62312287349063 H 0.0 **** 0.06
14866 C 156.30823186312685 59.00978515524176 156.69940383905535 C 0.0 **** -0.24
14867 H 157.14884788802442 58.36535947411545 156.4413342266506 H 0.0 **** 0.06
14868 H 156.5458475055236 59.57019792387429 157.60469443909122 H 0.0 **** 0.06
14869 H 155.42220025737032 58.3991663982337 156.8717911434455 H 0.0 **** 0.06
14870 H 156.11793555088576 59.70327222315893 155.8815465142598 H 0.0 **** 0.06
14871 C 147.82090780946334 30.981775967460294 21.482087885064658 C 0.0 **** -0.24
14872 H 148.51801806509752 31.251014915105458 20.688152513718677 H 0.0 **** 0.06
14873 H 147.39683497847034 29.998838012753282 21.274781563716658 H 0.0 **** 0.06
14874 H 147.02064853853278 31.72096113305676 21.529056928615546 H 0.0 **** 0.06
14875 H 148.34889201626612 30.956951601012292 22.434953077163783 H 0.0 **** 0.06
14876 C 26.253943961523362 102.28432768807704 152.85875245411253 C 0.0 **** -0.24
14877 H 25.292100736850685 101.88512540007872 153.1799436765392 H 0.0 **** 0.06
14878 H 26.091752442927927 103.11589088361092 152.1723209111688 H 0.0 **** 0.06
14879 H 26.821823077558577 101.50204479624233 152.35458137665944 H 0.0 **** 0.06
14880 H 26.81097268042066 102.63386266768293 153.72846045090643 H 0.0 **** 0.06
14881 C 147.85807740976554 113.72936155886221 47.85363831370506 C 0.0 **** -0.24
14882 H 148.80003084428057 113.89676489005093 48.37490838558722 H 0.0 **** 0.06
14883 H 147.09700462326526 114.39904655495754 48.2551590698568 H 0.0 **** 0.06
14884 H 147.54409154015795 112.69497123478494 47.99504982917688 H 0.0 **** 0.06
14885 H 147.9911826313584 113.92666355565522 46.78943597019929 H 0.0 **** 0.06
14886 C 77.73277588959805 64.62272521184883 39.248166787149444 C 0.0 **** -0.24
14887 H 76.80889037928522 65.11550000179295 39.550830359225245 H 0.0 **** 0.06
14888 H 77.94949547636887 64.86553812851662 38.20795614753496 H 0.0 **** 0.06
14889 H 77.62086556248677 63.54373882379912 39.35466149746691 H 0.0 **** 0.06
14890 H 78.5518290345332 64.96748340668807 39.88029212483923 H 0.0 **** 0.06
14891 C 119.36609238741956 115.23100726540797 44.568925727632546 C 0.0 **** -0.24
14892 H 118.78141600952073 115.0958579026237 43.65883349990807 H 0.0 **** 0.06
14893 H 119.88469543949039 114.30280053447835 44.80792948294055 H 0.0 **** 0.06
14894 H 118.70288352940595 115.4999914265078 45.39065389503418 H 0.0 **** 0.06
14895 H 120.09603829221298 116.02608196490475 44.41626966066903 H 0.0 **** 0.06
14896 C 18.21467863206945 2.7155942567184397 85.18856221705695 C 0.0 **** -0.24
14897 H 17.35187565099605 2.79219770354376 84.52748765750746 H 0.0 **** 0.06
14898 H 18.013551677243584 3.2589563371078043 86.11250069419536 H 0.0 **** 0.06
14899 H 19.087324761903233 3.1450601778557292 84.69682304372874 H 0.0 **** 0.06
14900 H 18.405855305334256 1.6671052719643633 85.41712074344909 H 0.0 **** 0.06
14901 C 130.14776563119256 35.36245097825457 67.00565858421717 C 0.0 **** -0.24
14902 H 129.70918420042955 35.98437636069059 66.2247649643187 H 0.0 **** 0.06
14903 H 131.20299834390613 35.61075997250873 67.1179672044936 H 0.0 **** 0.06
14904 H 130.04807600978216 34.312357555222434 66.73266513617172 H 0.0 **** 0.06
14905 H 129.62953401439506 35.54414461492473 67.94738417868503 H 0.0 **** 0.06
14906 C 79.24903630258251 130.61337858997734 31.49314892396503 C 0.0 **** -0.24
14907 H 80.06411769197287 129.906284464335 31.336356309479257 H 0.0 **** 0.06
14908 H 79.14056361395781 131.24216799320308 30.609175367849964 H 0.0 **** 0.06
14909 H 79.47125089389935 131.23702507760333 32.358694061308746 H 0.0 **** 0.06
14910 H 78.32217343404122 130.06629414334202 31.66660356924548 H 0.0 **** 0.06
14911 C 63.78623166760062 53.36453174964153 86.38317124493794 C 0.0 **** -0.24
14912 H 64.59702571304624 53.37028125566498 85.6546119584636 H 0.0 **** 0.06
14913 H 64.20325284655178 53.380149689016775 87.39090937506714 H 0.0 **** 0.06
14914 H 63.186767513581 52.46366373412063 86.25177405912106 H 0.0 **** 0.06
14915 H 63.15924914918696 54.24407575611872 86.23574348525624 H 0.0 **** 0.06
14916 C 111.30018772720477 63.55319426223937 94.77511266441996 C 0.0 **** -0.24
14917 H 110.67610545498765 63.64802090797447 95.66454222494713 H 0.0 **** 0.06
14918 H 111.30491745605578 64.49862898535942 94.2330162955102 H 0.0 **** 0.06
14919 H 110.90046693421446 62.76751741941517 94.13387646602246 H 0.0 **** 0.06
14920 H 112.31812284328073 63.29906806840782 95.07193024006773 H 0.0 **** 0.06
14921 C 120.41659985651512 97.74614002054085 37.871399433042484 C 0.0 **** -0.24
14922 H 119.44571687816745 97.3423247285941 38.15832123464753 H 0.0 **** 0.06
14923 H 120.71422069799235 98.51612138152842 38.582218090850176 H 0.0 **** 0.06
14924 H 120.34889146746417 98.17834172290176 36.87321411841003 H 0.0 **** 0.06
14925 H 121.15608438204964 96.9453091118384 37.87099278932783 H 0.0 **** 0.06
14926 C 126.58249763347855 115.11862068755329 101.89856975327605 C 0.0 **** -0.24
14927 H 126.64413766754889 114.81220479726869 100.8551166269702 H 0.0 **** 0.06
14928 H 127.4548153020826 114.74935129109872 102.43783746891286 H 0.0 **** 0.06
14929 H 125.6773201365822 114.70697157681155 102.34476183394783 H 0.0 **** 0.06
14930 H 126.55267690371163 116.20682865393707 101.95617033360809 H 0.0 **** 0.06
14931 C 117.64119496461264 29.815663169770602 10.174739139122785 C 0.0 **** -0.24
14932 H 116.88780573479751 29.97986717723643 9.404037901544378 H 0.0 **** 0.06
14933 H 118.30975968897961 30.676104530440142 10.217943087243121 H 0.0 **** 0.06
14934 H 118.21507413099185 28.920302802794396 9.936816523883358 H 0.0 **** 0.06
14935 H 117.15133350992123 29.687539523240034 11.140138935273626 H 0.0 **** 0.06
14936 C 59.669119840953925 143.46390427345665 6.677235732512884 C 0.0 **** -0.24
14937 H 60.592509840537616 143.1753678257336 6.175675888307211 H 0.0 **** 0.06
14938 H 59.19943196817047 142.58056368905966 7.110471697183442 H 0.0 **** 0.06
14939 H 58.99055001236803 143.9189234111526 5.954160829158013 H 0.0 **** 0.06
14940 H 59.89201095053312 144.18123136326358 7.466211033519528 H 0.0 **** 0.06
14941 C 149.12709621523408 22.624796906412342 87.75328235146608 C 0.0 **** -0.24
14942 H 148.8921596465907 22.279368284575213 88.76044498616129 H 0.0 **** 0.06
14943 H 149.22765206706435 21.766597009162865 87.089270973962 H 0.0 **** 0.06
14944 H 150.06227188024897 23.183995781056723 87.76961472411905 H 0.0 **** 0.06
14945 H 148.32421884462005 23.26985782645974 87.39492353418649 H 0.0 **** 0.06
14946 C 116.92466620865088 30.34621090712764 68.659649496584 C 0.0 **** -0.24
14947 H 115.8924632133448 30.17717123010749 68.9678365570785 H 0.0 **** 0.06
14948 H 117.09534811622808 29.878695559587598 67.6892058858455 H 0.0 **** 0.06
14949 H 117.59919722447722 29.910175506028267 69.3969477599095 H 0.0 **** 0.06
14950 H 117.1110964378118 31.41725964369448 68.58516444183107 H 0.0 **** 0.06
14951 C 73.55733945733033 58.10037844162366 89.84668056130162 C 0.0 **** -0.24
14952 H 74.15159079208692 59.011909180336374 89.9092323731657 H 0.0 **** 0.06
14953 H 73.76013077380375 57.47456701523953 90.71590344324082 H 0.0 **** 0.06
14954 H 73.81867763240484 57.55760711051863 88.9382063924894 H 0.0 **** 0.06
14955 H 72.49830974269977 58.35855562170315 89.82282055344018 H 0.0 **** 0.06
14956 C 49.09618077621704 102.33621354750055 127.22375451763308 C 0.0 **** -0.24
14957 H 48.912543815868474 103.21518468864109 126.60581692145236 H 0.0 **** 0.06
14958 H 48.63585651265771 102.47891342524865 128.2024981289229 H 0.0 **** 0.06
14959 H 50.170296344282235 102.19547723381486 127.3436782490124 H 0.0 **** 0.06
14960 H 48.66557153007332 101.4579446091417 126.74432363382495 H 0.0 **** 0.06
14961 C 92.92859017228494 135.93619643852242 78.59912266680485 C 0.0 **** -0.24
14962 H 93.03503710941678 136.1114928349014 79.6691454976195 H 0.0 **** 0.06
14963 H 91.92270030867576 136.2114396523217 78.28395542929314 H 0.0 **** 0.06
14964 H 93.10052459849581 134.88059666899176 78.38573477463149 H 0.0 **** 0.06
14965 H 93.65829552188842 136.53922190762242 78.05783984811087 H 0.0 **** 0.06
14966 C 110.62139518588361 125.66408884985931 66.56663168427241 C 0.0 **** -0.24
14967 H 110.6031997614902 125.80782758461258 67.64683572284864 H 0.0 **** 0.06
14968 H 110.23862938697414 126.55838029333405 66.0743128383634 H 0.0 **** 0.06
14969 H 109.99901145512206 124.80889278505741 66.30362247003245 H 0.0 **** 0.06
14970 H 111.64545872278916 125.48047916562119 66.24269495752324 H 0.0 **** 0.06
14971 C 41.778630188653324 116.20067973366743 2.8277607671632836 C 0.0 **** -0.24
14972 H 42.339054454874315 116.91329608897793 3.4327452600051913 H 0.0 **** 0.06
14973 H 41.34092179962079 115.43952270132063 3.473883835788712 H 0.0 **** 0.06
14974 H 42.44834466889333 115.727568068813 2.1100034823507485 H 0.0 **** 0.06
14975 H 40.98471951453686 116.7242375509157 2.2939885646114817 H 0.0 **** 0.06
14976 C 83.61939636503377 95.53112260541533 10.607453523784557 C 0.0 **** -0.24
14977 H 83.59918799567293 95.67247150701205 11.688222598195146 H 0.0 **** 0.06
14978 H 82.95194093063634 94.71327413355198 10.335360155298218 H 0.0 **** 0.06
14979 H 84.63519015580829 95.29168393518292 10.291504480677382 H 0.0 **** 0.06
14980 H 83.29221079952168 96.44673378083407 10.11476046163694 H 0.0 **** 0.06
14981 C 135.01770465228924 77.2692585839052 71.3476890155116 C 0.0 **** -0.24
14982 H 135.56511670370907 78.066322460749 71.85169092236515 H 0.0 **** 0.06
14983 H 135.71417676566685 76.48724119457671 71.04323522809459 H 0.0 **** 0.06
14984 H 134.51608066590083 77.67219622271318 70.4685853444497 H 0.0 **** 0.06
14985 H 134.27681850484998 76.8504561280042 72.02909998377318 H 0.0 **** 0.06
14986 C 44.60288598724169 101.63184309770163 31.75740063912354 C 0.0 **** -0.24
14987 H 44.617753102797366 101.56114195167815 30.66919843812598 H 0.0 **** 0.06
14988 H 45.43035351550377 101.05536610529377 32.169494557052765 H 0.0 **** 0.06
14989 H 43.65974198001615 101.23444399642808 32.133661236103634 H 0.0 **** 0.06
14990 H 44.702458629722514 102.67627603082023 32.054341432978745 H 0.0 **** 0.06
14991 C 66.88124551518737 79.78924000822246 153.1825055736096 C 0.0 **** -0.24
14992 H 66.87885167885483 78.75778145277809 153.53498563080893 H 0.0 **** 0.06
14993 H 66.38901957810556 79.84217817215927 152.21138207429237 H 0.0 **** 0.06
14994 H 67.90930393054778 80.1384440309082 153.08890482494985 H 0.0 **** 0.06
14995 H 66.34688909968823 80.41783891866385 153.8960315767081 H 0.0 **** 0.06
14996 C 37.08695063464644 51.04283438642938 48.98217434998196 C 0.0 **** -0.24
14997 H 36.88655097260256 49.97202442928881 48.9795975605721 H 0.0 **** 0.06
14998 H 36.16219592720569 51.58489467781004 49.183529979635495 H 0.0 **** 0.06
14999 H 37.47939571495441 51.34184907462087 48.01008600252908 H 0.0 **** 0.06
15000 H 37.819866655108825 51.273547720582926 49.7554732214974 H 0.0 **** 0.06
15001 C 108.6670141252445 53.74088709722069 87.61603978211177 C 0.0 **** -0.24
15002 H 107.83875031598866 53.792776502208454 88.32362388656064 H 0.0 **** 0.06
15003 H 108.52110683765984 54.48313863352355 86.831719459796 H 0.0 **** 0.06
15004 H 108.70316361955555 52.744989623370515 87.17298995497032 H 0.0 **** 0.06
15005 H 109.60308657075844 53.94053237759037 88.13668820410747 H 0.0 **** 0.06
15006 C 16.932123433842037 19.043110837868284 22.15683603397261 C 0.0 **** -0.24
15007 H 17.067366597180012 19.613813721072404 21.238324105667886 H 0.0 **** 0.06
15008 H 15.923653074708369 18.627274264404548 22.181253834177056 H 0.0 **** 0.06
15009 H 17.074747012969283 19.698570665575602 23.01620709035791 H 0.0 **** 0.06
15010 H 17.660073659667603 18.232682661157156 22.19253345953615 H 0.0 **** 0.06
15011 C 113.02132161035532 41.91644371146393 57.85157496178897 C 0.0 **** -0.24
15012 H 113.65294883159915 42.099360275485594 56.98214223736534 H 0.0 **** 0.06
15013 H 113.61034266282122 41.43722439002545 58.633263325223254 H 0.0 **** 0.06
15014 H 112.19453193722676 41.26597460538042 57.568743910866885 H 0.0 **** 0.06
15015 H 112.62883993303738 42.86403718474904 58.22059178381306 H 0.0 **** 0.06
15016 C 109.00982962901122 81.70155532881124 2.3927754265078818 C 0.0 **** -0.24
15017 H 109.53622551716688 82.02275275318566 1.494584344973191 H 0.0 **** 0.06
15018 H 108.10592301008359 81.16084835290064 2.110448497849461 H 0.0 **** 0.06
15019 H 108.74033846721716 82.57427484818813 2.988153328373386 H 0.0 **** 0.06
15020 H 109.65605376568135 81.04785463825927 2.978989942619563 H 0.0 **** 0.06
15021 C 24.06829787277534 21.271976138277125 96.76464026628273 C 0.0 **** -0.24
15022 H 24.62554934811446 21.58111827550448 95.88030062282132 H 0.0 **** 0.06
15023 H 23.794927854353695 20.220702912238607 96.6726396301541 H 0.0 **** 0.06
15024 H 23.16512479083952 21.875425410076076 96.85308809421767 H 0.0 **** 0.06
15025 H 24.686996819963866 21.411408943521934 97.65027773568465 H 0.0 **** 0.06
15026 C 98.4013924738089 38.860230389035166 17.40205678021161 C 0.0 **** -0.24
15027 H 98.37441225766536 38.04244424009312 16.68189946790787 H 0.0 **** 0.06
15028 H 99.39373438233562 39.312784598540304 17.400341479810606 H 0.0 **** 0.06
15029 H 98.17913581040109 38.47519371034247 18.396829806653443 H 0.0 **** 0.06
15030 H 97.65980686802958 39.60979894170475 17.127367104950196 H 0.0 **** 0.06
15031 C 127.52311530598666 14.46280524109875 64.92342195174746 C 0.0 **** -0.24
15032 H 127.2633377848756 14.967697364652281 65.85319784652208 H 0.0 **** 0.06
15033 H 128.60775159165405 14.45043112783793 64.8080671140541 H 0.0 **** 0.06
15034 H 127.0741555907772 14.993466628643205 64.08405056540414 H 0.0 **** 0.06
15035 H 127.14904662587782 13.4392983992322 64.94961433238075 H 0.0 **** 0.06
15036 C 36.342561214712646 86.64755934168329 11.309080435119938 C 0.0 **** -0.24
15037 H 35.75581773467678 87.03125170562518 12.142844120030247 H 0.0 **** 0.06
15038 H 35.776285322025075 86.76241474653872 10.383981753162999 H 0.0 **** 0.06
15039 H 36.561909145261836 85.59265674445753 11.472786436135351 H 0.0 **** 0.06
15040 H 37.276044610587576 87.20609675871978 11.235613465432778 H 0.0 **** 0.06
15041 C 1.4240746048983226 21.79852921921313 128.3450672499037 C 0.0 **** -0.24
15042 H 0.5634146150628965 21.18842348546842 128.07070243597366 H 0.0 **** 0.06
15043 H 2.3401769851099914 21.240609384929243 128.15290446175726 H 0.0 **** 0.06
15044 H 1.3671519729231534 22.050543407456843 129.40453474370958 H 0.0 **** 0.06
15045 H 1.4235917260697875 22.71432399857804 127.75317588342119 H 0.0 **** 0.06
15046 C 40.71467273737454 113.83204925843408 99.21405064707088 C 0.0 **** -0.24
15047 H 40.46851506177428 114.76828783421875 98.71286764044171 H 0.0 **** 0.06
15048 H 40.03346149817824 113.04998091363383 98.87695561281284 H 0.0 **** 0.06
15049 H 40.616005733708576 113.95909702970646 100.291799845657 H 0.0 **** 0.06
15050 H 41.73946984548975 113.54982373148367 98.97390841518522 H 0.0 **** 0.06
15051 C 4.054202418670428 149.3982358896446 93.64834036081567 C 0.0 **** -0.24
15052 H 4.759520515523036 150.07161192541685 93.16097522197572 H 0.0 **** 0.06
15053 H 4.029262860219518 148.44893466216362 93.1126493207608 H 0.0 **** 0.06
15054 H 3.0600320103432637 149.84566320251608 93.64011313347095 H 0.0 **** 0.06
15055 H 4.367907086893098 149.22697037561252 94.67823219311629 H 0.0 **** 0.06
15056 C 7.656799745317933 97.25210844156248 99.96905501156738 C 0.0 **** -0.24
15057 H 8.743930827601176 97.33671481386298 99.97116984777972 H 0.0 **** 0.06
15058 H 7.214907162797289 98.24891439537885 99.97763027187705 H 0.0 **** 0.06
15059 H 7.333741208349082 96.70255688023161 100.8535949803711 H 0.0 **** 0.06
15060 H 7.335813373224212 96.7201773481533 99.07306965806833 H 0.0 **** 0.06
15061 C 18.480406367441518 146.46845212135935 128.76366109906425 C 0.0 **** -0.24
15062 H 18.997786942885085 145.70339989874634 129.34224220506894 H 0.0 **** 0.06
15063 H 17.85520358897994 145.99219153461425 128.00816919151146 H 0.0 **** 0.06
15064 H 19.212282629376404 147.11260874781703 128.27683050016077 H 0.0 **** 0.06
15065 H 17.85574109753299 147.06613003311284 129.42799769081 H 0.0 **** 0.06
15066 C 47.952370908896 64.6129311687307 13.12828008850525 C 0.0 **** -0.24
15067 H 47.82395385359962 65.39659646497398 13.875124412370639 H 0.0 **** 0.06
15068 H 48.5838455147246 63.82396387332173 13.536019073402144 H 0.0 **** 0.06
15069 H 48.42410612593761 65.03296835240407 12.239363132801373 H 0.0 **** 0.06
15070 H 46.97858363341771 64.20095561000038 12.863225081635221 H 0.0 **** 0.06
15071 C 0.04178078969295029 117.65546305397567 93.3500843839289 C 0.0 **** -0.24
15072 H -0.7205473627266201 117.11840883871133 93.91388949889105 H 0.0 **** 0.06
15073 H 1.019971051809307 117.21975839407014 93.55463742264106 H 0.0 **** 0.06
15074 H 0.042013154523033336 118.70494403557535 93.6476383226295 H 0.0 **** 0.06
15075 H -0.1746136583680027 117.58112410860008 92.28369192235564 H 0.0 **** 0.06
15076 C 151.00832212263091 49.9527572147168 156.2841424389286 C 0.0 **** -0.24
15077 H 151.195920005407 50.11324360228171 157.3462751314415 H 0.0 **** 0.06
15078 H 150.16182613693078 50.56210636308491 155.9688444755548 H 0.0 **** 0.06
15079 H 150.7839866482349 48.90037217192416 156.11057981845914 H 0.0 **** 0.06
15080 H 151.89343031701029 50.23435816459319 155.71301190525816 H 0.0 **** 0.06
15081 C 27.525745008138493 86.66085746350419 135.06657021044052 C 0.0 **** -0.24
15082 H 27.33745727089366 87.47784998888065 134.36947650260976 H 0.0 **** 0.06
15083 H 28.01955913003227 87.0507387870133 135.95669707801653 H 0.0 **** 0.06
15084 H 28.166168900015897 85.91816443595295 134.59161868557496 H 0.0 **** 0.06
15085 H 26.580085561053444 86.19898121131405 135.34771103161097 H 0.0 **** 0.06
15086 C 116.26148315016952 45.789805587101355 50.04403941077206 C 0.0 **** -0.24
15087 H 117.3332799976729 45.88367475281581 50.217719450467314 H 0.0 **** 0.06
15088 H 115.7915094911853 45.32844449016477 50.91368441381309 H 0.0 **** 0.06
15089 H 116.0888553358477 45.16969758606426 49.1647275451586 H 0.0 **** 0.06
15090 H 115.83218170873057 46.77820996974992 49.88118454034898 H 0.0 **** 0.06
15091 C 88.99483866606892 136.19577494262316 59.82274768535467 C 0.0 **** -0.24
15092 H 89.93936634287618 136.73907702432084 59.779642911659835 H 0.0 **** 0.06
15093 H 89.00868175618115 135.38581771851543 59.0937474653515 H 0.0 **** 0.06
15094 H 88.17441722909865 136.87714896852313 59.59462969858532 H 0.0 **** 0.06
15095 H 88.85765112342614 135.7837648634759 60.82193030430824 H 0.0 **** 0.06
15096 C 20.642934629878795 16.181488594899747 94.54261116123897 C 0.0 **** -0.24
15097 H 20.070927098802116 15.255480450055472 94.48888078027014 H 0.0 **** 0.06
15098 H 21.540556320424542 16.08940157171594 93.93077542642999 H 0.0 **** 0.06
15099 H 20.926558683126842 16.37422879824385 95.57716192098204 H 0.0 **** 0.06
15100 H 20.03421480694368 17.006537273079857 94.1728280855851 H 0.0 **** 0.06
15101 C 98.8424403209923 29.039743517425045 52.10696892469895 C 0.0 **** -0.24
15102 H 98.05869651225925 29.374663304723683 51.427884959021924 H 0.0 **** 0.06
15103 H 98.76205410552109 27.962091898058226 52.25093672790058 H 0.0 **** 0.06
15104 H 98.73360285740159 29.544630927181835 53.06659164523663 H 0.0 **** 0.06
15105 H 99.8174839087763 29.276825427521132 51.68043537948762 H 0.0 **** 0.06
15106 C 14.125049019896984 78.91686206315111 134.28284982152013 C 0.0 **** -0.24
15107 H 14.822410298192992 78.42485659606331 134.96025406678277 H 0.0 **** 0.06
15108 H 13.105640734049295 78.77102114414913 134.64326752054046 H 0.0 **** 0.06
15109 H 14.223599095741385 78.4880153587851 133.2858161989148 H 0.0 **** 0.06
15110 H 14.347427950795776 79.98297978763583 134.24391060528538 H 0.0 **** 0.06
15111 C 127.45282059787127 99.26403280195143 118.22060651180561 C 0.0 **** -0.24
15112 H 127.7267043163688 100.31262358877945 118.10240010150187 H 0.0 **** 0.06
15113 H 126.52555736033685 99.06825905842709 117.68313170716408 H 0.0 **** 0.06
15114 H 127.31418116904302 99.04180642200635 119.2787663402745 H 0.0 **** 0.06
15115 H 128.24717612295075 98.63416319499805 117.81827170328631 H 0.0 **** 0.06
15116 C 72.12098404670903 31.446983104026117 94.69178505761556 C 0.0 **** -0.24
15117 H 71.17590404944423 30.94582799736915 94.4829429548696 H 0.0 **** 0.06
15118 H 72.12053554467926 32.43208617094086 94.22612381772348 H 0.0 **** 0.06
15119 H 72.94278941680358 30.8542926088343 94.28874335534397 H 0.0 **** 0.06
15120 H 72.24540661870964 31.55364540672994 95.76975856067372 H 0.0 **** 0.06
15121 C 93.98143120840993 156.92013377625005 69.28378309673438 C 0.0 **** -0.24
15122 H 94.90333206052819 156.7960698988232 69.85144287657216 H 0.0 **** 0.06
15123 H 93.56067061956384 155.94092960541622 69.05447456768343 H 0.0 **** 0.06
15124 H 94.19556202439256 157.4499737092414 68.35503267571609 H 0.0 **** 0.06
15125 H 93.26680351298911 157.49514488949814 69.8727399294912 H 0.0 **** 0.06
15126 C 13.90082078101301 50.09021020770443 10.075578127957371 C 0.0 **** -0.24
15127 H 14.869399992269194 49.598989715584764 10.163329934272198 H 0.0 **** 0.06
15128 H 13.269197226993974 49.79923809492374 10.916405499111264 H 0.0 **** 0.06
15129 H 13.424395094165 49.789896590935996 9.142855802576058 H 0.0 **** 0.06
15130 H 14.039447230735128 51.17135044609212 10.082445755296213 H 0.0 **** 0.06
15131 C 14.387502426328169 35.70707292270208 90.21795597779082 C 0.0 **** -0.24
15132 H 15.28437482189078 35.7697851892143 89.60136473422197 H 0.0 **** 0.06
15133 H 14.517841481507404 34.926219049423764 90.96821838493791 H 0.0 **** 0.06
15134 H 13.530128565935186 35.46648376784236 89.58885533884086 H 0.0 **** 0.06
15135 H 14.21953364293779 36.663257155748454 90.71323353791695 H 0.0 **** 0.06
15136 C 132.2463381950413 13.488964848455055 0.13294238103932798 C 0.0 **** -0.24
15137 H 131.24124985328794 13.565094720824135 -0.28224233424444023 H 0.0 **** 0.06
15138 H 132.2112348737237 13.681891827372397 1.2057716551821223 H 0.0 **** 0.06
15139 H 132.89417753515409 14.222799517870243 -0.3475693991835662 H 0.0 **** 0.06
15140 H 132.6375412157235 12.48726643182897 -0.04368472518120825 H 0.0 **** 0.06
15141 C 8.83114087495278 119.69806981402138 21.256416087549923 C 0.0 **** -0.24
15142 H 8.815923022470997 120.40638229563416 22.085024276224402 H 0.0 **** 0.06
15143 H 9.297523998278564 118.7680458213635 21.583080840936844 H 0.0 **** 0.06
15144 H 9.401318661879031 120.11952728356971 20.428755195447764 H 0.0 **** 0.06
15145 H 7.810874107244899 119.49837796170522 20.930488912191436 H 0.0 **** 0.06
15146 C 138.42476367156738 123.71850780280973 57.21434700382446 C 0.0 **** -0.24
15147 H 138.52036770529216 123.87991082263171 58.288694083519886 H 0.0 **** 0.06
15148 H 138.46992458551122 122.64968729391349 57.00299205413535 H 0.0 **** 0.06
15149 H 139.23850108367665 124.22648853152874 56.697272872379074 H 0.0 **** 0.06
15150 H 137.47109921269885 124.11793836567163 56.87147830176502 H 0.0 **** 0.06
15151 C 120.64391443664978 57.731129673224075 137.17478954651125 C 0.0 **** -0.24
15152 H 120.4419890929495 56.811586271911764 137.72274822251413 H 0.0 **** 0.06
15153 H 119.83575227342452 57.91591541164915 136.46624748073128 H 0.0 **** 0.06
15154 H 121.58615749798084 57.632896525935436 136.63508503996465 H 0.0 **** 0.06
15155 H 120.71175888224461 58.564120483399776 137.8750774428353 H 0.0 **** 0.06
15156 C 66.08123979532093 112.03890007310655 84.53173336492623 C 0.0 **** -0.24
15157 H 66.22540830643396 113.03037403657576 84.95992311292848 H 0.0 **** 0.06
15158 H 66.85196373403588 111.84993395603614 83.78340379806461 H 0.0 **** 0.06
15159 H 65.09898363433484 111.98453827032019 84.0635013022005 H 0.0 **** 0.06
15160 H 66.14982231829129 111.28949483558812 85.3210691234083 H 0.0 **** 0.06
15161 C 145.79937435547947 4.244689910386995 61.135301219665024 C 0.0 **** -0.24
15162 H 146.68289865599473 4.53602890243701 60.56828619579858 H 0.0 **** 0.06
15163 H 145.56641982332678 3.1991493976136667 60.9320282160142 H 0.0 **** 0.06
15164 H 144.95577196653073 4.869402399089381 60.84077956428558 H 0.0 **** 0.06
15165 H 145.99234584575038 4.373983144843265 62.2010896563346 H 0.0 **** 0.06
15166 C 146.4176853177057 37.536297477092944 87.5505155399386 C 0.0 **** -0.24
15167 H 145.79715617923046 38.03042220690992 88.2976654509213 H 0.0 **** 0.06
15168 H 145.982925650289 37.68391260136707 86.56221828740519 H 0.0 **** 0.06
15169 H 146.46979397979098 36.47021119444673 87.76911645905005 H 0.0 **** 0.06
15170 H 147.4213465249385 37.96147341092774 87.57410146421537 H 0.0 **** 0.06
15171 C 131.89523888887754 64.97036277409603 107.53868605519183 C 0.0 **** -0.24
15172 H 131.18418759834086 65.53748692135025 106.93727192034 H 0.0 **** 0.06
15173 H 132.54679146262947 65.66030782008971 108.07580687852403 H 0.0 **** 0.06
15174 H 132.4949933508238 64.33408899000472 106.88809023666364 H 0.0 **** 0.06
15175 H 131.35331655701322 64.35101926110758 108.25323658661692 H 0.0 **** 0.06
15176 C 76.69238612732721 102.90420725777956 28.715633043531284 C 0.0 **** -0.24
15177 H 76.32238124172386 102.33306973999261 27.86398405397287 H 0.0 **** 0.06
15178 H 75.86087741723873 103.4230178752946 29.192838958831857 H 0.0 **** 0.06
15179 H 77.42637471016167 103.63279103530867 28.37260085474321 H 0.0 **** 0.06
15180 H 77.1591849603775 102.22738239086802 29.43107109932484 H 0.0 **** 0.06
15181 C 155.46895005419975 60.0915086024951 13.323380894996603 C 0.0 **** -0.24
15182 H 154.4412822296703 60.36392261792372 13.081514938897868 H 0.0 **** 0.06
15183 H 156.12828419912609 60.92912400451526 13.098684315965897 H 0.0 **** 0.06
15184 H 155.76366789448375 59.22664085569363 12.730162720438216 H 0.0 **** 0.06
15185 H 155.53958058164935 59.84608594877636 14.383019851993737 H 0.0 **** 0.06
15186 C 97.92172409148827 18.80329026698712 29.070061004591736 C 0.0 **** -0.24
15187 H 98.66824576829953 18.126516186544706 28.654577074658988 H 0.0 **** 0.06
15188 H 97.56499074238516 18.4109479878789 30.022003493089215 H 0.0 **** 0.06
15189 H 97.08555709895526 18.891443572814296 28.37659549151627 H 0.0 **** 0.06
15190 H 98.36870919244446 19.785257747278024 29.226278384794398 H 0.0 **** 0.06
15191 C 75.89873085952433 18.51140485071494 56.071638987119684 C 0.0 **** -0.24
15192 H 75.36402838101537 18.934850287491713 55.22162729273629 H 0.0 **** 0.06
15193 H 76.73788140460522 19.15730793424939 56.331543328915245 H 0.0 **** 0.06
15194 H 76.26986376459041 17.519916975293654 55.81009574742234 H 0.0 **** 0.06
15195 H 75.22318854620437 18.43255331510113 56.92341870592071 H 0.0 **** 0.06
15196 C 129.2338293603041 39.0289211777652 38.24531745748409 C 0.0 **** -0.24
15197 H 128.45344859812752 38.60169134040672 38.87522555373272 H 0.0 **** 0.06
15198 H 128.96930573127608 40.05358163175987 37.98315931454739 H 0.0 **** 0.06
15199 H 129.33070662652258 38.43411123386119 37.335986021227285 H 0.0 **** 0.06
15200 H 130.1807075216214 39.02375424845178 38.784850318817476 H 0.0 **** 0.06
15201 C 25.385048185274513 21.81651261363126 12.22254961929508 C 0.0 **** -0.24
15202 H 24.8143332073453 22.552236711408113 12.789755188153435 H 0.0 **** 0.06
15203 H 26.179186314649087 22.319978919876917 11.671922744110645 H 0.0 **** 0.06
15204 H 24.723567526691454 21.306597102443845 11.522539502230245 H 0.0 **** 0.06
15205 H 25.82091784384562 21.088821779894175 12.906820289861173 H 0.0 **** 0.06
15206 C 121.95601040500269 28.623623382498835 10.229422173915673 C 0.0 **** -0.24
15207 H 122.00675586732713 29.50859263377371 9.593493671569917 H 0.0 **** 0.06
15208 H 121.7835062157066 27.742548598471345 9.610262870328377 H 0.0 **** 0.06
15209 H 121.13761746697237 28.735062358986937 10.940972619900116 H 0.0 **** 0.06
15210 H 122.89557878837043 28.511101166313445 10.770000254299703 H 0.0 **** 0.06
15211 C 31.49728497992716 100.35878817292883 84.7909725108334 C 0.0 **** -0.24
15212 H 32.12868907594423 100.342382644368 85.67959639819907 H 0.0 **** 0.06
15213 H 31.92844470871374 101.03415537787271 84.05122854507024 H 0.0 **** 0.06
15214 H 30.499870378997436 100.70428990366122 85.06076373183652 H 0.0 **** 0.06
15215 H 31.43381798263468 99.35471291989441 84.37244118162792 H 0.0 **** 0.06
15216 C 39.935992710430696 96.43282815681839 109.58978577767392 C 0.0 **** -0.24
15217 H 40.84421310618848 96.08747544148952 110.08351027485993 H 0.0 **** 0.06
15218 H 39.848826523719595 95.95304938580601 108.6136064177279 H 0.0 **** 0.06
15219 H 39.98213358646319 97.51434195514447 109.45916181569997 H 0.0 **** 0.06
15220 H 39.07055957320722 96.1762473401914 110.19956966821194 H 0.0 **** 0.06
15221 C 0.3786220085546539 18.31526457717132 117.68244782713971 C 0.0 **** -0.24
15222 H 0.8953611011170501 18.345085536168 118.64172416493714 H 0.0 **** 0.06
15223 H -0.5838449107965467 17.81863357920662 117.80301620270431 H 0.0 **** 0.06
15224 H 0.9837419643732517 17.7673046780902 116.96060959117158 H 0.0 **** 0.06
15225 H 0.21992765628159816 19.333259727384927 117.32477522417882 H 0.0 **** 0.06
15226 C 124.60529978432852 49.58011171604517 103.68868727545096 C 0.0 **** -0.24
15227 H 125.16442704963718 50.42821526483209 103.29234175475561 H 0.0 **** 0.06
15228 H 123.81899444432834 49.94066808118191 104.35181900313391 H 0.0 **** 0.06
15229 H 125.28051730830704 48.928542998802754 104.24480976749909 H 0.0 **** 0.06
15230 H 124.16044800336668 49.022905203286484 102.86442733126738 H 0.0 **** 0.06
15231 C 99.03900221318243 84.01914381995687 101.18232926940105 C 0.0 **** -0.24
15232 H 99.38208497945669 84.98853621221353 100.81961546315439 H 0.0 **** 0.06
15233 H 99.88623828631789 83.46236215388645 101.58503256594408 H 0.0 **** 0.06
15234 H 98.59434564403344 83.46005864431552 100.3596337357394 H 0.0 **** 0.06
15235 H 98.29617250563003 84.16729919989444 101.96610836999356 H 0.0 **** 0.06
15236 C 36.57728486654521 145.94284724157663 39.5296697044155 C 0.0 **** -0.24
15237 H 37.14834621198712 145.04091109923482 39.310284668870366 H 0.0 **** 0.06
15238 H 37.07772451283738 146.80598877693546 39.090629245092416 H 0.0 **** 0.06
15239 H 36.50552261256669 146.07285039489386 40.60979657213056 H 0.0 **** 0.06
15240 H 35.57552249724655 145.84853461806566 39.10848801989387 H 0.0 **** 0.06
15241 C 51.76232550899657 1.0715068253439384 14.281440761092142 C 0.0 **** -0.24
15242 H 51.96321661562385 0.21101479511821708 13.643054586410528 H 0.0 **** 0.06
15243 H 52.57816124746755 1.1943383653205366 14.992793054945366 H 0.0 **** 0.06
15244 H 50.82974138195269 0.9121783099464693 14.822379693493247 H 0.0 **** 0.06
15245 H 51.677054210461534 1.9675900298849953 13.666155144180948 H 0.0 **** 0.06
15246 C 28.896023832543307 24.705428627180993 142.27054070248042 C 0.0 **** -0.24
15247 H 28.273246226853104 25.473457125205385 141.81156797993458 H 0.0 **** 0.06
15248 H 29.85386366957414 24.6564225528966 141.7517334625446 H 0.0 **** 0.06
15249 H 28.394700236469276 23.73994685475651 142.19901248219787 H 0.0 **** 0.06
15250 H 29.06312427802314 24.951918236552444 143.31930569067404 H 0.0 **** 0.06
15251 C 38.06102723117897 140.15689964147927 17.617373983100634 C 0.0 **** -0.24
15252 H 38.752659228155395 140.20523869022963 16.776062387417653 H 0.0 **** 0.06
15253 H 37.92017193813567 139.11699318070748 17.911710530424017 H 0.0 **** 0.06
15254 H 37.102676533588166 140.5849739162449 17.324075476565525 H 0.0 **** 0.06
15255 H 38.47020319379929 140.720872183 18.455857548528797 H 0.0 **** 0.06
15256 C 80.68017358600412 130.80307960717914 53.91179514191799 C 0.0 **** -0.24
15257 H 81.65402689645248 130.67591421155788 54.38440741126868 H 0.0 **** 0.06
15258 H 79.93029730373439 131.01224613133624 54.675703282307836 H 0.0 **** 0.06
15259 H 80.4127446731818 129.88989461477928 53.379741920480626 H 0.0 **** 0.06
15260 H 80.72333375160883 131.63400223899788 53.20824811141125 H 0.0 **** 0.06
15261 C 105.62106979012817 111.9514250328239 48.324663694548974 C 0.0 **** -0.24
15262 H 105.11869124509032 112.42005809758332 47.47820842005774 H 0.0 **** 0.06
15263 H 105.87887984161462 110.922899363578 48.06913748125987 H 0.0 **** 0.06
15264 H 104.9562081629919 111.9561811497898 49.18916650562403 H 0.0 **** 0.06
15265 H 106.52860586001056 112.50639569008929 48.560965411347865 H 0.0 **** 0.06
15266 C 141.93611075169986 12.124853641455502 128.8070607365412 C 0.0 **** -0.24
15267 H 142.7579263701681 11.756920053314445 129.42027162368277 H 0.0 **** 0.06
15268 H 141.22426198098907 11.317205710724636 128.6324043163268 H 0.0 **** 0.06
15269 H 142.32518711803039 12.479573869217688 127.85297227503769 H 0.0 **** 0.06
15270 H 141.43627141635352 12.944009396430147 129.323271094653 H 0.0 **** 0.06
15271 C 75.48592390593228 152.1163237431621 2.730495642741488 C 0.0 **** -0.24
15272 H 76.43873387943978 151.7118161707284 3.07309376522295 H 0.0 **** 0.06
15273 H 74.67688863748748 151.45748951011623 3.048467514251037 H 0.0 **** 0.06
15274 H 75.49129875110276 152.18617029202628 1.642653628289903 H 0.0 **** 0.06
15275 H 75.33703180414804 153.10756155287933 3.1586830041748293 H 0.0 **** 0.06
15276 C 84.58232872252984 137.7118372503827 41.234341900703384 C 0.0 **** -0.24
15277 H 85.06389131103475 136.9398388501756 41.834782259609256 H 0.0 **** 0.06
15278 H 85.29164551659198 138.09347966231235 40.49814728460319 H 0.0 **** 0.06
15279 H 84.25671267306996 138.52543019658924 41.88158863708128 H 0.0 **** 0.06
15280 H 83.71924959449177 137.28820195429978 40.72181464123952 H 0.0 **** 0.06
15281 C 124.524032561308 110.2688051562618 52.518243549065176 C 0.0 **** -0.24
15282 H 123.94330556458537 109.54483842627712 53.08882129318681 H 0.0 **** 0.06
15283 H 125.2235863784504 109.74294020396667 51.867881953302856 H 0.0 **** 0.06
15284 H 125.0766385042701 110.91203243129553 53.203123843652634 H 0.0 **** 0.06
15285 H 123.85066341738012 110.87649296671702 51.91286992275775 H 0.0 **** 0.06
15286 C 20.602802671333592 152.62986984597188 36.98251475812077 C 0.0 **** -0.24
15287 H 20.982013209535154 152.04111641511673 37.81803283099168 H 0.0 **** 0.06
15288 H 21.02976250818844 153.63178256734273 37.0204205612242 H 0.0 **** 0.06
15289 H 19.51594457319885 152.69396974788162 37.04681400989307 H 0.0 **** 0.06
15290 H 20.883061401924323 152.15010340862239 36.04355471941011 H 0.0 **** 0.06
15291 C 152.73402199985284 135.1724487103221 138.73724518132497 C 0.0 **** -0.24
15292 H 152.10927416723558 135.9868539196007 138.37151994789372 H 0.0 **** 0.06
15293 H 152.71890251771453 134.35202735801343 138.0193601656249 H 0.0 **** 0.06
15294 H 152.35142124239627 134.82393997348424 139.69669919340458 H 0.0 **** 0.06
15295 H 153.75760491336916 135.5283927682961 138.8622635045491 H 0.0 **** 0.06
15296 C 143.84933462744434 138.76021097463473 147.41381023032892 C 0.0 **** -0.24
15297 H 143.2473813492366 137.9456771406904 147.01044120713766 H 0.0 **** 0.06
15298 H 144.43256732506427 139.2117840076203 146.61124615802322 H 0.0 **** 0.06
15299 H 144.52164754116853 138.37027372362365 148.17790705062595 H 0.0 **** 0.06
15300 H 143.194204768927 139.51038993890808 147.8551536533206 H 0.0 **** 0.06
15301 C 53.82406358605829 13.168732898413907 129.07259977801777 C 0.0 **** -0.24
15302 H 54.84173864025797 13.510412029090958 128.8846782135283 H 0.0 **** 0.06
15303 H 53.81338145096521 12.533248082032173 129.95936337836153 H 0.0 **** 0.06
15304 H 53.466943113819696 12.601526261572644 128.21392567165356 H 0.0 **** 0.06
15305 H 53.17570480330761 14.029606435959124 129.23537971516456 H 0.0 **** 0.06
15306 C 73.1311322566551 67.43765613608545 6.4929553072640545 C 0.0 **** -0.24
15307 H 73.64152428231885 66.52695564685729 6.17928625335324 H 0.0 **** 0.06
15308 H 72.13408123813977 67.18845662093372 6.85613782272064 H 0.0 **** 0.06
15309 H 73.05069730253439 68.11911636985718 5.64677163962449 H 0.0 **** 0.06
15310 H 73.69949640126885 67.91536608998874 7.2913149299074576 H 0.0 **** 0.06
15311 C 75.95090726526276 56.0900389041725 48.53694721423369 C 0.0 **** -0.24
15312 H 75.53663407514975 56.64459441940741 47.694895803167384 H 0.0 **** 0.06
15313 H 76.89183576113918 56.54689303702159 48.84503578365445 H 0.0 **** 0.06
15314 H 76.12822801230574 55.05667992146344 48.24005293275607 H 0.0 **** 0.06
15315 H 75.2464490181443 56.112720583350026 49.36828516232649 H 0.0 **** 0.06
15316 C 5.032708409221776 153.7388691291268 105.56129296849144 C 0.0 **** -0.24
15317 H 4.364709485285893 153.61864507649528 104.70805659740455 H 0.0 **** 0.06
15318 H 4.701990112864024 153.093329514458 106.37545862325084 H 0.0 **** 0.06
15319 H 5.0163592894606595 154.778105646236 105.89080755619847 H 0.0 **** 0.06
15320 H 6.04714379688712 153.46663577543694 105.27059294568801 H 0.0 **** 0.06
15321 C 3.343628138603254 100.5314594582357 109.17882825205844 C 0.0 **** -0.24
15322 H 4.18648746880644 100.13175213430912 109.74330579712277 H 0.0 **** 0.06
15323 H 2.634397546038116 99.73064797323997 108.96975266656516 H 0.0 **** 0.06
15324 H 3.7033647097539983 100.95254275995507 108.24012642703026 H 0.0 **** 0.06
15325 H 2.8523804486700577 101.31021999826783 109.76188261303518 H 0.0 **** 0.06
15326 C 44.8315254683132 32.41250222360529 11.926786460376604 C 0.0 **** -0.24
15327 H 45.84580404374398 32.74883924509262 11.712676586146216 H 0.0 **** 0.06
15328 H 44.82262443458899 31.861098930616016 12.867375570946564 H 0.0 **** 0.06
15329 H 44.487436759826494 31.763004088930558 11.121147680427612 H 0.0 **** 0.06
15330 H 44.17129470597263 33.27603401232045 12.003992959569871 H 0.0 **** 0.06
15331 C 95.71064791243332 97.48867872666683 1.7127317986370443 C 0.0 **** -0.24
15332 H 96.02731332368 97.35844173164192 0.6778965391971639 H 0.0 **** 0.06
15333 H 95.85819807087165 96.55676267832465 2.2581353993603415 H 0.0 **** 0.06
15334 H 94.6557585767242 97.7617623684688 1.7370315994109582 H 0.0 **** 0.06
15335 H 96.30083172890146 98.27925095182451 2.1771554416889067 H 0.0 **** 0.06
15336 C 74.84274996747976 124.39936442297211 107.5709842484474 C 0.0 **** -0.24
15337 H 74.59334189625996 123.34667647338456 107.70314459337884 H 0.0 **** 0.06
15338 H 74.05575561996193 124.8896737126587 106.99715901462535 H 0.0 **** 0.06
15339 H 75.7891448146106 124.48361329147578 107.03671971123764 H 0.0 **** 0.06
15340 H 74.93275753908672 124.87749421436935 108.54691367454798 H 0.0 **** 0.06
15341 C 156.8402177171837 55.12615547237385 43.77664726988775 C 0.0 **** -0.24
15342 H 157.1112081388788 54.59579845653093 42.86328079040392 H 0.0 **** 0.06
15343 H 155.8268026591262 55.51679566622249 43.683144124104075 H 0.0 **** 0.06
15344 H 157.53429656953102 55.95112237236344 43.93741366453571 H 0.0 **** 0.06
15345 H 156.88787800526876 54.44018486344987 44.62264579587378 H 0.0 **** 0.06
15346 C 91.34759689107827 23.721912194492944 117.92127225464263 C 0.0 **** -0.24
15347 H 92.28554763604922 23.189459603150965 117.76412485828742 H 0.0 **** 0.06
15348 H 91.54566949244014 24.79067795772096 118.0021589460231 H 0.0 **** 0.06
15349 H 90.8789806930382 23.368090380357927 118.83982582837818 H 0.0 **** 0.06
15350 H 90.67951671713473 23.53735816044386 117.07952027931928 H 0.0 **** 0.06
15351 C 120.53487924605757 133.80519907948053 116.21614406266133 C 0.0 **** -0.24
15352 H 121.23262879983615 134.35675662642734 115.58607303310123 H 0.0 **** 0.06
15353 H 119.79505755784824 134.49302488869392 116.62710906963116 H 0.0 **** 0.06
15354 H 121.07973401319957 133.3278530679039 117.02993685118116 H 0.0 **** 0.06
15355 H 120.03166457365445 133.04416405980652 115.61950566940357 H 0.0 **** 0.06
15356 C 90.49212606011363 84.70438947876949 109.05982631836316 C 0.0 **** -0.24
15357 H 90.80538424802985 83.69788174743778 109.33917413389655 H 0.0 **** 0.06
15358 H 90.44156290612075 84.7794696047329 107.97349670915928 H 0.0 **** 0.06
15359 H 91.2125937776523 85.42788929945868 109.4415578380878 H 0.0 **** 0.06
15360 H 89.50995722298019 84.90934233847054 109.48467375092493 H 0.0 **** 0.06
15361 C 93.39992660555058 34.66837729191303 14.727558475351877 C 0.0 **** -0.24
15362 H 93.22986143710744 33.6564050740314 15.096246374634312 H 0.0 **** 0.06
15363 H 92.46210652655591 35.224825058605404 14.750820136000208 H 0.0 **** 0.06
15364 H 93.77101394376638 34.62375589597596 13.703457991140588 H 0.0 **** 0.06
15365 H 94.1349650112373 35.166126110621576 15.359311034194924 H 0.0 **** 0.06
15366 C 152.46801850107025 87.69795812393403 104.68482523159354 C 0.0 **** -0.24
15367 H 152.63587538813812 87.64450728548732 105.76027896335016 H 0.0 **** 0.06
15368 H 152.6231426364106 86.71265814755156 104.2435903984914 H 0.0 **** 0.06
15369 H 153.16616510381797 88.40913648734355 104.24324927000772 H 0.0 **** 0.06
15370 H 151.4459599935709 88.02596844053366 104.49315275691247 H 0.0 **** 0.06
15371 C 111.06388289804407 18.42611310765801 31.740085307956008 C 0.0 **** -0.24
15372 H 111.65149611824869 17.636740186567437 32.207809302893594 H 0.0 **** 0.06
15373 H 111.28963400613502 19.379102636368742 32.217858312859164 H 0.0 **** 0.06
15374 H 110.00217089851789 18.20424969158327 31.853738143776866 H 0.0 **** 0.06
15375 H 111.3109536796869 18.482767853215307 30.680021660793244 H 0.0 **** 0.06
15376 C 93.09699054103248 30.06464838543843 84.56180423163298 C 0.0 **** -0.24
15377 H 92.81844289537811 29.131516608152197 84.07116485565687 H 0.0 **** 0.06
15378 H 92.8616385586463 30.904264719429705 83.90666106059595 H 0.0 **** 0.06
15379 H 94.16553629792881 30.057396155135393 84.77399518680781 H 0.0 **** 0.06
15380 H 92.54046288388687 30.164463967629587 85.4941494011736 H 0.0 **** 0.06
15381 C 17.807782896255716 120.30190035330638 12.317211519819153 C 0.0 **** -0.24
15382 H 18.578315318604574 119.78211360607263 12.885370959636845 H 0.0 **** 0.06
15383 H 16.837043605024654 119.84951310441765 12.522027788206742 H 0.0 **** 0.06
15384 H 18.02674934193457 120.22433145014968 11.251648066114967 H 0.0 **** 0.06
15385 H 17.787390075243678 121.35226064539212 12.60840230354222 H 0.0 **** 0.06
15386 C 19.207997401941498 27.70395347592838 132.0251778529559 C 0.0 **** -0.24
15387 H 19.49028212758259 27.66866530928067 133.07764816940426 H 0.0 **** 0.06
15388 H 20.068173146898005 28.010464749119052 131.42871054637627 H 0.0 **** 0.06
15389 H 18.398228081151046 28.42114087710746 131.88991307990847 H 0.0 **** 0.06
15390 H 18.87721670943435 26.716431557638003 131.70518843151604 H 0.0 **** 0.06
15391 C 90.74855398718472 141.73834051450885 147.52157952879458 C 0.0 **** -0.24
15392 H 89.94381614571802 141.96043514363538 146.82049061520064 H 0.0 **** 0.06
15393 H 90.32840453958363 141.31471915334467 148.4331315109826 H 0.0 **** 0.06
15394 H 91.28673643913271 142.65605235992126 147.75966628166537 H 0.0 **** 0.06
15395 H 91.43509996546675 141.02253883761287 147.07005850668264 H 0.0 **** 0.06
15396 C 12.307677256654415 39.43756602064795 115.19688696830225 C 0.0 **** -0.24
15397 H 11.525181829111773 40.17106292856258 115.39545412700717 H 0.0 **** 0.06
15398 H 12.452679989639023 39.34438693224806 114.12037800339733 H 0.0 **** 0.06
15399 H 12.015205478488213 38.4727024853141 115.60971290009853 H 0.0 **** 0.06
15400 H 13.23837344873914 39.76497166406989 115.66146833935592 H 0.0 **** 0.06
15401 C 93.9164362555482 67.14576036673367 2.002341757619263 C 0.0 **** -0.24
15402 H 94.43072216517112 66.4794058065678 1.3102360895967422 H 0.0 **** 0.06
15403 H 93.09519998539395 66.61075595587221 2.4794412712261646 H 0.0 **** 0.06
15404 H 93.52321659674442 68.00387818404442 1.4564884714690152 H 0.0 **** 0.06
15405 H 94.61636422737945 67.48989105244766 2.762813669630816 H 0.0 **** 0.06
15406 C 48.10682642011187 23.367784956234033 142.3329449131619 C 0.0 **** -0.24
15407 H 48.76971489574504 22.52173357644037 142.15189077895292 H 0.0 **** 0.06
15408 H 47.1583525592369 23.006900156615195 142.7303705759843 H 0.0 **** 0.06
15409 H 47.931665941276094 23.897649288748696 141.3968577090779 H 0.0 **** 0.06
15410 H 48.569402109473856 24.043575092031396 143.05275608120655 H 0.0 **** 0.06
15411 C 151.5526918053765 113.79072494630658 89.08668772450288 C 0.0 **** -0.24
15412 H 150.83838916335628 114.29161881778792 88.4327513686909 H 0.0 **** 0.06
15413 H 151.45947681414623 114.18666386680961 90.09738697296629 H 0.0 **** 0.06
15414 H 152.56419757201087 113.96532192993301 88.71902528248101 H 0.0 **** 0.06
15415 H 151.34827002692506 112.72010844574591 89.09473230827038 H 0.0 **** 0.06
15416 C 69.08075368369913 64.37313272686862 141.52467648359743 C 0.0 **** -0.24
15417 H 68.01882085978025 64.53702837195033 141.34177333083522 H 0.0 **** 0.06
15418 H 69.62114170785742 65.30995497064208 141.38983016585993 H 0.0 **** 0.06
15419 H 69.45983847248544 63.629339929931575 140.82306426541882 H 0.0 **** 0.06
15420 H 69.22143918633867 64.01474052046916 142.5448741690259 H 0.0 **** 0.06
15421 C 127.31947639498077 49.225640943165274 77.72742430236326 C 0.0 **** -0.24
15422 H 127.18054194227221 50.11553459026351 78.34208454645562 H 0.0 **** 0.06
15423 H 128.33556694300103 48.850843089622344 77.85625863066116 H 0.0 **** 0.06
15424 H 127.15606332148917 49.47857906546551 76.68064013615773 H 0.0 **** 0.06
15425 H 126.60703526488453 48.45905086156969 78.03181869630444 H 0.0 **** 0.06
15426 C 39.438993536672655 80.77681089744786 22.942792228371445 C 0.0 **** -0.24
15427 H 39.519444897352 81.50895233311525 22.139695006866077 H 0.0 **** 0.06
15428 H 39.29585420773881 81.29320847204798 23.89264136889298 H 0.0 **** 0.06
15429 H 40.35150972146204 80.18258970361975 22.985301518558373 H 0.0 **** 0.06
15430 H 38.588199874556096 80.12224468719253 22.753610062770974 H 0.0 **** 0.06
15431 C 141.1704543238012 131.63195671235908 60.03196182802891 C 0.0 **** -0.24
15432 H 141.44994784247973 131.615547446802 61.0860594638459 H 0.0 **** 0.06
15433 H 141.6810024741552 132.45639683856746 59.533910881099004 H 0.0 **** 0.06
15434 H 140.09249009664782 131.76405323532336 59.944261921553775 H 0.0 **** 0.06
15435 H 141.45998159558567 130.69022026070482 59.56529910455339 H 0.0 **** 0.06
15436 C 24.616531736987355 55.79776399205545 26.78036911507644 C 0.0 **** -0.24
15437 H 24.39733012463403 55.0740661920929 25.994457630089045 H 0.0 **** 0.06
15438 H 23.706309559534496 56.337193768403054 27.041328419211368 H 0.0 **** 0.06
15439 H 25.367951990391106 56.50286728226867 26.423806846696948 H 0.0 **** 0.06
15440 H 24.99565183947584 55.27540652531927 27.658811657724527 H 0.0 **** 0.06
15441 C 139.3746581498364 77.65614598032471 143.5326481222166 C 0.0 **** -0.24
15442 H 139.5465925021379 77.80443082928257 142.46617033064902 H 0.0 **** 0.06
15443 H 140.33094807987254 77.53246225669452 144.04121433017957 H 0.0 **** 0.06
15444 H 138.76588787523684 76.76396522863499 143.6797533030568 H 0.0 **** 0.06
15445 H 138.85410942789542 78.52233389523947 143.94031363924495 H 0.0 **** 0.06
15446 C 23.615115082436382 7.390821276616919 99.64384837103707 C 0.0 **** -0.24
15447 H 22.63837431699792 7.645935176381471 99.2353156574504 H 0.0 **** 0.06
15448 H 24.07506386899521 8.281834824833652 100.07109963017153 H 0.0 **** 0.06
15449 H 24.250644003240886 6.999171528780153 98.8488608392958 H 0.0 **** 0.06
15450 H 23.497835516291474 6.634374889636291 100.42014023244319 H 0.0 **** 0.06
15451 C 150.08316185482278 86.01745183695088 89.72935936548458 C 0.0 **** -0.24
15452 H 150.21297007424585 85.3302138063759 88.89353978279881 H 0.0 **** 0.06
15453 H 150.92972786687642 86.70307626399675 89.76963109595181 H 0.0 **** 0.06
15454 H 150.02901129387544 85.4526995867866 90.6601881847791 H 0.0 **** 0.06
15455 H 149.1621283221088 86.58442472163341 89.59361455526908 H 0.0 **** 0.06
15456 C 58.765980455287036 23.57662193773922 95.04618898537427 C 0.0 **** -0.24
15457 H 58.58171951086052 24.522655009146092 94.53784660222296 H 0.0 **** 0.06
15458 H 59.069013400436404 23.771319829481314 96.07575563673853 H 0.0 **** 0.06
15459 H 59.559693207254156 23.035820856158864 94.52949568039412 H 0.0 **** 0.06
15460 H 57.85535979309469 22.977924661284902 95.04158047218188 H 0.0 **** 0.06
15461 C 109.97441536872189 141.7419828484688 83.97133596168678 C 0.0 **** -0.24
15462 H 110.5269410224302 141.63706723733918 84.90493747257914 H 0.0 **** 0.06
15463 H 109.55583489481582 142.74603997389505 83.90803254746011 H 0.0 **** 0.06
15464 H 109.16869696914499 141.00865748174243 83.94183292900648 H 0.0 **** 0.06
15465 H 110.64783500031474 141.57533242731765 83.12977054329234 H 0.0 **** 0.06
15466 C 144.153368570792 25.664314106213205 73.0796317087487 C 0.0 **** -0.24
15467 H 143.38531933866068 26.416919244738843 73.25467889163048 H 0.0 **** 0.06
15468 H 144.91731055906388 25.736970304000472 73.85335864264385 H 0.0 **** 0.06
15469 H 144.60809466622658 25.830074369056938 72.10253017204911 H 0.0 **** 0.06
15470 H 143.7016139476908 24.67223713757977 73.10634779969962 H 0.0 **** 0.06
15471 C 144.09338272510186 38.78001414412938 70.14421531008604 C 0.0 **** -0.24
15472 H 144.4155207968243 37.748383076219454 70.00431156648838 H 0.0 **** 0.06
15473 H 144.0021598314099 39.26664605301252 69.17319706260261 H 0.0 **** 0.06
15474 H 144.8281439798993 39.31035136326955 70.75010392011008 H 0.0 **** 0.06
15475 H 143.1274156355505 38.79333993777283 70.65031186071324 H 0.0 **** 0.06
15476 C 17.24275977768562 138.0414578319875 35.81079111811107 C 0.0 **** -0.24
15477 H 16.9887591638701 138.5656310016861 34.88928861760795 H 0.0 **** 0.06
15478 H 16.329134530917173 137.7948560031894 36.351964035938366 H 0.0 **** 0.06
15479 H 17.871674842275723 138.68005295489965 36.429912054826616 H 0.0 **** 0.06
15480 H 17.78125876460615 137.12473380670156 35.57037361531776 H 0.0 **** 0.06
15481 C 101.62677174912362 130.63714376777057 76.54554746378273 C 0.0 **** -0.24
15482 H 102.10402896712152 131.60353648108176 76.70657021628534 H 0.0 **** 0.06
15483 H 101.18100003807292 130.61286619096342 75.55070381692602 H 0.0 **** 0.06
15484 H 100.84924306053587 130.48626643398464 77.29511258714271 H 0.0 **** 0.06
15485 H 102.37111981741292 129.8456984037761 76.6300923829952 H 0.0 **** 0.06
15486 C 92.40943343890615 90.34048663018088 135.62425740307216 C 0.0 **** -0.24
15487 H 92.01758911536835 91.04256132132016 134.88816649085484 H 0.0 **** 0.06
15488 H 92.83300692428911 90.8928187179458 136.46271277966218 H 0.0 **** 0.06
15489 H 93.18340618914567 89.72598311138297 135.16377581003545 H 0.0 **** 0.06
15490 H 91.60225584944119 89.70047226005242 135.98042255168247 H 0.0 **** 0.06
15491 C 103.89321973822662 40.77493538352405 60.682396284150656 C 0.0 **** -0.24
15492 H 104.43764779669799 40.169695038372595 59.957875842739625 H 0.0 **** 0.06
15493 H 103.69925978254135 41.760544424067064 60.25919535404783 H 0.0 **** 0.06
15494 H 104.48855430513727 40.88024164202102 61.58947512472635 H 0.0 **** 0.06
15495 H 102.94676243817922 40.29000109458042 60.92288746419587 H 0.0 **** 0.06
15496 C 76.39366628047175 27.125010211884614 37.62369234789432 C 0.0 **** -0.24
15497 H 75.51719727735191 27.009500862494065 36.98733608340639 H 0.0 **** 0.06
15498 H 77.06814758102158 27.86039591730082 37.18362127167339 H 0.0 **** 0.06
15499 H 76.9073085564456 26.167360890192725 37.711556319973184 H 0.0 **** 0.06
15500 H 76.08326390740173 27.462136028972708 38.61237086052729 H 0.0 **** 0.06
15501 C 7.500713388223289 150.2550347004119 12.546706604423775 C 0.0 **** -0.24
15502 H 6.618833310937589 150.69870918484366 12.08427373142456 H 0.0 **** 0.06
15503 H 8.391548072440685 150.78859147597717 12.21477526369921 H 0.0 **** 0.06
15504 H 7.573720591538262 149.20692313008362 12.25717466788717 H 0.0 **** 0.06
15505 H 7.41656970397807 150.32764044692613 13.631726404443384 H 0.0 **** 0.06
15506 C 19.65837364839743 82.05506069311451 156.50643107264798 C 0.0 **** -0.24
15507 H 19.85996036271669 81.15933286242208 155.91820054845388 H 0.0 **** 0.06
15508 H 19.77477805957195 81.82804536413016 157.5657273933214 H 0.0 **** 0.06
15509 H 18.639893879360436 82.39241256982837 156.31555591939556 H 0.0 **** 0.06
15510 H 20.360283741855547 82.84013313461925 156.2223831799337 H 0.0 **** 0.06
15511 C 55.392518850117426 55.582161848854525 153.084635261786 C 0.0 **** -0.24
15512 H 55.680240664448036 55.09647747309529 152.15229063104127 H 0.0 **** 0.06
15513 H 55.020247225593835 56.58480497624541 152.87257326125882 H 0.0 **** 0.06
15514 H 56.2590422356522 55.64805393556179 153.7431222770914 H 0.0 **** 0.06
15515 H 54.610257291872756 54.999597811703794 153.5714685754463 H 0.0 **** 0.06
15516 C 92.74892259971483 152.47861017806775 58.847189548255926 C 0.0 **** -0.24
15517 H 91.88339535315906 153.13799646366567 58.9209121630314 H 0.0 **** 0.06
15518 H 93.06057408628871 152.40476498852902 57.804612473416 H 0.0 **** 0.06
15519 H 92.48275973525656 151.4891520584423 59.21856889620349 H 0.0 **** 0.06
15520 H 93.56551792580301 152.8836988927959 59.44378642807129 H 0.0 **** 0.06
15521 C 79.59493709135866 70.97729367058805 123.20847445570405 C 0.0 **** -0.24
15522 H 80.05094366468695 71.90575074407566 122.86388026112536 H 0.0 **** 0.06
15523 H 80.37569233939567 70.28000935807778 123.50997645439435 H 0.0 **** 0.06
15524 H 79.00849494538981 70.54010225680075 122.40054999256796 H 0.0 **** 0.06
15525 H 78.945143688881 71.18594875098105 124.05754878508134 H 0.0 **** 0.06
15526 C 122.42740133719444 94.68766058406182 100.45899389925472 C 0.0 **** -0.24
15527 H 122.5462086164046 95.75874633419483 100.29430379916198 H 0.0 **** 0.06
15528 H 122.51449449828111 94.16284434402282 99.50778290407351 H 0.0 **** 0.06
15529 H 121.44617141251088 94.49374904625623 100.89287388245168 H 0.0 **** 0.06
15530 H 123.20273794779258 94.33752854253727 101.14080206955515 H 0.0 **** 0.06
15531 C 129.35098913816933 155.56547188570303 70.2890910572641 C 0.0 **** -0.24
15532 H 128.91035686621257 156.25820077444337 69.5712543081977 H 0.0 **** 0.06
15533 H 130.37418075395556 155.33411058116033 69.98922340476145 H 0.0 **** 0.06
15534 H 128.76390134737323 154.64723833200787 70.31580719547463 H 0.0 **** 0.06
15535 H 129.35699716795864 156.02243510469495 71.27812955845701 H 0.0 **** 0.06
15536 C 118.32195932460314 143.9521476506684 86.61497419037534 C 0.0 **** -0.24
15537 H 119.1151971986335 144.66814143105006 86.39911946008482 H 0.0 **** 0.06
15538 H 118.60629225744066 142.97095580920137 86.23472423718216 H 0.0 **** 0.06
15539 H 117.3994928267071 144.27536166917196 86.1325791965787 H 0.0 **** 0.06
15540 H 118.16810160072453 143.89419980456046 87.69161872636637 H 0.0 **** 0.06
15541 C 106.4187264948971 21.122555503898127 6.224535296298832 C 0.0 **** -0.24
15542 H 105.76710353741919 21.6228702759212 5.507853821624863 H 0.0 **** 0.06
15543 H 107.20997135934124 21.805791788610065 6.535307655102237 H 0.0 **** 0.06
15544 H 106.86000151202364 20.241103814269735 5.760489055130606 H 0.0 **** 0.06
15545 H 105.83581507928284 20.82043402336916 7.095884041368365 H 0.0 **** 0.06
15546 C 95.13722886326218 47.72944426894139 112.73566127120718 C 0.0 **** -0.24
15547 H 94.26608746653875 47.168164152243065 113.07373666566683 H 0.0 **** 0.06
15548 H 95.84157866275956 47.05067101810016 112.25346842013313 H 0.0 **** 0.06
15549 H 95.61782324026552 48.204366816260205 113.59176426342209 H 0.0 **** 0.06
15550 H 94.82421819210805 48.49380761048823 112.02456095056 H 0.0 **** 0.06
15551 C 152.2467348137452 20.629324948602118 72.42195519824874 C 0.0 **** -0.24
15552 H 153.1283406736889 20.005999268256176 72.56798889998949 H 0.0 **** 0.06
15553 H 151.8174681972431 20.426982501823716 71.43961236305655 H 0.0 **** 0.06
15554 H 152.52997671258726 21.679684757947427 72.48565724224787 H 0.0 **** 0.06
15555 H 151.51088636618772 20.403896046226976 73.19338537672972 H 0.0 **** 0.06
15556 C 38.188370205545795 90.98328094479768 19.889855638100016 C 0.0 **** -0.24
15557 H 37.22294858610405 90.76164515925414 20.343347980377814 H 0.0 **** 0.06
15558 H 38.83812075059738 91.45296026036752 20.628604752853875 H 0.0 **** 0.06
15559 H 38.04787145495949 91.65981206530353 19.046178892139864 H 0.0 **** 0.06
15560 H 38.64652614330939 90.05742846338113 19.5406407735656 H 0.0 **** 0.06
15561 C 119.64102694533824 96.90444334885979 115.98506484223839 C 0.0 **** -0.24
15562 H 120.10923813601511 97.8865808624434 115.91918724252145 H 0.0 **** 0.06
15563 H 118.5838777358951 97.0208093572065 116.22495271193537 H 0.0 **** 0.06
15564 H 120.12855030741332 96.32196501037737 116.76724170787054 H 0.0 **** 0.06
15565 H 119.74228234361544 96.38902212200998 115.03014654006057 H 0.0 **** 0.06
15566 C 134.83652900407128 101.24120457430932 123.20872645468255 C 0.0 **** -0.24
15567 H 135.83848323206882 100.8360692628133 123.3500550533086 H 0.0 **** 0.06
15568 H 134.90478613012044 102.21950440652417 122.73259088058613 H 0.0 **** 0.06
15569 H 134.34664926048998 101.3414084620914 124.17732993003357 H 0.0 **** 0.06
15570 H 134.25749658589808 100.5684577379459 122.57631771474674 H 0.0 **** 0.06
15571 C 121.3061040841964 130.65504088513518 58.63875399014428 C 0.0 **** -0.24
15572 H 122.13467535434766 130.5548853906752 57.93754488918249 H 0.0 **** 0.06
15573 H 120.60690629816197 129.83111515332774 58.49540643587933 H 0.0 **** 0.06
15574 H 120.79501708302381 131.6014141434136 58.46413331838363 H 0.0 **** 0.06
15575 H 121.69040363030071 130.63260191898405 59.65944497398358 H 0.0 **** 0.06
15576 C 76.80190571995996 59.67231908118504 144.20324314899338 C 0.0 **** -0.24
15577 H 77.78730460787096 59.2091426661442 144.17117663215677 H 0.0 **** 0.06
15578 H 76.26542327278952 59.324222667082324 145.08614923382436 H 0.0 **** 0.06
15579 H 76.24296693238949 59.4016345096756 143.3075724733187 H 0.0 **** 0.06
15580 H 76.9114705266228 60.7556536089117 144.249019918171 H 0.0 **** 0.06
15581 C 107.95072699430953 132.99322792682153 62.87977150179779 C 0.0 **** -0.24
15582 H 107.16638103410448 133.15301210309042 63.61967967567381 H 0.0 **** 0.06
15583 H 108.92548811371124 133.09087965827104 63.35613850557863 H 0.0 **** 0.06
15584 H 107.85684878013721 133.73454029656926 62.08687334439827 H 0.0 **** 0.06
15585 H 107.85069062676338 131.99358310873902 62.45541943660086 H 0.0 **** 0.06
15586 C 152.0675399815138 58.992178196807686 92.19092083578488 C 0.0 **** -0.24
15587 H 152.49077303595743 58.69359804358572 93.14970513197227 H 0.0 **** 0.06
15588 H 151.26042939579776 59.70457126833253 92.3562817310492 H 0.0 **** 0.06
15589 H 151.67858513397584 58.113586225785184 91.67681099625179 H 0.0 **** 0.06
15590 H 152.84369123940434 59.45611677194057 91.58141371645996 H 0.0 **** 0.06
15591 C 126.25801649001751 139.7328801740646 19.937144625654156 C 0.0 **** -0.24
15592 H 127.05356919735685 140.44032710142778 20.16938454564621 H 0.0 **** 0.06
15593 H 125.39724830859616 139.93052214901286 20.576437576854715 H 0.0 **** 0.06
15594 H 126.61343136577317 138.71721713531846 20.11016635824211 H 0.0 **** 0.06
15595 H 125.96722604963786 139.84367144506672 18.89181313167711 H 0.0 **** 0.06
15596 C 121.3293299258189 43.80648473498792 15.415333196814515 C 0.0 **** -0.24
15597 H 121.95256562584846 43.8779995069998 14.523727575739429 H 0.0 **** 0.06
15598 H 121.85480146950665 43.23438934961433 16.18073128615157 H 0.0 **** 0.06
15599 H 120.39354451300447 43.306803461061975 15.166188790000149 H 0.0 **** 0.06
15600 H 121.1180382508061 44.80850713851714 15.791178460447782 H 0.0 **** 0.06
15601 C 149.045340252808 80.86121285188003 97.3301110364444 C 0.0 **** -0.24
15602 H 150.05753683831372 80.62452468409725 97.00094621303566 H 0.0 **** 0.06
15603 H 149.08524434851876 81.63857926861635 98.0943033199909 H 0.0 **** 0.06
15604 H 148.5800972480634 79.9667043908596 97.74442038407483 H 0.0 **** 0.06
15605 H 148.46043638249756 81.21521943077772 96.48224110683157 H 0.0 **** 0.06
15606 C 37.44229012948499 71.84772228902274 57.038996379243684 C 0.0 **** -0.24
15607 H 37.05143120942799 72.8314210232007 57.30205117551043 H 0.0 **** 0.06
15608 H 37.78250123044138 71.85754354028576 56.00326734312692 H 0.0 **** 0.06
15609 H 36.655577502571276 71.10240089525617 57.15666089826273 H 0.0 **** 0.06
15610 H 38.27770361558757 71.60211848862942 57.69469658059998 H 0.0 **** 0.06
15611 C 6.6107983125586145 25.67528377217758 107.03445245031992 C 0.0 **** -0.24
15612 H 6.691731377794042 26.342069889293782 106.17509755608415 H 0.0 **** 0.06
15613 H 6.3303415816051825 24.6777875245227 106.69443926403142 H 0.0 **** 0.06
15614 H 5.851152707396977 26.054270460472083 107.71707553006115 H 0.0 **** 0.06
15615 H 7.571066263000716 25.627953949183905 107.54838730484232 H 0.0 **** 0.06
15616 C 77.77149099996277 98.09417529804705 26.043698569482466 C 0.0 **** -0.24
15617 H 78.11353850101145 97.80310760400168 25.050188731788012 H 0.0 **** 0.06
15618 H 76.98816952997397 97.41000580797368 26.372050971531486 H 0.0 **** 0.06
15619 H 77.37694075477003 99.10915601224823 26.00964141870486 H 0.0 **** 0.06
15620 H 78.60614699721894 98.05158464016606 26.742185517174462 H 0.0 **** 0.06
15621 C 37.45341999083064 57.90160137650631 57.46168726277776 C 0.0 **** -0.24
15622 H 37.01456758194709 58.742829428611515 56.92359465561117 H 0.0 **** 0.06
15623 H 37.62269799011466 58.18440686350756 58.50100228218977 H 0.0 **** 0.06
15624 H 38.40269464452288 57.63108249988902 56.99929907042083 H 0.0 **** 0.06
15625 H 36.773935074935764 57.05116140753945 57.42162819532402 H 0.0 **** 0.06
15626 C 130.4305213998828 107.64519000403921 103.9303890591443 C 0.0 **** -0.24
15627 H 131.07931562725724 107.87200402711817 104.77734193432995 H 0.0 **** 0.06
15628 H 130.87027975186305 106.83947526162343 103.34207278741495 H 0.0 **** 0.06
15629 H 130.32345843054236 108.53300573962754 103.30712875052747 H 0.0 **** 0.06
15630 H 129.45110694147667 107.33677978095567 104.29567540478716 H 0.0 **** 0.06
15631 C 78.84528043694506 120.62330635186093 95.04278493346482 C 0.0 **** -0.24
15632 H 78.10507235808208 119.8248071348058 94.99099039390859 H 0.0 **** 0.06
15633 H 79.39273873562786 120.67332683518255 94.10167281097932 H 0.0 **** 0.06
15634 H 79.54109806716286 120.4212482059814 95.85774200973376 H 0.0 **** 0.06
15635 H 78.34071666634112 121.57300495691628 95.22248372269192 H 0.0 **** 0.06
15636 C 102.19109880310037 46.74543944708179 19.60112552409906 C 0.0 **** -0.24
15637 H 103.14993205212562 47.09339740174141 19.98292739914246 H 0.0 **** 0.06
15638 H 102.35853486499889 46.00085355286399 18.82245055701607 H 0.0 **** 0.06
15639 H 101.63891716951338 47.58809879342243 19.185701255591887 H 0.0 **** 0.06
15640 H 101.61642906376466 46.298693783165675 20.413034203380455 H 0.0 **** 0.06
15641 C 17.449863750229596 83.64247139294632 63.712570970257616 C 0.0 **** -0.24
15642 H 17.355052075526302 82.7395282972878 63.109198621209885 H 0.0 **** 0.06
15643 H 18.48917412054613 83.7697277692775 64.01459650377274 H 0.0 **** 0.06
15644 H 16.821099517303175 83.55588666099119 64.59845543189422 H 0.0 **** 0.06
15645 H 17.133973229997828 84.50507716732645 63.12561174008357 H 0.0 **** 0.06
15646 C 22.07829707012607 126.33387973786004 128.37920403160297 C 0.0 **** -0.24
15647 H 21.228022745994394 126.29579373177471 129.0598101481932 H 0.0 **** 0.06
15648 H 21.76366365747475 126.0091007099907 127.38747167520701 H 0.0 **** 0.06
15649 H 22.866100899513583 125.67487324527816 128.7440604942454 H 0.0 **** 0.06
15650 H 22.454410158602542 127.35563564189367 128.32540351042803 H 0.0 **** 0.06
15651 C 53.70732801414353 73.68192905274141 29.78213611163701 C 0.0 **** -0.24
15652 H 53.4965079406264 72.81636129611259 29.154008712594106 H 0.0 **** 0.06
15653 H 53.36727205516331 74.58759655918487 29.27738165005401 H 0.0 **** 0.06
15654 H 54.77969190836146 73.7470140718431 29.96216733453094 H 0.0 **** 0.06
15655 H 53.18400455339503 73.57776827928166 30.73189119365024 H 0.0 **** 0.06
15656 C 86.45308845538612 95.26764978126744 28.9470423935527 C 0.0 **** -0.24
15657 H 86.59535665945272 95.74549872119337 29.915315472638945 H 0.0 **** 0.06
15658 H 86.14630596179725 96.01477518191388 28.21468126220288 H 0.0 **** 0.06
15659 H 85.68105412104147 94.50226795367519 29.029245386045602 H 0.0 **** 0.06
15660 H 87.3880641838857 94.80730865153691 28.627525406293863 H 0.0 **** 0.06
15661 C 135.2098087666819 140.1269755382159 15.884475814765437 C 0.0 **** -0.24
15662 H 134.5340371757485 139.7211344845253 16.63704039996955 H 0.0 **** 0.06
15663 H 135.49482302011538 141.1422236239981 16.162040041684975 H 0.0 **** 0.06
15664 H 134.71001465403958 140.14083270501123 14.916487458075949 H 0.0 **** 0.06
15665 H 136.10235468304168 139.50306029726806 15.824232333010485 H 0.0 **** 0.06
15666 C 155.74557425461632 14.585085239289924 151.6959412596727 C 0.0 **** -0.24
15667 H 154.86887241026665 14.917113155867526 151.1404730006951 H 0.0 **** 0.06
15668 H 155.89437745038475 15.232294374497144 152.56034950769805 H 0.0 **** 0.06
15669 H 156.62312914264209 14.63171628458366 151.05011800499938 H 0.0 **** 0.06
15670 H 155.59576583548673 13.558486887550657 152.02991869281502 H 0.0 **** 0.06
15671 C 93.536775427555 107.02980472340094 150.07439667521226 C 0.0 **** -0.24
15672 H 94.40798217060468 107.37682039997416 150.6306552718304 H 0.0 **** 0.06
15673 H 93.25131825397631 106.04006365762119 150.42998137211612 H 0.0 **** 0.06
15674 H 93.77986334318452 106.97968417486852 149.0138502074251 H 0.0 **** 0.06
15675 H 92.70979618804486 107.72358391249587 150.22621054408273 H 0.0 **** 0.06
15676 C 8.58574081605434 84.34159577485663 36.84028268251379 C 0.0 **** -0.24
15677 H 9.51400513227486 84.67617505313518 36.37556471969235 H 0.0 **** 0.06
15678 H 8.509013818082394 84.76285284920242 37.842765661493345 H 0.0 **** 0.06
15679 H 8.581973410478781 83.25310604386232 36.902061325823965 H 0.0 **** 0.06
15680 H 7.739378743030159 84.6744900518064 36.23933899247582 H 0.0 **** 0.06
15681 C 112.44432287312537 136.40691992445056 106.45362030080645 C 0.0 **** -0.24
15682 H 112.8576172304281 135.88563470353643 105.59051303963025 H 0.0 **** 0.06
15683 H 113.07485248686032 136.22516189177853 107.32429424294997 H 0.0 **** 0.06
15684 H 111.43659338938238 136.04082515133928 106.65131853777035 H 0.0 **** 0.06
15685 H 112.40771404426141 137.47674732113973 106.24723275788716 H 0.0 **** 0.06
15686 C 125.11363616900127 18.405551293104395 143.40354473612157 C 0.0 **** -0.24
15687 H 125.47243456046294 17.767901862192332 142.59474647097417 H 0.0 **** 0.06
15688 H 124.17007817960717 18.0119804574133 143.78357768017653 H 0.0 **** 0.06
15689 H 124.96105321303395 19.416947756554123 143.02899399997636 H 0.0 **** 0.06
15690 H 125.84991988978027 18.42183111057639 144.20629555570275 H 0.0 **** 0.06
15691 C 19.41504212875435 24.845448933513296 118.22642175646676 C 0.0 **** -0.24
15692 H 20.342969086173895 24.276134555000112 118.27570009543739 H 0.0 **** 0.06
15693 H 19.17472803653601 25.05911445581671 117.1847448077434 H 0.0 **** 0.06
15694 H 19.53441742879076 25.78299756211095 118.77084882059903 H 0.0 **** 0.06
15695 H 18.608572495479308 24.26584577381027 118.67506923853163 H 0.0 **** 0.06
15696 C 78.57256683544637 102.58501859583068 47.52928883798431 C 0.0 **** -0.24
15697 H 79.37922608627662 103.17254566421998 47.090663173205314 H 0.0 **** 0.06
15698 H 77.82074021863383 102.37612635277397 46.76812299205636 H 0.0 **** 0.06
15699 H 78.11781669677185 103.1454883847715 48.346125785957554 H 0.0 **** 0.06
15700 H 78.97460422536017 101.64614760563721 47.91157133745115 H 0.0 **** 0.06
15701 C 139.29121995858625 146.12727872743355 18.633977784127573 C 0.0 **** -0.24
15702 H 138.99470672612907 145.08070277947502 18.719718324497713 H 0.0 **** 0.06
15703 H 139.76227721650486 146.44703268712223 19.564059055553066 H 0.0 **** 0.06
15704 H 138.40990341607824 146.73942969254404 18.44219659900598 H 0.0 **** 0.06
15705 H 139.9974873367668 146.23751200198996 17.810962781948923 H 0.0 **** 0.06
15706 C 152.19425003896254 18.4686126261088 134.91665065601043 C 0.0 **** -0.24
15707 H 152.01029448563992 19.542689386855024 134.9271920446968 H 0.0 **** 0.06
15708 H 151.49443929146355 17.97469796160047 135.59031368276484 H 0.0 **** 0.06
15709 H 153.21503687310815 18.27176050792029 135.24362946243744 H 0.0 **** 0.06
15710 H 152.05640936326392 18.087171081815782 133.9045528388599 H 0.0 **** 0.06
15711 C 112.63651678334905 147.11288005787003 47.7760706828369 C 0.0 **** -0.24
15712 H 112.40557306402339 146.0695894148019 47.55988946855285 H 0.0 **** 0.06
15713 H 113.70005134737649 147.29010605487827 47.61579326248787 H 0.0 **** 0.06
15714 H 112.38392564693986 147.3326872201971 48.81377161641872 H 0.0 **** 0.06
15715 H 112.05603128984443 147.7574695726297 47.11655525606983 H 0.0 **** 0.06
15716 C 142.91539312509718 31.215298785355003 151.59036639043637 C 0.0 **** -0.24
15717 H 142.20164136194316 31.724373033855727 150.94271949644104 H 0.0 **** 0.06
15718 H 143.92906179027847 31.50596678317227 151.31281341510436 H 0.0 **** 0.06
15719 H 142.80240385870835 30.136858071111206 151.4768025670101 H 0.0 **** 0.06
15720 H 142.7288585851604 31.49327847144957 152.62704946039935 H 0.0 **** 0.06
15721 C 80.43330051175096 98.19425612868285 118.72647110650927 C 0.0 **** -0.24
15722 H 80.5742014424557 98.5216758636007 119.75657154723355 H 0.0 **** 0.06
15723 H 79.42907745542313 98.45858704137359 118.3939024369625 H 0.0 **** 0.06
15724 H 80.56289118909959 97.11338438283427 118.6680655501233 H 0.0 **** 0.06
15725 H 81.16883463412469 98.68254903848542 118.08631308129289 H 0.0 **** 0.06
15726 C 78.19558591639063 124.89306751104955 128.77023482669904 C 0.0 **** -0.24
15727 H 77.61827898780861 125.76626210803873 129.0733990770574 H 0.0 **** 0.06
15728 H 79.25931098009742 125.10100841128202 128.88940810223488 H 0.0 **** 0.06
15729 H 77.98515473339891 124.66241161974084 127.7256366903161 H 0.0 **** 0.06
15730 H 77.92008112215424 124.0418715027313 129.39299974255732 H 0.0 **** 0.06
15731 C 150.57512512310768 90.13732016846927 151.63346174236904 C 0.0 **** -0.24
15732 H 150.78838201541367 90.72148886894911 152.52828411397886 H 0.0 **** 0.06
15733 H 149.4971361527963 89.99913225586693 151.53758878030735 H 0.0 **** 0.06
15734 H 151.06125079579178 89.16484509948097 151.71019983927863 H 0.0 **** 0.06
15735 H 150.95332993321546 90.66451757526937 150.75718740706145 H 0.0 **** 0.06
15736 C 50.626934451272064 75.24450686711262 115.53730218798415 C 0.0 **** -0.24
15737 H 50.67804703030008 76.09980315762385 114.86357789049504 H 0.0 **** 0.06
15738 H 49.59447265881259 74.90105287833796 115.61016310360469 H 0.0 **** 0.06
15739 H 50.98189689208269 75.53724695843397 116.52506154712728 H 0.0 **** 0.06
15740 H 51.251215878981796 74.43918268823649 115.15053826885628 H 0.0 **** 0.06
15741 C 131.26097634871613 12.729052816729137 76.1105324124065 C 0.0 **** -0.24
15742 H 131.33361011008907 11.675115341906263 76.37772669714649 H 0.0 **** 0.06
15743 H 130.47214087884103 13.199439276456587 76.69812399963641 H 0.0 **** 0.06
15744 H 131.02747701831964 12.819403031663228 75.0494638062067 H 0.0 **** 0.06
15745 H 132.21157127711888 13.222099381264343 76.31639418882925 H 0.0 **** 0.06
15746 C 142.11143282510108 104.91788405291159 4.3106811170922015 C 0.0 **** -0.24
15747 H 142.50064656715324 105.2302593480943 3.3407269600398877 H 0.0 **** 0.06
15748 H 142.84785484672352 105.13870671712915 5.08370934815639 H 0.0 **** 0.06
15749 H 141.91132718098223 103.84701840705237 4.293356625316619 H 0.0 **** 0.06
15750 H 141.18882158483652 105.45780899432516 4.522610853447645 H 0.0 **** 0.06
15751 C 140.35823507132682 41.79105661164701 117.71310320125366 C 0.0 **** -0.24
15752 H 139.71137911892606 42.04821148237943 118.55182628862667 H 0.0 **** 0.06
15753 H 141.38810790089738 41.711333713856334 118.06018512909401 H 0.0 **** 0.06
15754 H 140.2903995665754 42.56691879725872 116.95027760115664 H 0.0 **** 0.06
15755 H 140.04301482239836 40.83691149217702 117.28959996681226 H 0.0 **** 0.06
15756 C 102.25520761767132 26.151163026316112 156.5169472009275 C 0.0 **** -0.24
15757 H 103.2157336573809 25.967684340479792 156.03377743484225 H 0.0 **** 0.06
15758 H 102.03592322323288 25.338271500733867 157.20871187966236 H 0.0 **** 0.06
15759 H 101.47335168973177 26.20599345445885 155.76046088016122 H 0.0 **** 0.06
15760 H 102.29801363529435 27.092838869568823 157.06441676983226 H 0.0 **** 0.06
15761 C 29.033093369935642 142.4979857547705 89.49371404679282 C 0.0 **** -0.24
15762 H 29.492944675512263 142.00059938348548 88.63927840147055 H 0.0 **** 0.06
15763 H 28.388080700572516 141.79363603650867 90.01955225368528 H 0.0 **** 0.06
15764 H 28.43932876232543 143.3440613298431 89.14504881508373 H 0.0 **** 0.06
15765 H 29.81075709810719 142.85360580599328 90.16887783626248 H 0.0 **** 0.06
15766 C 53.52391255079618 143.9658911521524 99.34524456701614 C 0.0 **** -0.24
15767 H 54.312554328733626 143.23597170762915 99.53046457765858 H 0.0 **** 0.06
15768 H 53.51052741563967 144.22393166491517 98.28595299820722 H 0.0 **** 0.06
15769 H 53.713087760422354 144.86201986248938 99.93607934908151 H 0.0 **** 0.06
15770 H 52.561091124743314 143.53980917588785 99.62825824249559 H 0.0 **** 0.06
15771 C 25.521955726768113 115.6311298376206 102.26831035813797 C 0.0 **** -0.24
15772 H 24.76198211640755 116.36436212779684 102.53838292639847 H 0.0 **** 0.06
15773 H 26.421661704930614 116.14820440863112 101.9335750337263 H 0.0 **** 0.06
15774 H 25.146195386011925 114.9979872322496 101.46389609131063 H 0.0 **** 0.06
15775 H 25.757341237115043 115.0157776991518 103.13586959726638 H 0.0 **** 0.06
15776 C 54.004519679874164 85.5711128357961 97.67963232848679 C 0.0 **** -0.24
15777 H 54.74549930880836 85.3831305621897 98.45617370064716 H 0.0 **** 0.06
15778 H 54.27165350862148 86.47619484455998 97.13346406702628 H 0.0 **** 0.06
15779 H 53.02305482159977 85.70017246703807 98.13755706485624 H 0.0 **** 0.06
15780 H 53.97607952651171 84.72626788709417 96.99236542071736 H 0.0 **** 0.06
15781 C 19.919718002123574 112.00998597825702 108.1604043663005 C 0.0 **** -0.24
15782 H 19.016470827441765 112.61925573117259 108.19253815741348 H 0.0 **** 0.06
15783 H 19.65584731232991 110.98423078203024 107.89894447527274 H 0.0 **** 0.06
15784 H 20.401380777760778 112.02339228449551 109.13811695829054 H 0.0 **** 0.06
15785 H 20.602521111761774 112.41183721554455 107.41269578379638 H 0.0 **** 0.06
15786 C 27.02501270215501 0.8146584018905401 117.57622554745006 C 0.0 **** -0.24
15787 H 27.1042284774742 -0.2693866655702948 117.65483730011636 H 0.0 **** 0.06
15788 H 27.765490907905487 1.1822721576821777 116.86411115758307 H 0.0 **** 0.06
15789 H 27.205168585023465 1.2639186457882943 118.55248255168198 H 0.0 **** 0.06
15790 H 26.02656900642475 1.0815084979462597 117.23176242915628 H 0.0 **** 0.06
15791 C 118.91663045789193 78.04231804742001 41.747137972422735 C 0.0 **** -0.24
15792 H 118.94620709530858 77.45238060481937 42.66296693706563 H 0.0 **** 0.06
15793 H 119.81843831069494 78.65051899396362 41.67861886230395 H 0.0 **** 0.06
15794 H 118.04073230434818 78.69034938688254 41.76000082197157 H 0.0 **** 0.06
15795 H 118.86251176072824 77.37438019091704 40.88630934695699 H 0.0 **** 0.06
15796 C 64.61080076300942 117.36253863561302 27.782538914398515 C 0.0 **** -0.24
15797 H 64.2824791080797 116.35397336251691 27.52964628977091 H 0.0 **** 0.06
15798 H 64.05836009013832 118.08495900743964 27.181524948818236 H 0.0 **** 0.06
15799 H 65.67692879494417 117.4596210575059 27.57771291294179 H 0.0 **** 0.06
15800 H 64.4247960157179 117.55093005793861 28.839004018119397 H 0.0 **** 0.06
15801 C 81.3438493184826 84.25842896056346 64.95316279719273 C 0.0 **** -0.24
15802 H 81.21628872980014 85.06026219909705 64.22556645221829 H 0.0 **** 0.06
15803 H 82.35389353124361 83.85436120176865 64.87474306303537 H 0.0 **** 0.06
15804 H 80.62002762951006 83.46921586826016 64.75473783667167 H 0.0 **** 0.06
15805 H 81.18648277130059 84.65236411319349 65.95723726496067 H 0.0 **** 0.06
15806 C 130.4204888254971 153.87582682567867 40.20540188373293 C 0.0 **** -0.24
15807 H 130.9300121295097 153.1373407108753 39.58630581931857 H 0.0 **** 0.06
15808 H 129.41788882846004 154.04767057197685 39.813846469705126 H 0.0 **** 0.06
15809 H 130.98162386279301 154.81122784035077 40.19121928547001 H 0.0 **** 0.06
15810 H 130.3535422416729 153.507778975217 41.228733000567786 H 0.0 **** 0.06
15811 C 90.64435951718696 120.49681739125987 32.83109920305108 C 0.0 **** -0.24
15812 H 90.98801165353122 119.47940713453261 32.64429917584347 H 0.0 **** 0.06
15813 H 90.32283213140605 120.94915899772559 31.893071018292417 H 0.0 **** 0.06
15814 H 91.45775314364091 121.08253796738103 33.25791514165879 H 0.0 **** 0.06
15815 H 89.80754102867003 120.47424485106785 33.529899604554835 H 0.0 **** 0.06
15816 C 105.13977110368477 63.93020078112346 46.429594748538534 C 0.0 **** -0.24
15817 H 104.37600646244822 64.54515517334198 45.95333185178498 H 0.0 **** 0.06
15818 H 104.71741565638722 63.444027343307795 47.309084907910915 H 0.0 **** 0.06
15819 H 105.97827813289372 64.55902698053876 46.72888598399379 H 0.0 **** 0.06
15820 H 105.48738416300993 63.172593627305105 45.72707625046442 H 0.0 **** 0.06
15821 C 108.76532638983433 16.888175042592167 103.66233475583851 C 0.0 **** -0.24
15822 H 108.21698137761835 15.951110527395429 103.5693805167731 H 0.0 **** 0.06
15823 H 109.67138919828257 16.84134046419382 103.05713278695896 H 0.0 **** 0.06
15824 H 109.03296947060782 17.05030692974887 104.7068174643282 H 0.0 **** 0.06
15825 H 108.13889572440077 17.710866432934466 103.31604701004306 H 0.0 **** 0.06
15826 C 131.70402266226603 59.55036006745502 27.473680711513623 C 0.0 **** -0.24
15827 H 132.40547017194928 60.113502856947946 28.08773298906044 H 0.0 **** 0.06
15828 H 131.0518342426852 58.95963905484865 28.117009262093376 H 0.0 **** 0.06
15829 H 132.2544613691452 58.887664805999464 26.80653765113209 H 0.0 **** 0.06
15830 H 131.10148286751587 60.24139246184856 26.882853539401594 H 0.0 **** 0.06
15831 C 114.53764173520801 95.09248614996604 34.01982743259788 C 0.0 **** -0.24
15832 H 115.46562178310461 95.34295570915063 34.53508051884272 H 0.0 **** 0.06
15833 H 114.08069122509255 94.2257309806115 34.49759242305615 H 0.0 **** 0.06
15834 H 114.75236589970604 94.86200024712765 32.976763472964706 H 0.0 **** 0.06
15835 H 113.85386783296349 95.93966232137636 34.07209073212147 H 0.0 **** 0.06
15836 C 17.134489977567142 112.33982716015011 3.3992929923936117 C 0.0 **** -0.24
15837 H 17.227410456777193 112.39079511683802 2.3138586253156177 H 0.0 **** 0.06
15838 H 16.541344665154867 113.18307733941977 3.7528512448354263 H 0.0 **** 0.06
15839 H 18.12624845522268 112.3778366101093 3.850685390417368 H 0.0 **** 0.06
15840 H 16.643948844166232 111.40751642529595 3.677538807452322 H 0.0 **** 0.06
15841 C 36.19157722258086 150.659783705197 148.25080276985975 C 0.0 **** -0.24
15842 H 36.03719127483437 149.5874989796052 148.12752202894177 H 0.0 **** 0.06
15843 H 37.07500849815864 150.83109810997098 148.86500810424718 H 0.0 **** 0.06
15844 H 35.319278777155624 151.09861700819604 148.73613611455997 H 0.0 **** 0.06
15845 H 36.33261039499699 151.1202085061991 147.27308179290833 H 0.0 **** 0.06
15846 C 120.77146740845136 79.63436435672489 17.646555239835223 C 0.0 **** -0.24
15847 H 120.64545835265069 80.50901569280563 18.284184762727755 H 0.0 **** 0.06
15848 H 121.56114402186888 79.00047368333527 18.051655446436513 H 0.0 **** 0.06
15849 H 121.04219925629816 79.95439887538984 16.640311308609476 H 0.0 **** 0.06
15850 H 119.83792437942363 79.07374801253866 17.611180612915987 H 0.0 **** 0.06
15851 C 53.560035364231226 155.93639736205222 149.52328889908833 C 0.0 **** -0.24
15852 H 53.78016739075758 156.0810144252854 148.46515823767544 H 0.0 **** 0.06
15853 H 52.48644617638149 155.79692035258077 149.6549860235824 H 0.0 **** 0.06
15854 H 53.88543974774336 156.81216341560247 150.0837560623585 H 0.0 **** 0.06
15855 H 54.08795066097866 155.05425244669158 149.88652639997983 H 0.0 **** 0.06
15856 C 79.21783133140895 58.431610216967215 50.604297317041244 C 0.0 **** -0.24
15857 H 80.1903217386668 58.81271773635646 50.293911892041436 H 0.0 **** 0.06
15858 H 79.31763128505551 57.39076429216482 50.911647916204416 H 0.0 **** 0.06
15859 H 78.51925178335122 58.49901594600766 49.7708006302891 H 0.0 **** 0.06
15860 H 78.84533182426378 59.024611604424535 51.43907220595625 H 0.0 **** 0.06
15861 C 145.35907802308458 133.96699692998675 115.0440249363884 C 0.0 **** -0.24
15862 H 145.1739638700844 133.77645389965218 116.10152094113867 H 0.0 **** 0.06
15863 H 145.89009396886428 134.91177060376816 114.93289706681556 H 0.0 **** 0.06
15864 H 144.4084871407022 134.01841749035657 114.51349919801073 H 0.0 **** 0.06
15865 H 145.9624812442042 133.15935128083115 114.63001802943641 H 0.0 **** 0.06
15866 C 48.93106488315324 28.69219558117934 69.81877904090102 C 0.0 **** -0.24
15867 H 49.483317145655604 28.498372517986923 70.73864302500449 H 0.0 **** 0.06
15868 H 48.87344864150188 29.767638793625743 69.65077327532305 H 0.0 **** 0.06
15869 H 47.92483359996278 28.28357629684207 69.90743867762335 H 0.0 **** 0.06
15870 H 49.443984013601735 28.219579672214792 68.98159279266629 H 0.0 **** 0.06
15871 C 39.21555006861172 101.01311745825608 88.35876928848889 C 0.0 **** -0.24
15872 H 38.543691994847165 101.85061803765579 88.16750972427383 H 0.0 **** 0.06
15873 H 38.629530380859194 100.11394936187493 88.55055654222193 H 0.0 **** 0.06
15874 H 39.834755331453465 101.23676856925333 89.22813096847138 H 0.0 **** 0.06
15875 H 39.85375221419781 100.8533031502612 87.48915034250565 H 0.0 **** 0.06
15876 C 151.54361491868028 98.48651903439833 24.97865560094789 C 0.0 **** -0.24
15877 H 151.5533116464838 99.07314079001355 25.897127457268994 H 0.0 **** 0.06
15878 H 151.79026685514026 97.44972338754093 25.208057627764845 H 0.0 **** 0.06
15879 H 152.27980594561672 98.89046199532785 24.282844156481417 H 0.0 **** 0.06
15880 H 150.55272310846632 98.53362829707322 24.527823277419884 H 0.0 **** 0.06
15881 C 116.92711858226414 104.03140673206819 36.36147967627646 C 0.0 **** -0.24
15882 H 117.00218065603406 104.30589579763095 37.41357145062945 H 0.0 **** 0.06
15883 H 116.47803926351406 103.04172543892686 36.27579194692866 H 0.0 **** 0.06
15884 H 117.92282118162649 104.01967437707812 35.91844993924575 H 0.0 **** 0.06
15885 H 116.30599390511588 104.75989995484473 35.83959706923895 H 0.0 **** 0.06
15886 C 27.795998270088376 105.58963464869434 42.46450652738659 C 0.0 **** -0.24
15887 H 27.018830320696793 105.67492988831968 43.22282922489046 H 0.0 **** 0.06
15888 H 27.99035660063504 104.53640688887306 42.25945329239261 H 0.0 **** 0.06
15889 H 28.709346991413668 106.06428683619457 42.82441778816974 H 0.0 **** 0.06
15890 H 27.466472059617217 106.08264714907078 41.54935033494051 H 0.0 **** 0.06
15891 C 73.97004223709996 148.42532144467708 102.40170985543136 C 0.0 **** -0.24
15892 H 72.9328109786585 148.46392972573656 102.73478701464438 H 0.0 **** 0.06
15893 H 74.04796810398241 148.8597729472512 101.4043878578675 H 0.0 **** 0.06
15894 H 74.30586856697066 147.3887688940074 102.37540109712307 H 0.0 **** 0.06
15895 H 74.59391052861058 148.9911782891159 103.09432742003509 H 0.0 **** 0.06
15896 C 124.48894262557455 31.1927681105432 16.5669322371931 C 0.0 **** -0.24
15897 H 124.51825469089174 30.25018738873996 16.018853676185643 H 0.0 **** 0.06
15898 H 125.17959638760131 31.14375234806485 17.408830990151927 H 0.0 **** 0.06
15899 H 123.47783346517978 31.367371216650753 16.934596063256322 H 0.0 **** 0.06
15900 H 124.77978109155892 32.00724063633483 15.904202177551753 H 0.0 **** 0.06
15901 C 40.98824520658309 62.99956532886296 141.01308089421042 C 0.0 **** -0.24
15902 H 41.83264576303439 63.092591052059646 141.69526382537344 H 0.0 **** 0.06
15903 H 40.21885400291487 63.72193551430615 141.2863704364472 H 0.0 **** 0.06
15904 H 40.5796723270697 61.99140707174132 141.07649049001563 H 0.0 **** 0.06
15905 H 41.323101912974806 63.192135850439854 139.99306260915836 H 0.0 **** 0.06
15906 C 136.89539071962224 8.976963071905004 91.31210352043455 C 0.0 **** -0.24
15907 H 136.7256854289741 10.053725932543557 91.29627508806317 H 0.0 **** 0.06
15908 H 135.9627981016995 8.459418325083902 91.08863294927836 H 0.0 **** 0.06
15909 H 137.24991056113964 8.67907580323299 92.29868677455568 H 0.0 **** 0.06
15910 H 137.64394712939855 8.716914666379353 90.56316104971833 H 0.0 **** 0.06
15911 C 127.038395498297 70.50576965187754 57.10873600241665 C 0.0 **** -0.24
15912 H 126.91580443307691 69.79548021340212 57.92571762979013 H 0.0 **** 0.06
15913 H 126.51318611654506 70.13739291329992 56.22683499112995 H 0.0 **** 0.06
15914 H 128.0981657975994 70.61764653193394 56.880396043942554 H 0.0 **** 0.06
15915 H 126.6254659873614 71.47116994161436 57.40160828945599 H 0.0 **** 0.06
15916 C 121.53899986743812 31.07274569567204 6.481051207353261 C 0.0 **** -0.24
15917 H 121.0768066055897 32.024551813488074 6.7405702528495794 H 0.0 **** 0.06
15918 H 121.5750733872818 30.970328776585973 5.396626412344801 H 0.0 **** 0.06
15919 H 120.95447871619848 30.256846502792882 6.904758845058211 H 0.0 **** 0.06
15920 H 122.55218216230236 31.04014984668595 6.883110725978327 H 0.0 **** 0.06
15921 C 129.13353564236493 126.60513471150074 86.74846000732319 C 0.0 **** -0.24
15922 H 129.99113704468652 126.48847081811283 87.41126469310728 H 0.0 **** 0.06
15923 H 129.09764196648686 127.62884956494992 86.3770098944254 H 0.0 **** 0.06
15924 H 128.21862788517336 126.38422532449124 87.29780461180701 H 0.0 **** 0.06
15925 H 129.2288681984647 125.91611792705112 85.90819201226773 H 0.0 **** 0.06
15926 C 47.98871333194879 16.486955418006154 9.00628147974578 C 0.0 **** -0.24
15927 H 48.9969918368956 16.792164929210102 9.28529629360736 H 0.0 **** 0.06
15928 H 47.64524442609263 17.092110085021893 8.167546362821327 H 0.0 **** 0.06
15929 H 47.318977369871476 16.626597990297697 9.854473877619512 H 0.0 **** 0.06
15930 H 47.9946291438325 15.43595683343166 8.71761619805659 H 0.0 **** 0.06
15931 C 136.98840041424668 65.56752060964871 134.34115185517805 C 0.0 **** -0.24
15932 H 137.88842775578954 65.1313303270386 133.90815707123545 H 0.0 **** 0.06
15933 H 136.36561012561327 64.77599387923567 134.7567361783097 H 0.0 **** 0.06
15934 H 136.43412393183291 66.09826989545309 133.56666720806876 H 0.0 **** 0.06
15935 H 137.26648025731953 66.2652776591944 135.13123183979135 H 0.0 **** 0.06
15936 C 3.6909407383023876 130.72143985555533 146.37226829391687 C 0.0 **** -0.24
15937 H 3.3537862226096564 129.84621540690978 146.9287273744625 H 0.0 **** 0.06
15938 H 4.444404175710545 130.42056152775265 145.6436965525494 H 0.0 **** 0.06
15939 H 4.121821992942536 131.44643591145046 147.0621572022488 H 0.0 **** 0.06
15940 H 2.8437876767866896 131.17113347216974 145.85453476462817 H 0.0 **** 0.06
15941 C 8.959062039552293 121.38244122801565 85.60886863515519 C 0.0 **** -0.24
15942 H 8.08310941466749 121.97712752042541 85.86947928036628 H 0.0 **** 0.06
15943 H 9.788454503537594 121.6546049881987 86.26165703827436 H 0.0 **** 0.06
15944 H 9.23382361337741 121.57596809495762 84.57245459251183 H 0.0 **** 0.06
15945 H 8.729470550206827 120.32434574840592 85.73324855157706 H 0.0 **** 0.06
15946 C 119.69399714892148 79.29721171222332 72.63642267816603 C 0.0 **** -0.24
15947 H 118.78441808189069 79.88379354374734 72.50771625735018 H 0.0 **** 0.06
15948 H 120.53867338411823 79.83898825686896 72.2098187244195 H 0.0 **** 0.06
15949 H 119.5831333822614 78.33936330672293 72.12822554515945 H 0.0 **** 0.06
15950 H 119.86870658866053 79.1277695365419 73.69827416883335 H 0.0 **** 0.06
15951 C 47.980063639495555 19.543983234849264 117.01623091940446 C 0.0 **** -0.24
15952 H 47.55055853003198 19.69706170037079 118.00650564393074 H 0.0 **** 0.06
15953 H 47.992257540724424 18.479551591098485 116.78595240665312 H 0.0 **** 0.06
15954 H 48.99913334201548 19.93215363344713 116.9996357951817 H 0.0 **** 0.06
15955 H 47.37928008016043 20.070237115212898 116.27473201423841 H 0.0 **** 0.06
15956 C 87.7292127239254 81.81871667496983 79.03143075380808 C 0.0 **** -0.24
15957 H 88.53828934118862 82.20806918321144 79.64936143011647 H 0.0 **** 0.06
15958 H 88.14847295026665 81.26111915664646 78.19314167227606 H 0.0 **** 0.06
15959 H 87.1306894210837 82.64757054149267 78.65263421879115 H 0.0 **** 0.06
15960 H 87.10088357016632 81.15891595920257 79.62881264605909 H 0.0 **** 0.06
15961 C 73.05111764705191 13.51894288726379 129.77396276585753 C 0.0 **** -0.24
15962 H 73.68687145223788 13.56720788903641 128.88973866055036 H 0.0 **** 0.06
15963 H 73.53403389873489 12.908388018486818 130.53638409957478 H 0.0 **** 0.06
15964 H 72.09160686623736 13.075313721053078 129.50662043341697 H 0.0 **** 0.06
15965 H 72.89113622644213 14.52489644821111 130.1619576737024 H 0.0 **** 0.06
15966 C 44.38341387713291 127.23559424115626 142.28344737301222 C 0.0 **** -0.24
15967 H 45.01866676760156 127.74422077993046 143.00921077029398 H 0.0 **** 0.06
15968 H 44.67392264548343 127.53276227112224 141.27551011995328 H 0.0 **** 0.06
15969 H 43.34259161451968 127.50951535417681 142.45728904698746 H 0.0 **** 0.06
15970 H 44.498100988515034 126.15801388200407 142.3923282473737 H 0.0 **** 0.06
15971 C 127.48932348821678 145.2012389665199 132.26381857004728 C 0.0 **** -0.24
15972 H 128.21414697807262 144.42566173612494 132.01704027053952 H 0.0 **** 0.06
15973 H 126.67043326692006 145.17545995766739 131.54498972071835 H 0.0 **** 0.06
15974 H 127.97517801792903 146.17731890736502 132.22554238855898 H 0.0 **** 0.06
15975 H 127.09891524763673 145.02839308182507 133.26694637436177 H 0.0 **** 0.06
15976 C 31.242779326513585 78.15792318688656 78.67000169815354 C 0.0 **** -0.24
15977 H 30.329040885605693 78.68109766161689 78.38904763755204 H 0.0 **** 0.06
15978 H 31.9298946336043 78.14556188495857 77.82329073225921 H 0.0 **** 0.06
15979 H 31.001975578375877 77.13489028327814 78.95723308739242 H 0.0 **** 0.06
15980 H 31.710759773367734 78.67063928351666 79.51110408007106 H 0.0 **** 0.06
15981 C 130.61320764515568 22.701610820978516 43.80033261830607 C 0.0 **** -0.24
15982 H 130.6032479448201 23.593542080928614 44.42662655559042 H 0.0 **** 0.06
15983 H 129.63022910916368 22.563998057193714 43.34844586494198 H 0.0 **** 0.06
15984 H 130.85816978361277 21.832793464949646 44.41087222192584 H 0.0 **** 0.06
15985 H 131.36239665002267 22.817509385546288 43.016638765762906 H 0.0 **** 0.06
15986 C 29.79291392273427 97.68401791712316 33.47193207532557 C 0.0 **** -0.24
15987 H 29.94550555657503 98.45215805898033 34.22974482963192 H 0.0 **** 0.06
15988 H 28.725261749276456 97.5629997992531 33.287532680969434 H 0.0 **** 0.06
15989 H 30.210520896125104 96.73981238767635 33.82396625238628 H 0.0 **** 0.06
15990 H 30.290478190109525 97.98002907821052 32.54868408783696 H 0.0 **** 0.06
15991 C 6.735964874006186 47.46939230721995 122.88046040190324 C 0.0 **** -0.24
15992 H 6.113886935203965 46.57354937331118 122.8882189358497 H 0.0 **** 0.06
15993 H 6.804374780154546 47.87216405551189 123.89155916619575 H 0.0 **** 0.06
15994 H 6.2902446137834716 48.21440160647184 122.22192244465356 H 0.0 **** 0.06
15995 H 7.7327090658716315 47.21550204379007 122.52058625645321 H 0.0 **** 0.06
15996 C 50.78095453083799 71.33885242863073 87.93209250239369 C 0.0 **** -0.24
15997 H 50.60208055987451 70.31153563185899 88.24912241507823 H 0.0 **** 0.06
15998 H 50.156230995443735 72.01349933328436 88.51843605871065 H 0.0 **** 0.06
15999 H 50.53424006842454 71.44149360195047 86.8747673514006 H 0.0 **** 0.06
16000 H 51.82993561743373 71.58926238998367 88.08633309933725 H 0.0 **** 0.06
16001 C 57.196774903746245 31.355613683181417 98.9744119549337 C 0.0 **** -0.24
16002 H 56.549583650700015 30.561281714420858 98.60311710888907 H 0.0 **** 0.06
16003 H 56.59063130505483 32.115067538594346 99.46983551098116 H 0.0 **** 0.06
16004 H 57.733903553901484 31.805944759415013 98.13993104337625 H 0.0 **** 0.06
16005 H 57.91087734674676 30.939419340003496 99.6849213755723 H 0.0 **** 0.06
16006 C 148.3774137038435 41.98581159589253 136.7153601556144 C 0.0 **** -0.24
16007 H 148.83231550763998 42.212518289617265 135.75207253768627 H 0.0 **** 0.06
16008 H 147.30294226994363 41.847976652492605 136.58622300264034 H 0.0 **** 0.06
16009 H 148.55707269663714 42.80972805376132 137.4058968911262 H 0.0 **** 0.06
16010 H 148.81519545469388 41.07238206931049 137.11827617372165 H 0.0 **** 0.06
16011 C 155.76605369122723 39.25481434954389 35.19305677826046 C 0.0 **** -0.24
16012 H 154.81280261859402 39.6646459892318 35.527318800880096 H 0.0 **** 0.06
16013 H 156.5636758552538 39.614863046548805 35.84366305212134 H 0.0 **** 0.06
16014 H 155.95929808745456 39.57426718084798 34.1691494814472 H 0.0 **** 0.06
16015 H 155.72716683022338 38.166472025424696 35.233645617578375 H 0.0 **** 0.06
16016 C 52.04924054904343 61.10184523061828 108.2694925605082 C 0.0 **** -0.24
16017 H 51.14244548417584 60.68573374297702 108.70724200599601 H 0.0 **** 0.06
16018 H 52.61400366833236 61.63015959801983 109.03784809700822 H 0.0 **** 0.06
16019 H 51.78271690311328 61.79636906868983 107.47228337662365 H 0.0 **** 0.06
16020 H 52.65807309853821 60.29637675313903 107.86001350380955 H 0.0 **** 0.06
16021 C 112.40469480731569 154.68277972722376 51.3517820743443 C 0.0 **** -0.24
16022 H 111.38003830806908 155.05598210095923 51.335572133814935 H 0.0 **** 0.06
16023 H 112.79491759713495 154.7402132042796 52.368556033188156 H 0.0 **** 0.06
16024 H 113.02277027586273 155.29021351618343 50.690124609745794 H 0.0 **** 0.06
16025 H 112.41934885209785 153.64667937462093 51.01466938497245 H 0.0 **** 0.06
16026 C 152.39618004172894 68.64075479863617 40.1668471733814 C 0.0 **** -0.24
16027 H 153.3640609612429 68.88295402992865 39.72660773068287 H 0.0 **** 0.06
16028 H 152.2867328424123 67.55795078468893 40.22796551349347 H 0.0 **** 0.06
16029 H 151.60148040527577 69.05335219895063 39.54493113470497 H 0.0 **** 0.06
16030 H 152.33513226713873 69.06977710942338 41.167016008060386 H 0.0 **** 0.06
16031 C 50.5089034129206 58.65715982033208 57.31214448300568 C 0.0 **** -0.24
16032 H 49.691022584006305 59.294921043649424 56.97676522861792 H 0.0 **** 0.06
16033 H 51.09791015010161 59.18698000810241 58.060781446453234 H 0.0 **** 0.06
16034 H 51.14247020690701 58.40277699049312 56.462533890005716 H 0.0 **** 0.06
16035 H 50.10108093264192 57.74505812653962 57.748456312518044 H 0.0 **** 0.06
16036 C 115.56382654107271 22.329918425526387 36.61024255268259 C 0.0 **** -0.24
16037 H 116.65381396023581 22.35187895116212 36.602836543955576 H 0.0 **** 0.06
16038 H 115.17946242189468 23.281731350254034 36.24217994183729 H 0.0 **** 0.06
16039 H 115.21107485763956 22.16493702940761 37.628456709892546 H 0.0 **** 0.06
16040 H 115.21244644760434 21.522788814877032 35.96738837374575 H 0.0 **** 0.06
16041 C 62.861657358636876 37.919851927374765 117.65125251952183 C 0.0 **** -0.24
16042 H 62.23145988087691 37.8585100562032 118.53847063464893 H 0.0 **** 0.06
16043 H 63.86770530023992 37.57789932805029 117.89628244152435 H 0.0 **** 0.06
16044 H 62.903411928555556 38.952164222085386 117.30585346347358 H 0.0 **** 0.06
16045 H 62.443938155988704 37.28998617268199 116.86552961324641 H 0.0 **** 0.06
16046 C 24.407289284650687 51.455393971474166 101.99479675306776 C 0.0 **** -0.24
16047 H 23.480061840194487 50.898716196406696 101.85691705932845 H 0.0 **** 0.06
16048 H 25.24539125608407 50.85918772057558 101.63310091065784 H 0.0 **** 0.06
16049 H 24.54667234001115 51.672711873049494 103.05401768418824 H 0.0 **** 0.06
16050 H 24.35743382106977 52.38961125042438 101.43501358443467 H 0.0 **** 0.06
16051 C 133.5977446464033 85.21554004771338 150.64061467933388 C 0.0 **** -0.24
16052 H 132.62810728857193 84.73731575525011 150.49847874487267 H 0.0 **** 0.06
16053 H 133.46033987087932 86.17680004787678 151.1344717115699 H 0.0 **** 0.06
16054 H 134.0730404779835 85.36799721393129 149.6709413329066 H 0.0 **** 0.06
16055 H 134.23018050290113 84.5764757345132 151.25768955039675 H 0.0 **** 0.06
16056 C 5.772196179862959 49.04409831182893 69.0541464114068 C 0.0 **** -0.24
16057 H 6.413791945093209 49.04651481151714 68.17375634943426 H 0.0 **** 0.06
16058 H 4.808029364986055 48.60339152988713 68.80004492292096 H 0.0 **** 0.06
16059 H 5.624317572119622 50.067743527712764 69.39890295712564 H 0.0 **** 0.06
16060 H 6.2418772117064805 48.45826055335429 69.84535660853658 H 0.0 **** 0.06
16061 C 45.902047999636565 82.07222183238358 65.61155399143672 C 0.0 **** -0.24
16062 H 45.464643350369315 82.69327739299172 66.39356156792638 H 0.0 **** 0.06
16063 H 45.5273844480556 82.39569680267593 64.63989413773965 H 0.0 **** 0.06
16064 H 45.628454752514386 81.03039934965312 65.77906616222191 H 0.0 **** 0.06
16065 H 46.98727520486747 82.17107486627441 65.63430610577706 H 0.0 **** 0.06
16066 C 72.3320699016366 150.0604841124484 76.19656924279796 C 0.0 **** -0.24
16067 H 73.12096838107631 150.54058673891706 75.61646548497168 H 0.0 **** 0.06
16068 H 71.56864863607137 150.79654988544144 76.44920698912645 H 0.0 **** 0.06
16069 H 72.75472242741611 149.64636928024908 77.11113874217654 H 0.0 **** 0.06
16070 H 71.88453122761126 149.25984344816752 75.60708781316343 H 0.0 **** 0.06
16071 C 120.41157772138274 12.66244701063205 91.63322448355024 C 0.0 **** -0.24
16072 H 119.81094844126494 13.569257802992617 91.55241375237897 H 0.0 **** 0.06
16073 H 120.36268851205 12.284377171737361 92.65372468889386 H 0.0 **** 0.06
16074 H 121.44693007560363 12.890139954675341 91.37848517354145 H 0.0 **** 0.06
16075 H 120.02571423612267 11.909509721608643 90.94608950702175 H 0.0 **** 0.06
16076 C 50.98212028379835 149.7715057183471 112.87117007228227 C 0.0 **** -0.24
16077 H 50.79884451972373 148.72351654695817 112.63210649918523 H 0.0 **** 0.06
16078 H 51.778068564121085 149.83939242162373 113.61302411065384 H 0.0 **** 0.06
16079 H 50.07215095168013 150.2171045787459 113.27188956422378 H 0.0 **** 0.06
16080 H 51.28076275674317 150.30332826675155 111.96769781074454 H 0.0 **** 0.06
16081 C 89.81412186704364 130.01185427677476 40.44519231363654 C 0.0 **** -0.24
16082 H 90.10796179503075 130.8128235040997 41.12281612593398 H 0.0 **** 0.06
16083 H 89.00043587443236 130.35569376043128 39.80643477503702 H 0.0 **** 0.06
16084 H 89.48247745225933 129.14942493949107 41.023605919085696 H 0.0 **** 0.06
16085 H 90.66688779873246 129.72882938564567 39.82693436170268 H 0.0 **** 0.06
16086 C 88.09956930624024 77.36257539431851 112.36081807541275 C 0.0 **** -0.24
16087 H 87.03312360576417 77.22188683636918 112.1821200089678 H 0.0 **** 0.06
16088 H 88.32335233245963 77.14752535823446 113.40557752233728 H 0.0 **** 0.06
16089 H 88.37268784693961 78.39303952261757 112.13355916161244 H 0.0 **** 0.06
16090 H 88.66627618497617 76.68626464343293 111.72016155128027 H 0.0 **** 0.06
16091 C 126.34177557942093 135.92297328180658 75.90052936087386 C 0.0 **** -0.24
16092 H 126.95536548564758 136.82428615299506 75.90620667588445 H 0.0 **** 0.06
16093 H 125.93646801153818 135.75325713337583 76.89731962406117 H 0.0 **** 0.06
16094 H 126.95378492069426 135.06989543489016 75.60592376604666 H 0.0 **** 0.06
16095 H 125.52394821616872 136.0453097531496 75.19038792216395 H 0.0 **** 0.06
16096 C 95.17474517510243 102.93267828163391 30.732997117742656 C 0.0 **** -0.24
16097 H 95.46331993036335 101.92569003336729 31.035074862993504 H 0.0 **** 0.06
16098 H 94.53826519940918 102.87796943762754 29.849929822649244 H 0.0 **** 0.06
16099 H 96.0683530755341 103.5128187325725 30.503374297657558 H 0.0 **** 0.06
16100 H 94.6279716406051 103.41190314115494 31.545936815497733 H 0.0 **** 0.06
16101 C 101.24307603640263 154.30966605031526 49.5086894365098 C 0.0 **** -0.24
16102 H 101.29440900146919 154.46127235801524 50.5866695434033 H 0.0 **** 0.06
16103 H 100.86390377864807 153.3087395576538 49.29998327582939 H 0.0 **** 0.06
16104 H 102.23826972634784 154.41717976701176 49.07891630471079 H 0.0 **** 0.06
16105 H 100.57509248629522 155.05069575008915 49.069217430986214 H 0.0 **** 0.06
16106 C 87.06369083421032 87.23067500065876 53.72689419086505 C 0.0 **** -0.24
16107 H 86.57965765053837 86.41816298122261 53.185487920493856 H 0.0 **** 0.06
16108 H 88.13127643138992 87.22809859169807 53.507791442208955 H 0.0 **** 0.06
16109 H 86.91235448710887 87.09535363822201 54.79798994832514 H 0.0 **** 0.06
16110 H 86.63085009394757 88.18166029645002 53.41683528684419 H 0.0 **** 0.06
16111 C 53.12775692257064 138.29898261363618 149.7684493276036 C 0.0 **** -0.24
16112 H 53.22363211879407 137.78407352781258 150.72462832099887 H 0.0 **** 0.06
16113 H 52.89538600864135 139.34939009326544 149.94437988982565 H 0.0 **** 0.06
16114 H 52.3269589238714 137.84110469112096 149.18784701790585 H 0.0 **** 0.06
16115 H 54.06584069906576 138.2210951672817 149.21901685688104 H 0.0 **** 0.06
16116 C 148.33385236078297 101.83917994040458 6.4594265927170795 C 0.0 **** -0.24
16117 H 148.3586476189836 101.05865653532523 7.220722279485273 H 0.0 **** 0.06
16118 H 148.35115904862542 101.3807813388235 5.471000141560552 H 0.0 **** 0.06
16119 H 149.202016393473 102.48755280500752 6.575398545114467 H 0.0 **** 0.06
16120 H 147.42365589907328 102.42733668157247 6.572394238120779 H 0.0 **** 0.06
16121 C 154.1918864800582 78.81434335034317 73.57329174425425 C 0.0 **** -0.24
16122 H 155.2047301423429 78.43861249856077 73.72098648979437 H 0.0 **** 0.06
16123 H 154.0700148189979 79.75234885838296 74.11500812593869 H 0.0 **** 0.06
16124 H 153.4763034418467 78.08251858362833 73.94615371621194 H 0.0 **** 0.06
16125 H 154.01950127799887 78.98264823487612 72.50946067983591 H 0.0 **** 0.06
16126 C 151.97966652711256 69.37921975306286 14.12872231008734 C 0.0 **** -0.24
16127 H 152.24945769241884 69.41815195894375 13.073527697846487 H 0.0 **** 0.06
16128 H 151.24676237128008 70.1557287147092 14.345742984124456 H 0.0 **** 0.06
16129 H 152.87033209866303 69.53927734716973 14.736979741303315 H 0.0 **** 0.06
16130 H 151.55457207952654 68.40219657771887 14.357842553432874 H 0.0 **** 0.06
16131 C 13.075298658412862 95.91613029449849 88.24653747859978 C 0.0 **** -0.24
16132 H 13.170350994679552 96.92207221352808 88.65504643962255 H 0.0 **** 0.06
16133 H 12.100031773733264 95.50776475999871 88.51089283572253 H 0.0 **** 0.06
16134 H 13.859313428766 95.28155514274835 88.66038999481611 H 0.0 **** 0.06
16135 H 13.172489268972612 95.9535489894709 87.16117785066642 H 0.0 **** 0.06
16136 C 7.0806067865037505 53.98823767589465 69.36890749211967 C 0.0 **** -0.24
16137 H 7.812898582165246 54.744121870405024 69.65431687018234 H 0.0 **** 0.06
16138 H 7.546716316755571 53.00337641970498 69.39344060188583 H 0.0 **** 0.06
16139 H 6.720769080582677 54.19559641477338 68.36081926677902 H 0.0 **** 0.06
16140 H 6.243335830550848 54.01206880819086 70.065493490306 H 0.0 **** 0.06
16141 C 152.3282350658953 96.27093644916897 39.62424950534147 C 0.0 **** -0.24
16142 H 153.06531716097578 95.61039239723947 39.16790840088683 H 0.0 **** 0.06
16143 H 152.81925068819427 97.18239888764815 39.96520632559178 H 0.0 **** 0.06
16144 H 151.86540117857675 95.76731036071028 40.473269084579684 H 0.0 **** 0.06
16145 H 151.56297123583454 96.52364415107789 38.89061421030766 H 0.0 **** 0.06
16146 C 89.48525097226172 34.617642861813295 106.9337205109422 C 0.0 **** -0.24
16147 H 88.55337947135632 34.99331874966629 107.3546145088706 H 0.0 **** 0.06
16148 H 89.32074631282143 34.31243143248497 105.90029278037203 H 0.0 **** 0.06
16149 H 89.82639040355957 33.76065365585515 107.51556164117152 H 0.0 **** 0.06
16150 H 90.24094228029341 35.402150525535745 106.9652645204243 H 0.0 **** 0.06
16151 C 144.90919436742325 145.5703818735285 30.42000847426283 C 0.0 **** -0.24
16152 H 144.31123013481363 144.8378808927725 30.962032232486365 H 0.0 **** 0.06
16153 H 145.78842236485087 145.0813026929418 30.00010447378935 H 0.0 **** 0.06
16154 H 145.22267314710587 146.3595562740443 31.10286092313396 H 0.0 **** 0.06
16155 H 144.312866679663 146.0012155539146 29.615162943140433 H 0.0 **** 0.06
16156 C 87.46906508776317 33.5931568854718 26.059056167229926 C 0.0 **** -0.24
16157 H 87.45797546986168 33.77119589883589 27.134606174574344 H 0.0 **** 0.06
16158 H 86.73387611610462 32.826261303556585 25.81090080832621 H 0.0 **** 0.06
16159 H 88.46070567008093 33.256837508515574 25.75806136774463 H 0.0 **** 0.06
16160 H 87.22283711575015 34.51673356783431 25.535042262588888 H 0.0 **** 0.06
16161 C 82.5603166432795 88.34997315125605 0.9304065456827004 C 0.0 **** -0.24
16162 H 82.54669172078043 87.693417952763 1.7994619248068773 H 0.0 **** 0.06
16163 H 81.61746012750079 88.8945037458921 0.8708857629438285 H 0.0 **** 0.06
16164 H 82.69458126341651 87.75495677141123 0.02652092105313386 H 0.0 **** 0.06
16165 H 83.38408724779353 89.05874196532312 1.0239826252618798 H 0.0 **** 0.06
16166 C 36.26971333814586 38.104772567422515 113.2204414798649 C 0.0 **** -0.24
16167 H 36.58838712231554 38.7493288059199 112.40172790383421 H 0.0 **** 0.06
16168 H 35.420246882378905 38.55891406494294 113.73062469455853 H 0.0 **** 0.06
16169 H 37.0926863619984 37.97822643196429 113.92398263295912 H 0.0 **** 0.06
16170 H 35.978230039861586 37.13270929048366 112.82330784156407 H 0.0 **** 0.06
16171 C 38.62885598997177 84.35487432738859 64.1575433955511 C 0.0 **** -0.24
16172 H 39.3975464276231 84.47192245225088 64.92201409338185 H 0.0 **** 0.06
16173 H 38.65812790305833 85.20747533465035 63.480004977730005 H 0.0 **** 0.06
16174 H 37.64934526337606 84.3023284657766 64.63443163144589 H 0.0 **** 0.06
16175 H 38.80990327015519 83.43862653933347 63.597189502792276 H 0.0 **** 0.06
16176 C 151.6282616608554 145.9304287101534 6.342267500968596 C 0.0 **** -0.24
16177 H 151.99345247171277 144.91886367529278 6.522798826097137 H 0.0 **** 0.06
16178 H 150.8749829025826 146.1830998597621 7.088680311261861 H 0.0 **** 0.06
16179 H 151.18738473190467 145.9857952523522 5.347094781803023 H 0.0 **** 0.06
16180 H 152.45826204548314 146.63346439588858 6.41132437259742 H 0.0 **** 0.06
16181 C 39.80583602143662 129.14423306589848 96.52571533640536 C 0.0 **** -0.24
16182 H 40.8623461553517 129.36166083439917 96.67636430267851 H 0.0 **** 0.06
16183 H 39.207981920085444 129.98662931962798 96.87692719754757 H 0.0 **** 0.06
16184 H 39.53524689694444 128.24847861980584 97.08412033868406 H 0.0 **** 0.06
16185 H 39.61661146778613 128.9817967424895 95.46445326126614 H 0.0 **** 0.06
16186 C 72.97887016686323 86.00083402723331 133.1812691432384 C 0.0 **** -0.24
16187 H 73.86535769221139 86.30671114016627 133.73664894357265 H 0.0 **** 0.06
16188 H 73.24204345660567 85.84150952226213 132.13600785346785 H 0.0 **** 0.06
16189 H 72.22042992801481 86.78049045027076 133.2513543349866 H 0.0 **** 0.06
16190 H 72.588078772673 85.074975303187 133.60383912948208 H 0.0 **** 0.06
16191 C 53.24958760158816 141.51616529179532 143.04092722319848 C 0.0 **** -0.24
16192 H 53.66707354637492 140.51271155755177 143.11531617477007 H 0.0 **** 0.06
16193 H 53.87954639502368 142.12559735716303 142.39298189610534 H 0.0 **** 0.06
16194 H 53.20719780928857 141.96578751017736 144.03359316785966 H 0.0 **** 0.06
16195 H 52.24424753507802 141.46133741463422 142.62334139332353 H 0.0 **** 0.06
16196 C 147.0351520050586 84.72482682306514 123.07560401489383 C 0.0 **** -0.24
16197 H 146.02988750775955 85.1031410170081 123.26564187223454 H 0.0 **** 0.06
16198 H 146.99292718517506 83.64635611556976 122.92133902364941 H 0.0 **** 0.06
16199 H 147.67377509010686 84.94574139317126 123.93021324906954 H 0.0 **** 0.06
16200 H 147.44072855480448 85.20394078884637 122.18481946021939 H 0.0 **** 0.06
16201 C 96.31393076598235 117.58198953703037 128.6911612367148 C 0.0 **** -0.24
16202 H 96.51894306676316 116.54664738756786 128.41564114881766 H 0.0 **** 0.06
16203 H 97.17554392000027 117.99562198319647 129.21456798226052 H 0.0 **** 0.06
16204 H 95.44130050946862 117.61717162872462 129.34368506014033 H 0.0 **** 0.06
16205 H 96.1195111210374 118.16479977317805 127.79071306666339 H 0.0 **** 0.06
16206 C 25.516970239858296 36.62454501904982 105.39278989288944 C 0.0 **** -0.24
16207 H 26.077087035277003 37.355495623591025 105.97699970103928 H 0.0 **** 0.06
16208 H 25.967466555538067 36.526063393390814 104.40563383726798 H 0.0 **** 0.06
16209 H 24.483980532437386 36.95816467119123 105.29013079984445 H 0.0 **** 0.06
16210 H 25.53818940459712 35.66067077420119 105.90079465762717 H 0.0 **** 0.06
16211 C 22.69150919462686 108.58374768899758 143.16469327963267 C 0.0 **** -0.24
16212 H 22.682016027312386 109.6699721667619 143.0705075115267 H 0.0 **** 0.06
16213 H 22.006685709585156 108.15028761377174 142.43617642156403 H 0.0 **** 0.06
16214 H 22.377505220508226 108.30411222957495 144.17049156737932 H 0.0 **** 0.06
16215 H 23.7000199765871 108.2128351132654 142.98262316757683 H 0.0 **** 0.06
16216 C 10.674804766821296 125.48418337318687 32.85619874507126 C 0.0 **** -0.24
16217 H 9.619861475981907 125.52161199372831 33.12585294457219 H 0.0 **** 0.06
16218 H 10.86615850286961 126.18038126400755 32.03963710325619 H 0.0 **** 0.06
16219 H 10.932155026014527 124.4738913291899 32.538903165982404 H 0.0 **** 0.06
16220 H 11.28067021942951 125.75961881083619 33.71857221174878 H 0.0 **** 0.06
16221 C 72.63098863343288 1.4257877634717175 122.57375484094285 C 0.0 **** -0.24
16222 H 73.28025040163443 2.017992535812361 123.21939356918398 H 0.0 **** 0.06
16223 H 72.44076526150265 0.459097406573477 123.039819736494 H 0.0 **** 0.06
16224 H 73.11634103370369 1.2755668079118365 121.60989834113514 H 0.0 **** 0.06
16225 H 71.68807585033804 1.951410687787682 122.42763280001355 H 0.0 **** 0.06
16226 C 18.93446321444255 62.601733150363316 0.9747587941488405 C 0.0 **** -0.24
16227 H 18.956571269245536 63.68161919522498 1.1260600886546968 H 0.0 **** 0.06
16228 H 19.618398260281168 62.12279830409753 1.6764560105276587 H 0.0 **** 0.06
16229 H 19.240422784668368 62.371990141834715 -0.045316950542201084 H 0.0 **** 0.06
16230 H 17.92369448395629 62.232076058668156 1.1432753612291435 H 0.0 **** 0.06
16231 C 131.68607650770713 105.38147806845528 119.77299908727757 C 0.0 **** -0.24
16232 H 131.81802083516766 105.29856220487169 120.85214891440124 H 0.0 **** 0.06
16233 H 132.54043237120732 104.92868518711076 119.26830275580845 H 0.0 **** 0.06
16234 H 131.61523637248288 106.43351749475961 119.49526824803122 H 0.0 **** 0.06
16235 H 130.77323086734717 104.86499887324534 119.47774035328108 H 0.0 **** 0.06
16236 C 54.670021639458696 135.68666243799566 140.2202003308811 C 0.0 **** -0.24
16237 H 55.06928221646558 134.89739325311103 140.85693403202407 H 0.0 **** 0.06
16238 H 53.5803726254814 135.6431768900013 140.2290175656078 H 0.0 **** 0.06
16239 H 55.03114704887321 135.5475079114691 139.20092747893773 H 0.0 **** 0.06
16240 H 54.99883026120955 136.65651412555275 140.5931738645655 H 0.0 **** 0.06
16241 C 79.00410025884887 108.18435251177111 53.28871963432964 C 0.0 **** -0.24
16242 H 78.82063949097369 108.72312537253511 52.359480375577846 H 0.0 **** 0.06
16243 H 78.28036404588903 108.50016752970207 54.039973541803846 H 0.0 **** 0.06
16244 H 80.01234818142527 108.4013301701553 53.64101706861243 H 0.0 **** 0.06
16245 H 78.90258933357796 107.11305751838073 53.11356182452762 H 0.0 **** 0.06
16246 C 74.43218739187813 20.637480886359157 151.38129604659525 C 0.0 **** -0.24
16247 H 73.66031083827382 21.36845025045824 151.62209065921974 H 0.0 **** 0.06
16248 H 75.21817706056078 21.117972958758685 150.79784912406018 H 0.0 **** 0.06
16249 H 73.99391623399568 19.82484959524143 150.80125598433705 H 0.0 **** 0.06
16250 H 74.85537305134518 20.238481273706668 152.30382784467162 H 0.0 **** 0.06
16251 C 133.66811259200807 71.84718052495393 5.775607682363415 C 0.0 **** -0.24
16252 H 133.076555432811 72.73177528803542 6.0126475966442285 H 0.0 **** 0.06
16253 H 134.61910341297232 71.89368315196063 6.306967881119164 H 0.0 **** 0.06
16254 H 133.8524281836517 71.81182844049047 4.701808041250757 H 0.0 **** 0.06
16255 H 133.12423082625898 70.95385529174314 6.080652407270577 H 0.0 **** 0.06
16256 C 3.8440956730067626 120.7931344526368 96.84334564324438 C 0.0 **** -0.24
16257 H 3.41825069189332 119.86988366837367 96.45229108754678 H 0.0 **** 0.06
16258 H 4.338767862772357 120.59110768642152 97.79359050315766 H 0.0 **** 0.06
16259 H 3.050514293608728 121.52418305652192 96.99466045238698 H 0.0 **** 0.06
16260 H 4.570807247964524 121.18664954346774 96.13202865461881 H 0.0 **** 0.06
16261 C 111.07119003946474 155.22955471937607 148.80365055115846 C 0.0 **** -0.24
16262 H 110.2166546212477 155.85093503342299 149.0734938942582 H 0.0 **** 0.06
16263 H 110.7355072260682 154.40350891341035 148.17601923096774 H 0.0 **** 0.06
16264 H 111.53245333168667 154.8357733959091 149.70922391026275 H 0.0 **** 0.06
16265 H 111.79810988579266 155.82991823098467 148.2562952065941 H 0.0 **** 0.06
16266 C 26.671046255625384 72.18414022952481 143.81886528881722 C 0.0 **** -0.24
16267 H 27.081944338227174 72.00048772728876 142.8259366875257 H 0.0 **** 0.06
16268 H 27.29032618421664 71.68670573192315 144.56554324744206 H 0.0 **** 0.06
16269 H 25.655821510742783 71.79284412815342 143.8695179568462 H 0.0 **** 0.06
16270 H 26.657506606391394 73.25718779764878 144.013714752848 H 0.0 **** 0.06
16271 C 78.35133652417258 7.690223248079803 141.12258901527227 C 0.0 **** -0.24
16272 H 78.31984982635677 7.187426985995586 142.08907397160212 H 0.0 **** 0.06
16273 H 77.33527348875168 7.910375683421108 140.79477581971295 H 0.0 **** 0.06
16274 H 78.83747102464037 7.042210105871874 140.39208443344756 H 0.0 **** 0.06
16275 H 78.91421452679378 8.61928344137624 141.21386436469822 H 0.0 **** 0.06
16276 C 14.197989437926822 33.70138075690473 5.2800585121418635 C 0.0 **** -0.24
16277 H 15.00019487135188 33.92114068670208 5.984635471695583 H 0.0 **** 0.06
16278 H 13.481178049143693 33.02396199186822 5.74576010035986 H 0.0 **** 0.06
16279 H 14.615574646150492 33.23189879022519 4.388917123449119 H 0.0 **** 0.06
16280 H 13.695403642987458 34.62773061514525 5.001390001661207 H 0.0 **** 0.06
16281 C 150.92716022780087 92.18680092082094 60.42882179326989 C 0.0 **** -0.24
16282 H 150.975401632046 91.78672070350649 61.442146170755166 H 0.0 **** 0.06
16283 H 151.33661836300348 91.4578168594931 59.730395057723854 H 0.0 **** 0.06
16284 H 151.50669154835947 93.1088062639239 60.37413821126731 H 0.0 **** 0.06
16285 H 149.88830821876905 92.39448613826895 60.17001479038865 H 0.0 **** 0.06
16286 C 115.87758522105428 92.44482989919851 0.831643567529806 C 0.0 **** -0.24
16287 H 115.79214485997322 92.5526635228303 1.912522606513381 H 0.0 **** 0.06
16288 H 116.18623025332046 93.39522895109909 0.39504696774586634 H 0.0 **** 0.06
16289 H 114.91286807795079 92.14941938931631 0.41810377078009964 H 0.0 **** 0.06
16290 H 116.620971642329 91.68075959179072 0.6018656277594268 H 0.0 **** 0.06
16291 C 80.56088817930461 143.92069958456878 30.847742453746264 C 0.0 **** -0.24
16292 H 81.44143573914275 143.71883153157654 31.457686677883487 H 0.0 **** 0.06
16293 H 79.94354022238355 144.67183596689603 31.3401511215784 H 0.0 **** 0.06
16294 H 79.98771017678891 143.0029807151626 30.723530287146957 H 0.0 **** 0.06
16295 H 80.87255217996116 144.28975671151903 29.870939997474807 H 0.0 **** 0.06
16296 C 110.72517691344746 109.36897048065303 42.38894641383732 C 0.0 **** -0.24
16297 H 111.1812672703515 108.78348529975328 43.187697553770505 H 0.0 **** 0.06
16298 H 109.73710036669775 109.70574960905985 42.70323010751646 H 0.0 **** 0.06
16299 H 110.63230952274324 108.75284611878475 41.49500510395299 H 0.0 **** 0.06
16300 H 111.3519357485888 110.2339856413857 42.17100876054718 H 0.0 **** 0.06
16301 C 78.62566976996686 39.62065101071471 78.02604464551558 C 0.0 **** -0.24
16302 H 78.72770123636752 38.587986728415274 78.36098159457939 H 0.0 **** 0.06
16303 H 78.6484112140719 40.28609129826128 78.8892136503004 H 0.0 **** 0.06
16304 H 77.68006078514784 39.74019315962312 77.49820758712036 H 0.0 **** 0.06
16305 H 79.45012266900318 39.867378143309566 77.35586268238126 H 0.0 **** 0.06
16306 C 148.40720249094971 78.86957986840673 51.726827480865055 C 0.0 **** -0.24
16307 H 147.70827788789504 79.06239717106405 50.91252619783755 H 0.0 **** 0.06
16308 H 148.9798863364699 79.774035560203 51.93553740729922 H 0.0 **** 0.06
16309 H 149.08645307829266 78.06691805483149 51.43942997160984 H 0.0 **** 0.06
16310 H 147.85338050144443 78.57474873203995 52.61830237384119 H 0.0 **** 0.06
16311 C 25.533723603666175 83.80324692698066 11.820433614243129 C 0.0 **** -0.24
16312 H 25.593776604936664 84.79872908801632 11.381724666153659 H 0.0 **** 0.06
16313 H 24.746391886164645 83.78465425393574 12.574987653776674 H 0.0 **** 0.06
16314 H 26.487869993191623 83.55160450393862 12.283566891941284 H 0.0 **** 0.06
16315 H 25.306285849491644 83.07593304575384 11.040820075037054 H 0.0 **** 0.06
16316 C 125.0038364914656 148.98282884851594 14.533602876352013 C 0.0 **** -0.24
16317 H 125.04990230920286 149.23360611505524 15.592710202872631 H 0.0 **** 0.06
16318 H 125.48949661922272 148.02095652545046 14.366101895322906 H 0.0 **** 0.06
16319 H 125.51456634156837 149.75329091488857 13.955360782633555 H 0.0 **** 0.06
16320 H 123.96181614684694 148.92426387399652 14.219158260344813 H 0.0 **** 0.06
16321 C 8.817847846992294 34.54526958472891 109.5449033655596 C 0.0 **** -0.24
16322 H 8.890873228226866 35.50996693532517 110.04629239865551 H 0.0 **** 0.06
16323 H 9.59174922368419 34.473426476757794 108.78036434470198 H 0.0 **** 0.06
16324 H 7.836452413133941 34.451186509769485 109.07972484336943 H 0.0 **** 0.06
16325 H 8.952129729983227 33.74623430232012 110.27417812302082 H 0.0 **** 0.06
16326 C 137.46833081953386 131.58322681614328 107.2018514085542 C 0.0 **** -0.24
16327 H 137.17750173010296 130.72948814001847 107.81405104035008 H 0.0 **** 0.06
16328 H 137.56637263279111 132.46590586782486 107.83328560481516 H 0.0 **** 0.06
16329 H 136.70630532815665 131.76205618537256 106.44327123585992 H 0.0 **** 0.06
16330 H 138.42240142789265 131.374829924447 106.71703422525411 H 0.0 **** 0.06
16331 C 72.69723107919032 2.1707687758135137 104.73783110562916 C 0.0 **** -0.24
16332 H 71.61584549317348 2.221608099482154 104.60573912353296 H 0.0 **** 0.06
16333 H 73.18733860768572 2.6876749206043087 103.91195801406384 H 0.0 **** 0.06
16334 H 73.01211417380165 1.1282794390129993 104.75283867890231 H 0.0 **** 0.06
16335 H 72.9709515225702 2.6474800905758684 105.67906333631127 H 0.0 **** 0.06
16336 C 123.3403417150281 70.15829782805196 119.83716813240564 C 0.0 **** -0.24
16337 H 124.38060107329102 69.85534095240695 119.71706285316175 H 0.0 **** 0.06
16338 H 122.72797507502582 69.66468992992327 119.08213632372487 H 0.0 **** 0.06
16339 H 123.26159709716472 71.2395333831829 119.71941557737496 H 0.0 **** 0.06
16340 H 122.99139461537789 69.87501379444393 120.83024907219298 H 0.0 **** 0.06
16341 C 42.24464351303749 92.30645506741797 2.399344286132976 C 0.0 **** -0.24
16342 H 43.04781921304301 92.49306845218246 3.1125573864394376 H 0.0 **** 0.06
16343 H 42.486677001049756 92.7795484012662 1.4478448653720086 H 0.0 **** 0.06
16344 H 41.3128174509103 92.72022271027805 2.7853082880235043 H 0.0 **** 0.06
16345 H 42.131660522653036 91.23148244239138 2.2524380938733017 H 0.0 **** 0.06
16346 C 58.87564356171764 62.994346052984554 142.35215382893972 C 0.0 **** -0.24
16347 H 58.30401071514467 62.072182928643315 142.24460034507126 H 0.0 **** 0.06
16348 H 58.34978353304672 63.80815051960593 141.8517077990145 H 0.0 **** 0.06
16349 H 59.85962012860874 62.86585777659644 141.9020865862592 H 0.0 **** 0.06
16350 H 58.988130795575145 63.230313882083806 143.40981040842007 H 0.0 **** 0.06
16351 C 0.3464239053421352 146.04964463380787 3.6172644193650356 C 0.0 **** -0.24
16352 H 1.2221113253788474 146.5889532716068 3.9809764859851526 H 0.0 **** 0.06
16353 H 0.17913163926004927 145.16806529813647 4.236452483430988 H 0.0 **** 0.06
16354 H 0.5122673315487134 145.74387443519066 2.584619664206123 H 0.0 **** 0.06
16355 H -0.526580275472952 146.70092413036855 3.668003101672916 H 0.0 **** 0.06
16356 C 41.2811460592951 130.41764190974396 156.2045834685445 C 0.0 **** -0.24
16357 H 41.95552415937226 129.70828040687462 156.68574056625482 H 0.0 **** 0.06
16358 H 40.33187673041286 129.9273525560575 155.9902338931492 H 0.0 **** 0.06
16359 H 41.72765373445786 130.76841095300347 155.2740499378006 H 0.0 **** 0.06
16360 H 41.11219813195258 131.26518991660467 156.86862611494576 H 0.0 **** 0.06
16361 C 113.05389014257936 136.47023695120808 144.6212765992765 C 0.0 **** -0.24
16362 H 112.16929785650002 136.4613766981123 143.98403985182017 H 0.0 **** 0.06
16363 H 113.42113758853442 135.45123613057658 144.7461018180809 H 0.0 **** 0.06
16364 H 112.79565035703406 136.8848841252437 145.595429353592 H 0.0 **** 0.06
16365 H 113.82752375077807 137.08174192906034 144.15840693337435 H 0.0 **** 0.06
16366 C 23.83720381045287 98.80464575094499 40.62642429987534 C 0.0 **** -0.24
16367 H 23.444260489344913 98.11476448985331 41.37369606056811 H 0.0 **** 0.06
16368 H 24.27482304294842 98.23813612472435 39.80418836337353 H 0.0 **** 0.06
16369 H 24.60184681274974 99.43529234226304 41.08129864088028 H 0.0 **** 0.06
16370 H 23.028477112673826 99.42964329854209 40.24853695694088 H 0.0 **** 0.06
16371 C 62.8153441966174 88.1779842870256 134.99550421509775 C 0.0 **** -0.24
16372 H 63.09591770503748 87.2042614129154 135.39560283286164 H 0.0 **** 0.06
16373 H 63.004555225423516 88.94660811764692 135.74526970185696 H 0.0 **** 0.06
16374 H 61.756690410470895 88.17300593218795 134.7379697214898 H 0.0 **** 0.06
16375 H 63.40478969357896 88.38725064547089 134.1030736831483 H 0.0 **** 0.06
16376 C 125.97643722034603 114.5995831557464 49.824773848984435 C 0.0 **** -0.24
16377 H 125.53265780937404 113.72450670130023 49.35017328091655 H 0.0 **** 0.06
16378 H 126.70429420230623 114.27832820238375 50.57002491329081 H 0.0 **** 0.06
16379 H 125.1948366068752 115.18572351002622 50.308392133513166 H 0.0 **** 0.06
16380 H 126.4746259720993 115.20904360746489 49.07035313167992 H 0.0 **** 0.06
16381 C 50.43939286961677 11.112586177252638 54.414900348870816 C 0.0 **** -0.24
16382 H 50.09051901163761 10.207981068012316 53.91717523670761 H 0.0 **** 0.06
16383 H 50.73659308484595 11.846789746431 53.66619225015788 H 0.0 **** 0.06
16384 H 51.2939391711124 10.87080255355471 55.04772892288017 H 0.0 **** 0.06
16385 H 49.63734904717103 11.521894803024821 55.028307875260765 H 0.0 **** 0.06
16386 C 151.51091604493928 151.24513785956657 17.417879045650807 C 0.0 **** -0.24
16387 H 151.16436932716232 151.4492119652086 18.43089227235788 H 0.0 **** 0.06
16388 H 150.71869082108296 150.74856137278087 16.85642584009753 H 0.0 **** 0.06
16389 H 152.3884659733328 150.60040718721316 17.45671366419333 H 0.0 **** 0.06
16390 H 151.77134883715274 152.18288834899548 16.927153614815353 H 0.0 **** 0.06
16391 C 101.31613559094883 148.02251725639417 104.5923443609646 C 0.0 **** -0.24
16392 H 101.3888619061761 149.09613904383457 104.42161715436015 H 0.0 **** 0.06
16393 H 100.53875491580267 147.60429580838633 103.95206097612817 H 0.0 **** 0.06
16394 H 101.06525734229082 147.8371799502792 105.63710025649482 H 0.0 **** 0.06
16395 H 102.27166819952588 147.55245422307658 104.35859905687505 H 0.0 **** 0.06
16396 C 117.02019174805343 40.52217840262995 9.933189007793914 C 0.0 **** -0.24
16397 H 116.9409461930012 41.237944765304405 9.11529212592069 H 0.0 **** 0.06
16398 H 116.85065129842502 41.03468636182453 10.880983474708785 H 0.0 **** 0.06
16399 H 118.01590509404139 40.07922514439332 9.933180435022564 H 0.0 **** 0.06
16400 H 116.27294419890057 39.73907924111802 9.80428020631777 H 0.0 **** 0.06
16401 C 18.950698814144893 135.87763951109235 138.24438533281466 C 0.0 **** -0.24
16402 H 19.371161145131147 135.41629415544065 139.13852044272252 H 0.0 **** 0.06
16403 H 18.67969458797097 136.91096047446717 138.46267227992897 H 0.0 **** 0.06
16404 H 18.06261164038864 135.32649371247072 137.9348580207329 H 0.0 **** 0.06
16405 H 19.689882592850203 135.8559688632759 137.44321842395877 H 0.0 **** 0.06
16406 C 40.618867579812445 80.51967441109299 44.9140369354252 C 0.0 **** -0.24
16407 H 39.80223836554714 80.54284484716801 44.192407854434606 H 0.0 **** 0.06
16408 H 41.47439114240893 81.06091709029381 44.511524292939924 H 0.0 **** 0.06
16409 H 40.90157614467603 79.48540363916901 45.10934822156442 H 0.0 **** 0.06
16410 H 40.295715889503924 80.98945753736004 45.84363927451925 H 0.0 **** 0.06
16411 C 119.94137547275682 124.72762263255665 11.366864698205518 C 0.0 **** -0.24
16412 H 120.85879914208851 125.31501937611675 11.39852752656293 H 0.0 **** 0.06
16413 H 119.08074370909128 125.39613365507746 11.390073580050426 H 0.0 **** 0.06
16414 H 119.90781145655382 124.06037309465178 12.22862464771444 H 0.0 **** 0.06
16415 H 119.91861629495065 124.13834818569434 10.449600095792931 H 0.0 **** 0.06
16416 C 124.54205256363811 130.8473276293906 23.65960167661416 C 0.0 **** -0.24
16417 H 123.7804274992907 131.03210814086071 24.417089690929004 H 0.0 **** 0.06
16418 H 124.19270981280353 131.21940457938598 22.69548129052353 H 0.0 **** 0.06
16419 H 124.7320457335319 129.77640686266264 23.58911073751034 H 0.0 **** 0.06
16420 H 125.46187777517041 131.36208194281028 23.93717373560432 H 0.0 **** 0.06
16421 C 14.897386959861194 86.56623199084804 85.66297167045333 C 0.0 **** -0.24
16422 H 14.178093450247502 86.03667595929916 86.28817319529726 H 0.0 **** 0.06
16423 H 15.41347426021531 85.85272542245711 85.02015601712513 H 0.0 **** 0.06
16424 H 15.623407325378707 87.07587982072458 86.29631453581901 H 0.0 **** 0.06
16425 H 14.374261558521084 87.29830457033034 85.04756186309835 H 0.0 **** 0.06
16426 C 156.71122703123314 62.173457745584045 137.850724026347 C 0.0 **** -0.24
16427 H 155.68961758911513 62.332571823639654 138.19628377397032 H 0.0 **** 0.06
16428 H 157.15114514735734 61.33429365188451 138.39104281836336 H 0.0 **** 0.06
16429 H 157.29962992875457 63.07314114162256 138.0330218965666 H 0.0 **** 0.06
16430 H 156.70276855522062 61.954795938244615 136.78248052909663 H 0.0 **** 0.06
16431 C 46.06282475419144 71.51971402350675 18.151866231185693 C 0.0 **** -0.24
16432 H 45.662049238200495 70.85366472909524 18.914897646528118 H 0.0 **** 0.06
16433 H 45.673550685221244 72.52608574963753 18.30605221886435 H 0.0 **** 0.06
16434 H 45.765855684935275 71.16196391901339 17.16530657743266 H 0.0 **** 0.06
16435 H 47.15069860390301 71.5355332776678 18.219570853898404 H 0.0 **** 0.06
16436 C 112.09351648153778 27.277548642182296 66.69868797300846 C 0.0 **** -0.24
16437 H 112.92726099274033 27.356797413387767 67.39596939209439 H 0.0 **** 0.06
16438 H 111.61623318108893 26.304883074450004 66.81227482295175 H 0.0 **** 0.06
16439 H 112.46228101325254 27.38589145230452 65.67881238294491 H 0.0 **** 0.06
16440 H 111.36935010139642 28.06475551998693 66.90826863602868 H 0.0 **** 0.06
16441 C 126.78792694225565 76.14573792707495 142.73870554849145 C 0.0 **** -0.24
16442 H 127.57302283718907 76.4534117079969 142.0482890519388 H 0.0 **** 0.06
16443 H 126.37090281320867 77.02532105298104 143.22900756483654 H 0.0 **** 0.06
16444 H 127.20581113989066 75.47437278519794 143.48828295352902 H 0.0 **** 0.06
16445 H 126.00098478224972 75.63050183235907 142.18734586964865 H 0.0 **** 0.06
16446 C 82.45132389813398 85.14223829769975 70.46975674675014 C 0.0 **** -0.24
16447 H 82.34223468592035 85.38838153316468 69.41352868304351 H 0.0 **** 0.06
16448 H 81.82970581049426 85.81196440392489 71.0647345565203 H 0.0 **** 0.06
16449 H 83.49488051281924 85.25773890723086 70.7635643212153 H 0.0 **** 0.06
16450 H 82.13833219409227 84.11127400309142 70.63629654163552 H 0.0 **** 0.06
16451 C 65.66030176086151 70.17782506896845 20.64926210006155 C 0.0 **** -0.24
16452 H 65.67626467223626 70.97283039699947 19.903130466785626 H 0.0 **** 0.06
16453 H 64.62899569075262 69.97144992890549 20.93638015806488 H 0.0 **** 0.06
16454 H 66.22649140474051 70.49031395725089 21.526158686046955 H 0.0 **** 0.06
16455 H 66.10851289083705 69.27737674303174 20.229465410299326 H 0.0 **** 0.06
16456 C 103.3575624922027 130.95749743051528 63.05089257555379 C 0.0 **** -0.24
16457 H 103.92367342962808 130.81823503510853 62.13045787965919 H 0.0 **** 0.06
16458 H 103.38754876840238 130.03891866090794 63.6377380151324 H 0.0 **** 0.06
16459 H 102.32313915339068 131.20113394430592 62.80883210278408 H 0.0 **** 0.06
16460 H 103.79725407947052 131.7718672731848 63.627595073722006 H 0.0 **** 0.06
16461 C 120.2081233960127 59.85793347497304 81.59179905461447 C 0.0 **** -0.24
16462 H 119.33852822939804 59.32148002129668 81.97224830143232 H 0.0 **** 0.06
16463 H 121.10478475741365 59.5007547405304 82.09832588231386 H 0.0 **** 0.06
16464 H 120.08590950808752 60.92509383726289 81.7785267042922 H 0.0 **** 0.06
16465 H 120.30192326905495 59.683868131362004 80.52006891225913 H 0.0 **** 0.06
16466 C 122.93157422466633 4.667987174900752 120.49816581096714 C 0.0 **** -0.24
16467 H 122.4780681272362 5.603043268823768 120.1684083052708 H 0.0 **** 0.06
16468 H 123.0659216780356 4.6908192957913 121.58008455106831 H 0.0 **** 0.06
16469 H 123.90012017058093 4.543364523166034 120.01393795555786 H 0.0 **** 0.06
16470 H 122.28191733656753 3.8353386565847316 120.22949310013324 H 0.0 **** 0.06
16471 C 43.337248618471875 103.70932096177454 117.0422229466758 C 0.0 **** -0.24
16472 H 42.98680142762613 104.69385680266542 116.73358628000928 H 0.0 **** 0.06
16473 H 43.38613734946702 103.6657044797333 118.12990632936739 H 0.0 **** 0.06
16474 H 44.32845716166456 103.53022914059154 116.62663494414674 H 0.0 **** 0.06
16475 H 42.647528267173385 102.94831671244917 116.67820094704383 H 0.0 **** 0.06
16476 C 154.3097642534915 57.017236092980966 143.56052937611605 C 0.0 **** -0.24
16477 H 154.20352327516235 58.001628189717565 144.01669681827542 H 0.0 **** 0.06
16478 H 153.3744217926078 56.741152892803086 143.07229760468476 H 0.0 **** 0.06
16479 H 154.54825987564362 56.283772857668964 144.33089240639157 H 0.0 **** 0.06
16480 H 155.11162781207724 57.043601105412336 142.82324831484772 H 0.0 **** 0.06
16481 C 30.549305226647782 124.60056648036465 20.256556291272915 C 0.0 **** -0.24
16482 H 31.256717318276124 125.25986911418727 19.756139707862744 H 0.0 **** 0.06
16483 H 30.695857778799244 124.66121867831816 21.335485560778075 H 0.0 **** 0.06
16484 H 30.711718390283067 123.57507718767499 19.924900833528632 H 0.0 **** 0.06
16485 H 29.5320046545216 124.90522072279163 20.01031044316602 H 0.0 **** 0.06
16486 C 131.25538349418738 0.3919880135695202 103.32534528030827 C 0.0 **** -0.24
16487 H 130.71279424321534 1.2312397829436854 102.88990291709432 H 0.0 **** 0.06
16488 H 131.24664058226742 0.47885742507185114 104.41153951541095 H 0.0 **** 0.06
16489 H 132.2844087232563 0.40036764995216245 102.9678547390357 H 0.0 **** 0.06
16490 H 130.77551379098605 -0.5422517176764323 103.03164321382467 H 0.0 **** 0.06
16491 C 14.406911784730369 81.7778098367258 124.21740483744868 C 0.0 **** -0.24
16492 H 14.71432494238428 81.00071245549003 124.91682850343325 H 0.0 **** 0.06
16493 H 14.638746474880094 81.46307244842546 123.199693317279 H 0.0 **** 0.06
16494 H 14.940922940388731 82.70156896315837 124.44314335237202 H 0.0 **** 0.06
16495 H 13.334017882067371 81.94605251603014 124.31087005490322 H 0.0 **** 0.06
16496 C 104.41893600681641 87.58653694101426 52.828658730109055 C 0.0 **** -0.24
16497 H 103.83708130071199 88.12141516933235 53.579125281464044 H 0.0 **** 0.06
16498 H 104.87364218519679 86.70540159601418 53.281527884430716 H 0.0 **** 0.06
16499 H 105.19951937505795 88.24069198855125 52.44095983694173 H 0.0 **** 0.06
16500 H 103.76433385144009 87.2794229487381 52.01317318367285 H 0.0 **** 0.06
16501 C 152.87660874199898 10.080230554802938 140.05380988295983 C 0.0 **** -0.24
16502 H 152.48534436730557 11.094931332529342 139.979869405969 H 0.0 **** 0.06
16503 H 153.43808855508283 9.840305972484941 139.15074826090668 H 0.0 **** 0.06
16504 H 152.04895406638283 9.37906567364547 140.16446811383588 H 0.0 **** 0.06
16505 H 153.53296868145665 10.006536470589822 140.92106387780046 H 0.0 **** 0.06
16506 C 35.12310870596917 45.74708543382688 131.38157782445796 C 0.0 **** -0.24
16507 H 35.85468321312885 45.31838687141095 132.06715712945032 H 0.0 **** 0.06
16508 H 35.106735303413814 45.16584776746919 130.4592246480662 H 0.0 **** 0.06
16509 H 35.398109659665636 46.777543865201096 131.1566899282285 H 0.0 **** 0.06
16510 H 34.13582215448287 45.72628832891232 131.84258802345732 H 0.0 **** 0.06
16511 C 111.22429241541784 60.55264378231405 32.53340075499676 C 0.0 **** -0.24
16512 H 110.65093576408833 60.20309854273876 31.674876472827165 H 0.0 **** 0.06
16513 H 110.60460981143933 61.21225509635548 33.140376072940455 H 0.0 **** 0.06
16514 H 112.10325673702033 61.096004554776044 32.18629778786275 H 0.0 **** 0.06
16515 H 111.53988877846473 59.69678124141336 33.13118496487163 H 0.0 **** 0.06
16516 C 5.7491772676359005 155.72644619317975 114.88638077047625 C 0.0 **** -0.24
16517 H 5.008119402458817 156.43076975686608 115.26597169377447 H 0.0 **** 0.06
16518 H 5.725540517190865 155.72674527641584 113.79686121136888 H 0.0 **** 0.06
16519 H 5.520461922761825 154.72644917084142 115.25512854765816 H 0.0 **** 0.06
16520 H 6.740523069472488 156.02223945988317 115.22992046453936 H 0.0 **** 0.06
16521 C 113.97576421260901 9.263798102852732 92.32499615427754 C 0.0 **** -0.24
16522 H 114.20067297298606 9.813193320095898 93.23915183891793 H 0.0 **** 0.06
16523 H 113.62121456388714 8.264921306766965 92.5792959080352 H 0.0 **** 0.06
16524 H 114.87829644287176 9.185585265431534 91.71737698537311 H 0.0 **** 0.06
16525 H 113.20494721066002 9.79188673128207 91.76489600516149 H 0.0 **** 0.06
16526 C 91.66975190346695 103.61632181904518 46.78661661743649 C 0.0 **** -0.24
16527 H 91.98291680212697 104.65312751477894 46.903635086055004 H 0.0 **** 0.06
16528 H 91.95563505646626 103.04868991645908 47.6716440113517 H 0.0 **** 0.06
16529 H 92.15235450499385 103.18806981570593 45.90770442378789 H 0.0 **** 0.06
16530 H 90.58765856573147 103.57649867620522 46.66271024529124 H 0.0 **** 0.06
16531 C 19.570656604497273 76.39187449749829 136.50098574109626 C 0.0 **** -0.24
16532 H 20.240143561835083 76.98415281443374 137.12344957707853 H 0.0 **** 0.06
16533 H 18.763789486439293 75.99114499317056 137.1160231768725 H 0.0 **** 0.06
16534 H 20.1265096812524 75.56912815550464 136.049974074161 H 0.0 **** 0.06
16535 H 19.150961113968307 77.02018569445579 135.7159708522849 H 0.0 **** 0.06
16536 C 28.255048776249424 45.44153860397057 99.35976113534875 C 0.0 **** -0.24
16537 H 28.713191784928 44.58850172654223 98.86084863036115 H 0.0 **** 0.06
16538 H 27.54557365205426 45.08546468009419 100.10834724181946 H 0.0 **** 0.06
16539 H 27.731016845291634 46.05384139346863 98.62523848004713 H 0.0 **** 0.06
16540 H 29.026802545352425 46.03737411162791 99.84475367671159 H 0.0 **** 0.06
16541 C 145.89857964980243 14.99782291342899 102.29520058289357 C 0.0 **** -0.24
16542 H 146.25115437676948 15.810316378363872 102.9310607280767 H 0.0 **** 0.06
16543 H 144.86460794416297 14.762460956971559 102.54688873102718 H 0.0 **** 0.06
16544 H 146.52033564937668 14.116891209302374 102.45279011198882 H 0.0 **** 0.06
16545 H 145.9581053861658 15.303004886631776 101.25034110380092 H 0.0 **** 0.06
16546 C 37.508352909567236 74.01400802106717 78.50525970549675 C 0.0 **** -0.24
16547 H 36.80532619234651 73.18130691863503 78.49368519941842 H 0.0 **** 0.06
16548 H 38.30589237056125 73.80706103441841 79.21909962852398 H 0.0 **** 0.06
16549 H 36.98582894142237 74.92543330884128 78.79704960171637 H 0.0 **** 0.06
16550 H 37.934450887331195 74.14290801862015 77.51026574680864 H 0.0 **** 0.06
16551 C 117.82974132551817 150.60621827399558 59.516510318881544 C 0.0 **** -0.24
16552 H 117.43919103168759 149.7388860319352 60.04894991821881 H 0.0 **** 0.06
16553 H 118.5620541999956 151.11575678610376 60.142187556945984 H 0.0 **** 0.06
16554 H 117.01208952929147 151.28742225631336 59.283130131774 H 0.0 **** 0.06
16555 H 118.30515517038873 150.27860675015776 58.59142163648808 H 0.0 **** 0.06
16556 C 30.367545030631128 87.49561560203524 146.66588386828727 C 0.0 **** -0.24
16557 H 30.42439118077435 88.2978517710959 147.40112280371747 H 0.0 **** 0.06
16558 H 29.378141499701385 87.4916190556758 146.2083116244212 H 0.0 **** 0.06
16559 H 30.544761429863385 86.53873557082088 147.15787742178972 H 0.0 **** 0.06
16560 H 31.123722008187208 87.65420693900346 145.89677018997625 H 0.0 **** 0.06
16561 C 32.12273363506266 85.54344312813325 112.19091451502976 C 0.0 **** -0.24
16562 H 32.20115814007314 85.89024332712472 111.16039139558484 H 0.0 **** 0.06
16563 H 32.02553394647831 84.45728283152408 112.202038416064 H 0.0 **** 0.06
16564 H 31.247222377172356 85.99168997296854 112.65896945089895 H 0.0 **** 0.06
16565 H 33.017307408603855 85.83445457967622 112.74004356856881 H 0.0 **** 0.06
16566 C 9.456389873662651 139.97493646780498 103.35451837122831 C 0.0 **** -0.24
16567 H 9.426031341999966 139.45163417464255 102.39944732551349 H 0.0 **** 0.06
16568 H 8.442399260341105 140.09430775790509 103.73657361817236 H 0.0 **** 0.06
16569 H 9.910677500097691 140.95586500565494 103.21669743456947 H 0.0 **** 0.06
16570 H 10.047613715871769 139.39758270371337 104.06607771961897 H 0.0 **** 0.06
16571 C 60.16664996230327 81.34572971232632 65.38578177486107 C 0.0 **** -0.24
16572 H 59.95048141042993 81.04594638389516 66.41148875194752 H 0.0 **** 0.06
16573 H 60.64909666097617 82.32301200223029 65.38782415126806 H 0.0 **** 0.06
16574 H 59.23638731286276 81.40006218687735 64.8202943242462 H 0.0 **** 0.06
16575 H 60.82984629046628 80.61306426283498 64.9261051114155 H 0.0 **** 0.06
16576 C 71.00490175411954 53.933214529766474 32.63951264252651 C 0.0 **** -0.24
16577 H 71.91348839239663 54.50897099181134 32.46736607337323 H 0.0 **** 0.06
16578 H 70.66978228409624 53.493150620980146 31.70033727811608 H 0.0 **** 0.06
16579 H 70.22826003349866 54.58922552700784 33.031993040543284 H 0.0 **** 0.06
16580 H 71.20868564176396 53.13962285832116 33.35938562005627 H 0.0 **** 0.06
16581 C 30.669591850652694 0.9604931888084565 96.808018160758 C 0.0 **** -0.24
16582 H 30.549935258913507 1.9708851547572692 97.1983296112427 H 0.0 **** 0.06
16583 H 31.69988103313949 0.6349772309129023 96.95233807834467 H 0.0 **** 0.06
16584 H 30.43161693280507 0.9519396698937257 95.74380460869162 H 0.0 **** 0.06
16585 H 29.996535055704456 0.28486178023184294 97.33606307220174 H 0.0 **** 0.06
16586 C 22.966520332153436 111.14593972221759 75.95563372633247 C 0.0 **** -0.24
16587 H 23.27227490579554 110.27564562411534 75.37454336365809 H 0.0 **** 0.06
16588 H 22.315742049810808 110.8290567082605 76.77001289015374 H 0.0 **** 0.06
16589 H 22.430902833099736 111.84319415410543 75.31100760294635 H 0.0 **** 0.06
16590 H 23.85069452365002 111.63606413982355 76.36575540735042 H 0.0 **** 0.06
16591 C 72.25026745406792 75.38362166067748 101.43708448574125 C 0.0 **** -0.24
16592 H 72.59573619665849 74.4330936220049 101.03261518801554 H 0.0 **** 0.06
16593 H 72.51070726207689 75.44590042457428 102.49313992741202 H 0.0 **** 0.06
16594 H 71.16808103186264 75.4542561524544 101.32437685251972 H 0.0 **** 0.06
16595 H 72.72575292639857 76.20271954308863 100.89642476340208 H 0.0 **** 0.06
16596 C 62.14356021701073 153.23842333380983 84.46440079045823 C 0.0 **** -0.24
16597 H 62.620697000696055 153.9403952440093 83.78094371087131 H 0.0 **** 0.06
16598 H 62.35820057875492 152.2187220620442 84.14603704611304 H 0.0 **** 0.06
16599 H 61.066153027063535 153.40176892423062 84.45860274669946 H 0.0 **** 0.06
16600 H 62.52856955246392 153.39402661047717 85.47166245843147 H 0.0 **** 0.06
16601 C 110.35328780750363 86.76027523413268 93.94721664277404 C 0.0 **** -0.24
16602 H 109.6133024678525 86.2837968955101 94.58897259916284 H 0.0 **** 0.06
16603 H 109.85254989904847 87.44455940250037 93.26177852155551 H 0.0 **** 0.06
16604 H 110.88483209667866 85.99856746398424 93.37646045526671 H 0.0 **** 0.06
16605 H 111.06268888025862 87.31554397764545 94.56136762808339 H 0.0 **** 0.06
16606 C 28.8500554608149 36.89922538474903 129.46221754845737 C 0.0 **** -0.24
16607 H 28.161134766407827 37.15201942180906 130.26888982369556 H 0.0 **** 0.06
16608 H 29.719293291308816 36.38594783394049 129.87503768455534 H 0.0 **** 0.06
16609 H 29.17108593499276 37.81207701511063 128.96036098483296 H 0.0 **** 0.06
16610 H 28.348997079129987 36.24857257937124 128.74702594851172 H 0.0 **** 0.06
16611 C 154.84309624990553 80.15710819276183 35.748902609286034 C 0.0 **** -0.24
16612 H 155.7724232511951 80.41607846230471 36.256592876082806 H 0.0 **** 0.06
16613 H 153.99873081893816 80.38610930195112 36.39939026937367 H 0.0 **** 0.06
16614 H 154.84239920081646 79.09291163050521 35.512900775321555 H 0.0 **** 0.06
16615 H 154.75984664216818 80.73395479260458 34.82798504328434 H 0.0 **** 0.06
16616 C 67.84993726570428 127.64841070982152 47.594406359132165 C 0.0 **** -0.24
16617 H 68.50307337399744 127.34879729914331 46.775619051088185 H 0.0 **** 0.06
16618 H 67.03170715373466 128.25531612501578 47.20386693053253 H 0.0 **** 0.06
16619 H 68.41952632177754 128.2303831875995 48.320128805065906 H 0.0 **** 0.06
16620 H 67.4451074062803 126.76037675914824 48.07918273935847 H 0.0 **** 0.06
16621 C 83.66726321321953 53.75734833781881 8.204395072006065 C 0.0 **** -0.24
16622 H 82.99062810979116 53.82856859518212 9.055341749251795 H 0.0 **** 0.06
16623 H 84.50086330051211 53.101762599928904 8.4569716306913 H 0.0 **** 0.06
16624 H 84.04681777643502 54.74928711551081 7.956918803977061 H 0.0 **** 0.06
16625 H 83.1309350639758 53.34965889168427 7.346951701087647 H 0.0 **** 0.06
16626 C 63.0100185577666 150.79831582370628 127.50993955525473 C 0.0 **** -0.24
16627 H 63.66686816235638 151.51324424483676 127.01522994857038 H 0.0 **** 0.06
16628 H 63.461503049896734 149.80611158876025 127.47506511107889 H 0.0 **** 0.06
16629 H 62.046613311346874 150.77756208063863 127.00006280630987 H 0.0 **** 0.06
16630 H 62.86512727448097 151.09580977470688 128.54809200489365 H 0.0 **** 0.06
16631 C 56.54991240043222 90.69766694737172 28.029337979212613 C 0.0 **** -0.24
16632 H 57.44344619147142 91.07263391553863 27.53010775937375 H 0.0 **** 0.06
16633 H 56.4014245317245 91.23840658022982 28.963471074230426 H 0.0 **** 0.06
16634 H 56.67119067683686 89.63418331889068 28.23959943958792 H 0.0 **** 0.06
16635 H 55.684038094342355 90.8426716869057 27.38311898294029 H 0.0 **** 0.06
16636 C 5.4149745961381655 2.4526049346400782 89.2473544364492 C 0.0 **** -0.24
16637 H 5.347447568411269 2.3136674587119046 90.32663575715026 H 0.0 **** 0.06
16638 H 4.961272331275524 3.406325208526056 88.9749179934498 H 0.0 **** 0.06
16639 H 4.888932861523671 1.64249659161419 88.74396176501465 H 0.0 **** 0.06
16640 H 6.462366313887657 2.4496793932421497 88.94529035769479 H 0.0 **** 0.06
16641 C 114.44078046957623 105.98372321711389 136.46886286695894 C 0.0 **** -0.24
16642 H 114.4353359433145 106.81127472869969 135.75821416179394 H 0.0 **** 0.06
16643 H 115.36335723408814 105.41460736028898 136.35562012578293 H 0.0 **** 0.06
16644 H 113.58602893949319 105.33503078662187 136.27634887973625 H 0.0 **** 0.06
16645 H 114.37710572089111 106.37630961029515 137.48329378799508 H 0.0 **** 0.06
16646 C 142.17756474690455 32.28585686147827 1.8510094624643862 C 0.0 **** -0.24
16647 H 142.09135703236015 33.37077044868742 1.792937086686667 H 0.0 **** 0.06
16648 H 141.70391434041335 31.836127365783597 0.9785220209937577 H 0.0 **** 0.06
16649 H 141.6834298503749 31.930952772875173 2.756617839737963 H 0.0 **** 0.06
16650 H 143.23086976321665 32.0062503810847 1.878802260326033 H 0.0 **** 0.06
16651 C 58.94041988769489 0.37978286645987325 144.28511583431498 C 0.0 **** -0.24
16652 H 58.83335365467721 -0.019856057026107266 143.27743623517915 H 0.0 **** 0.06
16653 H 59.981736754849905 0.6531643231700315 144.45833668848394 H 0.0 **** 0.06
16654 H 58.637920421802235 -0.3753833887106808 145.00954569408614 H 0.0 **** 0.06
16655 H 58.30967005461848 1.2622024921360655 144.3950700955107 H 0.0 **** 0.06
16656 C 51.135361617860184 110.09452735444854 13.966042561642666 C 0.0 **** -0.24
16657 H 50.95781726524558 111.01012420457586 14.530646935285404 H 0.0 **** 0.06
16658 H 51.012551792562434 110.29469127858589 12.901880541724836 H 0.0 **** 0.06
16659 H 50.422088320501416 109.33248793863557 14.27867457180298 H 0.0 **** 0.06
16660 H 52.149590671478194 109.74319106493537 14.155193036560036 H 0.0 **** 0.06
16661 C 61.57226170096024 140.42869674442858 138.61739345590468 C 0.0 **** -0.24
16662 H 61.77032146515103 141.5008577469935 138.62610030557195 H 0.0 **** 0.06
16663 H 62.37001168053865 139.90827115145686 139.147548952132 H 0.0 **** 0.06
16664 H 61.52972423112624 140.076256113634 137.586273737707 H 0.0 **** 0.06
16665 H 60.61947942387235 140.2320530947139 139.1079980296214 H 0.0 **** 0.06
16666 C 150.36264736707483 64.01176694730191 81.84798271522142 C 0.0 **** -0.24
16667 H 150.32212250885618 64.91582216266761 81.24160533496313 H 0.0 **** 0.06
16668 H 150.32282421944268 64.28100588946359 82.90412627836918 H 0.0 **** 0.06
16669 H 151.29050726691344 63.477769721321806 81.64366034505532 H 0.0 **** 0.06
16670 H 149.5131441783211 63.37271265612071 81.60352684660383 H 0.0 **** 0.06
16671 C 47.84008741261573 14.38983127726604 143.90452472650566 C 0.0 **** -0.24
16672 H 47.20957467774366 14.00855359391823 144.70866261129584 H 0.0 **** 0.06
16673 H 48.652344055797585 13.685980160848416 143.71560010569988 H 0.0 **** 0.06
16674 H 48.25516252234857 15.35441816121692 144.19565604939348 H 0.0 **** 0.06
16675 H 47.24361160510165 14.508218835097573 143.00023956702057 H 0.0 **** 0.06
16676 C 33.62385961211848 130.9733017268378 93.74557538316233 C 0.0 **** -0.24
16677 H 34.22674594963331 131.8560787954024 93.9557237692042 H 0.0 **** 0.06
16678 H 32.89096723192188 131.20871828046677 92.9739423926284 H 0.0 **** 0.06
16679 H 33.10730761942395 130.6616889480813 94.65370929585907 H 0.0 **** 0.06
16680 H 34.26968146031474 130.1655871969905 93.40000907135969 H 0.0 **** 0.06
16681 C 135.15269945628114 6.74113943228371 38.70836347929685 C 0.0 **** -0.24
16682 H 135.87031984647643 5.965769619518824 38.97500607377998 H 0.0 **** 0.06
16683 H 134.6146131088814 7.061148123580807 39.60140504366211 H 0.0 **** 0.06
16684 H 134.4453561012698 6.345893888209623 37.97908642719136 H 0.0 **** 0.06
16685 H 135.68097368334014 7.592613942132786 38.27778106426359 H 0.0 **** 0.06
16686 C 121.19117502948545 93.7434833150113 39.716212806817225 C 0.0 **** -0.24
16687 H 121.2380780713993 94.01012033464815 40.772306312441785 H 0.0 **** 0.06
16688 H 120.2537227702182 94.10305486828639 39.2919060402907 H 0.0 **** 0.06
16689 H 121.24393956325274 92.65925263802563 39.61318154016858 H 0.0 **** 0.06
16690 H 122.02777463904927 94.19906709521024 39.18826383089004 H 0.0 **** 0.06
16691 C 132.26169912482922 39.049200487410786 75.22120475606215 C 0.0 **** -0.24
16692 H 131.65456110049408 38.293487455251324 74.72324101242953 H 0.0 **** 0.06
16693 H 131.61013093937189 39.80324516781843 75.66580601376944 H 0.0 **** 0.06
16694 H 132.92100301991255 39.52270846977444 74.49387523717769 H 0.0 **** 0.06
16695 H 132.85899563857689 38.57917197211941 76.00136222929757 H 0.0 **** 0.06
16696 C 66.25280238906488 68.2142678133724 154.68979404506246 C 0.0 **** -0.24
16697 H 67.34077990259458 68.14700403187688 154.69701833293436 H 0.0 **** 0.06
16698 H 65.9505578531686 69.22365812833351 154.96993530067712 H 0.0 **** 0.06
16699 H 65.83980908443502 67.50040145526796 155.4035230357795 H 0.0 **** 0.06
16700 H 65.8812102813703 67.98709167554252 153.69125063795107 H 0.0 **** 0.06
16701 C 61.17094534234923 50.8282528874723 8.160114002439002 C 0.0 **** -0.24
16702 H 60.62044401162336 50.318156416429886 8.950565484132483 H 0.0 **** 0.06
16703 H 60.619180823341765 51.71530201493604 7.847613666584323 H 0.0 **** 0.06
16704 H 61.291465157727146 50.157111786038755 7.309869179090867 H 0.0 **** 0.06
16705 H 62.15245915237671 51.123246826969705 8.531862443260763 H 0.0 **** 0.06
16706 C 112.95108252754504 125.9170613296621 74.1831223685931 C 0.0 **** -0.24
16707 H 112.96819296942427 124.82730235312233 74.21831199148116 H 0.0 **** 0.06
16708 H 113.43162011155836 126.2573043085426 73.26523182357981 H 0.0 **** 0.06
16709 H 113.48728171663673 126.31673215825172 75.04321613896471 H 0.0 **** 0.06
16710 H 111.91838706664235 126.26472493382873 74.20351263172654 H 0.0 **** 0.06
16711 C 30.012778580206543 101.30629248511957 116.59805291856024 C 0.0 **** -0.24
16712 H 30.730378307350577 101.4903058221123 117.3975342444978 H 0.0 **** 0.06
16713 H 29.171723370063773 100.73370702738606 116.990254051897 H 0.0 **** 0.06
16714 H 30.49474473759099 100.74423980013142 115.79922564343754 H 0.0 **** 0.06
16715 H 29.653570337193628 102.258175254967 116.20718043952662 H 0.0 **** 0.06
16716 C 9.333057004527006 46.789827346257084 156.15745436139844 C 0.0 **** -0.24
16717 H 8.759589474203437 46.44759090395098 157.0191050394842 H 0.0 **** 0.06
16718 H 9.128312329186599 46.14176038892606 155.30478001800853 H 0.0 **** 0.06
16719 H 10.396696715201955 46.756196484252314 156.39305826151212 H 0.0 **** 0.06
16720 H 9.046737847765911 47.8127225490764 155.91322821558836 H 0.0 **** 0.06
16721 C 36.21069832545021 121.45030810681486 27.451600301324333 C 0.0 **** -0.24
16722 H 35.80846355004405 120.44805556511137 27.60327672810365 H 0.0 **** 0.06
16723 H 37.29140596599973 121.39158418613864 27.32195011576607 H 0.0 **** 0.06
16724 H 35.98005731819654 122.06983759670739 28.317794610953968 H 0.0 **** 0.06
16725 H 35.7607910765623 121.89001652969925 26.560998443977837 H 0.0 **** 0.06
16726 C 4.113956450127034 45.55853974738585 146.86369318168474 C 0.0 **** -0.24
16727 H 4.371168235582331 45.28640220308489 145.8406350771812 H 0.0 **** 0.06
16728 H 3.434948188825672 44.81226877886297 147.27810981521208 H 0.0 **** 0.06
16729 H 3.6291679054613724 46.534244816098834 146.86919978578703 H 0.0 **** 0.06
16730 H 5.020951803275693 45.598887876483246 147.46736125922305 H 0.0 **** 0.06
16731 C 143.40528627372873 156.27066063016446 58.80458169504624 C 0.0 **** -0.24
16732 H 143.37141197992793 156.63476610117635 59.83129850197591 H 0.0 **** 0.06
16733 H 143.91786005735764 157.00036136057793 58.17730372635431 H 0.0 **** 0.06
16734 H 142.38939893431882 156.12418290389405 58.4375096797866 H 0.0 **** 0.06
16735 H 143.94287747845573 155.32205955506123 58.77370414175381 H 0.0 **** 0.06
16736 C 65.59030412746213 112.95723229864592 69.91801148919913 C 0.0 **** -0.24
16737 H 66.24641631182833 112.24263745814392 69.42207333441776 H 0.0 **** 0.06
16738 H 65.39174061974485 112.62142737636174 70.93644572905185 H 0.0 **** 0.06
16739 H 64.65089171671096 113.03042442216145 69.37037119156106 H 0.0 **** 0.06
16740 H 66.07167359679566 113.93522398310125 69.94542311676662 H 0.0 **** 0.06
16741 C 76.62554937725373 155.98480622140843 84.9375213116082 C 0.0 **** -0.24
16742 H 76.26319746236281 156.2542476707771 83.94553589806343 H 0.0 **** 0.06
16743 H 77.07644054387929 154.9923565357735 84.90190537686411 H 0.0 **** 0.06
16744 H 75.79267858106206 155.98080469212422 85.63948629772173 H 0.0 **** 0.06
16745 H 77.37058042120766 156.710874027508 85.26125410461101 H 0.0 **** 0.06
16746 C 104.16369678479424 80.30053762678665 73.86276769563307 C 0.0 **** -0.24
16747 H 103.64877161378047 81.09309062483925 74.40556091448536 H 0.0 **** 0.06
16748 H 103.49487019573212 79.88487207715326 73.1083892420665 H 0.0 **** 0.06
16749 H 104.46015506357065 79.5159400955464 74.55866629651132 H 0.0 **** 0.06
16750 H 105.04999995591822 80.70934166899252 73.37677423977834 H 0.0 **** 0.06
16751 C 79.09830637864684 105.31721921655851 117.20631798079802 C 0.0 **** -0.24
16752 H 79.08774574545912 105.82778932195852 116.24403825619231 H 0.0 **** 0.06
16753 H 78.38992705423301 104.48835585407731 117.18563061023809 H 0.0 **** 0.06
16754 H 78.81451467210066 106.01811716139814 117.9925679859212 H 0.0 **** 0.06
16755 H 80.0992782521228 104.93560738160444 117.4044198363078 H 0.0 **** 0.06
16756 C 132.92327181282712 153.02447545414643 22.139676228118503 C 0.0 **** -0.24
16757 H 132.6427574438211 152.93473568386796 21.090853988601566 H 0.0 **** 0.06
16758 H 132.1862918186183 153.63518947617717 22.661728486343776 H 0.0 **** 0.06
16759 H 133.9031684059327 153.49551999738094 22.21423735150765 H 0.0 **** 0.06
16760 H 132.9607600584327 152.03382757892064 22.592214704726956 H 0.0 **** 0.06
16761 C 85.67014753134744 67.65722095428806 35.00559390392701 C 0.0 **** -0.24
16762 H 84.91104627581008 67.70861311896272 34.22528192191794 H 0.0 **** 0.06
16763 H 86.55623624333954 67.15521759672757 34.61618907967633 H 0.0 **** 0.06
16764 H 85.27924090233641 67.09889083600893 35.856036816439044 H 0.0 **** 0.06
16765 H 85.93419714546678 68.66691335764546 35.32253991434105 H 0.0 **** 0.06
16766 C 63.12785269814671 45.92410995698174 40.85372007438923 C 0.0 **** -0.24
16767 H 62.51529267591005 45.918527928341746 41.754845317997024 H 0.0 **** 0.06
16768 H 62.48351979029394 45.86062956358694 39.97604982875845 H 0.0 **** 0.06
16769 H 63.8049055699926 45.0701455220601 40.87044784351073 H 0.0 **** 0.06
16770 H 63.70649038226797 46.846645671251736 40.812977717771076 H 0.0 **** 0.06
16771 C 10.728790987667367 15.547475515841654 0.7626031771920303 C 0.0 **** -0.24
16772 H 9.814366373767825 15.975192580094472 0.35267589258348764 H 0.0 **** 0.06
16773 H 11.157325974384207 14.8492325132284 0.044211140399294635 H 0.0 **** 0.06
16774 H 10.499848233852617 15.02012837745724 1.6893539115667124 H 0.0 **** 0.06
16775 H 11.442871790624793 16.345340220665264 0.9665031276949776 H 0.0 **** 0.06
16776 C 75.54566711502417 141.60297602757166 149.43221350658717 C 0.0 **** -0.24
16777 H 75.32143257274677 142.40672344811722 148.73184675777006 H 0.0 **** 0.06
16778 H 74.65819452332968 140.98636046194468 149.57288794747112 H 0.0 **** 0.06
16779 H 75.84763986197098 142.02855388104382 150.38902258449372 H 0.0 **** 0.06
16780 H 76.35543420446118 140.99000985951426 149.0360627550097 H 0.0 **** 0.06
16781 C 37.12523404758774 90.8607198604412 75.99371068379475 C 0.0 **** -0.24
16782 H 37.49890102120217 91.61813427222337 75.30555297480647 H 0.0 **** 0.06
16783 H 36.82572544880503 89.97500156242303 75.43134919561776 H 0.0 **** 0.06
16784 H 36.26562152729824 91.25407417778399 76.53605776572087 H 0.0 **** 0.06
16785 H 37.91052010022268 90.59322740971729 76.7017907105443 H 0.0 **** 0.06
16786 C 34.519554854622115 57.61947976888001 129.10966266546606 C 0.0 **** -0.24
16787 H 34.3091339721998 58.44120870619105 129.79411885356444 H 0.0 **** 0.06
16788 H 35.26947565655524 57.93451270663948 128.38333922176804 H 0.0 **** 0.06
16789 H 33.60445951638902 57.33714334415325 128.58884182782148 H 0.0 **** 0.06
16790 H 34.89526014293911 56.765033865401165 129.6737605726841 H 0.0 **** 0.06
16791 C 96.41332341204196 36.85974459333883 104.19708669802543 C 0.0 **** -0.24
16792 H 95.88096175210865 37.31921226547746 103.36445882066727 H 0.0 **** 0.06
16793 H 95.90519556460703 37.10246128930976 105.13023478899947 H 0.0 **** 0.06
16794 H 97.43477953455817 37.2401168271594 104.22896233346916 H 0.0 **** 0.06
16795 H 96.43242788950766 35.77831831225727 104.06304237973092 H 0.0 **** 0.06
16796 C 14.514789609606176 82.1039556634226 81.32789029868034 C 0.0 **** -0.24
16797 H 14.204455770327101 81.60683830309165 82.24719542977128 H 0.0 **** 0.06
16798 H 14.051569090929263 81.60823970825626 80.47345704350668 H 0.0 **** 0.06
16799 H 15.599946144519073 82.05082647461671 81.23506635542563 H 0.0 **** 0.06
16800 H 14.20352723425998 83.14794850746085 81.35577092719899 H 0.0 **** 0.06
16801 C 122.54598810896319 18.044451368717716 19.092200901505976 C 0.0 **** -0.24
16802 H 122.45912962079971 18.299215799339322 20.148919119176185 H 0.0 **** 0.06
16803 H 122.55470693591856 18.958562503943625 18.498479175329464 H 0.0 **** 0.06
16804 H 121.69792858230686 17.427008849468024 18.797897636759046 H 0.0 **** 0.06
16805 H 123.47220271099572 17.49403611287238 18.926329758622956 H 0.0 **** 0.06
16806 C 78.05619131835527 156.53023672138096 88.65077384057516 C 0.0 **** -0.24
16807 H 78.8542905337959 156.7066819632413 87.92943522348803 H 0.0 **** 0.06
16808 H 77.66633659505632 155.5198803057104 88.52053201404719 H 0.0 **** 0.06
16809 H 77.25539987752575 157.2520730375873 88.49094247911853 H 0.0 **** 0.06
16810 H 78.44937984453281 156.64060401463587 89.66055077635039 H 0.0 **** 0.06
16811 C 122.01008494148074 106.51683327927338 64.7066309987874 C 0.0 **** -0.24
16812 H 122.00674372368253 106.77391749746982 63.647218792110465 H 0.0 **** 0.06
16813 H 120.99313842201467 106.29844268549823 65.03020470977671 H 0.0 **** 0.06
16814 H 122.40342150750119 107.35433591963005 65.2820919596887 H 0.0 **** 0.06
16815 H 122.63905431445461 105.64042912717144 64.86479857031978 H 0.0 **** 0.06
16816 C 138.26297727560154 59.16615018406503 58.822692465085865 C 0.0 **** -0.24
16817 H 138.14587970502657 58.09133759722391 58.683373618334116 H 0.0 **** 0.06
16818 H 137.29843167311247 59.656052138000035 58.692609797722426 H 0.0 **** 0.06
16819 H 138.96905706500934 59.55197473200701 58.08771327896184 H 0.0 **** 0.06
16820 H 138.63910179876382 59.363099525611915 59.8267273145306 H 0.0 **** 0.06
16821 C 58.524496657194334 16.2199994796606 42.72817445862961 C 0.0 **** -0.24
16822 H 59.18117746484995 15.974894424174181 41.892987339575654 H 0.0 **** 0.06
16823 H 57.655573998190306 16.76399387890342 42.35747217071798 H 0.0 **** 0.06
16824 H 59.06402001733099 16.839237320289612 43.44380471579706 H 0.0 **** 0.06
16825 H 58.198512199510034 15.300723496495579 43.21469215508145 H 0.0 **** 0.06
16826 C 117.87142772945585 83.64129956404815 129.80185441017028 C 0.0 **** -0.24
16827 H 117.76839113110184 83.06740549482345 130.7229541535903 H 0.0 **** 0.06
16828 H 118.43504211213416 84.55227310617823 130.0023455375338 H 0.0 **** 0.06
16829 H 116.88205608900306 83.90165646081454 129.42411673091362 H 0.0 **** 0.06
16830 H 118.39804068979389 83.04277036218542 129.05822394415148 H 0.0 **** 0.06
16831 C 70.54710324016025 40.606839396039106 123.60999798320023 C 0.0 **** -0.24
16832 H 70.18561200436226 40.37714626737659 124.61225783948191 H 0.0 **** 0.06
16833 H 71.6370197970819 40.57111105341107 123.59899366378994 H 0.0 **** 0.06
16834 H 70.21305935253004 41.604585516693874 123.3237584669642 H 0.0 **** 0.06
16835 H 70.15154320183366 39.87526593916999 122.904765940385 H 0.0 **** 0.06
16836 C 26.63416760437434 32.93176273779932 121.97423416804726 C 0.0 **** -0.24
16837 H 27.279515514259685 32.61273859613408 121.15618629526308 H 0.0 **** 0.06
16838 H 26.426292571642875 33.99691036420222 121.87842113291119 H 0.0 **** 0.06
16839 H 27.13344579646747 32.742184934117915 122.92405372494774 H 0.0 **** 0.06
16840 H 25.698412527210422 32.37348717244464 121.93726771807802 H 0.0 **** 0.06
16841 C 156.8100891013595 100.14858205452396 83.69412530714703 C 0.0 **** -0.24
16842 H 156.90708296632673 99.25516620771555 84.3117287529086 H 0.0 **** 0.06
16843 H 156.62916803594567 99.85571763949122 82.65908196053317 H 0.0 **** 0.06
16844 H 157.7296008093067 100.730572312927 83.7516597345857 H 0.0 **** 0.06
16845 H 155.97527454498976 100.75007777129161 84.05276608187853 H 0.0 **** 0.06
16846 C 155.27743114172145 92.99629017506788 120.04027590833583 C 0.0 **** -0.24
16847 H 155.3426512094941 92.93550760067814 121.12631295670188 H 0.0 **** 0.06
16848 H 154.37281097361702 92.48996349966859 119.70269874893724 H 0.0 **** 0.06
16849 H 156.1495363641112 92.5160648098929 119.59661979382726 H 0.0 **** 0.06
16850 H 155.2442490464289 94.04230193254068 119.73532176868618 H 0.0 **** 0.06
16851 C 29.07074403635292 18.731163760382117 31.799339561709075 C 0.0 **** -0.24
16852 H 29.682370248020142 18.906141074835887 30.91403735372515 H 0.0 **** 0.06
16853 H 29.411210721734506 17.82478629162 32.301297760730606 H 0.0 **** 0.06
16854 H 28.028995574468254 18.612887124653582 31.50381392724944 H 0.0 **** 0.06
16855 H 29.162648934174648 19.57890080647303 32.477787082532615 H 0.0 **** 0.06
16856 C 113.80859101327299 56.23597743386088 147.58072731353602 C 0.0 **** -0.24
16857 H 112.83207985606067 56.4897092892965 147.99510615864023 H 0.0 **** 0.06
16858 H 114.14242825532357 57.03881071841528 146.9236922532264 H 0.0 **** 0.06
16859 H 113.73261491231709 55.308663745974755 147.0133953036928 H 0.0 **** 0.06
16860 H 114.52471283985777 56.108076151423745 148.39205181140636 H 0.0 **** 0.06
16861 C 36.08809055158328 52.44241951000737 120.41740186958161 C 0.0 **** -0.24
16862 H 36.92400235947028 51.83678832476377 120.76559570183169 H 0.0 **** 0.06
16863 H 36.32247024919734 52.85674174276269 119.43680668406473 H 0.0 **** 0.06
16864 H 35.90937131787393 53.25418013424441 121.12171412849695 H 0.0 **** 0.06
16865 H 35.194720074668666 51.82076311778445 120.34492947514103 H 0.0 **** 0.06
16866 C 137.87517782172188 68.48499518967327 140.90729745730448 C 0.0 **** -0.24
16867 H 138.19717688200805 69.36433890080886 141.46430722758976 H 0.0 **** 0.06
16868 H 138.74693903830067 67.98203759987695 140.4880973458475 H 0.0 **** 0.06
16869 H 137.20756488414594 68.78976795635012 140.10153931195617 H 0.0 **** 0.06
16870 H 137.34906954109965 67.80349933646431 141.5766188946534 H 0.0 **** 0.06
16871 C 92.16247765808959 108.26432649985044 33.643613469731356 C 0.0 **** -0.24
16872 H 93.0266819960284 108.62482478909426 34.20161751920645 H 0.0 **** 0.06
16873 H 91.76784401233056 107.36862889065397 34.12526356185814 H 0.0 **** 0.06
16874 H 92.46156367482307 108.02536622333069 32.62323452065609 H 0.0 **** 0.06
16875 H 91.39337804747747 109.03572295842476 33.62581110867449 H 0.0 **** 0.06
16876 C 43.50317325026536 154.61101336329344 74.3711622015839 C 0.0 **** -0.24
16877 H 43.48142124860735 155.69949634287815 74.40221479877918 H 0.0 **** 0.06
16878 H 42.809820974995276 154.21138141307802 75.11289913585163 H 0.0 **** 0.06
16879 H 44.51194001673416 154.26090145606577 74.59148685939884 H 0.0 **** 0.06
16880 H 43.20948542470826 154.26985326612498 73.37842007856902 H 0.0 **** 0.06
16881 C 24.287368920000915 7.960188506422526 125.35893082163575 C 0.0 **** -0.24
16882 H 25.044668307328607 8.456245502497723 124.7513480814648 H 0.0 **** 0.06
16883 H 24.773338537178915 7.291513763897171 126.06930909082713 H 0.0 **** 0.06
16884 H 23.62313764089447 7.3864178352654335 124.71348782618286 H 0.0 **** 0.06
16885 H 23.71004447335247 8.708951514129467 125.90092537863488 H 0.0 **** 0.06
16886 C 150.8925197800639 41.478019223992376 153.0154260340337 C 0.0 **** -0.24
16887 H 150.57538774140724 42.515324873829016 153.12530755095997 H 0.0 **** 0.06
16888 H 150.62193022761647 40.918572719345576 153.91075868976338 H 0.0 **** 0.06
16889 H 151.97315657608135 41.44145627578034 152.87594502410974 H 0.0 **** 0.06
16890 H 150.3996275988492 41.03783321250903 152.1477519640846 H 0.0 **** 0.06
16891 C 106.8750498059693 123.83588260083538 61.9064191044086 C 0.0 **** -0.24
16892 H 107.5285053310821 123.34669520705766 62.62746985183006 H 0.0 **** 0.06
16893 H 106.19464082504606 123.10127021947251 61.47522198796308 H 0.0 **** 0.06
16894 H 107.47740530422777 124.28154743252217 61.11375118092326 H 0.0 **** 0.06
16895 H 106.29927395188554 124.61459213238227 62.40710495238454 H 0.0 **** 0.06
16896 C 108.47860265461843 105.60136837645278 63.34607447599113 C 0.0 **** -0.24
16897 H 108.1338023567027 105.47617398588848 64.3727661571901 H 0.0 **** 0.06
16898 H 108.66162634375029 106.65901907835497 63.15203054405798 H 0.0 **** 0.06
16899 H 107.7173449112111 105.23148954027552 62.65939554260032 H 0.0 **** 0.06
16900 H 109.40191560628297 105.03989121796825 63.202696402469655 H 0.0 **** 0.06
16901 C 135.16319522381986 36.05403641666936 144.0697788007945 C 0.0 **** -0.24
16902 H 134.45305034232186 36.847843353200176 143.8388644127253 H 0.0 **** 0.06
16903 H 136.1583272561856 36.347783829925675 143.73488719625612 H 0.0 **** 0.06
16904 H 134.86333077173092 35.13832266894815 143.55924834540397 H 0.0 **** 0.06
16905 H 135.178482028562 35.880704880184055 145.14533453176796 H 0.0 **** 0.06
16906 C 140.33857395935496 19.032048004315186 70.69773018823287 C 0.0 **** -0.24
16907 H 140.3859829618965 19.486262448537758 69.7083605537207 H 0.0 **** 0.06
16908 H 139.65424572726192 19.600589167613578 71.3264124964058 H 0.0 **** 0.06
16909 H 141.3322729869058 19.03462653045827 71.14606853846507 H 0.0 **** 0.06
16910 H 139.98287554244357 18.005682958812997 70.60920284626255 H 0.0 **** 0.06
16911 C 98.51152438293332 137.0055910270216 35.37005918848075 C 0.0 **** -0.24
16912 H 99.57793557047626 137.22387805365838 35.311079254893 H 0.0 **** 0.06
16913 H 98.07634468786114 137.04704774632222 34.370683032338206 H 0.0 **** 0.06
16914 H 98.0250277080192 137.7413692912362 36.0099927668665 H 0.0 **** 0.06
16915 H 98.36721037315209 136.00921145244502 35.78818583393809 H 0.0 **** 0.06
16916 C 17.513788531653745 99.37552265589306 75.107232772416 C 0.0 **** -0.24
16917 H 16.61005757717163 99.96234672825754 74.94494747071536 H 0.0 **** 0.06
16918 H 17.39336720215948 98.76100515881829 76.00033728729743 H 0.0 **** 0.06
16919 H 18.36338114567809 100.04622140908005 75.23946846053224 H 0.0 **** 0.06
16920 H 17.689526478383243 98.73285371799938 74.24488396623272 H 0.0 **** 0.06
16921 C 1.7725087798748262 134.98818794762374 72.30776349619576 C 0.0 **** -0.24
16922 H 0.7623179989047557 134.69701253877196 72.59544932499942 H 0.0 **** 0.06
16923 H 1.8285009145712898 136.07382022748766 72.22633184788096 H 0.0 **** 0.06
16924 H 2.0206404459797476 134.53741895920814 71.34727682777931 H 0.0 **** 0.06
16925 H 2.478637232049806 134.64267565052867 73.06437674574066 H 0.0 **** 0.06
16926 C 138.92510789299928 51.044570407198904 57.310613257921005 C 0.0 **** -0.24
16927 H 138.8658941329843 51.55079130274606 56.34712438628168 H 0.0 **** 0.06
16928 H 138.36735230769193 51.61297244485513 58.05385242000716 H 0.0 **** 0.06
16929 H 139.96903924710193 50.97036769836657 57.61707531641929 H 0.0 **** 0.06
16930 H 138.50032391892472 50.04432726884619 57.22211505446171 H 0.0 **** 0.06
16931 C 34.97898966425416 120.40663277846723 122.571711345058 C 0.0 **** -0.24
16932 H 34.93997646746618 119.77351854084633 121.68564758724277 H 0.0 **** 0.06
16933 H 34.874617639893785 121.4508554554517 122.27677040451466 H 0.0 **** 0.06
16934 H 35.93360762979319 120.26478411915802 123.07843629168964 H 0.0 **** 0.06
16935 H 34.16630120205602 120.1364363554223 123.24605178634384 H 0.0 **** 0.06
16936 C 154.35067394111672 68.98609428123652 148.80474665417066 C 0.0 **** -0.24
16937 H 155.14773661879104 68.24297584451196 148.8071403156644 H 0.0 **** 0.06
16938 H 153.41149255419137 68.51126856930068 148.52015650998942 H 0.0 **** 0.06
16939 H 154.59047714105583 69.77492958592812 148.091598025603 H 0.0 **** 0.06
16940 H 154.25336341723343 69.41592502441553 149.801919096966 H 0.0 **** 0.06
16941 C 43.59657497577366 127.82598908203869 62.48869645182248 C 0.0 **** -0.24
16942 H 43.66677926598972 127.73497446978394 61.404579584177526 H 0.0 **** 0.06
16943 H 44.06163394098128 128.75943575223056 62.80583545348671 H 0.0 **** 0.06
16944 H 44.110158861243605 126.9856062680355 62.95718448244867 H 0.0 **** 0.06
16945 H 42.547555253852366 127.82165673136501 62.78552559461059 H 0.0 **** 0.06
16946 C 145.3753669263043 124.48635044232621 105.62161429091726 C 0.0 **** -0.24
16947 H 145.22827775845923 123.85638469569405 104.74459000871865 H 0.0 **** 0.06
16948 H 146.32126697074693 124.22932920256947 106.09940701887884 H 0.0 **** 0.06
16949 H 144.5585322296066 124.32675518228241 106.32455031944697 H 0.0 **** 0.06
16950 H 145.39478094290206 125.533081004999 105.31769669437948 H 0.0 **** 0.06
16951 C 61.53346125174215 116.58270663396904 151.5966795349681 C 0.0 **** -0.24
16952 H 61.73772543882738 116.85370520745364 152.63236316254284 H 0.0 **** 0.06
16953 H 62.09218705755279 117.24366343858627 150.93316142200266 H 0.0 **** 0.06
16954 H 60.4664845802084 116.68479525084764 151.39898440946874 H 0.0 **** 0.06
16955 H 61.838671517599494 115.55100523089122 151.42362879033521 H 0.0 **** 0.06
16956 C 75.92839285766964 91.9740111108219 81.41729236569246 C 0.0 **** -0.24
16957 H 75.78827174633142 92.84032387476421 80.76964046188175 H 0.0 **** 0.06
16958 H 76.82001322455498 92.11878930429566 82.02793554373832 H 0.0 **** 0.06
16959 H 76.04707930003377 91.07941119686042 80.80640106887387 H 0.0 **** 0.06
16960 H 75.05833547502037 91.86015143134915 82.06375720475546 H 0.0 **** 0.06
16961 C 104.28540297701221 75.84420803023198 106.478731275785 C 0.0 **** -0.24
16962 H 105.08662258393133 75.30541060583842 106.98551345776114 H 0.0 **** 0.06
16963 H 104.65313588315473 76.81805873943402 106.1532454477704 H 0.0 **** 0.06
16964 H 103.45095307394143 75.9818363649011 107.16556199397765 H 0.0 **** 0.06
16965 H 103.95343191494771 75.27176149049951 105.61295715777523 H 0.0 **** 0.06
16966 C 87.17035039090027 1.1147378378316546 30.484274907542954 C 0.0 **** -0.24
16967 H 86.83043231246688 0.4098568985134534 31.243864450600768 H 0.0 **** 0.06
16968 H 87.90027475690223 1.796384781414332 30.921923811906822 H 0.0 **** 0.06
16969 H 86.31904520504713 1.6843475750383732 30.11073519266222 H 0.0 **** 0.06
16970 H 87.63062454900768 0.5669361750142912 29.661960667194876 H 0.0 **** 0.06
16971 C 14.17645495685926 20.593772714343004 113.41662319438035 C 0.0 **** -0.24
16972 H 14.53639747311837 20.612425399360745 112.38763040824472 H 0.0 **** 0.06
16973 H 13.664565839730159 19.649502176397363 113.60491123819463 H 0.0 **** 0.06
16974 H 13.48373290062122 21.42112967308225 113.57437085562958 H 0.0 **** 0.06
16975 H 15.020788661860479 20.691977446809688 114.09820742511613 H 0.0 **** 0.06
16976 C 70.45014330152136 143.1360784427496 40.200562340699705 C 0.0 **** -0.24
16977 H 71.2639108996002 142.41339713625428 40.138283089183616 H 0.0 **** 0.06
16978 H 70.29971999948418 143.59911547633828 39.225102335646056 H 0.0 **** 0.06
16979 H 70.70042883716576 143.90306457119428 40.93322398669706 H 0.0 **** 0.06
16980 H 69.53520639389356 142.62677107961886 40.506294571530816 H 0.0 **** 0.06
16981 C 12.34274376923804 29.254078350313314 16.5479499428491 C 0.0 **** -0.24
16982 H 12.480707696034415 28.390268959522714 17.199342304073973 H 0.0 **** 0.06
16983 H 11.547521838111152 29.88459677531513 16.9434347209194 H 0.0 **** 0.06
16984 H 12.075944790884591 28.914141656017307 15.54769147998389 H 0.0 **** 0.06
16985 H 13.270895865838156 29.824656949344785 16.501793109185755 H 0.0 **** 0.06
16986 C 123.92331314303267 83.2997216834309 78.68617436699355 C 0.0 **** -0.24
16987 H 124.11364565997867 84.29822559609806 78.29345548573474 H 0.0 **** 0.06
16988 H 123.51500120232676 83.37742884622787 79.69428927013297 H 0.0 **** 0.06
16989 H 124.85590501973518 82.73569828426173 78.71461176980432 H 0.0 **** 0.06
16990 H 123.20813690980155 82.78671913404798 78.0422061603058 H 0.0 **** 0.06
16991 C 4.752677931664735 117.50663646125723 52.627773287717176 C 0.0 **** -0.24
16992 H 4.7460616745883115 117.701047820656 51.555469643393565 H 0.0 **** 0.06
16993 H 4.566720173701135 116.44640935059637 52.80503558386586 H 0.0 **** 0.06
16994 H 3.974256571363057 118.09809757579079 53.10976354299902 H 0.0 **** 0.06
16995 H 5.724042872071216 117.77969527377702 53.040395048125035 H 0.0 **** 0.06
16996 C 130.16231068399046 45.781505835137324 31.451172912318363 C 0.0 **** -0.24
16997 H 129.67474348743596 45.067450297697576 30.78741648744664 H 0.0 **** 0.06
16998 H 130.33473338355114 46.71539369016887 30.915443891880713 H 0.0 **** 0.06
16999 H 131.11608842274282 45.37351246239922 31.786681666197786 H 0.0 **** 0.06
17000 H 129.52425790716865 45.9696766047731 32.31386001808415 H 0.0 **** 0.06
17001 C 124.90672346509388 85.71116977501988 139.65530992565223 C 0.0 **** -0.24
17002 H 124.34030834014294 85.88334704457334 140.5700555388012 H 0.0 **** 0.06
17003 H 125.09017174996995 86.66395496479691 139.1574677629519 H 0.0 **** 0.06
17004 H 124.33711642499566 85.05937996307607 138.99309355424487 H 0.0 **** 0.06
17005 H 125.85774422824431 85.2395070888121 139.90006786237663 H 0.0 **** 0.06
17006 C 102.9583813576831 68.68218241929382 73.80830761836867 C 0.0 **** -0.24
17007 H 102.93719493183352 69.7249153399223 74.1278696935616 H 0.0 **** 0.06
17008 H 103.47459548184014 68.60653430931619 72.85105894310418 H 0.0 **** 0.06
17009 H 101.93870243945707 68.31472813847097 73.70248296724107 H 0.0 **** 0.06
17010 H 103.48497014479949 68.08521447912456 74.55359563780195 H 0.0 **** 0.06
17011 C 51.644527972792886 110.26165863861299 21.21125055454889 C 0.0 **** -0.24
17012 H 52.236826136250755 109.4088986319258 21.54184381188618 H 0.0 **** 0.06
17013 H 52.13169653089993 111.18605415297445 21.52310377695762 H 0.0 **** 0.06
17014 H 50.649800965025676 110.20732962504808 21.65442798332294 H 0.0 **** 0.06
17015 H 51.55897396160931 110.24476583151959 20.12454690165189 H 0.0 **** 0.06
17016 C 124.46304078817138 32.99055081437927 153.29619352145238 C 0.0 **** -0.24
17017 H 123.57228625831249 33.594156096154705 153.472402846383 H 0.0 **** 0.06
17018 H 125.25575921105212 33.622541061388006 152.89581182688192 H 0.0 **** 0.06
17019 H 124.23043151370752 32.20124480110119 152.5818990522781 H 0.0 **** 0.06
17020 H 124.79081547408686 32.54656799690583 154.23532270992973 H 0.0 **** 0.06
17021 C 132.38875661397944 63.88897950023568 47.933923211147174 C 0.0 **** -0.24
17022 H 132.11637330047145 64.84630901945025 47.48979351452843 H 0.0 **** 0.06
17023 H 133.1773879554043 63.42491230578571 47.34055742258292 H 0.0 **** 0.06
17024 H 131.51613605961555 63.23682394875857 47.953058114232306 H 0.0 **** 0.06
17025 H 132.74546245046298 64.048860041122 48.951327665512395 H 0.0 **** 0.06
17026 C 14.266225876720732 152.76432890670625 75.18178877282215 C 0.0 **** -0.24
17027 H 14.268002789673318 153.83982633887115 75.00422247214044 H 0.0 **** 0.06
17028 H 15.069142570147001 152.51095732786757 75.87506818496499 H 0.0 **** 0.06
17029 H 14.421654465684881 152.24064318962314 74.2389320121557 H 0.0 **** 0.06
17030 H 13.309047069180593 152.4681282481918 75.60949957583301 H 0.0 **** 0.06
17031 C 57.03240301578052 138.52388970381014 142.82596669213427 C 0.0 **** -0.24
17032 H 56.999423512209475 137.57108247896406 142.29852912833044 H 0.0 **** 0.06
17033 H 58.03691886157246 138.94299788552848 142.75511493552187 H 0.0 **** 0.06
17034 H 56.77623881177267 138.36761564971277 143.8734803991687 H 0.0 **** 0.06
17035 H 56.31818396510076 139.21401242688137 142.37593727983557 H 0.0 **** 0.06
17036 C 70.17495727475168 124.88776160018676 7.943647715039283 C 0.0 **** -0.24
17037 H 69.42598088233865 125.6763731630017 7.87671630757746 H 0.0 **** 0.06
17038 H 70.55610332109188 124.66421829594941 6.946800795459161 H 0.0 **** 0.06
17039 H 69.72209623433551 123.99212347235704 8.369688692625793 H 0.0 **** 0.06
17040 H 70.99519644847948 125.21825895468027 8.580496088804168 H 0.0 **** 0.06
17041 C 102.0925332223063 150.12804701177922 144.34026658632402 C 0.0 **** -0.24
17042 H 102.98384696767208 150.12452416801037 143.71158930856765 H 0.0 **** 0.06
17043 H 101.20983707320367 149.97121351070865 143.71920098838427 H 0.0 **** 0.06
17044 H 102.01232114565501 151.08792683042188 144.85076579072552 H 0.0 **** 0.06
17045 H 102.16531444385897 149.32848020292397 145.0776155464983 H 0.0 **** 0.06
17046 C 99.55870735449814 117.99589068179442 144.1608725717679 C 0.0 **** -0.24
17047 H 98.67498785424681 117.74537119893482 143.57530664379408 H 0.0 **** 0.06
17048 H 100.09031327358274 118.8196076255047 143.68202678286693 H 0.0 **** 0.06
17049 H 100.21375793121784 117.12637140650257 144.22035082091625 H 0.0 **** 0.06
17050 H 99.25789685972885 118.29286926119129 145.16558966722454 H 0.0 **** 0.06
17051 C 119.85189414310206 35.71962525094597 139.1798523408267 C 0.0 **** -0.24
17052 H 119.95246762739673 36.76378227679686 138.88315255872695 H 0.0 **** 0.06
17053 H 118.8702809122902 35.350813432668986 138.8833983674383 H 0.0 **** 0.06
17054 H 119.9596691872484 35.63871576389528 140.2622796693071 H 0.0 **** 0.06
17055 H 120.62615930375189 35.12725821137508 138.69275131653222 H 0.0 **** 0.06
17056 C 67.14022732606605 134.47147233360985 59.847952196409466 C 0.0 **** -0.24
17057 H 67.04767674092615 134.4399366535857 58.76278975246507 H 0.0 **** 0.06
17058 H 67.79696413564514 135.29314591658633 60.132946833321114 H 0.0 **** 0.06
17059 H 67.55897506587613 133.529904950448 60.20430299254406 H 0.0 **** 0.06
17060 H 66.15572546745032 134.62216654251552 60.291803573183245 H 0.0 **** 0.06
17061 C 100.53178763123312 48.94893145690395 150.39696531888796 C 0.0 **** -0.24
17062 H 101.37271561171586 48.68007059133271 149.755754964272 H 0.0 **** 0.06
17063 H 100.89641344952098 49.16290271967489 151.40140544514136 H 0.0 **** 0.06
17064 H 99.8248866606899 48.11974443155043 150.43456298502107 H 0.0 **** 0.06
17065 H 100.0366968756215 49.83180755784821 149.99333233496907 H 0.0 **** 0.06
17066 C 140.92820816164468 44.573482833639034 94.23232053475795 C 0.0 **** -0.24
17067 H 141.02922060049454 43.86003535881876 93.41405292525569 H 0.0 **** 0.06
17068 H 140.90200699889454 45.58611844888816 93.82784144562368 H 0.0 **** 0.06
17069 H 141.77798719629658 44.473797339697455 94.90746945066287 H 0.0 **** 0.06
17070 H 140.0056180134985 44.3736724735528 94.77632593454264 H 0.0 **** 0.06
17071 C 123.44385234336094 33.35427529680675 132.17400252697425 C 0.0 **** -0.24
17072 H 123.10014179282483 33.67451580086066 131.18972167601373 H 0.0 **** 0.06
17073 H 124.48526366008339 33.03807978179444 132.11003727671255 H 0.0 **** 0.06
17074 H 122.83220949717212 32.52022592589884 132.51765400475531 H 0.0 **** 0.06
17075 H 123.35665486041118 34.18306952535457 132.8767979504486 H 0.0 **** 0.06
17076 C 18.484439062917858 86.29205763691976 9.360801010001524 C 0.0 **** -0.24
17077 H 18.836796294622566 85.30853257661568 9.050448793787623 H 0.0 **** 0.06
17078 H 17.787570252919316 86.6785437153161 8.617453159802658 H 0.0 **** 0.06
17079 H 19.333724373981255 86.96936213214212 9.45035965255181 H 0.0 **** 0.06
17080 H 17.981110018761655 86.20942550377623 10.324383644285398 H 0.0 **** 0.06
17081 C 156.94392767146473 51.04215529497617 153.37743098783324 C 0.0 **** -0.24
17082 H 156.16068291833756 51.35605405505959 152.68767821678804 H 0.0 **** 0.06
17083 H 156.5095526051071 50.852321113690834 154.35867557444254 H 0.0 **** 0.06
17084 H 157.69319330803864 51.8292246234754 153.45749672669447 H 0.0 **** 0.06
17085 H 157.41132956440998 50.130668154575346 153.0038813157043 H 0.0 **** 0.06
17086 C 73.34598869815969 130.59053651756525 16.89756851203743 C 0.0 **** -0.24
17087 H 73.38188022181434 129.7655253269213 16.185208317485213 H 0.0 **** 0.06
17088 H 72.69708583019468 131.37619941944197 16.511108254963673 H 0.0 **** 0.06
17089 H 74.35104231417914 130.98712152735803 17.042103063357388 H 0.0 **** 0.06
17090 H 72.95612064912774 130.23192254221217 17.849329268899353 H 0.0 **** 0.06
17091 C 144.58452753930925 133.02337611877388 91.5262911123559 C 0.0 **** -0.24
17092 H 144.36881693236643 133.86802280421298 92.1807676881712 H 0.0 **** 0.06
17093 H 145.55601123907613 133.16999307468936 91.05357282294725 H 0.0 **** 0.06
17094 H 143.81420249767046 132.95192883311577 90.75937831435223 H 0.0 **** 0.06
17095 H 144.6001088404136 132.10395976893724 92.11232907982348 H 0.0 **** 0.06
17096 C 112.68605746529208 122.78425668053389 3.4410018696029 C 0.0 **** -0.24
17097 H 112.52989546734251 123.69253469943051 2.858908969255822 H 0.0 **** 0.06
17098 H 112.9313682296074 123.0499092357491 4.469274216588531 H 0.0 **** 0.06
17099 H 113.50593940877373 122.21135416361678 3.008573894503911 H 0.0 **** 0.06
17100 H 111.77655187984404 122.18367492676656 3.428008909081342 H 0.0 **** 0.06
17101 C 125.77880717833138 130.80041060410255 73.22062206207005 C 0.0 **** -0.24
17102 H 124.76252016508015 130.610755456812 72.87470832330149 H 0.0 **** 0.06
17103 H 126.2087127878798 131.62292380807003 72.64959680436962 H 0.0 **** 0.06
17104 H 126.38351118218885 129.90466163713978 73.07927311776103 H 0.0 **** 0.06
17105 H 125.75985901365759 131.06211666400574 74.2784573841318 H 0.0 **** 0.06
17106 C 7.372195966353999 84.40839506834438 88.27006423941462 C 0.0 **** -0.24
17107 H 8.07411054678807 84.342774966778 89.10164202196981 H 0.0 **** 0.06
17108 H 7.588811384191828 85.29940640130727 87.6808756177136 H 0.0 **** 0.06
17109 H 6.3551072615965865 84.46697118508838 88.65717929348394 H 0.0 **** 0.06
17110 H 7.470245067212659 83.52256277179742 87.64168360461542 H 0.0 **** 0.06
17111 C 121.98369197506123 109.58870748900823 130.97448696670915 C 0.0 **** -0.24
17112 H 121.99658595485126 110.20256146495102 131.8752875678787 H 0.0 **** 0.06
17113 H 121.01290290974212 109.68138311873507 130.4869097825439 H 0.0 **** 0.06
17114 H 122.15922937391521 108.54754427906308 131.24207883656373 H 0.0 **** 0.06
17115 H 122.76651136663561 109.92628677151676 130.29400349498027 H 0.0 **** 0.06
17116 C 143.3266161295037 150.84461406174628 18.63741822788623 C 0.0 **** -0.24
17117 H 142.9254538012821 150.34786947334786 19.52063578898337 H 0.0 **** 0.06
17118 H 144.23098658766685 151.3905941469318 18.90800745113681 H 0.0 **** 0.06
17119 H 142.58488188603343 151.54050134628693 18.243806857060896 H 0.0 **** 0.06
17120 H 143.56461717794417 150.1002688207385 17.878281021717626 H 0.0 **** 0.06
17121 C 103.81866103366924 147.56913364167912 138.3178171127215 C 0.0 **** -0.24
17122 H 104.72705268693842 147.18142379908062 137.8549624851854 H 0.0 **** 0.06
17123 H 103.20575514146692 146.7374879349336 138.66522530615856 H 0.0 **** 0.06
17124 H 103.25962455711938 148.15282240210553 137.58579228284225 H 0.0 **** 0.06
17125 H 104.08372631225593 148.20404549120357 139.16281118916874 H 0.0 **** 0.06
17126 C 68.4800958423411 145.53813000227012 43.830166120497665 C 0.0 **** -0.24
17127 H 68.39422161629311 144.46444840944557 43.999202052613924 H 0.0 **** 0.06
17128 H 67.48451926757672 145.98058042658968 43.78983509246508 H 0.0 **** 0.06
17129 H 68.99602656044166 145.71698605652378 42.8870040639636 H 0.0 **** 0.06
17130 H 69.0465093550849 145.9900585407117 44.64467211323614 H 0.0 **** 0.06
17131 C 100.63054840717894 29.646257014894964 59.22584655821177 C 0.0 **** -0.24
17132 H 101.02244784172979 28.67617914929768 58.91871878840729 H 0.0 **** 0.06
17133 H 99.82155439742922 29.937955595197828 58.55505795697698 H 0.0 **** 0.06
17134 H 101.42532205338279 30.390109913075086 59.18133418714895 H 0.0 **** 0.06
17135 H 100.25084439886552 29.579159008917685 60.24507193812288 H 0.0 **** 0.06
17136 C 32.23645406571393 98.95848602632964 2.439376367161678 C 0.0 **** -0.24
17137 H 32.94033395671039 98.86652945507268 1.611491231409282 H 0.0 **** 0.06
17138 H 31.87148269628827 97.96945115250162 2.715954714110225 H 0.0 **** 0.06
17139 H 31.397621972552514 99.58408138935596 2.135477028119727 H 0.0 **** 0.06
17140 H 32.738023409970225 99.41248272224584 3.2934277889602406 H 0.0 **** 0.06
17141 C 3.212145430125055 89.87565575344166 56.51304993131207 C 0.0 **** -0.24
17142 H 4.243053840363807 89.8982979022233 56.8653109568577 H 0.0 **** 0.06
17143 H 2.9085785765743744 90.87909504740651 56.2137767513036 H 0.0 **** 0.06
17144 H 2.5615868797324595 89.52232841023238 57.313423625549305 H 0.0 **** 0.06
17145 H 3.1342402260459146 89.20255362219444 55.65890123770099 H 0.0 **** 0.06
17146 C 103.88789715394365 155.58702847797394 59.816151309364784 C 0.0 **** -0.24
17147 H 103.70018972499021 154.90884137475325 60.64925867473376 H 0.0 **** 0.06
17148 H 103.0485426942479 155.54878577588534 59.121542592583836 H 0.0 **** 0.06
17149 H 104.80030757721543 155.28539880323643 59.30128487541053 H 0.0 **** 0.06
17150 H 104.00232759649107 156.60268944083163 60.19430754577823 H 0.0 **** 0.06
17151 C 81.39224204681484 130.48467255993444 90.6818314859138 C 0.0 **** -0.24
17152 H 80.35642800335273 130.51056194881917 90.34525068165844 H 0.0 **** 0.06
17153 H 81.64900829983176 131.43897280042714 91.14251449797979 H 0.0 **** 0.06
17154 H 82.04701925217353 130.30416507869154 89.8289255396407 H 0.0 **** 0.06
17155 H 81.51754157456602 129.68407644222245 91.41096080340381 H 0.0 **** 0.06
17156 C 84.9661971760279 74.54012535615402 15.8283544824084 C 0.0 **** -0.24
17157 H 85.40463597238575 73.62061335096494 16.215824168273855 H 0.0 **** 0.06
17158 H 83.9773843032099 74.68360072788998 16.263339049114023 H 0.0 **** 0.06
17159 H 84.88081120016918 74.47221435390604 14.743288106543133 H 0.0 **** 0.06
17160 H 85.6048814801081 75.38411313566048 16.089763499053873 H 0.0 **** 0.06
17161 C 74.60265653842745 99.64930960047663 7.718372592310345 C 0.0 **** -0.24
17162 H 74.19050513655964 98.92653395428648 7.015078045879136 H 0.0 **** 0.06
17163 H 74.06866917403894 100.59457145497815 7.624297234349001 H 0.0 **** 0.06
17164 H 75.65970686082214 99.80548255206251 7.4998426362294595 H 0.0 **** 0.06
17165 H 74.49454076651318 99.2697505574571 8.734884084932048 H 0.0 **** 0.06
17166 C 126.3712252132044 135.68084776725522 35.97429722837745 C 0.0 **** -0.24
17167 H 127.3671415148202 136.11008788919756 36.0775990459766 H 0.0 **** 0.06
17168 H 125.62736174205146 136.4780503177193 36.002027189316976 H 0.0 **** 0.06
17169 H 126.18914836476115 134.98542927444424 36.794427616509566 H 0.0 **** 0.06
17170 H 126.30119126590564 135.1503955592704 35.02529599929282 H 0.0 **** 0.06
17171 C 75.47755196259321 4.113482614642095 14.994152877085668 C 0.0 **** -0.24
17172 H 76.34492898638631 3.6584566818674205 14.514918903714602 H 0.0 **** 0.06
17173 H 75.77005192177721 4.5200349856528135 15.962842017260272 H 0.0 **** 0.06
17174 H 74.70351422733545 3.3597345644244285 15.135199329507856 H 0.0 **** 0.06
17175 H 75.09386791707644 4.915280606623327 14.363231958074778 H 0.0 **** 0.06
17176 C 97.95774322880894 156.0620803217106 149.11865155854466 C 0.0 **** -0.24
17177 H 97.87857285224243 156.47760620246925 148.1149355086765 H 0.0 **** 0.06
17178 H 98.18818405194372 154.9980226552591 149.05463575230374 H 0.0 **** 0.06
17179 H 97.0126120210546 156.19832082257662 149.6451049999247 H 0.0 **** 0.06
17180 H 98.7528620203633 156.57486166647442 149.6610150071441 H 0.0 **** 0.06
17181 C 104.47470825598218 76.91859032394115 11.252436363839479 C 0.0 **** -0.24
17182 H 105.01454822879141 77.24272219481588 10.361482899167413 H 0.0 **** 0.06
17183 H 103.68631447484633 77.6360647765458 11.480107901270685 H 0.0 **** 0.06
17184 H 105.1658851709333 76.85955397167305 12.09311576024976 H 0.0 **** 0.06
17185 H 104.03452657104505 75.938059815359 11.073068994158575 H 0.0 **** 0.06
17186 C 79.21109759607384 66.39451843665572 146.17952412926746 C 0.0 **** -0.24
17187 H 79.77161530495901 66.40231176102634 145.24403127786223 H 0.0 **** 0.06
17188 H 78.4754756734104 67.19939287409886 146.16846836633053 H 0.0 **** 0.06
17189 H 79.8964500462487 66.53895987787018 147.01437042761 H 0.0 **** 0.06
17190 H 78.7008639470386 65.43695340037601 146.2888197465834 H 0.0 **** 0.06
17191 C 125.63106999990909 19.94885636912803 105.28943491356183 C 0.0 **** -0.24
17192 H 125.60203786116197 19.226883002204886 104.4729250940283 H 0.0 **** 0.06
17193 H 126.63185727048226 19.968978369639864 105.71976569877852 H 0.0 **** 0.06
17194 H 124.91102382290482 19.658365941945362 106.05484232482188 H 0.0 **** 0.06
17195 H 125.37752448494665 20.938078479035063 104.90823291712935 H 0.0 **** 0.06
17196 C 149.0764265368316 36.828592988890094 26.80524757095492 C 0.0 **** -0.24
17197 H 148.32394156799876 36.975719203919496 27.57997908519559 H 0.0 **** 0.06
17198 H 149.95000382104115 37.44037362797296 27.027694890449993 H 0.0 **** 0.06
17199 H 148.663734080001 37.12090587646567 25.839519973585595 H 0.0 **** 0.06
17200 H 149.36456853100762 35.778727221701644 26.774252871721274 H 0.0 **** 0.06
17201 C 115.88900423915739 71.15248068334085 135.6585565072998 C 0.0 **** -0.24
17202 H 116.689128763324 71.55686537266814 135.039565877315 H 0.0 **** 0.06
17203 H 114.95185429490998 71.65433478945823 135.41388290815053 H 0.0 **** 0.06
17204 H 116.12511318210129 71.31643584933738 136.70985091583623 H 0.0 **** 0.06
17205 H 115.78874007110484 70.08302208429109 135.47067062457404 H 0.0 **** 0.06
17206 C 36.779730415164465 96.73422119738755 76.90431588800249 C 0.0 **** -0.24
17207 H 36.509648594448464 95.85321718013027 76.32196942133771 H 0.0 **** 0.06
17208 H 36.46794654389501 97.63130783016298 76.37020444439088 H 0.0 **** 0.06
17209 H 37.85943559495303 96.75532764299726 77.05277099398947 H 0.0 **** 0.06
17210 H 36.280841411192455 96.69608226014213 77.87331686503313 H 0.0 **** 0.06
17211 C 115.26353546112472 141.8320974530742 42.36804534053039 C 0.0 **** -0.24
17212 H 115.62580728541559 141.28682260409596 41.49639223099899 H 0.0 **** 0.06
17213 H 116.03622066991488 142.52064183977916 42.71199869529647 H 0.0 **** 0.06
17214 H 115.0235909280587 141.12815254095727 43.16383350148362 H 0.0 **** 0.06
17215 H 114.36975561821271 142.39466364815053 42.09900533101285 H 0.0 **** 0.06
17216 C 138.45049080333501 10.572191396783197 26.84945926781218 C 0.0 **** -0.24
17217 H 137.93605488017906 11.050833075974936 26.016154703945467 H 0.0 **** 0.06
17218 H 137.72273239076634 10.290239867941153 27.61093857018846 H 0.0 **** 0.06
17219 H 139.17416160876908 11.266115742491984 27.27758337655049 H 0.0 **** 0.06
17220 H 138.96811572953865 9.681833064613336 26.49351668353875 H 0.0 **** 0.06
17221 C 29.890392682752122 47.07187878415681 25.508223382427047 C 0.0 **** -0.24
17222 H 30.568037080340872 47.169805882538355 24.66007656361029 H 0.0 **** 0.06
17223 H 29.800431800132117 46.019807359221545 25.78152994596843 H 0.0 **** 0.06
17224 H 28.909273591388967 47.46163853281854 25.23616208105443 H 0.0 **** 0.06
17225 H 30.282915168211957 47.635188057981736 26.355024683361535 H 0.0 **** 0.06
17226 C 87.05066130876683 15.566854946229341 54.55847749939397 C 0.0 **** -0.24
17227 H 87.69510602614578 14.770109334596839 54.929447977455624 H 0.0 **** 0.06
17228 H 86.12267778325611 15.137119521213094 54.18129490220315 H 0.0 **** 0.06
17229 H 87.55770347268336 16.099611178895543 53.7544422460805 H 0.0 **** 0.06
17230 H 86.82715795298226 16.260579750211832 55.36872487183669 H 0.0 **** 0.06
17231 C 116.46949669472694 13.866348419170322 94.44104458873677 C 0.0 **** -0.24
17232 H 115.46586387359856 13.606504713040408 94.10645971816146 H 0.0 **** 0.06
17233 H 116.79303224166843 14.78148459291549 93.94540843715954 H 0.0 **** 0.06
17234 H 117.1559445396734 13.056158090244992 94.19213354817902 H 0.0 **** 0.06
17235 H 116.46539393060233 14.01926715805692 95.52000134397453 H 0.0 **** 0.06
17236 C 129.41284927812944 64.1114377648039 9.853061242017617 C 0.0 **** -0.24
17237 H 128.7145147257459 64.84297361586675 10.260452754944957 H 0.0 **** 0.06
17238 H 129.10772430153196 63.1100355950977 10.156620318172529 H 0.0 **** 0.06
17239 H 130.4150685394464 64.31739876665567 10.230839400622749 H 0.0 **** 0.06
17240 H 129.41419137977138 64.17816970612601 8.765332552604235 H 0.0 **** 0.06
17241 C 76.11471909839679 147.96960351113148 15.780603743728165 C 0.0 **** -0.24
17242 H 75.02859673567701 147.91630983347216 15.709198898911467 H 0.0 **** 0.06
17243 H 76.48050838368853 147.14284637245524 16.389664914235084 H 0.0 **** 0.06
17244 H 76.40219960067706 148.91561186644677 16.24112722218652 H 0.0 **** 0.06
17245 H 76.54787737329592 147.90602597773693 14.782916195991845 H 0.0 **** 0.06
17246 C 37.611194141561526 81.0101813923163 41.87640278138096 C 0.0 **** -0.24
17247 H 36.80719624030232 81.44540538787349 41.283472687162714 H 0.0 **** 0.06
17248 H 37.184863968614195 80.45618896494636 42.71388872660245 H 0.0 **** 0.06
17249 H 38.254774699364674 81.80359630645724 42.25541661539259 H 0.0 **** 0.06
17250 H 38.19605294329597 80.33328396261125 41.25343831182687 H 0.0 **** 0.06
17251 C 95.64087510803444 43.01557152715239 128.93589984039752 C 0.0 **** -0.24
17252 H 96.2937098493274 42.14248828141322 128.91407909277063 H 0.0 **** 0.06
17253 H 96.04703728378809 43.75617823529862 129.62420691837949 H 0.0 **** 0.06
17254 H 94.6470141168239 42.7167919789256 129.26738701067666 H 0.0 **** 0.06
17255 H 95.57611905142213 43.444780689253946 127.93554597673197 H 0.0 **** 0.06
17256 C 17.909333045404928 61.77997378864694 59.96278639604756 C 0.0 **** -0.24
17257 H 17.597030219434515 61.38298734932323 58.99685659292432 H 0.0 **** 0.06
17258 H 18.866566948742488 62.290200826023806 59.853423186820265 H 0.0 **** 0.06
17259 H 18.012801048411887 60.96142151136587 60.67567224949015 H 0.0 **** 0.06
17260 H 17.16167451722947 62.48489540721198 60.32574079134889 H 0.0 **** 0.06
17261 C 136.12162982885604 3.857187247231934 106.89486365523457 C 0.0 **** -0.24
17262 H 135.87420295969906 4.528235010317644 106.07267785140455 H 0.0 **** 0.06
17263 H 135.21602223082706 3.617929526481049 107.45414744701692 H 0.0 **** 0.06
17264 H 136.84013381364062 4.340789338508415 107.5551496894267 H 0.0 **** 0.06
17265 H 136.55448067449007 2.9397635341451007 106.49604722319366 H 0.0 **** 0.06
17266 C 153.53495111444934 53.285509400428495 95.85007598246958 C 0.0 **** -0.24
17267 H 152.76170546322538 53.963343706215866 96.21005438517105 H 0.0 **** 0.06
17268 H 153.53107040521667 52.37775018250993 96.45338088940166 H 0.0 **** 0.06
17269 H 154.50853247668158 53.770689967074105 95.92989371054058 H 0.0 **** 0.06
17270 H 153.33937574571624 53.03188066018693 94.80823174960577 H 0.0 **** 0.06
17271 C 20.24672359757045 130.32217297187051 36.92332499766677 C 0.0 **** -0.24
17272 H 19.270576058281875 130.08587208542664 37.34686548360982 H 0.0 **** 0.06
17273 H 20.114607635882237 130.84717305867625 35.97666561344121 H 0.0 **** 0.06
17274 H 20.80169657999741 129.39930750150708 36.75345152279405 H 0.0 **** 0.06
17275 H 20.800014116120224 130.95633924187226 37.61631737082182 H 0.0 **** 0.06
17276 C 52.42057267613038 90.62285241343547 69.91125496300181 C 0.0 **** -0.24
17277 H 52.91012923539307 91.27428192379584 69.1877249909302 H 0.0 **** 0.06
17278 H 51.80997422800854 89.88860642213108 69.38513705655691 H 0.0 **** 0.06
17279 H 51.78659167978316 91.21956788221414 70.56764161797403 H 0.0 **** 0.06
17280 H 53.175964253510244 90.10834556788448 70.50573874132084 H 0.0 **** 0.06
17281 C 18.482789946436412 34.066758464033455 86.76028359606612 C 0.0 **** -0.24
17282 H 18.43636993498467 34.40868922095865 85.72640100735164 H 0.0 **** 0.06
17283 H 17.75971928261154 33.26576626156759 86.91108793008237 H 0.0 **** 0.06
17284 H 18.251026949633967 34.89702052068304 87.42858334379827 H 0.0 **** 0.06
17285 H 19.485602377980825 33.69744102878241 86.97521738636712 H 0.0 **** 0.06
17286 C 91.57254040949408 44.384856608535685 85.85726700784147 C 0.0 **** -0.24
17287 H 92.65584796462429 44.27193703843784 85.82218760725249 H 0.0 **** 0.06
17288 H 91.29952176019685 45.382402150494556 85.51297152092309 H 0.0 **** 0.06
17289 H 91.22642128226119 44.24570732637444 86.88097529967777 H 0.0 **** 0.06
17290 H 91.10931054054174 43.63840676135395 85.21185210824314 H 0.0 **** 0.06
17291 C 151.14520993879398 133.7567765207906 1.3651713376216605 C 0.0 **** -0.24
17292 H 151.467748953807 133.65263617907607 2.4006717058949505 H 0.0 **** 0.06
17293 H 151.60276857787676 134.64606833415235 0.9303301342956445 H 0.0 **** 0.06
17294 H 150.05988140375342 133.85240474700186 1.3307055585141825 H 0.0 **** 0.06
17295 H 151.44974045578113 132.877221852256 0.7990720718263162 H 0.0 **** 0.06
17296 C 8.280497915562023 18.444982972166947 96.34529460867918 C 0.0 **** -0.24
17297 H 9.195281605630129 18.147251230094447 96.85699887442374 H 0.0 **** 0.06
17298 H 8.49017860000589 19.287609652649202 95.68636975628037 H 0.0 **** 0.06
17299 H 7.5304208957027114 18.735572396151618 97.08124905090963 H 0.0 **** 0.06
17300 H 7.904975264310323 17.607890003087746 95.7555007300301 H 0.0 **** 0.06
17301 C 142.1215428490545 121.7437427952266 103.4447244084273 C 0.0 **** -0.24
17302 H 143.00433063830081 121.1685038808064 103.72340446551868 H 0.0 **** 0.06
17303 H 141.22531138622213 121.19989342385823 103.74157734430707 H 0.0 **** 0.06
17304 H 142.1137385944612 121.89614757371801 102.36466070462615 H 0.0 **** 0.06
17305 H 142.14432413037906 122.71002633839232 103.94767745656435 H 0.0 **** 0.06
17306 C 106.9784509358059 125.55010715537014 130.49064904540376 C 0.0 **** -0.24
17307 H 106.24681496362176 125.11031552828149 129.8128269436738 H 0.0 **** 0.06
17308 H 106.7293371481834 125.28188524054889 131.51780240638254 H 0.0 **** 0.06
17309 H 106.96595904517717 126.63494565467471 130.3843520013893 H 0.0 **** 0.06
17310 H 107.9725029661398 125.17277989144816 130.2465703026821 H 0.0 **** 0.06
17311 C 15.813368911763604 46.94890618339298 71.96227500337514 C 0.0 **** -0.24
17312 H 14.913490368954228 46.410186692681165 72.26017869681202 H 0.0 **** 0.06
17313 H 16.341697814702854 46.379329827066826 71.19790401606335 H 0.0 **** 0.06
17314 H 16.46084161459646 47.080907740995514 72.82931270072555 H 0.0 **** 0.06
17315 H 15.537302967155682 47.92424952763662 71.56314521981044 H 0.0 **** 0.06
17316 C 26.856610992524004 129.6495685519132 110.20443844539648 C 0.0 **** -0.24
17317 H 26.65765964979633 130.03435780570703 111.20445307054439 H 0.0 **** 0.06
17318 H 27.83464760722211 129.9949720892097 109.86982756880451 H 0.0 **** 0.06
17319 H 26.089391860857617 130.0083774055988 109.51769853088575 H 0.0 **** 0.06
17320 H 26.843944944975966 128.559352377628 110.22483377973992 H 0.0 **** 0.06
17321 C 34.81571360440262 153.0060872712251 2.6099082554140267 C 0.0 **** -0.24
17322 H 33.79414257207702 152.6963130917963 2.391154438176109 H 0.0 **** 0.06
17323 H 34.83194925230907 153.57188277958898 3.541975072327375 H 0.0 **** 0.06
17324 H 35.18765952980124 153.63053268163623 1.7980167555026938 H 0.0 **** 0.06
17325 H 35.448467057341304 152.12383387029172 2.7096714494433662 H 0.0 **** 0.06
17326 C 71.7233400026656 134.4059152575592 121.10213313726315 C 0.0 **** -0.24
17327 H 70.91182942671114 134.4404341832629 121.83003130867387 H 0.0 **** 0.06
17328 H 72.25445878250531 133.45894743202038 121.1959277793277 H 0.0 **** 0.06
17329 H 72.41232699956106 135.2295378345615 121.28723152819272 H 0.0 **** 0.06
17330 H 71.31119596123855 134.49467106803158 120.09652566161476 H 0.0 **** 0.06
17331 C 36.39589754355646 33.31830221698737 33.99879244416948 C 0.0 **** -0.24
17332 H 36.91089714303406 32.4877574944075 34.48103152442076 H 0.0 **** 0.06
17333 H 36.61259490864714 33.31058403947797 32.93048567217204 H 0.0 **** 0.06
17334 H 36.7378124040671 34.25775709382394 34.43261547259709 H 0.0 **** 0.06
17335 H 35.32133037218861 33.21745225270778 34.15202219938172 H 0.0 **** 0.06
17336 C 16.18522256196792 133.64431597562222 77.26132731724168 C 0.0 **** -0.24
17337 H 16.88118486172573 133.94109897231556 78.04525458741048 H 0.0 **** 0.06
17338 H 15.196850304431479 134.05154118529225 77.4790533969364 H 0.0 **** 0.06
17339 H 16.12841898227353 132.55622344116478 77.2189517460924 H 0.0 **** 0.06
17340 H 16.533180800482967 134.0277612193944 76.30192359863918 H 0.0 **** 0.06
17341 C 131.652191336216 36.671542846521675 104.14412394921777 C 0.0 **** -0.24
17342 H 131.47932198442652 37.350954316782804 103.30990342097004 H 0.0 **** 0.06
17343 H 132.53073640583364 36.060462969617106 103.93735206304683 H 0.0 **** 0.06
17344 H 130.78359821249867 36.026111706382835 104.27339996515826 H 0.0 **** 0.06
17345 H 131.81663317079986 37.247468864650386 105.05470056245264 H 0.0 **** 0.06
17346 C 69.26189164093407 35.18772136655352 122.5882325258158 C 0.0 **** -0.24
17347 H 69.57423862099995 34.97374261799577 121.56559810253081 H 0.0 **** 0.06
17348 H 68.2245663542866 34.881394116598926 122.72287105524462 H 0.0 **** 0.06
17349 H 69.35286691016654 36.257341955755436 122.77937381535709 H 0.0 **** 0.06
17350 H 69.89700588562283 34.638713880649576 123.28426800254714 H 0.0 **** 0.06
17351 C 151.00734401247726 17.8547070069215 140.0007539911192 C 0.0 **** -0.24
17352 H 149.98230482522345 17.534823661351425 139.8122493600319 H 0.0 **** 0.06
17353 H 151.1089705869288 18.912231374907037 139.75635282128226 H 0.0 **** 0.06
17354 H 151.68896001308877 17.2719061846783 139.38128930541257 H 0.0 **** 0.06
17355 H 151.24956190106167 17.699287702656193 141.05242648262163 H 0.0 **** 0.06
17356 C 48.48976628720936 109.14140568060151 11.053839529645096 C 0.0 **** -0.24
17357 H 49.08811480959844 108.335058578234 10.629355045667019 H 0.0 **** 0.06
17358 H 48.99489219474191 110.09325211175127 10.887403701374467 H 0.0 **** 0.06
17359 H 48.367550723837326 108.9768571252622 12.124052020771764 H 0.0 **** 0.06
17360 H 47.51137480506844 109.15880919885547 10.574282569949261 H 0.0 **** 0.06
17361 C 22.706309482281938 142.76169057719574 34.68910002841047 C 0.0 **** -0.24
17362 H 22.548434959862107 142.02501646087677 35.476294112528336 H 0.0 **** 0.06
17363 H 22.131462717124577 142.47929246812214 33.80689076282167 H 0.0 **** 0.06
17364 H 23.76622690603415 142.79986187395085 34.435071052400964 H 0.0 **** 0.06
17365 H 22.38156774638344 143.74120170844594 35.03793289721938 H 0.0 **** 0.06
17366 C 92.5890600070156 86.0578593022812 6.48643568148708 C 0.0 **** -0.24
17367 H 91.79854987236065 86.74322423203495 6.788013580317283 H 0.0 **** 0.06
17368 H 93.5585532325798 86.53565606213357 6.626980365794026 H 0.0 **** 0.06
17369 H 92.46157613696336 85.79630894760362 5.4354942084983975 H 0.0 **** 0.06
17370 H 92.53757257510645 85.15431538712005 7.09412977917421 H 0.0 **** 0.06
17371 C 150.60768905250598 21.9422216135884 139.59309220698154 C 0.0 **** -0.24
17372 H 150.54638668948462 23.027001778426893 139.50457840528952 H 0.0 **** 0.06
17373 H 149.62579677983098 21.506213226158934 139.40784389786427 H 0.0 **** 0.06
17374 H 150.93977925275956 21.67819744385605 140.59657163910802 H 0.0 **** 0.06
17375 H 151.31928210370947 21.55798505559528 138.86150400002978 H 0.0 **** 0.06
17376 C 119.4331913509343 130.66821033387794 125.7414882776364 C 0.0 **** -0.24
17377 H 120.05457289210563 131.0042901010744 124.91160633989888 H 0.0 **** 0.06
17378 H 119.98145785469364 130.78370987866623 126.67630877274492 H 0.0 **** 0.06
17379 H 119.17296755150187 129.62007053532602 125.59903070738868 H 0.0 **** 0.06
17380 H 118.52300500848276 131.26751118627766 125.77805340567572 H 0.0 **** 0.06
17381 C 141.118750008044 77.05004716269576 96.3642112358836 C 0.0 **** -0.24
17382 H 140.87129341973514 78.07247055204772 96.64835784510987 H 0.0 **** 0.06
17383 H 140.29421115357502 76.62183648117605 95.79350992374941 H 0.0 **** 0.06
17384 H 141.28886751152845 76.45402225191162 97.26054989718045 H 0.0 **** 0.06
17385 H 142.02077616338784 77.05125367680165 95.75205844480286 H 0.0 **** 0.06
17386 C 67.9546923323951 143.10889013940525 63.224478795231065 C 0.0 **** -0.24
17387 H 68.84856680763676 143.62407321134552 62.87535498092531 H 0.0 **** 0.06
17388 H 68.23594847449522 142.1556186321113 63.67293070376833 H 0.0 **** 0.06
17389 H 67.28536212088132 142.93118925948227 62.38233975783007 H 0.0 **** 0.06
17390 H 67.44778848378456 143.7238298901441 63.967536151105264 H 0.0 **** 0.06
17391 C 69.80074783017547 45.41580243333971 28.084323907264498 C 0.0 **** -0.24
17392 H 69.17870458803593 45.38768104913413 28.979779719402707 H 0.0 **** 0.06
17393 H 69.45312888648064 46.21243585249414 27.425862088384598 H 0.0 **** 0.06
17394 H 69.73320759578698 44.45933853197255 27.56566525014012 H 0.0 **** 0.06
17395 H 70.83611420922519 45.60346309661182 28.36723127635983 H 0.0 **** 0.06
17396 C 24.65132829894344 86.80163471207464 143.85227019958336 C 0.0 **** -0.24
17397 H 24.057543450671346 86.75656037053704 144.76529623036276 H 0.0 **** 0.06
17398 H 24.013328015034688 86.58906525374925 142.99396806130852 H 0.0 **** 0.06
17399 H 25.451471047654024 86.06383588899044 143.90310442751456 H 0.0 **** 0.06
17400 H 25.081417173086493 87.7977893668907 143.74815422412485 H 0.0 **** 0.06
17401 C 82.03442531089354 155.30388458337427 32.17935523305843 C 0.0 **** -0.24
17402 H 82.28209197023529 156.22028766668518 31.642382859072427 H 0.0 **** 0.06
17403 H 81.06269622294712 154.94080104675504 31.84665483781339 H 0.0 **** 0.06
17404 H 81.99872537453138 155.50939490929895 33.25027715634582 H 0.0 **** 0.06
17405 H 82.79391852136365 154.5492949422173 31.979080045876117 H 0.0 **** 0.06
17406 C 23.670810045740893 156.1297274846237 55.369221801720926 C 0.0 **** -0.24
17407 H 23.86638673239483 156.9876918586678 54.72624858868082 H 0.0 **** 0.06
17408 H 23.82512819335284 156.4130461636437 56.40949101976449 H 0.0 **** 0.06
17409 H 24.350072413317548 155.3182511679536 55.1074270249606 H 0.0 **** 0.06
17410 H 22.641312822895117 155.79993273230932 55.230421391739185 H 0.0 **** 0.06
17411 C 142.56948554715507 112.94358694966041 59.85766196373322 C 0.0 **** -0.24
17412 H 141.55621090971636 112.68402967410606 60.16246544967544 H 0.0 **** 0.06
17413 H 142.5833486261069 113.1567658123671 58.788377488935225 H 0.0 **** 0.06
17414 H 143.23767693386503 112.1098959233239 60.07103529877594 H 0.0 **** 0.06
17415 H 142.89944530304192 113.8247972995643 60.408438298722785 H 0.0 **** 0.06
17416 C 75.3822022208575 136.13481454992683 25.18128615803792 C 0.0 **** -0.24
17417 H 74.34595039540454 136.45692419908005 25.079344043293617 H 0.0 **** 0.06
17418 H 75.44977681698555 135.06337007795437 24.99454284032052 H 0.0 **** 0.06
17419 H 75.73145680069653 136.3500801070071 26.192029304748075 H 0.0 **** 0.06
17420 H 76.00185261165059 136.66929973816457 24.461631637013113 H 0.0 **** 0.06
17421 C 106.7473981546666 51.74727311224558 143.28357512420632 C 0.0 **** -0.24
17422 H 106.1315190834938 51.48673465636011 144.144902811763 H 0.0 **** 0.06
17423 H 106.44821165854705 52.72540511765925 142.90634985160744 H 0.0 **** 0.06
17424 H 106.61342261974391 50.99940393958036 142.5023332210601 H 0.0 **** 0.06
17425 H 107.79531542737664 51.77667482863143 143.58243898386922 H 0.0 **** 0.06
17426 C 117.42609533752328 75.57138219301807 132.18589182519747 C 0.0 **** -0.24
17427 H 116.61719871405298 76.23303749832608 131.8775492390414 H 0.0 **** 0.06
17428 H 118.34385901313213 75.85707398413435 131.67183180008402 H 0.0 **** 0.06
17429 H 117.17080022488274 74.54301461644893 131.93053090764778 H 0.0 **** 0.06
17430 H 117.57166889433198 75.65280696049373 133.2626034793608 H 0.0 **** 0.06
17431 C 9.857033906978586 44.15767966301527 103.30644498925483 C 0.0 **** -0.24
17432 H 8.912234934597052 44.3558383180352 102.8004245193647 H 0.0 **** 0.06
17433 H 10.392701935291512 45.09563026211147 103.45639212362585 H 0.0 **** 0.06
17434 H 10.462552053562433 43.48722129926526 102.695651190501 H 0.0 **** 0.06
17435 H 9.661128912128476 43.69175340692779 104.27201146423846 H 0.0 **** 0.06
17436 C 88.65542556158107 62.20527797256091 88.84310568587175 C 0.0 **** -0.24
17437 H 88.67883050311684 62.55952537841529 89.87389211870588 H 0.0 **** 0.06
17438 H 88.10467399196426 62.91745640537994 88.22767470044923 H 0.0 **** 0.06
17439 H 88.1625834425297 61.23353959456466 88.80355999069259 H 0.0 **** 0.06
17440 H 89.67436864807732 62.11125758722562 88.4672375798346 H 0.0 **** 0.06
17441 C 66.24626558537142 131.08432211556004 113.3917164278708 C 0.0 **** -0.24
17442 H 66.59405635508871 130.06169470269424 113.53826822517213 H 0.0 **** 0.06
17443 H 66.79450899486858 131.753196465141 114.05476086293164 H 0.0 **** 0.06
17444 H 65.18116426461565 131.1412528784137 113.61639116551537 H 0.0 **** 0.06
17445 H 66.41533790728782 131.38004973514708 112.35655007408484 H 0.0 **** 0.06
17446 C 44.55269740700304 31.624829494800906 122.06309886769473 C 0.0 **** -0.24
17447 H 45.58809712882692 31.94902139474607 121.96177425613708 H 0.0 **** 0.06
17448 H 44.38568956739613 31.255800729955354 123.0756648479415 H 0.0 **** 0.06
17449 H 44.34856550592865 30.828694888603025 121.34746242950924 H 0.0 **** 0.06
17450 H 43.88774166609397 32.46668409491821 121.86835188041918 H 0.0 **** 0.06
17451 C 65.17603253796142 144.73732460984107 96.74824746898497 C 0.0 **** -0.24
17452 H 64.71622548400987 144.0883807465314 97.49356753772372 H 0.0 **** 0.06
17453 H 65.58898960356943 144.12922434120247 95.94337282183102 H 0.0 **** 0.06
17454 H 65.97372052021903 145.3168857594815 97.21355537521183 H 0.0 **** 0.06
17455 H 64.4242202514041 145.4143556056907 96.34341421029373 H 0.0 **** 0.06
17456 C 112.96160196632893 52.12411779480604 117.9909542841234 C 0.0 **** -0.24
17457 H 111.87344942639446 52.09048294906012 118.05286105731653 H 0.0 **** 0.06
17458 H 113.38934027924186 51.56587863500488 118.82385803263014 H 0.0 **** 0.06
17459 H 113.29602218852314 53.16039379445546 118.0359301266908 H 0.0 **** 0.06
17460 H 113.28593293692101 51.67802256452387 117.05056173203923 H 0.0 **** 0.06
17461 C 71.8826408467391 31.3566632051037 126.68084746003291 C 0.0 **** -0.24
17462 H 72.85238919224258 31.167604308215928 126.22146796429712 H 0.0 **** 0.06
17463 H 71.4545061047616 30.415430852275094 127.02685612903821 H 0.0 **** 0.06
17464 H 71.21601793670729 31.811551539319424 125.94765567367108 H 0.0 **** 0.06
17465 H 72.00685134810078 32.03170698805981 127.52692740687701 H 0.0 **** 0.06
17466 C 38.270320182149646 90.10498129107107 93.80279769170279 C 0.0 **** -0.24
17467 H 38.23879675524168 91.05543339892183 93.2707716466629 H 0.0 **** 0.06
17468 H 39.2253267195498 90.01079470819867 94.31979292876191 H 0.0 **** 0.06
17469 H 38.159778614933714 89.28646456450963 93.09218136005292 H 0.0 **** 0.06
17470 H 37.45876634669344 90.06871010392686 94.52982001395056 H 0.0 **** 0.06
17471 C 131.58830720194652 111.5661260978559 2.979462050764244 C 0.0 **** -0.24
17472 H 130.61635263716082 111.59029882932326 3.4718203155607235 H 0.0 **** 0.06
17473 H 131.52474707791723 112.08820270626542 2.024302994018285 H 0.0 **** 0.06
17474 H 131.88305242970316 110.53039416795478 2.80849621987203 H 0.0 **** 0.06
17475 H 132.32822194362976 112.05564115849025 3.612102411847502 H 0.0 **** 0.06
17476 C 8.025172042614997 57.81031893448849 125.99479283949296 C 0.0 **** -0.24
17477 H 7.050956788724619 57.33221187982815 126.09857610329942 H 0.0 **** 0.06
17478 H 7.895486473280727 58.81698643493601 125.59679298525418 H 0.0 **** 0.06
17479 H 8.644898192296921 57.22691820446191 125.31262877360768 H 0.0 **** 0.06
17480 H 8.509763882308505 57.863603239525915 126.96932820547443 H 0.0 **** 0.06
17481 C 25.660247429774657 91.4966456989217 86.99194506939783 C 0.0 **** -0.24
17482 H 26.272332984653573 90.59904155929128 87.07996070808719 H 0.0 **** 0.06
17483 H 24.626445584861784 91.25557688063664 87.23901436111751 H 0.0 **** 0.06
17484 H 25.711972096829207 91.87289795643918 85.97015816661397 H 0.0 **** 0.06
17485 H 26.031101620240804 92.25733624346627 87.67915955348138 H 0.0 **** 0.06
17486 C 77.77344168876732 58.17691105594015 74.32819465282562 C 0.0 **** -0.24
17487 H 77.42204761473202 57.98210253405547 75.34092486436965 H 0.0 **** 0.06
17488 H 77.65719914049792 59.2370023962325 74.10024349750537 H 0.0 **** 0.06
17489 H 77.19096713422593 57.58622848664609 73.62137561227657 H 0.0 **** 0.06
17490 H 78.82599684309112 57.90235705116284 74.25007642574795 H 0.0 **** 0.06
17491 C 140.4307081393203 150.32780840321345 121.0202430517564 C 0.0 **** -0.24
17492 H 141.2338231679027 150.32028046975861 120.28331547560619 H 0.0 **** 0.06
17493 H 140.29344118437544 149.32296111151481 121.41819824560993 H 0.0 **** 0.06
17494 H 139.5066812907753 150.6613559956755 120.54705695039497 H 0.0 **** 0.06
17495 H 140.68847007239006 151.00854603573305 121.83197931066773 H 0.0 **** 0.06
17496 C 124.24745534328571 11.696428407381859 92.86392851664789 C 0.0 **** -0.24
17497 H 123.44626092573168 11.762743387945648 93.59988877010628 H 0.0 **** 0.06
17498 H 124.00748065733308 12.32676295237178 92.00766910376326 H 0.0 **** 0.06
17499 H 124.35546504397968 10.66260353584147 92.53685101965003 H 0.0 **** 0.06
17500 H 125.18189532361623 12.034561862796494 93.31316052825173 H 0.0 **** 0.06
17501 C 137.35637847906588 90.00778066129436 12.803252729124551 C 0.0 **** -0.24
17502 H 137.696274838446 89.01244210596951 12.517456840596651 H 0.0 **** 0.06
17503 H 136.29480461268184 90.10924550855073 12.573284149277185 H 0.0 **** 0.06
17504 H 137.92125053982036 90.7570954737672 12.249944955547278 H 0.0 **** 0.06
17505 H 137.51171780802213 90.15070155459617 13.872734374686786 H 0.0 **** 0.06
17506 C 22.012466585607342 88.67354014375155 27.733787786865896 C 0.0 **** -0.24
17507 H 22.449858252864658 87.68678541143741 27.577972714102607 H 0.0 **** 0.06
17508 H 21.380656580832408 88.92869388349985 26.88306318081547 H 0.0 **** 0.06
17509 H 22.808145046316326 89.41147705210084 27.831616969608916 H 0.0 **** 0.06
17510 H 21.41211133905344 88.66386383455774 28.642651125111023 H 0.0 **** 0.06
17511 C 144.93832261382067 44.05921195970967 132.49581384282476 C 0.0 **** -0.24
17512 H 145.1907301931828 44.13464274538518 133.55358191148096 H 0.0 **** 0.06
17513 H 145.34937690600134 44.91613161092744 131.96236492969317 H 0.0 **** 0.06
17514 H 143.85458038577144 44.044036180963644 132.3814235437368 H 0.0 **** 0.06
17515 H 145.3591249555999 43.140021111548776 132.087798822745 H 0.0 **** 0.06
17516 C 121.52345423334604 155.17906182415317 111.24848525216514 C 0.0 **** -0.24
17517 H 120.46280746619492 155.4125620657009 111.33430892694314 H 0.0 **** 0.06
17518 H 122.07630548336478 155.71258196193958 112.02211723931158 H 0.0 **** 0.06
17519 H 121.88480512840881 155.48616641281689 110.26672561046261 H 0.0 **** 0.06
17520 H 121.67071071096471 154.10602611023464 111.37118227292994 H 0.0 **** 0.06
17521 C 149.6133794921718 36.27259446087106 155.2538455649362 C 0.0 **** -0.24
17522 H 150.50473505141179 35.64525761574299 155.23160965373813 H 0.0 **** 0.06
17523 H 149.71274716820147 37.072395309687295 154.5197765297862 H 0.0 **** 0.06
17524 H 149.49835331281133 36.70504661467041 156.2480702901339 H 0.0 **** 0.06
17525 H 148.7382384930661 35.66800512609416 155.0180668490224 H 0.0 **** 0.06
17526 C 147.53473710292846 53.73693764738307 88.13945506053439 C 0.0 **** -0.24
17527 H 146.99356484817594 53.80835441630316 87.19519029059822 H 0.0 **** 0.06
17528 H 147.41225991514682 54.66400332238091 88.69930882429628 H 0.0 **** 0.06
17529 H 148.5935818159763 53.57025832599706 87.93829196549731 H 0.0 **** 0.06
17530 H 147.14047037762725 52.90492264109592 88.72155161487942 H 0.0 **** 0.06
17531 C 27.00942050514368 75.54434539722554 155.32126365550147 C 0.0 **** -0.24
17532 H 27.86311583257745 75.16635628794421 155.8830155260602 H 0.0 **** 0.06
17533 H 26.348161401096206 74.71589660159582 155.0646633734054 H 0.0 **** 0.06
17534 H 27.360324083265454 76.02615466124874 154.40810966176454 H 0.0 **** 0.06
17535 H 26.465974646894523 76.26807475393971 155.9288417112828 H 0.0 **** 0.06
17536 C 70.22357067443374 55.072523516519965 51.11571648014991 C 0.0 **** -0.24
17537 H 71.16827047453071 54.95365083362782 50.585127897190816 H 0.0 **** 0.06
17538 H 70.39623445595127 55.61150353367245 52.04810238807346 H 0.0 **** 0.06
17539 H 69.80491491695807 54.09145737206265 51.33509327013017 H 0.0 **** 0.06
17540 H 69.52653822983126 55.63522992862556 50.49491544197538 H 0.0 **** 0.06
17541 C 126.36294727873651 111.94199985558322 11.346116880247507 C 0.0 **** -0.24
17542 H 126.48307358614791 111.17264867644377 12.108871824700941 H 0.0 **** 0.06
17543 H 126.54610328135597 112.92166079528732 11.7864110565572 H 0.0 **** 0.06
17544 H 125.3477763253458 111.9047525092198 10.950434867304466 H 0.0 **** 0.06
17545 H 127.07354438010815 111.7668562672514 10.538720983036 H 0.0 **** 0.06
17546 C 22.989766710406883 111.36963758679629 101.44926221313419 C 0.0 **** -0.24
17547 H 22.507193325332253 112.26205901155232 101.05072037018338 H 0.0 **** 0.06
17548 H 22.370900417575456 110.94360533867798 102.23892081331711 H 0.0 **** 0.06
17549 H 23.965189500402943 111.63584372233525 101.85516899037678 H 0.0 **** 0.06
17550 H 23.116178203341804 110.63808561050259 100.65030066424829 H 0.0 **** 0.06
17551 C 33.6956887041592 5.987208578476384 88.78248380134326 C 0.0 **** -0.24
17552 H 34.64248968675631 5.797240723397238 88.27725140535273 H 0.0 **** 0.06
17553 H 33.790978432542246 6.8714126887639395 89.41224535175144 H 0.0 **** 0.06
17554 H 33.43401980095328 5.127850271640227 89.39976603295122 H 0.0 **** 0.06
17555 H 32.91433946479441 6.1516892184581025 88.0398188774779 H 0.0 **** 0.06
17556 C 116.58459666384884 36.390867942076355 154.19695163512682 C 0.0 **** -0.24
17557 H 115.8097032585127 35.62689646076548 154.26318961603616 H 0.0 **** 0.06
17558 H 116.3918615968682 37.16922052894087 154.9364238595978 H 0.0 **** 0.06
17559 H 116.57842751365517 36.828686988923465 153.19865653754698 H 0.0 **** 0.06
17560 H 117.55700369859461 35.93847082692231 154.38937058624856 H 0.0 **** 0.06
17561 C 21.71141283878785 126.5014742550013 37.922031054252386 C 0.0 **** -0.24
17562 H 21.87920170996938 127.51204071014878 37.5493716775369 H 0.0 **** 0.06
17563 H 22.605541415427325 125.90026546476305 37.755745861804314 H 0.0 **** 0.06
17564 H 20.86982804206417 126.05435500098078 37.39170651520044 H 0.0 **** 0.06
17565 H 21.491279164226114 126.53885598019725 38.98833091935046 H 0.0 **** 0.06
17566 C 19.154120737136083 121.76321655102004 4.5187569992146805 C 0.0 **** -0.24
17567 H 18.463867607086968 121.82611195989506 5.359802446271409 H 0.0 **** 0.06
17568 H 19.960897403927852 122.4825881166654 4.656606947483759 H 0.0 **** 0.06
17569 H 18.62080086934833 121.98834820797288 3.595084799423752 H 0.0 **** 0.06
17570 H 19.569029165792323 120.75729503336146 4.463029666152011 H 0.0 **** 0.06
17571 C 20.293954196756346 70.32961018661368 88.57661272190242 C 0.0 **** -0.24
17572 H 20.28490255425089 69.36658029568059 88.06491729656028 H 0.0 **** 0.06
17573 H 19.303643531134412 70.78080366201146 88.51922903517055 H 0.0 **** 0.06
17574 H 21.02150141008636 70.98608467416281 88.09984238506581 H 0.0 **** 0.06
17575 H 20.566699700303104 70.18220231534877 89.62178184396998 H 0.0 **** 0.06
17576 C 37.43736474744652 38.07569679331897 108.08041695721396 C 0.0 **** -0.24
17577 H 37.036401037230064 37.933585258774755 109.0835246564671 H 0.0 **** 0.06
17578 H 37.0107262796045 37.32880734272945 107.41006818665771 H 0.0 **** 0.06
17579 H 38.52222633715377 37.96585959396867 108.1038442619574 H 0.0 **** 0.06
17580 H 37.180904206640804 39.07299823502798 107.72421270520722 H 0.0 **** 0.06
17581 C 146.5816233237735 153.23409031433226 52.71506712621584 C 0.0 **** -0.24
17582 H 147.62627744193722 153.06669100566126 52.453176099784685 H 0.0 **** 0.06
17583 H 146.0105865355766 153.45129012282962 51.812508046001426 H 0.0 **** 0.06
17584 H 146.5104084347337 154.07781104346023 53.40162626300821 H 0.0 **** 0.06
17585 H 146.17949995827524 152.3418368210851 53.194104857042646 H 0.0 **** 0.06
17586 C 41.153373403674266 91.60405671377667 61.51872274000959 C 0.0 **** -0.24
17587 H 40.271103100832306 91.18260495689498 61.03709404826071 H 0.0 **** 0.06
17588 H 41.11426158325935 91.4026584558849 62.58852348231744 H 0.0 **** 0.06
17589 H 41.178135955142864 92.68145764502445 61.35097958105189 H 0.0 **** 0.06
17590 H 42.0489461645293 91.15036280589872 61.094951671530794 H 0.0 **** 0.06
17591 C 91.52607715502654 29.400987201945895 129.09785381455416 C 0.0 **** -0.24
17592 H 92.31669762496836 28.67098944805781 129.26818052018032 H 0.0 **** 0.06
17593 H 91.62118079374565 30.214054723811785 129.81877838129557 H 0.0 **** 0.06
17594 H 90.55535218988837 28.919812572370347 129.2186085214848 H 0.0 **** 0.06
17595 H 91.61070998115395 29.798914859701767 128.08720179890344 H 0.0 **** 0.06
17596 C 113.62511417350443 132.1536441518789 123.5884358433061 C 0.0 **** -0.24
17597 H 113.92336579841255 131.46550825030073 122.79773766649934 H 0.0 **** 0.06
17598 H 114.45372978038266 132.82518894332475 123.81574725401613 H 0.0 **** 0.06
17599 H 113.35978361066257 131.58914494518217 124.48167151823328 H 0.0 **** 0.06
17600 H 112.76561671068053 132.73651522138675 123.25695265059862 H 0.0 **** 0.06
17601 C 56.741256933608085 28.26971357926442 113.8623312521684 C 0.0 **** -0.24
17602 H 56.97318682395077 27.90829319576727 112.86067038557859 H 0.0 **** 0.06
17603 H 57.65430463192875 28.626305611787842 114.33999820995417 H 0.0 **** 0.06
17604 H 56.31562253907968 27.457992804724036 114.45154461672742 H 0.0 **** 0.06
17605 H 56.022104741162096 29.0862668370783 113.7961301988232 H 0.0 **** 0.06
17606 C 123.13140368541427 50.74929453545923 65.4617319792723 C 0.0 **** -0.24
17607 H 122.8275464996551 50.424759903942004 66.45639610302547 H 0.0 **** 0.06
17608 H 123.097532258909 49.90182580913847 64.77708085987311 H 0.0 **** 0.06
17609 H 124.14680818164094 51.14278322205337 65.50319301209201 H 0.0 **** 0.06
17610 H 122.45407438324737 51.52829972510608 65.11153830839554 H 0.0 **** 0.06
17611 C 42.89689800203843 4.887449637499003 78.7247832429644 C 0.0 **** -0.24
17612 H 43.78205426755339 4.363647047415782 79.08416308134656 H 0.0 **** 0.06
17613 H 42.84580929443986 5.873059402561239 79.18710347336878 H 0.0 **** 0.06
17614 H 42.00654014886034 4.3157680113939705 78.9857902716767 H 0.0 **** 0.06
17615 H 42.95447714255707 4.996594712453714 77.64117782149697 H 0.0 **** 0.06
17616 C 6.049589274948723 97.99920365619656 59.01889997929686 C 0.0 **** -0.24
17617 H 6.056241175443759 98.38801626861681 58.00066416517838 H 0.0 **** 0.06
17618 H 5.042190897118211 98.07384969414335 59.428946517369894 H 0.0 **** 0.06
17619 H 6.7370891156131805 98.57855732556172 59.63447851856003 H 0.0 **** 0.06
17620 H 6.361795176137022 96.95500121660305 59.010101958053255 H 0.0 **** 0.06
17621 C 38.707010037347544 44.283990393962995 43.549004216448566 C 0.0 **** -0.24
17622 H 37.85998098631161 44.474064117125806 42.890479038857606 H 0.0 **** 0.06
17623 H 39.162056634660914 43.32839363097031 43.290092909752744 H 0.0 **** 0.06
17624 H 38.363497743519105 44.255521287429985 44.582623805578734 H 0.0 **** 0.06
17625 H 39.442125783632605 45.08033184328761 43.432240311354036 H 0.0 **** 0.06
17626 C 51.38769510276711 0.5147074106295406 57.40478689778192 C 0.0 **** -0.24
17627 H 50.81768368929863 1.1479915184461618 56.72489286035601 H 0.0 **** 0.06
17628 H 50.70418954690109 -0.12987727214033384 57.958129863306425 H 0.0 **** 0.06
17629 H 51.944701817532916 1.1397982300077274 58.10234380680485 H 0.0 **** 0.06
17630 H 52.08274444667478 -0.09977597957902162 56.83260402235962 H 0.0 **** 0.06
17631 C 53.007838685120674 134.27345386767155 122.41122097199617 C 0.0 **** -0.24
17632 H 52.57803177769928 133.2860943548436 122.23949177114245 H 0.0 **** 0.06
17633 H 52.89204183313143 134.87995024960912 121.51239399615194 H 0.0 **** 0.06
17634 H 54.065723694507014 134.1729562191668 122.64924645001896 H 0.0 **** 0.06
17635 H 52.49185716303394 134.75356394599186 123.24243095629357 H 0.0 **** 0.06
17636 C 68.10217488154748 110.91307145571318 64.1145293992666 C 0.0 **** -0.24
17637 H 68.49564875942296 110.81241290773232 65.12483319316819 H 0.0 **** 0.06
17638 H 68.74013730278041 110.36599591229907 63.41996479487926 H 0.0 **** 0.06
17639 H 68.08082953818902 111.9669096574666 63.83555069655871 H 0.0 **** 0.06
17640 H 67.09093674777894 110.50746898572692 64.0765720677836 H 0.0 **** 0.06
17641 C 90.25028307967926 59.15542022748585 11.019302369126137 C 0.0 **** -0.24
17642 H 89.43624142614945 59.14719094941589 10.29473275594907 H 0.0 **** 0.06
17643 H 90.60910017567303 60.17639438997662 11.150381464690668 H 0.0 **** 0.06
17644 H 91.0642995129862 58.527163523921416 10.65765000506238 H 0.0 **** 0.06
17645 H 89.89102264316024 58.77037359079105 11.973760699524775 H 0.0 **** 0.06
17646 C 102.55653917140415 27.390815948500375 13.730840133320108 C 0.0 **** -0.24
17647 H 101.48522197339616 27.195564638509637 13.771694008003756 H 0.0 **** 0.06
17648 H 103.06386840917406 26.540063235163075 13.277004805625658 H 0.0 **** 0.06
17649 H 102.93689571261649 27.544209815812053 14.741269709692311 H 0.0 **** 0.06
17650 H 102.73994868825815 28.28494311671949 13.13467636333786 H 0.0 **** 0.06
17651 C 72.68863611268762 104.09557408233985 109.56193208277001 C 0.0 **** -0.24
17652 H 73.139430330018 105.07752389653501 109.69747444724347 H 0.0 **** 0.06
17653 H 71.72516003094853 104.20339230853966 109.06417237447742 H 0.0 **** 0.06
17654 H 72.544160219415 103.62452123577509 110.53449345387607 H 0.0 **** 0.06
17655 H 73.34573590034995 103.47468316559468 108.95210092195943 H 0.0 **** 0.06
17656 C 103.75769233291443 1.6933109145076095 5.482787582081528 C 0.0 **** -0.24
17657 H 103.69905912975075 0.616164822076751 5.637862086718975 H 0.0 **** 0.06
17658 H 104.77861243968017 1.966391850781541 5.214864783105519 H 0.0 **** 0.06
17659 H 103.47283423441463 2.2077637766759253 6.400913286342963 H 0.0 **** 0.06
17660 H 103.08087877124449 1.9814130309936573 4.679338021913864 H 0.0 **** 0.06
17661 C 80.784526863456 85.54233314967746 2.905226173686458 C 0.0 **** -0.24
17662 H 81.70269723444592 85.41750315161451 2.329788630553935 H 0.0 **** 0.06
17663 H 80.97600534912348 86.19715174450243 3.7563033283535106 H 0.0 **** 0.06
17664 H 80.44539188040761 84.57049732088092 3.2630225354130857 H 0.0 **** 0.06
17665 H 80.01733821283833 85.98552770072575 2.270728089683189 H 0.0 **** 0.06
17666 C 83.2316934154903 24.38421864638073 17.8127909691566 C 0.0 **** -0.24
17667 H 82.36105814168944 23.8850111565854 17.38763715122795 H 0.0 **** 0.06
17668 H 82.91609548844565 25.296768692679684 18.319463510257265 H 0.0 **** 0.06
17669 H 83.93118598191346 24.635156326588145 17.01486796000711 H 0.0 **** 0.06
17670 H 83.7186112912788 23.721172574843656 18.527086791921406 H 0.0 **** 0.06
17671 C 78.88931126693674 128.4667750627318 77.83766263718826 C 0.0 **** -0.24
17672 H 77.8146826481858 128.32135401861842 77.73123568257552 H 0.0 **** 0.06
17673 H 79.16738490436867 128.36523534316132 78.88730278989004 H 0.0 **** 0.06
17674 H 79.1575945574677 129.46374260435 77.48609683373945 H 0.0 **** 0.06
17675 H 79.41849670364823 127.71943460373751 77.24704291206905 H 0.0 **** 0.06
17676 C 136.61188757667094 69.33066835254193 15.738552213869092 C 0.0 **** -0.24
17677 H 136.2972875174687 69.3602128753184 14.694641468832288 H 0.0 **** 0.06
17678 H 136.20684241737547 70.19648567645253 16.26361458500876 H 0.0 **** 0.06
17679 H 137.69956984577635 69.35115293687744 15.790391109663275 H 0.0 **** 0.06
17680 H 136.24235964712602 68.417729584318 16.204037487199216 H 0.0 **** 0.06
17681 C 97.18367264053818 62.54068032295778 61.00704659040221 C 0.0 **** -0.24
17682 H 97.47486308912141 61.493916576483514 60.91393113646815 H 0.0 **** 0.06
17683 H 97.86133498586321 63.15966744502266 60.41925381058165 H 0.0 **** 0.06
17684 H 97.23282672263197 62.8389498874583 62.053814846370756 H 0.0 **** 0.06
17685 H 96.16467870844252 62.6663506628138 60.64004382900154 H 0.0 **** 0.06
17686 C 16.310071323804436 81.90779475001071 147.11048769197447 C 0.0 **** -0.24
17687 H 15.55625001094711 82.68957895113758 147.0186260856656 H 0.0 **** 0.06
17688 H 16.144549241704567 81.35062840293534 148.033377078864 H 0.0 **** 0.06
17689 H 17.302209857815853 82.35952663576299 147.1312753702396 H 0.0 **** 0.06
17690 H 16.23680245749415 81.23028981993767 146.2593364492288 H 0.0 **** 0.06
17691 C 146.24384952864165 51.510325706715335 118.44177452288726 C 0.0 **** -0.24
17692 H 147.12194946321296 51.81369879879311 119.01291809674014 H 0.0 **** 0.06
17693 H 146.54149084394237 50.797021229232925 117.6728570643778 H 0.0 **** 0.06
17694 H 145.79589693440323 52.38504629579273 117.97241541717558 H 0.0 **** 0.06
17695 H 145.52015257126135 51.04470107059355 119.10965627484707 H 0.0 **** 0.06
17696 C 104.81699341421353 126.75350402432973 5.457479282898163 C 0.0 **** -0.24
17697 H 105.58277224911103 126.16774085498504 5.966159892609966 H 0.0 **** 0.06
17698 H 103.88434278258148 126.19049898227648 5.435439164494994 H 0.0 **** 0.06
17699 H 105.13972175590504 126.96494391437604 4.437812534883136 H 0.0 **** 0.06
17700 H 104.66387877134338 127.69174922894591 5.991306533344812 H 0.0 **** 0.06
17701 C 57.462093932798226 89.68098202737029 111.77873174905524 C 0.0 **** -0.24
17702 H 58.27434466500392 90.22590414082063 111.29703336870436 H 0.0 **** 0.06
17703 H 56.540189869346364 89.83303231555175 111.21747844044465 H 0.0 **** 0.06
17704 H 57.332751821486454 90.04740274883437 112.79710846894808 H 0.0 **** 0.06
17705 H 57.701878915324556 88.61811939960636 111.80299811823558 H 0.0 **** 0.06
17706 C 70.77927679329582 125.4925751640647 104.6000655288119 C 0.0 **** -0.24
17707 H 69.75158272586796 125.17330926734985 104.77463321461393 H 0.0 **** 0.06
17708 H 71.41801985588668 124.61642348992001 104.49004642537999 H 0.0 **** 0.06
17709 H 71.12265379869848 126.08910383380118 105.44558221541719 H 0.0 **** 0.06
17710 H 70.82357952596419 126.092345568148 103.69077931759428 H 0.0 **** 0.06
17711 C 57.89819675632302 87.35036247829112 23.462441347681533 C 0.0 **** -0.24
17712 H 58.05488069612966 88.42716428745695 23.40964327237407 H 0.0 **** 0.06
17713 H 58.390591466251465 86.87055892085141 22.616233520100764 H 0.0 **** 0.06
17714 H 56.830186381152174 87.13585571396646 23.43137139257533 H 0.0 **** 0.06
17715 H 58.319558063145976 86.96758064202402 24.39263134207215 H 0.0 **** 0.06
17716 C 33.08838774255645 114.41365611406893 56.46853843063258 C 0.0 **** -0.24
17717 H 34.10044043551349 114.4685050792615 56.86961524297192 H 0.0 **** 0.06
17718 H 32.617293678337504 113.48653779060614 56.7970680496652 H 0.0 **** 0.06
17719 H 33.127583432123686 114.43499111181855 55.37943733897532 H 0.0 **** 0.06
17720 H 32.50813308539571 115.26361987579445 56.82825195764059 H 0.0 **** 0.06
17721 C 62.121936846471826 21.137518006159667 4.925855738197811 C 0.0 **** -0.24
17722 H 62.52203188483992 20.627330943141317 4.049472373317002 H 0.0 **** 0.06
17723 H 62.87343492692898 21.818510762501774 5.324044308914068 H 0.0 **** 0.06
17724 H 61.858103816979124 20.40137450735108 5.685203190604426 H 0.0 **** 0.06
17725 H 61.233450559229595 21.701260764605024 4.642070821033258 H 0.0 **** 0.06
17726 C 98.19225040244734 120.77383506086754 71.29548009072356 C 0.0 **** -0.24
17727 H 97.9906724599316 120.11415035099849 72.13981125063249 H 0.0 **** 0.06
17728 H 97.4224685838785 120.63693116902137 70.53658555338735 H 0.0 **** 0.06
17729 H 99.16796404027724 120.53288952390669 70.87314038465739 H 0.0 **** 0.06
17730 H 98.1883365519407 121.80920711956354 71.63540513430374 H 0.0 **** 0.06
17731 C 108.40869180377439 98.71428629843732 33.14987821929134 C 0.0 **** -0.24
17732 H 108.63983679216551 99.7789400889482 33.117676248966916 H 0.0 **** 0.06
17733 H 109.11994454619855 98.16943041048378 32.52924848812469 H 0.0 **** 0.06
17734 H 107.39826782102426 98.5504015552028 32.77396749806351 H 0.0 **** 0.06
17735 H 108.47577884776024 98.35866257175564 34.17843584556945 H 0.0 **** 0.06
17736 C 71.81862843962051 115.65487679698822 19.90804206346354 C 0.0 **** -0.24
17737 H 72.6906927424543 115.22644836754517 20.400311854807228 H 0.0 **** 0.06
17738 H 72.08960626658995 115.97396103951706 18.900935326183344 H 0.0 **** 0.06
17739 H 71.46516644576991 116.51466017954618 20.478213846955043 H 0.0 **** 0.06
17740 H 71.02876502758977 114.90614615465921 19.852680808442784 H 0.0 **** 0.06
17741 C 98.43151973635742 83.35934036543401 28.68498245683658 C 0.0 **** -0.24
17742 H 99.2437798588548 83.05026631609064 28.026984431419308 H 0.0 **** 0.06
17743 H 97.4767248726161 83.1988021789369 28.184295998455184 H 0.0 **** 0.06
17744 H 98.54270320999524 84.41726192638556 28.92708149543762 H 0.0 **** 0.06
17745 H 98.46462616744645 82.77226865592898 29.603408545714558 H 0.0 **** 0.06
17746 C 10.499464792825478 79.70226760874903 102.9741425001046 C 0.0 **** -0.24
17747 H 9.497702059432584 80.05123960741008 102.72462371550269 H 0.0 **** 0.06
17748 H 11.06162649812535 80.51227222113788 103.43796400540201 H 0.0 **** 0.06
17749 H 11.008883967119345 79.37975574585245 102.06569442953456 H 0.0 **** 0.06
17750 H 10.429591898732525 78.86388090851115 103.66714624339112 H 0.0 **** 0.06
17751 C 73.5231306917466 8.042812366789178 22.985891220843584 C 0.0 **** -0.24
17752 H 74.57065645833181 8.065573491663116 23.285324603469647 H 0.0 **** 0.06
17753 H 73.26347569188391 8.985341299851314 22.503077397389795 H 0.0 **** 0.06
17754 H 72.89759703923787 7.90102837527877 23.867846807851123 H 0.0 **** 0.06
17755 H 73.3616669830402 7.220412029806198 22.289319751413338 H 0.0 **** 0.06
17756 C 11.705759159781714 23.07931129234686 84.31036217722993 C 0.0 **** -0.24
17757 H 12.272915942367561 22.14820641383932 84.34207353070832 H 0.0 **** 0.06
17758 H 11.187479460611613 23.221861541304406 85.25870296880038 H 0.0 **** 0.06
17759 H 10.976779228311244 23.03221517952693 83.50086114979928 H 0.0 **** 0.06
17760 H 12.386891666047937 23.913122649153706 84.13856339779176 H 0.0 **** 0.06
17761 C 155.51412587259756 72.71855694239349 27.220490433444184 C 0.0 **** -0.24
17762 H 155.24063470032752 72.22258121047878 26.288903432282495 H 0.0 **** 0.06
17763 H 156.08909296579188 73.61681470125004 26.997471416705764 H 0.0 **** 0.06
17764 H 156.1150604497587 72.04273437158784 27.828208400761582 H 0.0 **** 0.06
17765 H 154.61001411629954 72.99014007522368 27.765870321075965 H 0.0 **** 0.06
17766 C 88.4348915542301 138.60405797549302 149.0056583454231 C 0.0 **** -0.24
17767 H 88.58303843646719 139.5452317049479 148.47618768231754 H 0.0 **** 0.06
17768 H 88.71843826747238 138.72878137335124 150.05157424302072 H 0.0 **** 0.06
17769 H 89.05282367700123 137.83071084511977 148.55072017522585 H 0.0 **** 0.06
17770 H 87.38569971420485 138.31474270741327 148.94474173598115 H 0.0 **** 0.06
17771 C 18.141644920466447 4.605548416896241 119.22659906942323 C 0.0 **** -0.24
17772 H 18.548053622520136 3.736146751281808 118.7087357497756 H 0.0 **** 0.06
17773 H 17.55955182285914 5.205883147780305 118.52660582358783 H 0.0 **** 0.06
17774 H 18.95834720339353 5.203735483473508 119.62742097555946 H 0.0 **** 0.06
17775 H 17.499179416815423 4.273481840409026 120.04252771715608 H 0.0 **** 0.06
17776 C 132.23971440212102 12.955971015633622 18.824078428789562 C 0.0 **** -0.24
17777 H 132.0601384709063 13.963341150201074 18.44948725985961 H 0.0 **** 0.06
17778 H 132.97480258896456 12.993897897370971 19.629236577484562 H 0.0 **** 0.06
17779 H 132.6167402100273 12.329245252674582 18.016711110832603 H 0.0 **** 0.06
17780 H 131.3069652378043 12.538103042463206 19.203215651392924 H 0.0 **** 0.06
17781 C 75.91288955911097 102.30379084374478 94.12683684400304 C 0.0 **** -0.24
17782 H 75.60666085285388 101.99347316743622 95.12544515756719 H 0.0 **** 0.06
17783 H 76.98247558616652 102.1337830222292 94.00512106705654 H 0.0 **** 0.06
17784 H 75.69511232864306 103.3634747653502 93.9934924162884 H 0.0 **** 0.06
17785 H 75.36540608112341 101.72432563774679 93.38268388538035 H 0.0 **** 0.06
17786 C 148.38370736411304 42.678639264474384 29.157489054394773 C 0.0 **** -0.24
17787 H 149.17429733304812 41.96252253048138 28.93211600106008 H 0.0 **** 0.06
17788 H 147.63235853250586 42.20312237646969 29.788623209573643 H 0.0 **** 0.06
17789 H 147.92110272336686 43.01247535973778 28.22939528930931 H 0.0 **** 0.06
17790 H 148.80835634512408 43.53585164305203 29.67989392630915 H 0.0 **** 0.06
17791 C 31.34672962814159 36.599331803715884 18.80026142372128 C 0.0 **** -0.24
17792 H 30.450569261678766 36.06084628028026 18.49238059964108 H 0.0 **** 0.06
17793 H 31.08594231351202 37.630096333776436 19.04080692701291 H 0.0 **** 0.06
17794 H 32.07423825101648 36.58809880917018 17.9883638255869 H 0.0 **** 0.06
17795 H 31.775200122734304 36.11806247376636 19.679384587537527 H 0.0 **** 0.06
17796 C 0.4386250008514807 69.8783419562476 36.47380477993032 C 0.0 **** -0.24
17797 H 0.6133066904987388 70.93827877235026 36.657524436500296 H 0.0 **** 0.06
17798 H 0.3665059237092336 69.70259430857891 35.39950159045802 H 0.0 **** 0.06
17799 H -0.49121573598021584 69.5744958204507 36.95506501632032 H 0.0 **** 0.06
17800 H 1.2656303670918696 69.29737257805732 36.88188978755288 H 0.0 **** 0.06
17801 C 63.823131558903185 14.044183725162696 112.27219284114102 C 0.0 **** -0.24
17802 H 64.54333899707513 13.409252818058235 111.75581345281353 H 0.0 **** 0.06
17803 H 63.84428772722268 13.821271785921063 113.33932750057528 H 0.0 **** 0.06
17804 H 62.82488460223868 13.854243152694067 111.88014028830526 H 0.0 **** 0.06
17805 H 64.08347118450547 15.09074186637325 112.11423397140658 H 0.0 **** 0.06
17806 C 135.85825672765606 105.78669516484388 81.84217662886829 C 0.0 **** -0.24
17807 H 136.60713697570253 106.16053674823848 82.54018272165695 H 0.0 **** 0.06
17808 H 136.09188683382433 106.13800422156044 80.83730321372138 H 0.0 **** 0.06
17809 H 134.87358777568932 106.15088915160044 82.13492816169679 H 0.0 **** 0.06
17810 H 135.86089322497224 104.69666955505045 81.85573752488483 H 0.0 **** 0.06
17811 C 101.43496724706728 66.71727177252411 93.90287266973826 C 0.0 **** -0.24
17812 H 101.89811093349306 66.83371509261725 92.92281217898379 H 0.0 **** 0.06
17813 H 101.83471851130525 65.82769346025735 94.38974537095876 H 0.0 **** 0.06
17814 H 100.35593341386601 66.61458093673119 93.78414071140016 H 0.0 **** 0.06
17815 H 101.65114332170458 67.59399609709668 94.51211070528515 H 0.0 **** 0.06
17816 C 7.144616000626762 23.187317409940412 28.647379018555284 C 0.0 **** -0.24
17817 H 6.098005117716767 23.0440111698297 28.916417415885178 H 0.0 **** 0.06
17818 H 7.243596774980901 23.190262512768278 27.561201384787864 H 0.0 **** 0.06
17819 H 7.741253688008804 22.376890477634866 29.065004806107424 H 0.0 **** 0.06
17820 H 7.494323874169439 24.14018980996572 29.04696796122107 H 0.0 **** 0.06
17821 C 106.83624075321846 151.59399322841227 20.13131669882992 C 0.0 **** -0.24
17822 H 106.25592984937224 152.49426629133788 20.332128354471223 H 0.0 **** 0.06
17823 H 106.51703247856942 151.16078761852418 19.183017341137145 H 0.0 **** 0.06
17824 H 106.6765050456488 150.8725253445485 20.93264888299626 H 0.0 **** 0.06
17825 H 107.89466090258766 151.848990230701 20.076498881090544 H 0.0 **** 0.06
17826 C 42.950638567749564 121.70391334832856 105.74433929588447 C 0.0 **** -0.24
17827 H 42.581456457107834 121.36949192747325 106.71465811150979 H 0.0 **** 0.06
17828 H 42.13193797059125 122.15021738319395 105.17897680687265 H 0.0 **** 0.06
17829 H 43.35078106930848 120.8523269910264 105.19444356719136 H 0.0 **** 0.06
17830 H 43.736581566738266 122.44454234883749 105.89149550605713 H 0.0 **** 0.06
17831 C 12.765880874283653 134.34115226175217 13.30889394182227 C 0.0 **** -0.24
17832 H 13.747509947452386 133.9321677807937 13.547690342820857 H 0.0 **** 0.06
17833 H 12.358062393437592 133.82138240037895 12.441430353426817 H 0.0 **** 0.06
17834 H 12.859737631208986 135.40355985703405 13.085589982281782 H 0.0 **** 0.06
17835 H 12.099093137771035 134.20646464889396 14.160469556060796 H 0.0 **** 0.06
17836 C 156.70405432581623 99.63763426553737 5.8669027265788145 C 0.0 **** -0.24
17837 H 156.28386420640987 100.30521326552156 5.114946478519045 H 0.0 **** 0.06
17838 H 157.17462242098966 100.22766265192018 6.65417642950888 H 0.0 **** 0.06
17839 H 157.44753546990114 98.98976645168324 5.403942994230334 H 0.0 **** 0.06
17840 H 155.9081520258843 99.02889048864796 6.296743669955731 H 0.0 **** 0.06
17841 C 39.600407326238226 101.68091727636504 26.960147302358763 C 0.0 **** -0.24
17842 H 38.7833021269156 102.33311722733983 26.650886883517728 H 0.0 **** 0.06
17843 H 40.5373743409062 102.23902807530747 26.939126430544547 H 0.0 **** 0.06
17844 H 39.66638514270005 100.83353401405698 26.27702634899626 H 0.0 **** 0.06
17845 H 39.41479464839557 101.31971161414866 27.97110330391868 H 0.0 **** 0.06
17846 C 75.05515396974162 135.4381879721381 124.65893159364951 C 0.0 **** -0.24
17847 H 74.80124553207787 135.35142213640134 123.60252075366974 H 0.0 **** 0.06
17848 H 76.13198526679953 135.57169199214255 124.76464214377079 H 0.0 **** 0.06
17849 H 74.7477543144346 134.53309865059134 125.18172448469163 H 0.0 **** 0.06
17850 H 74.5385638501167 136.2974648725061 125.08690768771747 H 0.0 **** 0.06
17851 C 72.07764153383818 57.90695993622026 46.348901636640875 C 0.0 **** -0.24
17852 H 71.85968791799436 57.47279359115146 45.37239739967113 H 0.0 **** 0.06
17853 H 71.24158138073065 58.534620029953174 46.66096408378753 H 0.0 **** 0.06
17854 H 72.9814453753265 58.5114813609145 46.28332659857884 H 0.0 **** 0.06
17855 H 72.22460974221156 57.108636104059144 47.07554256417477 H 0.0 **** 0.06
17856 C 116.61422806908826 117.65902748448345 12.311248304443772 C 0.0 **** -0.24
17857 H 116.99476846229612 117.30130910250672 11.354575823428263 H 0.0 **** 0.06
17858 H 117.34583839606273 117.4521655798802 13.092830788552519 H 0.0 **** 0.06
17859 H 115.67947111807513 117.14929872502007 12.543985697783967 H 0.0 **** 0.06
17860 H 116.43683429991887 118.73333653052644 12.253600908010434 H 0.0 **** 0.06
17861 C 20.843176065787276 106.74773820516897 8.221927805449639 C 0.0 **** -0.24
17862 H 20.3187331316063 107.36138884630729 8.955549796688814 H 0.0 **** 0.06
17863 H 21.2766386025543 107.39008180830258 7.4551595181387995 H 0.0 **** 0.06
17864 H 20.139803043911527 106.05375058998628 7.760503606934748 H 0.0 **** 0.06
17865 H 21.635144366980192 106.1869964232704 8.71814502367613 H 0.0 **** 0.06
17866 C 142.59955436508193 39.22965932348393 16.267155863671178 C 0.0 **** -0.24
17867 H 141.94386084850453 39.6780446477465 15.520464295250775 H 0.0 **** 0.06
17868 H 142.56114279746964 38.14386206155109 16.178468013040884 H 0.0 **** 0.06
17869 H 142.2706066614004 39.52498671578337 17.26316178208981 H 0.0 **** 0.06
17870 H 143.62106551755255 39.57175695442666 16.105255268836657 H 0.0 **** 0.06
17871 C 17.258322441056123 96.79609064776125 11.62661188838635 C 0.0 **** -0.24
17872 H 17.817207918288716 96.46618726308549 10.751124345904316 H 0.0 **** 0.06
17873 H 16.202828078158177 96.8894115201968 11.368386057289342 H 0.0 **** 0.06
17874 H 17.63876567626147 97.76239727121396 11.956845301315639 H 0.0 **** 0.06
17875 H 17.373603141931085 96.06689830469438 12.427275045915849 H 0.0 **** 0.06
17876 C 110.53282038100163 25.55274617932622 31.281304803819268 C 0.0 **** -0.24
17877 H 109.64066118075714 24.980816036939075 31.535357019307696 H 0.0 **** 0.06
17878 H 110.6541287882486 25.574957437523494 30.1987746341905 H 0.0 **** 0.06
17879 H 111.40634011289545 25.083583573713554 31.735461650160403 H 0.0 **** 0.06
17880 H 110.43076507476526 26.5703810602989 31.65764324071455 H 0.0 **** 0.06
17881 C 131.1555669659017 152.80718092120313 105.25686059048445 C 0.0 **** -0.24
17882 H 130.45878653716852 153.52033697960337 105.69750233464191 H 0.0 **** 0.06
17883 H 132.17150010428833 153.19712459581308 105.33713849530312 H 0.0 **** 0.06
17884 H 130.90621851311403 152.65686409635956 104.20717643625068 H 0.0 **** 0.06
17885 H 131.08694442845712 151.85809771296925 105.78760407984021 H 0.0 **** 0.06
17886 C 66.89239307875198 119.78124650282489 95.55858633821967 C 0.0 **** -0.24
17887 H 67.92574363691305 119.59690890545563 95.26446229680681 H 0.0 **** 0.06
17888 H 66.50173280592844 118.90805043765646 96.08084474702383 H 0.0 **** 0.06
17889 H 66.29135832788054 119.97250674910462 94.66908678915189 H 0.0 **** 0.06
17890 H 66.85168781488646 120.64819754881863 96.21804417449616 H 0.0 **** 0.06
17891 C 143.30036126265435 18.084862013262523 12.01237455446153 C 0.0 **** -0.24
17892 H 143.1879866479388 17.734323126299415 10.987108706338233 H 0.0 **** 0.06
17893 H 142.3204115615766 18.13676656655818 12.488035367529903 H 0.0 **** 0.06
17894 H 143.75674833868436 19.074724765345678 12.009683705249046 H 0.0 **** 0.06
17895 H 143.93610863920412 17.39305074519956 12.565944920328661 H 0.0 **** 0.06
17896 C 17.136571738983918 1.3536963760614995 24.61895845846373 C 0.0 **** -0.24
17897 H 16.499059908256527 2.236360744336384 24.56983673063946 H 0.0 **** 0.06
17898 H 16.556707025330667 0.47099636795725175 24.34770708209672 H 0.0 **** 0.06
17899 H 17.519872145155233 1.2384771849117122 25.63285737374256 H 0.0 **** 0.06
17900 H 17.969795631618922 1.4680616174058763 23.92612717805362 H 0.0 **** 0.06
17901 C 137.9067189370384 149.94046173993272 48.52400650867419 C 0.0 **** -0.24
17902 H 138.95423404037803 149.7638292459032 48.27775303200097 H 0.0 **** 0.06
17903 H 137.3834083034614 150.30578591183777 47.63909692265017 H 0.0 **** 0.06
17904 H 137.84065313264068 150.68416868055652 49.318793902373784 H 0.0 **** 0.06
17905 H 137.44954614795554 149.00964696776552 48.85763283741474 H 0.0 **** 0.06
17906 C 93.52841419416967 69.12606005866579 140.9556257251901 C 0.0 **** -0.24
17907 H 94.61343195563535 69.0162247103427 140.99745181092817 H 0.0 **** 0.06
17908 H 93.05872228325245 68.17102609885984 141.18918147382794 H 0.0 **** 0.06
17909 H 93.23426545866101 69.4409876437698 139.95481266399383 H 0.0 **** 0.06
17910 H 93.21187345749485 69.87567421353953 141.68042654669978 H 0.0 **** 0.06
17911 C 43.83371845211957 109.13466818472078 54.262793495797595 C 0.0 **** -0.24
17912 H 43.68459706687355 109.80036087114429 53.41317257874316 H 0.0 **** 0.06
17913 H 44.82201065416615 108.67852333623729 54.198263662711554 H 0.0 **** 0.06
17914 H 43.07276723154793 108.35469934678169 54.25199980793684 H 0.0 **** 0.06
17915 H 43.75641570226081 109.70468094097056 55.18873432472341 H 0.0 **** 0.06
17916 C 60.02640719435695 95.9314223166749 45.431024146445964 C 0.0 **** -0.24
17917 H 60.32482007734387 96.96462320172887 45.60499343026501 H 0.0 **** 0.06
17918 H 60.86879739128783 95.27032944730261 45.63803064703835 H 0.0 **** 0.06
17919 H 59.71813425185299 95.81234872194548 44.39182735236554 H 0.0 **** 0.06
17920 H 59.19500135555073 95.6773512677234 46.08843185870262 H 0.0 **** 0.06
17921 C 34.610328336460725 30.966535699229894 140.2710568647285 C 0.0 **** -0.24
17922 H 35.0033481021911 29.963717177713022 140.43594204142693 H 0.0 **** 0.06
17923 H 34.15434717852598 31.33467378006577 141.19011083930997 H 0.0 **** 0.06
17924 H 33.861994196911695 30.938445121038114 139.47958761248606 H 0.0 **** 0.06
17925 H 35.423823803784046 31.63121069344635 139.97734781805022 H 0.0 **** 0.06
17926 C 17.118328895182685 50.09204379805543 37.75838743370758 C 0.0 **** -0.24
17927 H 18.08902681905414 50.11026336511419 37.26437102568252 H 0.0 **** 0.06
17928 H 16.70178563739296 51.099279991513896 37.776598545374696 H 0.0 **** 0.06
17929 H 17.23699148362283 49.72931470120683 38.77914227543948 H 0.0 **** 0.06
17930 H 16.445400136382545 49.43071926891922 37.21329074673935 H 0.0 **** 0.06
17931 C 17.928881375702893 51.47865733131209 83.29253664644683 C 0.0 **** -0.24
17932 H 18.556595086761213 50.642234817654696 83.60049534253203 H 0.0 **** 0.06
17933 H 17.0022840784694 51.46661968217745 83.86629025987445 H 0.0 **** 0.06
17934 H 17.70045510338673 51.38948048394218 82.23108878772895 H 0.0 **** 0.06
17935 H 18.45717473673004 52.41497685226747 83.47341108772392 H 0.0 **** 0.06
17936 C 0.5375770250246177 52.24179088704557 91.45897611459044 C 0.0 **** -0.24
17937 H 0.8787779581323072 51.29608059114014 91.87817365608309 H 0.0 **** 0.06
17938 H 0.4782556847123125 52.99010591015019 92.2498701057925 H 0.0 **** 0.06
17939 H -0.4474007655273482 52.106412623310234 91.01122263571301 H 0.0 **** 0.06
17940 H 1.240479233409392 52.5756479485558 90.69530102694907 H 0.0 **** 0.06
17941 C 113.14833129079608 77.36873791314855 46.40145000917124 C 0.0 **** -0.24
17942 H 114.14536335498292 76.93398714288844 46.47622647857776 H 0.0 **** 0.06
17943 H 112.51345730591635 76.71926477278976 45.7984513799114 H 0.0 **** 0.06
17944 H 113.21479917222194 78.35061511805054 45.93313938899172 H 0.0 **** 0.06
17945 H 112.72096628079595 77.47016533111469 47.399870938715765 H 0.0 **** 0.06
17946 C 27.335350384359145 151.10321120165517 51.5520643568304 C 0.0 **** -0.24
17947 H 26.983378558552175 150.31522022379568 50.8871518172253 H 0.0 **** 0.06
17948 H 26.48972753069694 151.521828767111 52.09857146856601 H 0.0 **** 0.06
17949 H 27.81378885058504 151.8873354680681 50.96422638666965 H 0.0 **** 0.06
17950 H 28.054401798055892 150.687713991853 52.25765048578715 H 0.0 **** 0.06
17951 C 128.64627681250255 15.718338867658446 29.941387947043168 C 0.0 **** -0.24
17952 H 129.69834124438444 16.001819402879065 29.97515029513842 H 0.0 **** 0.06
17953 H 128.52093029010052 14.734803907321222 30.394874354477928 H 0.0 **** 0.06
17954 H 128.31320276816325 15.685424233562443 28.90355028520586 H 0.0 **** 0.06
17955 H 128.05481849807808 16.45155700947752 30.489936848725534 H 0.0 **** 0.06
17956 C 115.11670093260408 34.19692786151177 62.69760574301543 C 0.0 **** -0.24
17957 H 115.7588234282609 34.61093323381158 61.920372886066446 H 0.0 **** 0.06
17958 H 114.2951380576052 33.64843598813445 62.23551936756044 H 0.0 **** 0.06
17959 H 114.71631412711052 35.00677234001358 63.30732452375784 H 0.0 **** 0.06
17960 H 115.69719161209638 33.5207275558123 63.32628406506805 H 0.0 **** 0.06
17961 C 156.62426898281865 132.3369386652989 108.69782152585117 C 0.0 **** -0.24
17962 H 157.08019142766997 132.38841935829032 107.70877392636288 H 0.0 **** 0.06
17963 H 156.8513198683112 133.24850442791055 109.25084904303105 H 0.0 **** 0.06
17964 H 157.02115169681971 131.47601151453512 109.23567579989043 H 0.0 **** 0.06
17965 H 155.54396678077063 132.23361934323367 108.59415401344194 H 0.0 **** 0.06
17966 C 63.344778512912995 136.89499058455533 23.163858832146303 C 0.0 **** -0.24
17967 H 63.68991811916595 135.88844241520798 23.40263099162891 H 0.0 **** 0.06
17968 H 62.96687003873103 137.3721340094815 24.068085578268864 H 0.0 **** 0.06
17969 H 62.54761237675308 136.83778209687614 22.42210008494709 H 0.0 **** 0.06
17970 H 64.1737199694515 137.4770308711834 22.762937655032147 H 0.0 **** 0.06
17971 C 87.38380480580423 83.33150120050175 106.67627267108561 C 0.0 **** -0.24
17972 H 88.08377057489656 82.88433151794106 107.38262307442604 H 0.0 **** 0.06
17973 H 87.76925440651462 83.22055076516426 105.66263255483757 H 0.0 **** 0.06
17974 H 87.26288889934068 84.38987723842627 106.90652072638234 H 0.0 **** 0.06
17975 H 86.41924520236623 82.83000434391738 106.75517352808784 H 0.0 **** 0.06
17976 C 133.35138012063135 6.628898464840262 106.61733207048314 C 0.0 **** -0.24
17977 H 132.61342883197634 7.184491283313264 106.03765524236286 H 0.0 **** 0.06
17978 H 133.27006190163922 5.567088123212159 106.38463093159208 H 0.0 **** 0.06
17979 H 133.16858506431922 6.783328761674056 107.68109047634493 H 0.0 **** 0.06
17980 H 134.35187278981553 6.981577706793189 106.36509513579017 H 0.0 **** 0.06
17981 C 38.26623893982661 114.57908670349815 78.86796707959903 C 0.0 **** -0.24
17982 H 37.95667257137514 115.30253714917563 78.1138100781972 H 0.0 **** 0.06
17983 H 39.2831731211935 114.80221722697206 79.18891765816115 H 0.0 **** 0.06
17984 H 38.2300104216022 113.5750417728496 78.44510191544808 H 0.0 **** 0.06
17985 H 37.59313339713306 114.63671238407642 79.72436706563076 H 0.0 **** 0.06
17986 C 47.95418487214408 34.001644439264616 129.8525572866498 C 0.0 **** -0.24
17987 H 46.97135643479737 34.322438681176855 129.5072241306916 H 0.0 **** 0.06
17988 H 47.881082079376554 33.650609936752616 130.88177369867321 H 0.0 **** 0.06
17989 H 48.64934091065558 34.83996783531639 129.80228153125313 H 0.0 **** 0.06
17990 H 48.31494666555042 33.191660586106835 129.21740470087354 H 0.0 **** 0.06
17991 C 16.88904427555434 98.74089603569476 130.6781903059182 C 0.0 **** -0.24
17992 H 17.719064511275462 98.27902885000162 131.21243441503577 H 0.0 **** 0.06
17993 H 15.95647171709922 98.52649002605885 131.20011669557908 H 0.0 **** 0.06
17994 H 16.840088752029658 98.33913836930354 129.66617261759131 H 0.0 **** 0.06
17995 H 17.04116165226384 99.81997806687569 130.6328031482529 H 0.0 **** 0.06
17996 C 25.813561770737607 145.28208736905952 137.76639141965325 C 0.0 **** -0.24
17997 H 24.818768444644263 145.4796480626904 138.1652945042118 H 0.0 **** 0.06
17998 H 25.74731745416534 145.11081544627964 136.6915470961853 H 0.0 **** 0.06
17999 H 26.229067743757383 144.39780042304108 138.24999773368356 H 0.0 **** 0.06
18000 H 26.45891275713595 146.13869923047181 137.95893977563597 H 0.0 **** 0.06
18001 C 134.08357362954644 129.707310838871 55.32133788584929 C 0.0 **** -0.24
18002 H 134.408329423998 130.1553072706016 56.260249239390305 H 0.0 **** 0.06
18003 H 133.43871981459858 130.40651039830828 54.788707418667286 H 0.0 **** 0.06
18004 H 133.53150354059534 128.79001354341608 55.528422390753235 H 0.0 **** 0.06
18005 H 134.954778192118 129.47632715467654 54.70891826150347 H 0.0 **** 0.06
18006 C 14.05974141980812 131.8693614295188 109.01663908649662 C 0.0 **** -0.24
18007 H 14.765299325716171 131.72680991920888 108.19882263881424 H 0.0 **** 0.06
18008 H 14.386926044861355 132.70372014615631 109.6370417172253 H 0.0 **** 0.06
18009 H 14.016130821249988 130.96264444094544 109.62035516437491 H 0.0 **** 0.06
18010 H 13.071509377795707 132.08322917830762 108.61138775906564 H 0.0 **** 0.06
18011 C 19.556829884886596 89.80872715233617 154.23929919160088 C 0.0 **** -0.24
18012 H 19.508026634418513 90.40287071074219 155.15245820464307 H 0.0 **** 0.06
18013 H 18.598273270133703 89.85977022592161 153.72127935930365 H 0.0 **** 0.06
18014 H 19.777773492242915 88.7717680552497 154.49349093872954 H 0.0 **** 0.06
18015 H 20.341157010249418 90.19996573902051 153.59228144870218 H 0.0 **** 0.06
18016 C 78.1685744951388 70.21731929078285 135.80091982919015 C 0.0 **** -0.24
18017 H 77.20231164288772 69.77092120049241 136.03388439150567 H 0.0 **** 0.06
18018 H 78.9656256355355 69.55397680609046 136.13794197171737 H 0.0 **** 0.06
18019 H 78.25714206622597 71.17885334571633 136.3081197580112 H 0.0 **** 0.06
18020 H 78.24940077764424 70.36641486786088 134.7241532366392 H 0.0 **** 0.06
18021 C 134.76242801728768 39.979769773525234 34.817530250594025 C 0.0 **** -0.24
18022 H 135.6433869136397 40.60791264889815 34.951409440667 H 0.0 **** 0.06
18023 H 133.9787834466303 40.30345690186223 35.50277510584766 H 0.0 **** 0.06
18024 H 135.02079670273105 38.942080492712336 35.02485173752852 H 0.0 **** 0.06
18025 H 134.40728594317324 40.06801439572277 33.790951634842806 H 0.0 **** 0.06
18026 C 115.8689900491051 122.68702256731676 134.42171449118158 C 0.0 **** -0.24
18027 H 115.17150516388278 121.84877011088075 134.4477794394068 H 0.0 **** 0.06
18028 H 115.36141339489143 123.59122898389585 134.75857853922113 H 0.0 **** 0.06
18029 H 116.22763703074014 122.8287308443269 133.4028476031985 H 0.0 **** 0.06
18030 H 116.71294295607316 122.47702849562974 135.0783617583146 H 0.0 **** 0.06
18031 C 31.645542802377797 126.51422215989443 114.2565804093738 C 0.0 **** -0.24
18032 H 31.774843149123306 126.50377288828467 115.33895876875631 H 0.0 **** 0.06
18033 H 30.94213130946268 127.30175213083392 113.98241156624316 H 0.0 **** 0.06
18034 H 31.257749487770262 125.55062385114609 113.92731108154514 H 0.0 **** 0.06
18035 H 32.60633742545754 126.70267659003294 113.77777117335522 H 0.0 **** 0.06
18036 C 23.315836751164625 65.90714889581412 84.77392549062392 C 0.0 **** -0.24
18037 H 22.92774712791106 66.44876864526339 83.91072957196803 H 0.0 **** 0.06
18038 H 22.600251550842017 65.14228020524703 85.07480979158458 H 0.0 **** 0.06
18039 H 23.47161182493477 66.603399155385 85.59857960325826 H 0.0 **** 0.06
18040 H 24.264106426835895 65.4374240643131 84.51194097075756 H 0.0 **** 0.06
18041 C 40.028231060127155 14.352994529141789 62.44306651296992 C 0.0 **** -0.24
18042 H 41.05409042850653 14.196147559290381 62.77618548674211 H 0.0 **** 0.06
18043 H 39.566305229002865 15.134611258836472 63.04689969516065 H 0.0 **** 0.06
18044 H 39.46384188723175 13.427339588834599 62.55429354386074 H 0.0 **** 0.06
18045 H 40.02810944700565 14.654484337594596 61.39602806007328 H 0.0 **** 0.06
18046 C 76.87918343393349 56.11807385839484 83.88932358417782 C 0.0 **** -0.24
18047 H 77.4880935894401 55.30507763656533 84.2855435447297 H 0.0 **** 0.06
18048 H 75.82384171298048 55.86557171347914 83.997069687524 H 0.0 **** 0.06
18049 H 77.11201226125047 56.26722498097553 82.83544820324761 H 0.0 **** 0.06
18050 H 77.09224351878399 57.033304361508954 84.44230841334482 H 0.0 **** 0.06
18051 C 88.17235658121724 59.12140490346894 30.94807438661376 C 0.0 **** -0.24
18052 H 87.66426550902587 59.37651905015342 30.01797927719295 H 0.0 **** 0.06
18053 H 87.48451111903638 59.250543787452045 31.78371811457334 H 0.0 **** 0.06
18054 H 89.0336068435525 59.77514113056233 31.081489392091235 H 0.0 **** 0.06
18055 H 88.50569818728036 58.08507287049257 30.90700226256707 H 0.0 **** 0.06
18056 C 106.06794216354028 9.009100389497576 35.41839100354184 C 0.0 **** -0.24
18057 H 105.7435845969034 10.020185403415695 35.66705940693154 H 0.0 **** 0.06
18058 H 105.39615825429455 8.288496528835424 35.886229832393255 H 0.0 **** 0.06
18059 H 107.08183534407145 8.851750371115514 35.78503692379165 H 0.0 **** 0.06
18060 H 106.0474663899444 8.87677589842582 34.33722006313451 H 0.0 **** 0.06
18061 C 144.36125653457225 78.62942477406573 145.19438092108555 C 0.0 **** -0.24
18062 H 144.4083507598653 78.64872868463615 144.10587086479518 H 0.0 **** 0.06
18063 H 143.32929281449825 78.77473722824136 145.515340223795 H 0.0 **** 0.06
18064 H 144.9836987582946 79.42856111075999 145.59869207692964 H 0.0 **** 0.06
18065 H 144.72334410633928 77.66763821922824 145.55748267061912 H 0.0 **** 0.06
18066 C 113.46995835277538 34.66431423872433 6.102064529474092 C 0.0 **** -0.24
18067 H 113.6791115851566 33.76370617835806 6.679783954668608 H 0.0 **** 0.06
18068 H 114.37624989985518 34.98126027289118 5.583971310295738 H 0.0 **** 0.06
18069 H 113.13889562647755 35.456951642126 6.772738873199444 H 0.0 **** 0.06
18070 H 112.68833394996041 34.45510001764529 5.372345854768014 H 0.0 **** 0.06
18071 C 3.817519480335264 111.20211717382104 56.53690198440589 C 0.0 **** -0.24
18072 H 4.488801250131559 111.42721812569359 55.70894185496984 H 0.0 **** 0.06
18073 H 2.826336563065709 110.97109539790769 56.14839974428759 H 0.0 **** 0.06
18074 H 3.7571079194033032 112.06539954134333 57.199296620794826 H 0.0 **** 0.06
18075 H 4.19993573445592 110.34538136021213 57.091398343628896 H 0.0 **** 0.06
18076 C 72.06437473975593 10.717377830828468 50.91378277445003 C 0.0 **** -0.24
18077 H 71.11148190942808 10.654590145989175 51.438826216307646 H 0.0 **** 0.06
18078 H 71.88428705147858 10.910101041845707 49.85599504900013 H 0.0 **** 0.06
18079 H 72.60351273806316 9.77645997157154 51.02604357856036 H 0.0 **** 0.06
18080 H 72.6580803948684 11.528923154654422 51.33508132563988 H 0.0 **** 0.06
18081 C 90.93825829658522 82.87577728202305 101.98267461557849 C 0.0 **** -0.24
18082 H 91.34379606154351 82.09180049785249 102.62196107973396 H 0.0 **** 0.06
18083 H 90.0060303004941 83.24544327722424 102.40964965390215 H 0.0 **** 0.06
18084 H 90.74881089129605 82.47085311636567 100.98852886455167 H 0.0 **** 0.06
18085 H 91.65567887570768 83.69340485912383 101.9118894996184 H 0.0 **** 0.06
18086 C 68.14342887663736 122.68459816057441 155.98820515629336 C 0.0 **** -0.24
18087 H 69.06506795436485 122.80847481049744 156.55686908023614 H 0.0 **** 0.06
18088 H 68.10090398861013 121.67437692380929 155.58129441398773 H 0.0 **** 0.06
18089 H 68.12010432876863 123.40732145806925 155.17201724767415 H 0.0 **** 0.06
18090 H 67.28822693039558 122.8497171273832 156.64328150135742 H 0.0 **** 0.06
18091 C 23.05301058475041 12.689987621510454 155.96893432551218 C 0.0 **** -0.24
18092 H 23.07538815127394 12.14837201282495 155.02317513061513 H 0.0 **** 0.06
18093 H 24.067993354498014 12.97901838681463 156.24510624054363 H 0.0 **** 0.06
18094 H 22.634170680344603 12.048750836685826 156.745007271389 H 0.0 **** 0.06
18095 H 22.437096191327996 13.582463050126876 155.8618188950631 H 0.0 **** 0.06
18096 C 87.71023372714133 27.10413370279509 10.031141738143731 C 0.0 **** -0.24
18097 H 87.26934966990807 26.882096979903544 9.059657516990228 H 0.0 **** 0.06
18098 H 87.70780217319665 26.203499626557438 10.645936868640604 H 0.0 **** 0.06
18099 H 87.13025807289524 27.883230039231954 10.524180029060403 H 0.0 **** 0.06
18100 H 88.73659878929716 27.447402324795142 9.893224537336039 H 0.0 **** 0.06
18101 C 19.318321394196346 64.61068301197867 41.25521478066935 C 0.0 **** -0.24
18102 H 20.28976249313004 64.12639775168856 41.1579592637315 H 0.0 **** 0.06
18103 H 18.535494413329417 63.92435452363577 40.932645735175086 H 0.0 **** 0.06
18104 H 19.295624560764338 65.50673646284645 40.63368457956656 H 0.0 **** 0.06
18105 H 19.15218419622704 64.88744635108009 42.296883247479016 H 0.0 **** 0.06
18106 C 105.44314266419484 78.61495791945059 155.59683898741545 C 0.0 **** -0.24
18107 H 104.70813056319408 79.31194991173437 155.99927164212454 H 0.0 **** 0.06
18108 H 106.41836271418866 78.82102392666073 156.03934363791953 H 0.0 **** 0.06
18109 H 105.5018121141318 78.73322180179044 154.51544535890542 H 0.0 **** 0.06
18110 H 105.14430121110767 77.59447630704148 155.83536722237514 H 0.0 **** 0.06
18111 C 112.12609322075947 104.14377444835132 100.83848959436595 C 0.0 **** -0.24
18112 H 112.19410641722548 103.06141184815316 100.72881243235672 H 0.0 **** 0.06
18113 H 112.45274524125692 104.62283664606103 99.9153484628376 H 0.0 **** 0.06
18114 H 112.76489112961612 104.46629710358049 101.66073106838955 H 0.0 **** 0.06
18115 H 111.09375009654538 104.42323457951547 101.04896852681217 H 0.0 **** 0.06
18116 C 4.963964162753051 11.582922320958403 82.435801859178 C 0.0 **** -0.24
18117 H 6.011942988225691 11.802468841981351 82.23704998398249 H 0.0 **** 0.06
18118 H 4.3457417345041165 12.402138687338095 82.06721634660543 H 0.0 **** 0.06
18119 H 4.8136306107307405 11.469399520239904 83.51001045649195 H 0.0 **** 0.06
18120 H 4.683182593496916 10.659074610891423 81.93041905535527 H 0.0 **** 0.06
18121 C 12.649502064557225 152.11414236268533 1.9491153866344177 C 0.0 **** -0.24
18122 H 13.06910832478232 151.14210181670555 2.20876022561265 H 0.0 **** 0.06
18123 H 12.03066899571769 152.01694749280807 1.0573393794228139 H 0.0 **** 0.06
18124 H 13.458721765734595 152.81869080924884 1.7568378898216963 H 0.0 **** 0.06
18125 H 12.03984775002732 152.4788025617287 2.7765048135319432 H 0.0 **** 0.06
18126 C 135.1463273696442 53.18167702861919 111.68448440741315 C 0.0 **** -0.24
18127 H 134.37125753926057 53.267181534630424 112.44606329810028 H 0.0 **** 0.06
18128 H 134.70942636023796 53.35046684370258 110.70071505071411 H 0.0 **** 0.06
18129 H 135.58348079647777 52.183353574695005 111.72211243596388 H 0.0 **** 0.06
18130 H 135.92170938875478 53.924475603207725 111.87172401488243 H 0.0 **** 0.06
18131 C 86.95654428520476 70.33738081779241 95.23885210975249 C 0.0 **** -0.24
18132 H 85.90290602823069 70.29411081018284 95.51489341994993 H 0.0 **** 0.06
18133 H 87.06146337513047 70.13210933555388 94.17349992630116 H 0.0 **** 0.06
18134 H 87.51193783199244 69.59305309779391 95.80949115932893 H 0.0 **** 0.06
18135 H 87.34814980508321 71.33121635588938 95.45857637209095 H 0.0 **** 0.06
18136 C 124.19912146877549 135.14657580725242 15.013469087710689 C 0.0 **** -0.24
18137 H 123.7798043253055 135.25873038410472 14.014251837014967 H 0.0 **** 0.06
18138 H 123.42650506916071 134.7901001337609 15.695035429816699 H 0.0 **** 0.06
18139 H 124.57435165416787 136.10952024448636 15.360796036211354 H 0.0 **** 0.06
18140 H 125.01873219883036 134.42746118468952 14.984346329753635 H 0.0 **** 0.06
18141 C 24.599119628871193 152.7983353043425 114.35121082766887 C 0.0 **** -0.24
18142 H 25.03826315993041 152.81029623603567 115.3492146330658 H 0.0 **** 0.06
18143 H 24.775415939129175 151.82723192479156 113.88846412232164 H 0.0 **** 0.06
18144 H 25.057253043693322 153.57899784355436 113.74419646631344 H 0.0 **** 0.06
18145 H 23.526579727584448 152.97747765896838 114.4248371812194 H 0.0 **** 0.06
18146 C 146.89921726433067 147.25297292516936 88.04205258757747 C 0.0 **** -0.24
18147 H 147.9408995376723 147.17891879382714 88.35521503128955 H 0.0 **** 0.06
18148 H 146.25356926306938 146.87751441911323 88.83611949191736 H 0.0 **** 0.06
18149 H 146.74971236641287 146.65984560166598 87.14003267395503 H 0.0 **** 0.06
18150 H 146.65512789142232 148.29543791712933 87.83671676071278 H 0.0 **** 0.06
18151 C 95.37853617304472 98.9206110969804 63.92896563865122 C 0.0 **** -0.24
18152 H 94.70228967989442 98.06604929699535 63.90706859881465 H 0.0 **** 0.06
18153 H 96.39651061543174 98.57367993835823 64.11051322306076 H 0.0 **** 0.06
18154 H 95.078063101809 99.6004614119438 64.72540277436786 H 0.0 **** 0.06
18155 H 95.33697675044112 99.44135223258058 62.97143067349634 H 0.0 **** 0.06
18156 C 41.52438549713996 138.27325430555095 92.84303743367165 C 0.0 **** -0.24
18157 H 42.50619658090662 138.26559461507696 93.31652238504216 H 0.0 **** 0.06
18158 H 41.558465272002664 137.68185269739857 91.92820008774378 H 0.0 **** 0.06
18159 H 41.2450769304924 139.29947447490275 92.60262406686593 H 0.0 **** 0.06
18160 H 40.78869153360091 137.8461714366894 93.52525610655428 H 0.0 **** 0.06
18161 C 79.23688255974379 24.382183890426496 5.217233906745946 C 0.0 **** -0.24
18162 H 78.73243263450267 23.533511695866153 5.68074819736843 H 0.0 **** 0.06
18163 H 80.06524042204141 24.701888453373236 5.850831548649907 H 0.0 **** 0.06
18164 H 78.53118417220769 25.20361046743846 5.099383205001487 H 0.0 **** 0.06
18165 H 79.61861097643228 24.087469284748913 4.239678081754754 H 0.0 **** 0.06
18166 C 66.68370401622573 2.6922900107012424 117.1380792717306 C 0.0 **** -0.24
18167 H 66.44670471034908 3.744809232811832 116.98140668160401 H 0.0 **** 0.06
18168 H 66.64708064623667 2.4667934303103607 118.20408007218505 H 0.0 **** 0.06
18169 H 67.6827144184216 2.4848024568693745 116.7560115184664 H 0.0 **** 0.06
18170 H 65.95700331598823 2.0744173340508496 116.61010281805692 H 0.0 **** 0.06
18171 C 138.99211115277762 132.21031238604812 24.675362131591136 C 0.0 **** -0.24
18172 H 139.0341638108678 131.4893070811365 25.491381479311706 H 0.0 **** 0.06
18173 H 140.00423436044335 132.50877690427828 24.401885953132116 H 0.0 **** 0.06
18174 H 138.428059416255 133.08768927304715 24.994779051310715 H 0.0 **** 0.06
18175 H 138.500365353878 131.75711905378495 23.815318235074557 H 0.0 **** 0.06
18176 C 152.48225334131004 27.49093284095278 2.5245297571573424 C 0.0 **** -0.24
18177 H 151.5173018476197 27.76814503211466 2.94768770923989 H 0.0 **** 0.06
18178 H 152.5403303098277 27.83712932494322 1.4922004694932447 H 0.0 **** 0.06
18179 H 152.59245294499317 26.406571656147975 2.5506938109289905 H 0.0 **** 0.06
18180 H 153.28010935295393 27.95137301888539 3.1081223656750048 H 0.0 **** 0.06
18181 C 5.308364654053946 92.96609399311197 78.46578380486116 C 0.0 **** -0.24
18182 H 4.5452018201375495 92.36426318785573 77.97288744218035 H 0.0 **** 0.06
18183 H 5.840029163807515 93.5598912773532 77.72281793890795 H 0.0 **** 0.06
18184 H 6.012186971837764 92.30968946264733 78.97888414016796 H 0.0 **** 0.06
18185 H 4.834918376689018 93.62900732992075 79.19087293202257 H 0.0 **** 0.06
18186 C 125.71198088056065 81.15513983260843 60.503518837687835 C 0.0 **** -0.24
18187 H 126.43235570904801 80.3451056990067 60.39271515452292 H 0.0 **** 0.06
18188 H 124.71897043333115 80.79800192200332 60.22911500751351 H 0.0 **** 0.06
18189 H 125.99407527905441 81.9829193442277 59.852546859433716 H 0.0 **** 0.06
18190 H 125.70378473881317 81.49410929870044 61.539222067683 H 0.0 **** 0.06
18191 C 0.7492805774194267 72.1015297012069 22.44351925118805 C 0.0 **** -0.24
18192 H -0.26887135598263967 71.8897687441625 22.769445002971793 H 0.0 **** 0.06
18193 H 0.9484446987988804 71.578325491889 21.508779368598198 H 0.0 **** 0.06
18194 H 1.4521028066893678 71.76534616001358 23.20584740389362 H 0.0 **** 0.06
18195 H 0.8655000869748903 73.17517904832185 22.291325893549818 H 0.0 **** 0.06
18196 C 35.37046873173446 0.9678301356737222 122.34209366500096 C 0.0 **** -0.24
18197 H 34.96028814104862 -0.035940664091413055 122.45742262173019 H 0.0 **** 0.06
18198 H 34.892297652888175 1.4593742370454095 121.49478056460737 H 0.0 **** 0.06
18199 H 36.44434157510585 0.9029979173944298 122.16710061252235 H 0.0 **** 0.06
18200 H 35.18400205175777 1.5429169720353002 123.24953677974071 H 0.0 **** 0.06
18201 C 71.15278952908193 97.46020172944951 143.6681000898336 C 0.0 **** -0.24
18202 H 70.47599012823167 97.71870792090677 144.48312758952108 H 0.0 **** 0.06
18203 H 70.61075652720157 97.49246771547755 142.72330446017477 H 0.0 **** 0.06
18204 H 71.54646703257926 96.45672468663287 143.8279828581152 H 0.0 **** 0.06
18205 H 71.9761659583599 98.17368166232463 143.64027381510178 H 0.0 **** 0.06
18206 C 152.1271408279201 39.381891006809596 31.793653571851287 C 0.0 **** -0.24
18207 H 152.11614891128548 38.38952193123869 31.34148711134476 H 0.0 **** 0.06
18208 H 151.1115183028566 39.77816572701748 31.82560589092425 H 0.0 **** 0.06
18209 H 152.75710065905542 40.04381092144975 31.19921659735123 H 0.0 **** 0.06
18210 H 152.5241731543319 39.315061815481684 32.80634249100777 H 0.0 **** 0.06
18211 C 24.31308339394687 105.14611028814603 111.45072608162877 C 0.0 **** -0.24
18212 H 24.199122283453598 104.07604254599543 111.27859081718839 H 0.0 **** 0.06
18213 H 23.349140605505013 105.57626159315522 111.72324367524112 H 0.0 **** 0.06
18214 H 24.68076228286833 105.62244397098245 110.54118819422916 H 0.0 **** 0.06
18215 H 25.026103694519 105.30992159081096 112.25951506552917 H 0.0 **** 0.06
18216 C 43.74391081135417 26.00893690541679 18.60721032011203 C 0.0 **** -0.24
18217 H 44.01584297548473 25.860360811289496 17.561888487597834 H 0.0 **** 0.06
18218 H 44.61728413039263 26.34700561382016 19.164720192766204 H 0.0 **** 0.06
18219 H 43.38753737844503 25.06802939315304 19.02560567944399 H 0.0 **** 0.06
18220 H 42.955177206184786 26.758651732159706 18.674163047620254 H 0.0 **** 0.06
18221 C 152.1818952180066 58.418942821575484 30.98457883185116 C 0.0 **** -0.24
18222 H 152.95615524677504 59.006650148272 30.490555346316704 H 0.0 **** 0.06
18223 H 151.26234558040207 59.001899909244585 31.036484217554737 H 0.0 **** 0.06
18224 H 152.5083317341531 58.16368159182109 31.993010086074662 H 0.0 **** 0.06
18225 H 152.0023304514695 57.50537323752971 30.41789834268355 H 0.0 **** 0.06
18226 C 3.1851846212842645 113.11990082699101 139.36062103118562 C 0.0 **** -0.24
18227 H 3.8190253376648116 112.95014303955797 138.49004597813774 H 0.0 **** 0.06
18228 H 2.198547667343888 113.44641405897916 139.03380263890296 H 0.0 **** 0.06
18229 H 3.6329202965191882 113.88884245464244 139.98971338506612 H 0.0 **** 0.06
18230 H 3.0926706186808985 112.19412413853273 139.92858877407394 H 0.0 **** 0.06
18231 C 93.07204925584361 66.98409608179054 56.86134025912148 C 0.0 **** -0.24
18232 H 92.91802161197667 66.17975529109196 56.14198495726217 H 0.0 **** 0.06
18233 H 93.06492570658472 67.94261531958813 56.34215454533961 H 0.0 **** 0.06
18234 H 94.03299366209455 66.84724567608441 57.35901539575218 H 0.0 **** 0.06
18235 H 92.27385360222131 66.96567553935265 57.60332614163656 H 0.0 **** 0.06
18236 C 142.30263566725722 142.34803448052932 20.7206424810756 C 0.0 **** -0.24
18237 H 142.18269405739147 141.26417591583538 20.702828526246122 H 0.0 **** 0.06
18238 H 141.57196256590447 142.78310233987906 21.402578292637116 H 0.0 **** 0.06
18239 H 142.14878789814418 142.74746943315424 19.718768628371947 H 0.0 **** 0.06
18240 H 143.3085825656807 142.59541631813596 21.060097549272115 H 0.0 **** 0.06
18241 C 27.471165731440877 120.57267649747568 149.46052651905433 C 0.0 **** -0.24
18242 H 27.683784714045707 120.37536441633962 150.51088158215686 H 0.0 **** 0.06
18243 H 27.24925083936951 119.63459839311965 148.95242623456136 H 0.0 **** 0.06
18244 H 28.33939402718442 121.0406880272309 148.99602514952045 H 0.0 **** 0.06
18245 H 26.613065099399883 121.24052857802015 149.38306308651573 H 0.0 **** 0.06
18246 C 89.34457738568202 131.15069360584613 130.03171594617652 C 0.0 **** -0.24
18247 H 89.46805823074169 130.77797093855054 131.04861366477334 H 0.0 **** 0.06
18248 H 90.25734049550164 130.9670066441205 129.4640758236064 H 0.0 **** 0.06
18249 H 89.14326979020066 132.22167799364018 130.0599537147593 H 0.0 **** 0.06
18250 H 88.51062608209827 130.63680234866183 129.55547061687412 H 0.0 **** 0.06
18251 C 39.53972467556214 103.82385569302299 37.240155242486026 C 0.0 **** -0.24
18252 H 38.515023390745625 103.58332504804822 37.52294128902196 H 0.0 **** 0.06
18253 H 40.04881163342576 102.91568313818563 36.91550652240488 H 0.0 **** 0.06
18254 H 40.06264296950718 104.24840762376006 38.09744621082575 H 0.0 **** 0.06
18255 H 39.5310182176313 104.54817898335627 36.42466784648434 H 0.0 **** 0.06
18256 C 22.270483630249934 142.59420977824828 9.792255021503877 C 0.0 **** -0.24
18257 H 22.47177448463699 143.61779659182437 9.47638844303387 H 0.0 **** 0.06
18258 H 21.225735646085802 142.50641281545026 10.091089469327727 H 0.0 **** 0.06
18259 H 22.913191779925157 142.34147207945213 10.635817452812574 H 0.0 **** 0.06
18260 H 22.47150839241022 141.914130115568 8.965427156470412 H 0.0 **** 0.06
18261 C 53.857592681749765 85.97606931897366 22.18578135385701 C 0.0 **** -0.24
18262 H 54.80529722778502 85.91833714108162 21.651168658895386 H 0.0 **** 0.06
18263 H 53.35120094243116 86.90646856682619 21.930101288721687 H 0.0 **** 0.06
18264 H 54.04314342669626 85.94576135164777 23.25972131424487 H 0.0 **** 0.06
18265 H 53.22924683656423 85.13133184915986 21.90251682296858 H 0.0 **** 0.06
18266 C 7.669805716198397 9.89285880191622 146.0622550248232 C 0.0 **** -0.24
18267 H 7.687977957803959 10.72388927687662 145.356963028989 H 0.0 **** 0.06
18268 H 8.040923844099062 8.993181067243995 145.57123467418018 H 0.0 **** 0.06
18269 H 6.647642792793562 9.72675733710581 146.40176337301196 H 0.0 **** 0.06
18270 H 8.303722169594515 10.128145801308364 146.91744017654622 H 0.0 **** 0.06
18271 C 130.08709604398007 10.296751826512292 10.568624722768618 C 0.0 **** -0.24
18272 H 129.30047237361526 9.627804574531837 10.218034532574478 H 0.0 **** 0.06
18273 H 129.99372830502494 10.43285384837759 11.646304820663175 H 0.0 **** 0.06
18274 H 129.99078864126196 11.261662619753821 10.070060040777122 H 0.0 **** 0.06
18275 H 131.06004034588943 9.863734404317483 10.33918208261889 H 0.0 **** 0.06
18276 C 126.64475839841248 3.1927839029871734 106.3129335197598 C 0.0 **** -0.24
18277 H 125.8551450365365 3.0860666427743695 105.56984752063876 H 0.0 **** 0.06
18278 H 126.31148100233213 3.8637094496025597 107.10437065717495 H 0.0 **** 0.06
18279 H 127.53647034744506 3.603616836959624 105.8389833257824 H 0.0 **** 0.06
18280 H 126.87784425704552 2.2162737957374787 106.7380790028965 H 0.0 **** 0.06
18281 C 112.32625573868872 113.8672912424475 80.28067131860763 C 0.0 **** -0.24
18282 H 112.32302277682025 113.80195629819525 79.19279009664564 H 0.0 **** 0.06
18283 H 113.34774046584248 114.01138438495116 80.6326170362363 H 0.0 **** 0.06
18284 H 111.92341616635086 112.94568361995772 80.70148880939568 H 0.0 **** 0.06
18285 H 111.71008895089484 114.70962528722129 80.59538312632344 H 0.0 **** 0.06
18286 C 74.8006216230372 37.7061985037906 139.61972992557594 C 0.0 **** -0.24
18287 H 75.07835204444112 37.16516077734397 140.52462366615822 H 0.0 **** 0.06
18288 H 75.16465831917492 37.163124602864514 138.7473729432181 H 0.0 **** 0.06
18289 H 75.24457659663098 38.700856606485644 139.64019625860828 H 0.0 **** 0.06
18290 H 73.71507402636743 37.793282624148034 139.56732321519326 H 0.0 **** 0.06
18291 C 144.4917511621874 138.24599618971226 23.383512457802077 C 0.0 **** -0.24
18292 H 144.88574133278075 137.89330979952894 22.43076448374739 H 0.0 **** 0.06
18293 H 144.89725448330697 137.63575961109467 24.19143577919524 H 0.0 **** 0.06
18294 H 143.4049028568965 138.16789887235421 23.37879894119908 H 0.0 **** 0.06
18295 H 144.78119494789667 139.28624468564087 23.533252364577123 H 0.0 **** 0.06
18296 C 30.762094663178345 130.7480757244598 68.31264147156006 C 0.0 **** -0.24
18297 H 29.979276491533426 130.96902048874864 67.58624844414474 H 0.0 **** 0.06
18298 H 30.888990464853237 131.60170897344898 68.979162614072 H 0.0 **** 0.06
18299 H 31.698261066125838 130.55166454229914 67.789244097174 H 0.0 **** 0.06
18300 H 30.4804315418873 129.87055112889394 68.89465619824556 H 0.0 **** 0.06
18301 C 40.30653577002931 63.947462561708164 61.87066176594841 C 0.0 **** -0.24
18302 H 39.67678854236323 64.39115022737003 61.099453390135906 H 0.0 **** 0.06
18303 H 39.70652045585172 63.28172129505633 62.49104621114448 H 0.0 **** 0.06
18304 H 40.733124459309806 64.73620327303946 62.490300248906834 H 0.0 **** 0.06
18305 H 41.110170592175734 63.37967688961278 61.40108515441271 H 0.0 **** 0.06
18306 C 68.17338347345722 95.21226855553554 144.89175733541867 C 0.0 **** -0.24
18307 H 68.35553681573157 94.1377142000573 144.87294852649364 H 0.0 **** 0.06
18308 H 68.83149398395238 95.70446067157393 144.17617356964848 H 0.0 **** 0.06
18309 H 68.37041722992157 95.59647300551579 145.89254767695468 H 0.0 **** 0.06
18310 H 67.13471259940155 95.4084203462507 144.62505905557458 H 0.0 **** 0.06
18311 C 147.66245230330978 2.3752783415894747 92.97774130784525 C 0.0 **** -0.24
18312 H 147.58265130379527 3.119533061255403 92.18541411368292 H 0.0 **** 0.06
18313 H 148.26714096256043 1.537360238850443 92.62960688377159 H 0.0 **** 0.06
18314 H 146.66644131311725 2.0187050322221154 93.24272677114749 H 0.0 **** 0.06
18315 H 148.13235882193985 2.824165106613229 93.85238248065447 H 0.0 **** 0.06
18316 C 125.12175320488102 23.204595308315078 1.7624750466452213 C 0.0 **** -0.24
18317 H 125.05709068659012 22.179501461249373 2.128214101210606 H 0.0 **** 0.06
18318 H 125.59172785273422 23.21105181109189 0.7789523883772489 H 0.0 **** 0.06
18319 H 125.7176661237438 23.799699629296327 2.454507064362133 H 0.0 **** 0.06
18320 H 124.11951509539351 23.627376597795433 1.6903263466195995 H 0.0 **** 0.06
18321 C 154.25133939252382 156.61669460910412 151.75759881942537 C 0.0 **** -0.24
18322 H 153.3048861232849 156.1027989524199 151.92719584561843 H 0.0 **** 0.06
18323 H 154.2120726350089 157.60830580555245 152.20826501789844 H 0.0 **** 0.06
18324 H 154.42526688950826 156.71089657924324 150.68556575337146 H 0.0 **** 0.06
18325 H 155.06205189278467 156.0437601447332 152.20769548938745 H 0.0 **** 0.06
18326 C 19.79755780263781 61.10267946678911 13.413238058552167 C 0.0 **** -0.24
18327 H 20.183247951335147 61.04190784027409 12.396367104711487 H 0.0 **** 0.06
18328 H 18.82306704976247 61.59338677300104 13.403295115942456 H 0.0 **** 0.06
18329 H 20.48787675021424 61.677714582219636 14.030601845605815 H 0.0 **** 0.06
18330 H 19.693918780332922 60.09829647403677 13.823084869461468 H 0.0 **** 0.06
18331 C 108.61432361314633 133.32221859475578 89.85116124747557 C 0.0 **** -0.24
18332 H 108.86865742597513 132.88759739370278 88.88495663003863 H 0.0 **** 0.06
18333 H 107.55818427653912 133.5933580413913 89.86047808895938 H 0.0 **** 0.06
18334 H 109.21980152418018 134.2132667839183 90.02083545246222 H 0.0 **** 0.06
18335 H 108.80990186711944 132.59488688240657 90.63955101227299 H 0.0 **** 0.06
18336 C 109.57916700641863 118.8956775064392 69.08907192945273 C 0.0 **** -0.24
18337 H 109.80135694684134 119.17361961470397 68.0584349857759 H 0.0 **** 0.06
18338 H 108.52238787299802 118.64437689755505 69.1772622095068 H 0.0 **** 0.06
18339 H 109.81007070474033 119.73349357356778 69.74728496766227 H 0.0 **** 0.06
18340 H 110.18401941255615 118.03388210970121 69.37038122193421 H 0.0 **** 0.06
18341 C 17.403309692426035 38.200544720778055 87.15868522662399 C 0.0 **** -0.24
18342 H 17.072290194323216 39.031194878694464 86.53462584848879 H 0.0 **** 0.06
18343 H 18.41860543183799 38.3904029764891 87.5062482587828 H 0.0 **** 0.06
18344 H 17.38376176544108 37.27894879352715 86.57727875505701 H 0.0 **** 0.06
18345 H 16.737189336754028 38.10299840495833 88.01549444385483 H 0.0 **** 0.06
18346 C 132.560181547304 57.959508481657025 114.42049078244749 C 0.0 **** -0.24
18347 H 131.9321690582878 57.17740076884013 114.84824835598293 H 0.0 **** 0.06
18348 H 131.96797493002828 58.86468354904561 114.2821212535615 H 0.0 **** 0.06
18349 H 132.94689703396327 57.62704728726986 113.45743089846191 H 0.0 **** 0.06
18350 H 133.39044156001245 58.16705442120147 115.09441705134866 H 0.0 **** 0.06
18351 C 98.55019483477034 17.76208776126424 111.60136161752166 C 0.0 **** -0.24
18352 H 97.60406963660539 18.06695231751047 112.04819869255795 H 0.0 **** 0.06
18353 H 99.32169135077196 17.729855471919905 112.37078275145967 H 0.0 **** 0.06
18354 H 98.8348848513516 18.47759701006089 110.83017696504129 H 0.0 **** 0.06
18355 H 98.43815658987505 16.772966463080138 111.15665139832811 H 0.0 **** 0.06
18356 C 106.14556949731258 11.646477408881083 42.03095928492388 C 0.0 **** -0.24
18357 H 107.1429424952907 11.693245128898624 41.59195062290951 H 0.0 **** 0.06
18358 H 105.7430961576174 12.655032340733385 42.12561039233525 H 0.0 **** 0.06
18359 H 106.2044513215672 11.18423766825186 43.01697655913871 H 0.0 **** 0.06
18360 H 105.49400736245099 11.05359435905288 41.38948588240653 H 0.0 **** 0.06
18361 C 108.4101385241392 85.89138844108766 134.3724989339243 C 0.0 **** -0.24
18362 H 109.1565085744765 86.07590771914828 133.59968908464805 H 0.0 **** 0.06
18363 H 108.85739123436832 86.04630067645556 135.35474732804892 H 0.0 **** 0.06
18364 H 108.05289038836514 84.86393260021222 134.29434538098687 H 0.0 **** 0.06
18365 H 107.57440076448091 86.57790364530463 134.24065087227686 H 0.0 **** 0.06
18366 C 26.115945853011183 34.11430877171774 80.44481364171219 C 0.0 **** -0.24
18367 H 25.850510566173035 33.05941772953681 80.52284382160263 H 0.0 **** 0.06
18368 H 25.330483837444092 34.719714780293245 80.8976024118889 H 0.0 **** 0.06
18369 H 26.223755871643263 34.38484131506897 79.39413108506164 H 0.0 **** 0.06
18370 H 27.057222061911453 34.29108884369018 80.96464780326355 H 0.0 **** 0.06
18371 C 117.4657006227909 144.96503216480465 97.56797652536989 C 0.0 **** -0.24
18372 H 117.0335891358456 144.85132712422845 98.56232028199423 H 0.0 **** 0.06
18373 H 117.8098763698618 143.99528119596403 97.20854533111134 H 0.0 **** 0.06
18374 H 118.30699261340692 145.6557455999454 97.61399142956009 H 0.0 **** 0.06
18375 H 116.71012760826932 145.3577753010735 96.88675559539962 H 0.0 **** 0.06
18376 C 105.96889408860602 13.023343156674798 123.28703566838556 C 0.0 **** -0.24
18377 H 105.02248402534934 13.549441637774379 123.16444679529411 H 0.0 **** 0.06
18378 H 105.86395875485152 12.261745398090198 124.05938408938431 H 0.0 **** 0.06
18379 H 106.74387558970767 13.733012190231108 123.57784012044141 H 0.0 **** 0.06
18380 H 106.24536328859386 12.549589603358811 122.34479363863545 H 0.0 **** 0.06
18381 C 64.78282951247522 152.8698182161636 149.31521123487823 C 0.0 **** -0.24
18382 H 63.71994448504685 152.72885078693568 149.11589160909273 H 0.0 **** 0.06
18383 H 64.9410470888284 152.95649352986825 150.3899792310431 H 0.0 **** 0.06
18384 H 65.12644599627292 153.77891521550137 148.8218979247583 H 0.0 **** 0.06
18385 H 65.34059688075331 152.0152457741853 148.93267082729807 H 0.0 **** 0.06
18386 C 112.03446378799032 58.47288537204997 100.99675240993425 C 0.0 **** -0.24
18387 H 111.36435234882634 57.76498512509329 101.48490359787986 H 0.0 **** 0.06
18388 H 112.99155943486039 58.485709469685844 101.51768534125098 H 0.0 **** 0.06
18389 H 111.5916875244908 59.46902805644132 101.02324080020746 H 0.0 **** 0.06
18390 H 112.18683751106244 58.17150443242173 99.96071455990447 H 0.0 **** 0.06
18391 C 70.17976833986023 67.06644161383659 61.74464108010375 C 0.0 **** -0.24
18392 H 70.05379076600894 66.35354571257949 60.92913277857912 H 0.0 **** 0.06
18393 H 69.41398527916715 67.8393116692854 61.67159394128885 H 0.0 **** 0.06
18394 H 71.16619672126785 67.52352163726343 61.67907041800538 H 0.0 **** 0.06
18395 H 70.08210562804868 66.5472359970214 62.698133187245276 H 0.0 **** 0.06
18396 C 109.38138099800084 10.043081729052822 28.893792774458177 C 0.0 **** -0.24
18397 H 108.70015220327308 10.712729462783741 28.368425354133798 H 0.0 **** 0.06
18398 H 109.85436667796863 9.370932903866262 28.17688398072425 H 0.0 **** 0.06
18399 H 108.82457953805137 9.46003756993003 29.626732938062908 H 0.0 **** 0.06
18400 H 110.14650066330817 10.629589936856604 29.40169105843814 H 0.0 **** 0.06
18401 C 3.2727130402826674 151.46534246853298 57.96981699050356 C 0.0 **** -0.24
18402 H 3.908167718001863 151.50311021179246 57.08442631110496 H 0.0 **** 0.06
18403 H 2.7900552453995147 150.48993907161557 58.02894676068135 H 0.0 **** 0.06
18404 H 2.5132951253448255 152.2437303964587 57.90555743385613 H 0.0 **** 0.06
18405 H 3.881674090595027 151.62390942561424 58.86009034482373 H 0.0 **** 0.06
18406 C 7.828056866229986 84.78468837804303 153.96774861668132 C 0.0 **** -0.24
18407 H 6.873007395940476 84.26027290036004 153.9670032695177 H 0.0 **** 0.06
18408 H 7.93029297854514 85.35104907701611 154.89350020934052 H 0.0 **** 0.06
18409 H 7.868446007631178 85.46597412920774 153.1177326637109 H 0.0 **** 0.06
18410 H 8.63940817972798 84.0613970076392 153.891838924255 H 0.0 **** 0.06
18411 C 78.91723508683987 68.37427043995683 0.9479966476991706 C 0.0 **** -0.24
18412 H 79.07677733275506 69.34942770466697 0.48858917019529713 H 0.0 **** 0.06
18413 H 78.02457981862904 68.40917201123503 1.5733198884108788 H 0.0 **** 0.06
18414 H 79.78017463393809 68.1154800579386 1.5602045315519035 H 0.0 **** 0.06
18415 H 78.78600256089914 67.62361506780152 0.16824590069222722 H 0.0 **** 0.06
18416 C 56.99376091219065 29.337407710190888 55.41520140221313 C 0.0 **** -0.24
18417 H 56.4653808830592 29.152945233190252 54.480284409238365 H 0.0 **** 0.06
18418 H 56.27193091251468 29.456129810529745 56.22285241828742 H 0.0 **** 0.06
18419 H 57.589032310233904 30.24604323382374 55.32197513439314 H 0.0 **** 0.06
18420 H 57.650071152502846 28.494978556890402 55.63371836658801 H 0.0 **** 0.06
18421 C 16.41489312770227 104.85058699311459 118.7720321115454 C 0.0 **** -0.24
18422 H 16.743555204166626 103.92035207149694 119.23439438257492 H 0.0 **** 0.06
18423 H 16.209732015399197 105.58900185963908 119.5471063489502 H 0.0 **** 0.06
18424 H 15.508127441615102 104.66828034929203 118.19407969624677 H 0.0 **** 0.06
18425 H 17.19704160065436 105.22512934151227 118.11178559540627 H 0.0 **** 0.06
18426 C 84.15055649748273 88.8261905007059 75.62665621135194 C 0.0 **** -0.24
18427 H 85.19357379418344 88.57148601545677 75.44087895751466 H 0.0 **** 0.06
18428 H 84.03891458906261 89.91071270194303 75.64857387356706 H 0.0 **** 0.06
18429 H 83.84077433329249 88.4099176659321 76.58600007943602 H 0.0 **** 0.06
18430 H 83.5287328721935 88.41252814339447 74.8333930331327 H 0.0 **** 0.06
18431 C 86.97220080981026 22.67817965268081 6.329697213892132 C 0.0 **** -0.24
18432 H 87.3920143140569 22.69707912849279 7.3368159721485995 H 0.0 **** 0.06
18433 H 87.48167752636482 23.416793184083474 5.710527439006626 H 0.0 **** 0.06
18434 H 85.90863840554869 22.91270224634922 6.375717234259469 H 0.0 **** 0.06
18435 H 87.10761190324638 21.686500555230516 5.898980314082621 H 0.0 **** 0.06
18436 C 132.7194188900923 69.97508846506071 47.63150156655858 C 0.0 **** -0.24
18437 H 132.8862310301705 68.92587147135521 47.87684440074209 H 0.0 **** 0.06
18438 H 132.76042955845224 70.10504493744634 46.549458982719216 H 0.0 **** 0.06
18439 H 133.49040331619403 70.5847232011808 48.100977999916395 H 0.0 **** 0.06
18440 H 131.73930895093133 70.28228753796367 47.99753563055114 H 0.0 **** 0.06
18441 C 113.35790889402047 150.23278366381393 90.67053556704055 C 0.0 **** -0.24
18442 H 113.08793511650482 150.31993917422443 89.61784674080079 H 0.0 **** 0.06
18443 H 113.30587169380469 151.21638248181608 91.13987898369295 H 0.0 **** 0.06
18444 H 114.37118516540674 149.84206562932445 90.75502364422482 H 0.0 **** 0.06
18445 H 112.66434843050753 149.55546803407537 91.16823936686305 H 0.0 **** 0.06
18446 C 87.24716051042012 103.61016082629993 92.34849257943506 C 0.0 **** -0.24
18447 H 86.37325159874914 103.63300740019048 92.99858247987726 H 0.0 **** 0.06
18448 H 86.92604813628027 103.62260582695166 91.30678405652827 H 0.0 **** 0.06
18449 H 87.82056678815341 102.7031780009927 92.54163264852855 H 0.0 **** 0.06
18450 H 87.87019552268771 104.48283938493864 92.54706551983503 H 0.0 **** 0.06
18451 C 73.73840217500567 135.83430104926987 133.2915650862733 C 0.0 **** -0.24
18452 H 73.22919336957456 135.3557080398015 134.12785856512266 H 0.0 **** 0.06
18453 H 74.04003772440863 136.84199104390922 133.57919258026465 H 0.0 **** 0.06
18454 H 73.06305649535531 135.886677894843 132.43752202290995 H 0.0 **** 0.06
18455 H 74.61998028198597 135.25274133877232 133.02212861554534 H 0.0 **** 0.06
18456 C 20.510031106635182 5.954196687844856 43.40588708995631 C 0.0 **** -0.24
18457 H 21.18308100972564 5.167071720223973 43.06783717756139 H 0.0 **** 0.06
18458 H 20.194911814048425 5.747801255159622 44.429200072055096 H 0.0 **** 0.06
18459 H 19.635493757427696 5.987704535889215 42.756248486053096 H 0.0 **** 0.06
18460 H 21.025380067152156 6.9137789694507035 43.37074524853756 H 0.0 **** 0.06
18461 C 114.00775599061086 102.01196873609705 34.447600516730716 C 0.0 **** -0.24
18462 H 115.00148112467878 102.19179170686793 34.03889195550278 H 0.0 **** 0.06
18463 H 114.02132013732319 102.18451107579797 35.524487639914184 H 0.0 **** 0.06
18464 H 113.71494078825071 100.98091972456164 34.24874913494449 H 0.0 **** 0.06
18465 H 113.29392310078333 102.68952189840088 33.97883085284067 H 0.0 **** 0.06
18466 C 89.1912880181583 55.136498818782385 137.36549582402418 C 0.0 **** -0.24
18467 H 90.05546674239702 55.19671737098297 138.02792587074433 H 0.0 **** 0.06
18468 H 89.28738080294414 54.26161647761519 136.72188510125824 H 0.0 **** 0.06
18469 H 89.14249829271182 56.03659597002279 136.75134893188437 H 0.0 **** 0.06
18470 H 88.28246002989135 55.05370301460033 137.96079002373506 H 0.0 **** 0.06
18471 C 9.636880370804896 1.703968555602188 81.63746920995528 C 0.0 **** -0.24
18472 H 9.113714268522607 2.5545166242665402 81.1991657527844 H 0.0 **** 0.06
18473 H 10.300144418894796 2.05537129915578 82.42844747529575 H 0.0 **** 0.06
18474 H 10.222198572765123 1.2024150665245088 80.86743392586556 H 0.0 **** 0.06
18475 H 8.910938529422182 1.0066508385451698 82.05433978987409 H 0.0 **** 0.06
18476 C 146.51088828936864 74.65003363645388 118.8276874926075 C 0.0 **** -0.24
18477 H 146.79791833179468 75.65210744044998 118.50863495044793 H 0.0 **** 0.06
18478 H 146.89360759527636 73.91786700373859 118.11708309752446 H 0.0 **** 0.06
18479 H 145.42425584910455 74.58111989329007 118.87178381957641 H 0.0 **** 0.06
18480 H 146.92765189806087 74.45069737174026 119.81504802746544 H 0.0 **** 0.06
18481 C 50.898141869220666 30.720713907228344 66.39705154516774 C 0.0 **** -0.24
18482 H 51.95316741963944 30.611368851162695 66.647693540359 H 0.0 **** 0.06
18483 H 50.30205515594662 30.076060450254303 67.04258636669441 H 0.0 **** 0.06
18484 H 50.74072317367211 30.43880542769017 65.35577173262224 H 0.0 **** 0.06
18485 H 50.59636702230944 31.758830643799385 66.54238327541388 H 0.0 **** 0.06
18486 C 22.631360459093685 90.52984344378109 134.98885501250766 C 0.0 **** -0.24
18487 H 22.270195926159687 91.37525550609702 135.57489538011293 H 0.0 **** 0.06
18488 H 22.43096384906991 90.70843841827504 133.93246980735364 H 0.0 **** 0.06
18489 H 22.120890589670466 89.62171155942283 135.3081301843631 H 0.0 **** 0.06
18490 H 23.704972301480353 90.41590794995454 135.14185833442878 H 0.0 **** 0.06
18491 C 111.80930955766085 64.3180523245399 113.07047286590982 C 0.0 **** -0.24
18492 H 112.6145631280069 64.89476376211235 113.52614302577724 H 0.0 **** 0.06
18493 H 111.76279714351413 63.33099232450704 113.53141629990249 H 0.0 **** 0.06
18494 H 111.99677610353318 64.21243501601586 112.00231139767457 H 0.0 **** 0.06
18495 H 110.86165408807209 64.83444620723645 113.22394972200827 H 0.0 **** 0.06
18496 C 66.04194901960369 56.2401554743181 109.9161093359951 C 0.0 **** -0.24
18497 H 65.101586829356 55.689769413878 109.89005555293339 H 0.0 **** 0.06
18498 H 65.84617883410101 57.30158622604338 109.76342839292899 H 0.0 **** 0.06
18499 H 66.6989954629384 55.87373565929721 109.12749462999948 H 0.0 **** 0.06
18500 H 66.52011572669238 56.09465624713158 110.88555417513412 H 0.0 **** 0.06
18501 C 21.507887858507985 54.59895043923771 58.40951268024517 C 0.0 **** -0.24
18502 H 21.303905807440827 53.55723391800018 58.6530832416875 H 0.0 **** 0.06
18503 H 21.970312155999977 55.08792949622497 59.267686884131464 H 0.0 **** 0.06
18504 H 20.57379406685459 55.10419810308446 58.16276933843368 H 0.0 **** 0.06
18505 H 22.18368496723582 54.64772401491621 57.55566487276458 H 0.0 **** 0.06
18506 C 61.29222503098629 134.7275939926645 140.96389721921412 C 0.0 **** -0.24
18507 H 60.48333908465932 134.96650052260873 141.6549998859246 H 0.0 **** 0.06
18508 H 60.905537490724726 134.71045044107112 139.94421905257738 H 0.0 **** 0.06
18509 H 61.70406702385088 133.7490844423951 141.21237644957182 H 0.0 **** 0.06
18510 H 62.073984980102296 135.48234351315705 141.04434712398765 H 0.0 **** 0.06
18511 C 155.95403409129625 89.41384644471933 136.67063854430057 C 0.0 **** -0.24
18512 H 156.35125741302056 88.61042067029544 137.2891733096174 H 0.0 **** 0.06
18513 H 154.86428387296678 89.39296045122512 136.7028711088085 H 0.0 **** 0.06
18514 H 156.28920424162789 89.28090345652907 135.64230650501497 H 0.0 **** 0.06
18515 H 156.30959942089743 90.37237110976776 137.04778097383263 H 0.0 **** 0.06
18516 C 9.740660384268438 42.77014703886641 58.73237554248615 C 0.0 **** -0.24
18517 H 9.78621603917486 41.68309884247951 58.78674949442102 H 0.0 **** 0.06
18518 H 10.68906409514409 43.19124033989263 59.06725392507754 H 0.0 **** 0.06
18519 H 8.936153020292238 43.13137948294059 59.373364395373386 H 0.0 **** 0.06
18520 H 9.549742005032044 43.07543135702615 57.70372627391396 H 0.0 **** 0.06
18521 C 78.40810528533166 10.498635913538095 67.11803857232351 C 0.0 **** -0.24
18522 H 79.08739389489415 10.994145763551728 66.42397109452008 H 0.0 **** 0.06
18523 H 78.94649735779306 9.723309503086426 67.66227618127397 H 0.0 **** 0.06
18524 H 77.5857332906471 10.049540227879788 66.56153877481032 H 0.0 **** 0.06
18525 H 78.01377204335631 11.2307094121835 67.82293456794363 H 0.0 **** 0.06
18526 C 141.62622712640024 108.6128681091601 53.99275932431982 C 0.0 **** -0.24
18527 H 140.9397758604705 108.15615195804145 53.28090987615312 H 0.0 **** 0.06
18528 H 141.45532935108724 109.68829063678521 54.022758673179666 H 0.0 **** 0.06
18529 H 142.65312951943656 108.41538510073673 53.685188830844666 H 0.0 **** 0.06
18530 H 141.45616467967284 108.18945556165824 54.98315383245642 H 0.0 **** 0.06
18531 C 111.82361732442628 132.11090360592226 99.5817562311258 C 0.0 **** -0.24
18532 H 112.866038001304 131.80091300155487 99.5067519839014 H 0.0 **** 0.06
18533 H 111.72769474883584 133.1445457782934 99.24998616527533 H 0.0 **** 0.06
18534 H 111.49318018239246 132.02823663930488 100.61670265845133 H 0.0 **** 0.06
18535 H 111.20815917931323 131.46860496764776 98.95160671517934 H 0.0 **** 0.06
18536 C 132.1775581178981 9.761306517498667 21.92426854966638 C 0.0 **** -0.24
18537 H 132.70047779494666 10.651438129163154 21.57228353939479 H 0.0 **** 0.06
18538 H 132.36353157217079 8.93572014269904 21.2367180357127 H 0.0 **** 0.06
18539 H 131.10689248662595 9.964379333033605 21.968430236828368 H 0.0 **** 0.06
18540 H 132.53896403955915 9.497291180429158 22.917670936514725 H 0.0 **** 0.06
18541 C 69.55329310469071 41.25344503883804 40.985071735691264 C 0.0 **** -0.24
18542 H 70.28051227023417 41.91424059251426 41.45634254536995 H 0.0 **** 0.06
18543 H 68.67023960364409 41.82725354219531 40.70192332411756 H 0.0 **** 0.06
18544 H 69.26667254748276 40.46899228751823 41.68710113805068 H 0.0 **** 0.06
18545 H 69.99502754966656 40.80246912763653 40.09686958740042 H 0.0 **** 0.06
18546 C 4.6808038995364 3.5975590982697554 60.13566987255311 C 0.0 **** -0.24
18547 H 5.171334872239271 4.517359880762854 60.45566297755937 H 0.0 **** 0.06
18548 H 4.478505693704719 2.9735170593021394 61.006960688587355 H 0.0 **** 0.06
18549 H 5.331095890070436 3.059602890223573 59.4465965211059 H 0.0 **** 0.06
18550 H 3.74304726262271 3.841199282492852 59.636166492696105 H 0.0 **** 0.06
18551 C 75.59208139824469 136.01108990559203 98.61774616694302 C 0.0 **** -0.24
18552 H 76.250356280636 136.72153995777938 99.1160789054248 H 0.0 **** 0.06
18553 H 76.16097485943436 135.44306715492283 97.8811953688238 H 0.0 **** 0.06
18554 H 74.78806214705327 136.55040407652194 98.11649876837069 H 0.0 **** 0.06
18555 H 75.16738683383016 135.32971519086703 99.35466657153034 H 0.0 **** 0.06
18556 C 128.6450688923393 103.62452290787684 32.46008104698879 C 0.0 **** -0.24
18557 H 129.03345105041893 103.4925619023399 33.47027423855258 H 0.0 **** 0.06
18558 H 129.4104593611289 103.34125063469662 31.738137217131808 H 0.0 **** 0.06
18559 H 128.37021182290226 104.66827663038725 32.310096353074414 H 0.0 **** 0.06
18560 H 127.7659827546231 102.99391804861887 32.32491905066368 H 0.0 **** 0.06
18561 C 101.78549113894462 83.59619857984572 139.3103252560995 C 0.0 **** -0.24
18562 H 102.44129588067324 83.10820157574511 138.5879273047263 H 0.0 **** 0.06
18563 H 102.00190841906493 84.66441762493434 139.33328859966963 H 0.0 **** 0.06
18564 H 101.95276877131892 83.1688218493259 140.29882461571785 H 0.0 **** 0.06
18565 H 100.74626635762127 83.44130601515798 139.01814062435975 H 0.0 **** 0.06
18566 C 50.982464566231116 93.2826694854212 56.09326471501572 C 0.0 **** -0.24
18567 H 49.974613806026795 93.69719619729847 56.110385299490304 H 0.0 **** 0.06
18568 H 50.96508886947035 92.3076824462047 55.60672796010084 H 0.0 **** 0.06
18569 H 51.34727158712508 93.17271508490074 57.114852969468416 H 0.0 **** 0.06
18570 H 51.64264199241207 93.9533765207643 55.542782626623705 H 0.0 **** 0.06
18571 C 27.764249712147148 20.986619382873826 56.422327141263764 C 0.0 **** -0.24
18572 H 28.688327288922324 20.99637488673889 56.99897615272653 H 0.0 **** 0.06
18573 H 27.493102036020673 22.008991909004365 56.15485920237262 H 0.0 **** 0.06
18574 H 26.967067160282454 20.54338432377353 57.01993434056902 H 0.0 **** 0.06
18575 H 27.908016176295746 20.400103534133805 55.515202554515554 H 0.0 **** 0.06
18576 C 146.69126010891506 7.628374133772013 86.70235906989313 C 0.0 **** -0.24
18577 H 146.53791818977444 6.665644251068159 87.18950697963538 H 0.0 **** 0.06
18578 H 147.26368614993865 7.484256186615596 85.78540424373398 H 0.0 **** 0.06
18579 H 147.23740840260365 8.29152309765405 87.37238528395619 H 0.0 **** 0.06
18580 H 145.72463293514443 8.071155967904637 86.46103803164289 H 0.0 **** 0.06
18581 C 148.16407245377437 118.94962905525689 48.0593598647942 C 0.0 **** -0.24
18582 H 148.54622099635392 118.86945156553769 47.041725976433355 H 0.0 **** 0.06
18583 H 148.07297944037236 117.95369943724454 48.49297943667045 H 0.0 **** 0.06
18584 H 147.18503999391734 119.4297517946032 48.04235080417436 H 0.0 **** 0.06
18585 H 148.8509107399862 119.5470755625923 48.65913192210951 H 0.0 **** 0.06
18586 C 102.64492626477943 43.69913938673815 68.56333515022902 C 0.0 **** -0.24
18587 H 103.5939017842527 44.03701954695886 68.97925355440223 H 0.0 **** 0.06
18588 H 102.1402002623596 43.05540266017978 69.28384564025502 H 0.0 **** 0.06
18589 H 102.82892860686673 43.14166462411187 67.64438099954113 H 0.0 **** 0.06
18590 H 102.01662524656376 44.561838509721596 68.34459630067649 H 0.0 **** 0.06
18591 C 128.83453030140157 80.46361121677003 82.27791335811717 C 0.0 **** -0.24
18592 H 129.57450066180616 80.29884739525129 83.06166488005799 H 0.0 **** 0.06
18593 H 129.28707667837716 80.27413848384407 81.3049824741992 H 0.0 **** 0.06
18594 H 128.48352073293768 81.49483952240772 82.32215306495205 H 0.0 **** 0.06
18595 H 127.99258067243215 79.78617716139067 82.42578710409903 H 0.0 **** 0.06
18596 C 16.08938195176414 13.811279644340246 68.76201545674792 C 0.0 **** -0.24
18597 H 15.773047363281016 14.726427708744417 69.26214854524889 H 0.0 **** 0.06
18598 H 15.2164118072562 13.197755361208038 68.54132625840128 H 0.0 **** 0.06
18599 H 16.768429507992344 13.259036660596152 69.411463504317 H 0.0 **** 0.06
18600 H 16.60131276981045 14.064296945409858 67.83379310166907 H 0.0 **** 0.06
18601 C 73.56861141303997 64.6642136028785 128.2115996865383 C 0.0 **** -0.24
18602 H 72.7398000675202 64.80288103648198 127.51753502073512 H 0.0 **** 0.06
18603 H 74.42382191609701 65.25142888372238 127.87688206668071 H 0.0 **** 0.06
18604 H 73.84161639717138 63.61026238036884 128.24504691277093 H 0.0 **** 0.06
18605 H 73.26742803258435 64.99449467834896 129.20596564960874 H 0.0 **** 0.06
18606 C 5.14393399060657 143.58084737660263 146.90052118337388 C 0.0 **** -0.24
18607 H 4.7421960638095015 144.2736282611842 146.1615178447842 H 0.0 **** 0.06
18608 H 4.440329951893773 143.48650054476488 147.7294384286348 H 0.0 **** 0.06
18609 H 6.095659799772079 143.9587888130492 147.27289585926027 H 0.0 **** 0.06
18610 H 5.29508370888874 142.6053695816222 146.4396855706502 H 0.0 **** 0.06
18611 C 150.83786576299508 82.89451648442787 26.77217613713853 C 0.0 **** -0.24
18612 H 150.09538701416892 82.10969855064178 26.624928674535667 H 0.0 **** 0.06
18613 H 150.52785280694852 83.53572924750694 27.597790367032935 H 0.0 **** 0.06
18614 H 150.92470925017867 83.4878151327515 25.862666626594 H 0.0 **** 0.06
18615 H 151.80254122566618 82.44233668569544 27.004687181502618 H 0.0 **** 0.06
18616 C 102.63456822965115 150.49247157221498 107.41666996956882 C 0.0 **** -0.24
18617 H 103.29283246184143 149.73439200589573 107.84122532216777 H 0.0 **** 0.06
18618 H 101.60086802682407 150.15176005407125 107.48177947580412 H 0.0 **** 0.06
18619 H 102.89827299512326 150.65969455494243 106.37286735086802 H 0.0 **** 0.06
18620 H 102.74674200252663 151.42317790128436 107.97364705587695 H 0.0 **** 0.06
18621 C 111.49238041423496 86.4635756764726 111.65672764166216 C 0.0 **** -0.24
18622 H 111.59294052799794 87.31393092192104 112.33197302370412 H 0.0 **** 0.06
18623 H 110.49081119933703 86.45787328310712 111.22657154792542 H 0.0 **** 0.06
18624 H 111.65675129464432 85.53906481895336 112.20943871501233 H 0.0 **** 0.06
18625 H 112.23016778452438 86.54580975662827 110.85750109027377 H 0.0 **** 0.06
18626 C 72.08271145776875 73.04398988464543 54.272574634444865 C 0.0 **** -0.24
18627 H 72.68492734055552 72.57958707186245 53.49159913284868 H 0.0 **** 0.06
18628 H 71.02627274178185 72.92255845469036 54.03618666476973 H 0.0 **** 0.06
18629 H 72.32282435672886 74.10606501802324 54.33259059528592 H 0.0 **** 0.06
18630 H 72.2994304756807 72.56811773641834 55.228487918820775 H 0.0 **** 0.06
18631 C 150.48268125170557 87.01129466302231 97.0778933443047 C 0.0 **** -0.24
18632 H 149.86321352582632 87.85752591622108 96.77900856911214 H 0.0 **** 0.06
18633 H 150.10795434452677 86.10265279974556 96.6053063975126 H 0.0 **** 0.06
18634 H 150.44759206131044 86.89993223257062 98.16067899359996 H 0.0 **** 0.06
18635 H 151.5112937383593 87.186808412657 96.7634940220666 H 0.0 **** 0.06
18636 C 98.27632238786171 108.49338799941927 62.9336898533565 C 0.0 **** -0.24
18637 H 97.96851176153748 109.29868748305762 63.60044394724267 H 0.0 **** 0.06
18638 H 97.83164286394319 108.64592164024697 61.95010798514477 H 0.0 **** 0.06
18639 H 97.94243351085083 107.53827056545913 63.34043376668723 H 0.0 **** 0.06
18640 H 99.36289395761463 108.48988288623644 62.84585695748905 H 0.0 **** 0.06
18641 C 24.876664442057567 51.74934643027093 97.25713862927319 C 0.0 **** -0.24
18642 H 25.76853419890478 52.372562577046395 97.31811915296525 H 0.0 **** 0.06
18643 H 24.122117900000227 52.12724875389418 97.94808947289893 H 0.0 **** 0.06
18644 H 25.130595308449628 50.72316706233211 97.52236058036944 H 0.0 **** 0.06
18645 H 24.483769966463555 51.77605324061403 96.24076008341711 H 0.0 **** 0.06
18646 C 42.358865669199815 126.20680811019332 7.35179167022924 C 0.0 **** -0.24
18647 H 43.018002016541516 126.50729805238706 8.166839381974128 H 0.0 **** 0.06
18648 H 41.58694079105919 126.96388301256087 7.211915790099191 H 0.0 **** 0.06
18649 H 41.89237759349356 125.2523093196503 7.595097234904692 H 0.0 **** 0.06
18650 H 42.93865672731715 126.104771414698 6.435231543695025 H 0.0 **** 0.06
18651 C 70.80217618053894 66.6273079908721 132.42001793924123 C 0.0 **** -0.24
18652 H 70.97326879481983 66.64827116409211 133.49623842280027 H 0.0 **** 0.06
18653 H 70.32894904360006 67.55932567650035 132.10914365796083 H 0.0 **** 0.06
18654 H 70.15243287810131 65.7886987917023 132.17155890333652 H 0.0 **** 0.06
18655 H 71.75533149276498 66.51353600333616 131.90303865852042 H 0.0 **** 0.06
18656 C 135.78303750890606 94.890639370852 146.94919884167592 C 0.0 **** -0.24
18657 H 136.51860655668747 95.06986342517436 147.73306781676962 H 0.0 **** 0.06
18658 H 136.26618423743002 94.95973618416275 145.97459146485596 H 0.0 **** 0.06
18659 H 134.99129936571114 95.63663875964974 147.01666949864165 H 0.0 **** 0.06
18660 H 135.35580125600976 93.89476071266438 147.07404919899795 H 0.0 **** 0.06
18661 C 123.88260506857956 150.67544005652763 34.539581495675286 C 0.0 **** -0.24
18662 H 124.43063144108162 149.85679378612173 35.00736145474846 H 0.0 **** 0.06
18663 H 123.13543569496021 151.05680016233885 35.237032665346625 H 0.0 **** 0.06
18664 H 123.38838695461739 150.31384156909778 33.63882980734207 H 0.0 **** 0.06
18665 H 124.57737373969401 151.47354215765841 34.277823585275605 H 0.0 **** 0.06
18666 C 136.2145913698572 144.78181497613227 144.68787342718392 C 0.0 **** -0.24
18667 H 136.74051045681682 143.84019036906824 144.52681157641175 H 0.0 **** 0.06
18668 H 135.66232150193724 145.04754429044422 143.7862778370498 H 0.0 **** 0.06
18669 H 136.93729093886748 145.5653972610707 144.91586643678934 H 0.0 **** 0.06
18670 H 135.52114506344668 144.6720725839402 145.52137536683117 H 0.0 **** 0.06
18671 C 17.643063788596805 132.9604239469079 33.82355473091849 C 0.0 **** -0.24
18672 H 17.573744204548234 131.9835851892692 34.30248532860068 H 0.0 **** 0.06
18673 H 18.61638286224268 133.05991245381682 33.342362761488346 H 0.0 **** 0.06
18674 H 17.526833980027035 133.7415377533207 34.57517800080484 H 0.0 **** 0.06
18675 H 16.856028119977708 133.05541006380014 33.0761671940472 H 0.0 **** 0.06
18676 C 139.88749583514624 51.996050747527875 53.32301495863989 C 0.0 **** -0.24
18677 H 140.85815285004196 52.49193818523071 53.322486852982635 H 0.0 **** 0.06
18678 H 139.94092943358146 51.0916590255008 52.717269036728595 H 0.0 **** 0.06
18679 H 139.13698358533165 52.66872868738028 52.90720197003928 H 0.0 **** 0.06
18680 H 139.61444503543626 51.73480154159614 54.34551375622493 H 0.0 **** 0.06
18681 C 53.66910499492168 60.46564314057508 76.57694419052183 C 0.0 **** -0.24
18682 H 52.98326711034973 60.533586291764664 75.73204489502756 H 0.0 **** 0.06
18683 H 53.10280274840119 60.28580649218122 77.4908255943914 H 0.0 **** 0.06
18684 H 54.22346556239198 61.39918811894444 76.66938758809039 H 0.0 **** 0.06
18685 H 54.36594094658264 59.6435461444803 76.41288973548924 H 0.0 **** 0.06
18686 C 37.46948767236154 107.0176895029312 155.3501671685455 C 0.0 **** -0.24
18687 H 37.87458512711788 107.60854469003579 156.17148005668975 H 0.0 **** 0.06
18688 H 37.8108200937354 107.43369297921811 154.4014975718341 H 0.0 **** 0.06
18689 H 36.38058407140238 107.04221488091196 155.38677468262915 H 0.0 **** 0.06
18690 H 37.81378795455197 105.98717745101493 155.43953668267017 H 0.0 **** 0.06
18691 C 90.24105360015989 90.31439657480762 97.52228635313503 C 0.0 **** -0.24
18692 H 90.48124875248904 89.41831164704534 98.094323725298 H 0.0 **** 0.06
18693 H 89.15859392453136 90.41118023190997 97.43709449153755 H 0.0 **** 0.06
18694 H 90.67849272040412 90.23759870933611 96.52714326926278 H 0.0 **** 0.06
18695 H 90.64654760274729 91.18929823899796 98.03092903615654 H 0.0 **** 0.06
18696 C 61.23788937981175 95.92356505779816 50.05680210157905 C 0.0 **** -0.24
18697 H 61.525703424528785 95.36756089984227 49.16453917881361 H 0.0 **** 0.06
18698 H 62.102642919777054 96.46648328713523 50.439942837129124 H 0.0 **** 0.06
18699 H 60.87777446505129 95.23071207969966 50.81676633955716 H 0.0 **** 0.06
18700 H 60.446906697877466 96.63015906798397 49.80440758905853 H 0.0 **** 0.06
18701 C 51.56877011036222 92.91085081624803 31.39390817082269 C 0.0 **** -0.24
18702 H 52.14954990624129 92.60796638923938 30.52268861036903 H 0.0 **** 0.06
18703 H 50.61586875638959 93.32875615194368 31.067016969763756 H 0.0 **** 0.06
18704 H 52.121907350911215 93.66316751625016 31.955638913187002 H 0.0 **** 0.06
18705 H 51.38625016397479 92.04362759803892 32.02835834538151 H 0.0 **** 0.06
18706 C 22.67162933896975 101.09401653767524 6.6548793513310045 C 0.0 **** -0.24
18707 H 23.15442442523255 102.068326906844 6.581511313560185 H 0.0 **** 0.06
18708 H 23.363953373256493 100.37785652396995 7.0974072430991555 H 0.0 **** 0.06
18709 H 22.38501198203653 100.75595046322447 5.659079426866782 H 0.0 **** 0.06
18710 H 21.783048881303728 101.17591470085334 7.28126673132374 H 0.0 **** 0.06
18711 C 136.8924616484494 104.39024652219108 154.65955340997002 C 0.0 **** -0.24
18712 H 136.12408578344503 103.7269864540058 154.26008333431545 H 0.0 **** 0.06
18713 H 137.5199382372556 103.83815772942928 155.3601151888105 H 0.0 **** 0.06
18714 H 136.41901221756845 105.22528523445918 155.17459866171794 H 0.0 **** 0.06
18715 H 137.5059854721046 104.76771699836571 153.8416119556593 H 0.0 **** 0.06
18716 C 39.38202079861861 10.912646036882848 38.898059150517895 C 0.0 **** -0.24
18717 H 40.015896124832864 11.747147354874926 38.59570448925314 H 0.0 **** 0.06
18718 H 38.90157542535246 11.147785987849261 39.84869113700739 H 0.0 **** 0.06
18719 H 39.990939644884975 10.015874779016968 39.009215778195426 H 0.0 **** 0.06
18720 H 38.619802326141325 10.743123910161216 38.13695932220685 H 0.0 **** 0.06
18721 C 39.34752848931868 105.55615260134051 27.283960718399328 C 0.0 **** -0.24
18722 H 38.84126952746237 104.70453505716254 26.83030769170881 H 0.0 **** 0.06
18723 H 40.4228149735643 105.4655303320949 27.125504731805734 H 0.0 **** 0.06
18724 H 39.137823305995596 105.57557619487822 28.353276911593866 H 0.0 **** 0.06
18725 H 38.98941794867545 106.4774747168277 26.82561364403091 H 0.0 **** 0.06
18726 C 60.66705898738775 87.3435913464778 46.54964900750332 C 0.0 **** -0.24
18727 H 60.50078969286557 88.38359370071692 46.830608610930426 H 0.0 **** 0.06
18728 H 60.09056753663458 86.6930107964079 47.207802673205435 H 0.0 **** 0.06
18729 H 61.726331346452014 87.10706232530698 46.64210825310272 H 0.0 **** 0.06
18730 H 60.34831377149317 87.19072229303136 45.51817955242012 H 0.0 **** 0.06
18731 C 5.298324578137908 90.22229643061702 112.87531143524463 C 0.0 **** -0.24
18732 H 6.060646111809859 89.57305394791007 113.30642483360468 H 0.0 **** 0.06
18733 H 5.564618325734614 90.46042322679273 111.84577419819512 H 0.0 **** 0.06
18734 H 5.233623214333363 91.14209949220825 113.45656588191592 H 0.0 **** 0.06
18735 H 4.334731441422008 89.71276611590503 112.89291278212626 H 0.0 **** 0.06
18736 C 47.92805570436418 63.76333606930673 33.95937249308924 C 0.0 **** -0.24
18737 H 46.90377976973528 64.12343311057117 34.05390603285022 H 0.0 **** 0.06
18738 H 48.61824650333658 64.5433632275981 34.2792004650464 H 0.0 **** 0.06
18739 H 48.127869265585076 63.50429734769128 32.92014772571498 H 0.0 **** 0.06
18740 H 48.06075843227916 62.88095880136173 34.58560329928438 H 0.0 **** 0.06
18741 C 10.234463122565614 123.48450170912793 29.985574847822342 C 0.0 **** -0.24
18742 H 9.877694237935515 122.76720161532825 30.72498084131491 H 0.0 **** 0.06
18743 H 9.64378850363881 124.3984117042495 30.051602864498413 H 0.0 **** 0.06
18744 H 10.134269585067607 123.05730785893195 28.988059272423264 H 0.0 **** 0.06
18745 H 11.282236675037026 123.71439692008329 30.178884040769915 H 0.0 **** 0.06
18746 C 81.44854583063436 47.168817224179676 50.78524507026329 C 0.0 **** -0.24
18747 H 82.50063730901108 47.399623722847224 50.950761035771094 H 0.0 **** 0.06
18748 H 81.36350163347234 46.212658864594786 50.269179825374565 H 0.0 **** 0.06
18749 H 80.99637546863829 47.95276776717918 50.176916036409025 H 0.0 **** 0.06
18750 H 80.93307428272625 47.111000177044545 51.74431178753474 H 0.0 **** 0.06
18751 C 54.8466944463748 23.827285952603944 5.638228052460825 C 0.0 **** -0.24
18752 H 55.27167031321554 24.077900026254355 4.666873981099066 H 0.0 **** 0.06
18753 H 55.22431650669735 22.856806537914174 5.960302513093261 H 0.0 **** 0.06
18754 H 53.7606212942562 23.787958268864386 5.559735471411663 H 0.0 **** 0.06
18755 H 55.13167662318904 24.5873295415566 6.366075969598803 H 0.0 **** 0.06
18756 C 76.78963658158841 98.64148463066692 82.74922655425969 C 0.0 **** -0.24
18757 H 75.97923751196123 98.12787261731837 82.23126831050357 H 0.0 **** 0.06
18758 H 77.73459622181588 98.42486393126177 82.24960222797053 H 0.0 **** 0.06
18759 H 76.83681434463747 98.29480090851199 83.78223641521693 H 0.0 **** 0.06
18760 H 76.60832931431952 99.71544776623226 82.73349512898548 H 0.0 **** 0.06
18761 C 8.137746629883615 127.05194870243122 6.209692546098722 C 0.0 **** -0.24
18762 H 7.932685712227276 126.00222873550774 6.416785861755756 H 0.0 **** 0.06
18763 H 9.209921190993192 127.19126727854348 6.066543113294927 H 0.0 **** 0.06
18764 H 7.800837051333765 127.66108018583344 7.048650502470508 H 0.0 **** 0.06
18765 H 7.60817834173303 127.35395066488712 5.305761168905434 H 0.0 **** 0.06
18766 C 132.43090643212278 8.477210101430217 126.66133845358486 C 0.0 **** -0.24
18767 H 132.31554290383357 8.893705774117905 125.66009157087414 H 0.0 **** 0.06
18768 H 131.7002523787122 7.6811751076654105 126.80911076175936 H 0.0 **** 0.06
18769 H 132.270840533499 9.26093985009885 127.40116967147794 H 0.0 **** 0.06
18770 H 133.437105637485 8.07239163975305 126.77143320429776 H 0.0 **** 0.06
18771 C 85.07952730845676 90.19082565622193 15.639010712552874 C 0.0 **** -0.24
18772 H 85.17006516748285 89.1461607562614 15.934198393395206 H 0.0 **** 0.06
18773 H 84.50445066877819 90.73235571300927 16.39145326412236 H 0.0 **** 0.06
18774 H 84.5699373291454 90.2538249411599 14.677359619581239 H 0.0 **** 0.06
18775 H 86.07223430650203 90.6316770915895 15.553714369295676 H 0.0 **** 0.06
18776 C 98.09670814779219 4.549895830292542 49.70305412240384 C 0.0 **** -0.24
18777 H 98.34176014564142 4.832209163867219 50.726197964384255 H 0.0 **** 0.06
18778 H 98.98266260007986 4.653380501050037 49.075696697769274 H 0.0 **** 0.06
18779 H 97.30685238042716 5.1993449170956865 49.32611857144116 H 0.0 **** 0.06
18780 H 97.75628067010882 3.5145578443541012 49.68263201123267 H 0.0 **** 0.06
18781 C 107.927780327484 99.95648324007732 143.85371378276614 C 0.0 **** -0.24
18782 H 108.3882060438295 100.75409464625818 143.27115317850453 H 0.0 **** 0.06
18783 H 108.39034277025577 99.00368936009625 143.59296191946487 H 0.0 **** 0.06
18784 H 106.8608376776791 99.91507737191961 143.63234838546444 H 0.0 **** 0.06
18785 H 108.07113744709001 100.15155673814985 144.91607893143748 H 0.0 **** 0.06
18786 C 69.66378544670056 98.7124795474177 23.69100209889055 C 0.0 **** -0.24
18787 H 69.19355248159604 97.99095191479446 23.021811130869594 H 0.0 **** 0.06
18788 H 69.1527548765057 99.67186696834369 23.60756818410661 H 0.0 **** 0.06
18789 H 70.71188843412278 98.83315217861511 23.416078594599924 H 0.0 **** 0.06
18790 H 69.59734625591545 98.3518088234189 24.717424590772737 H 0.0 **** 0.06
18791 C 48.19368710062143 98.03788177405839 144.67339295008082 C 0.0 **** -0.24
18792 H 47.42135070586711 98.60318598360166 144.151638868635 H 0.0 **** 0.06
18793 H 49.1748506866454 98.34499242499115 144.3117387968673 H 0.0 **** 0.06
18794 H 48.05356786312983 96.97301509006871 144.48666794720782 H 0.0 **** 0.06
18795 H 48.123597481225616 98.23206169206004 145.74384999667586 H 0.0 **** 0.06
18796 C 38.11131273159705 16.67782352275939 92.41328270565651 C 0.0 **** -0.24
18797 H 37.876491028994906 17.71482674173391 92.65213359106178 H 0.0 **** 0.06
18798 H 39.00184962201239 16.6429907841324 91.78495840293249 H 0.0 **** 0.06
18799 H 37.27260646539101 16.22812265607338 91.88174568580308 H 0.0 **** 0.06
18800 H 38.2950097303208 16.125930042188358 93.33537472141938 H 0.0 **** 0.06
18801 C 59.972825493016586 83.1203912792642 69.17466871407359 C 0.0 **** -0.24
18802 H 59.15725629543522 83.72187937049853 68.77385377601043 H 0.0 **** 0.06
18803 H 59.757511046813136 82.06313989290516 69.01613826127723 H 0.0 **** 0.06
18804 H 60.076457043564346 83.31437985235016 70.24240586201762 H 0.0 **** 0.06
18805 H 60.901051783011496 83.38238816114892 68.66631718420665 H 0.0 **** 0.06
18806 C 62.05611349265298 29.194241392859297 82.19069179289238 C 0.0 **** -0.24
18807 H 61.041439661157256 29.030721780815114 82.5545420949552 H 0.0 **** 0.06
18808 H 62.767604178466726 28.95759563586381 82.9828057440518 H 0.0 **** 0.06
18809 H 62.17314104789615 30.237707494630826 81.89689808877557 H 0.0 **** 0.06
18810 H 62.2425444316479 28.551876840829323 81.33076800682818 H 0.0 **** 0.06
18811 C 149.24656934049574 134.30903216365755 86.44937387306761 C 0.0 **** -0.24
18812 H 149.7009538946171 133.57190517084535 85.78828605436686 H 0.0 **** 0.06
18813 H 148.16992091391649 134.33605115240306 86.27883988950289 H 0.0 **** 0.06
18814 H 149.67285368760713 135.29147161101815 86.24570240222039 H 0.0 **** 0.06
18815 H 149.4442105565679 134.036272811498 87.48691568755929 H 0.0 **** 0.06
18816 C 133.57895769374846 81.73684477085814 42.948647384566186 C 0.0 **** -0.24
18817 H 133.22246070753982 82.3934906731516 42.155777477012876 H 0.0 **** 0.06
18818 H 134.52174251100905 81.28025159503963 42.645939342240766 H 0.0 **** 0.06
18819 H 132.84070920195978 80.95725214649234 43.13373693233413 H 0.0 **** 0.06
18820 H 133.73091835448525 82.31638466874884 43.85913578667707 H 0.0 **** 0.06
18821 C 128.6001611351209 146.17503373158445 17.9629391457226 C 0.0 **** -0.24
18822 H 127.95440954117144 145.4096344071939 17.53019269657341 H 0.0 **** 0.06
18823 H 128.23783553301922 146.4340507468202 18.958100959172157 H 0.0 **** 0.06
18824 H 128.58789430069686 147.06103374356232 17.328265867666005 H 0.0 **** 0.06
18825 H 129.6185525507895 145.79186054076038 18.03445790196122 H 0.0 **** 0.06
18826 C 35.824613698793655 21.8252228644605 92.23861506950344 C 0.0 **** -0.24
18827 H 36.76632277765282 22.199960894014026 91.83821642622611 H 0.0 **** 0.06
18828 H 35.621282023823255 22.304176538666212 93.19689441786672 H 0.0 **** 0.06
18829 H 35.89329018739102 20.74604666550252 92.37878985815169 H 0.0 **** 0.06
18830 H 35.01803033289457 22.05043100806239 91.54139758953733 H 0.0 **** 0.06
18831 C 116.10731927000597 144.24896699993826 115.58677217191142 C 0.0 **** -0.24
18832 H 115.89142148369751 143.59045590573533 116.42842707326953 H 0.0 **** 0.06
18833 H 115.97822679405601 145.28665434434166 115.89476533103014 H 0.0 **** 0.06
18834 H 115.42624781059169 144.02537035562318 114.76591721250172 H 0.0 **** 0.06
18835 H 117.13599632230222 144.09250429189956 115.25859586636547 H 0.0 **** 0.06
18836 C 141.01850763683217 44.04467950283001 133.84593814602908 C 0.0 **** -0.24
18837 H 140.73807157434646 43.005747879134944 133.67322636563003 H 0.0 **** 0.06
18838 H 142.09723358204366 44.10916572951916 133.98964807759285 H 0.0 **** 0.06
18839 H 140.50989549240018 44.41411747012697 134.73721643757017 H 0.0 **** 0.06
18840 H 140.72922184857862 44.6474576699961 132.98563072760663 H 0.0 **** 0.06
18841 C 31.677913626029323 89.12555363285855 83.56347367160298 C 0.0 **** -0.24
18842 H 31.359595914222197 88.08397754216797 83.61906856013589 H 0.0 **** 0.06
18843 H 31.589113648908125 89.5854237580359 84.54793886513406 H 0.0 **** 0.06
18844 H 31.04593608500761 89.65957601535872 82.85354256989194 H 0.0 **** 0.06
18845 H 32.714881325742226 89.17052429275651 83.23189069023293 H 0.0 **** 0.06
18846 C 146.52482922653925 49.19994257183622 20.76777271328251 C 0.0 **** -0.24
18847 H 146.63742633488593 50.27201912125621 20.607655817956953 H 0.0 **** 0.06
18848 H 145.5055322312145 48.98608005375951 21.090624315280024 H 0.0 **** 0.06
18849 H 147.22533963244373 48.87313100518584 21.536344145298585 H 0.0 **** 0.06
18850 H 146.73126497945515 48.67022285636365 19.838938011057138 H 0.0 **** 0.06
18851 C 87.67117137920661 16.943941760093367 63.554245041508 C 0.0 **** -0.24
18852 H 87.3826863292295 16.379980759117984 64.44053675061411 H 0.0 **** 0.06
18853 H 86.84465856180827 17.58521369976762 63.246538097247324 H 0.0 **** 0.06
18854 H 87.91444478341299 16.252460143219537 62.74783021020359 H 0.0 **** 0.06
18855 H 88.54306806262912 17.557141412561407 63.78190933158088 H 0.0 **** 0.06
18856 C 30.15640030812333 95.32004627950494 100.26257317553457 C 0.0 **** -0.24
18857 H 30.055098503636692 95.4588912246216 99.18537135817293 H 0.0 **** 0.06
18858 H 31.173580268459453 94.99994395297631 100.49265829809438 H 0.0 **** 0.06
18859 H 29.450681212290604 94.5605581500501 100.59882903711191 H 0.0 **** 0.06
18860 H 29.947284479981363 96.26120774843247 100.77015696180455 H 0.0 **** 0.06
18861 C 24.936241385831977 80.69373213541326 154.3330125489946 C 0.0 **** -0.24
18862 H 24.651931332139384 80.4093213058191 155.34709785564792 H 0.0 **** 0.06
18863 H 25.636985231337064 81.5275380755221 154.37427250788048 H 0.0 **** 0.06
18864 H 24.04680778484021 80.99255038464776 153.7775773861286 H 0.0 **** 0.06
18865 H 25.406751467405286 79.84548520630014 153.83638888556294 H 0.0 **** 0.06
18866 C 7.23173614490122 117.93493163816838 134.94719214191636 C 0.0 **** -0.24
18867 H 6.613043737681721 117.43319062487204 135.6907856537543 H 0.0 **** 0.06
18868 H 6.739957430691732 117.89050977389515 133.97477653739617 H 0.0 **** 0.06
18869 H 8.201192112611238 117.44041476240331 134.88712672770606 H 0.0 **** 0.06
18870 H 7.372608689475896 118.9770019631254 135.23586508344755 H 0.0 **** 0.06
18871 C 130.87715029122612 121.12879718010852 96.37937205804639 C 0.0 **** -0.24
18872 H 131.3837349382922 121.348059691872 97.31935643183834 H 0.0 **** 0.06
18873 H 130.28118106626022 120.22237474491065 96.49117438937026 H 0.0 **** 0.06
18874 H 131.61815564799625 120.9823220059114 95.59353953465614 H 0.0 **** 0.06
18875 H 130.22637228602102 121.96190759354691 96.11483722007608 H 0.0 **** 0.06
18876 C 37.320891207360546 128.26715992352962 44.72944074706359 C 0.0 **** -0.24
18877 H 38.41041465237117 128.30423700144593 44.754870179746376 H 0.0 **** 0.06
18878 H 37.00173023046244 127.44322289874903 44.091270928243034 H 0.0 **** 0.06
18879 H 36.93509654546938 129.20624390057867 44.33190778614659 H 0.0 **** 0.06
18880 H 36.93976078969973 128.11570623358148 45.73894509545187 H 0.0 **** 0.06
18881 C 156.72657402348028 38.77760934567078 108.56920153977113 C 0.0 **** -0.24
18882 H 156.51378472801997 38.894920293821684 109.63203433293832 H 0.0 **** 0.06
18883 H 157.46984926354918 37.99237011749101 108.43228940232983 H 0.0 **** 0.06
18884 H 157.11003823151668 39.7157405664602 108.16926573035944 H 0.0 **** 0.06
18885 H 155.81062699842005 38.50670367590868 108.04393699565391 H 0.0 **** 0.06
18886 C 129.53682365658798 114.04945908894507 20.825492057646116 C 0.0 **** -0.24
18887 H 129.39646945846758 113.04001285657853 20.4391105494838 H 0.0 **** 0.06
18888 H 130.5723653752633 114.17478099686878 21.14410073128058 H 0.0 **** 0.06
18889 H 128.87376872643847 114.20822921714921 21.676020647306395 H 0.0 **** 0.06
18890 H 129.30657943269887 114.77322493758635 20.04444261923563 H 0.0 **** 0.06
18891 C 155.92052048726237 45.214037128723064 112.10895820358915 C 0.0 **** -0.24
18892 H 156.3502504914374 45.85278436731713 111.33734317117192 H 0.0 **** 0.06
18893 H 156.69746826290552 44.56715869242528 112.5173662587283 H 0.0 **** 0.06
18894 H 155.129442430182 44.60307892168406 111.6758148071465 H 0.0 **** 0.06
18895 H 155.50808193565297 45.83313959203588 112.90522400741354 H 0.0 **** 0.06
18896 C 90.3945029010623 156.41452347304573 20.061997297752384 C 0.0 **** -0.24
18897 H 89.8622584374422 155.46280258792575 20.064622204480372 H 0.0 **** 0.06
18898 H 89.6772078419505 157.23086333253187 19.97570876010701 H 0.0 **** 0.06
18899 H 91.0815959083703 156.44398761262406 19.217090383629852 H 0.0 **** 0.06
18900 H 90.95524017066306 156.52029676076847 20.990808583075136 H 0.0 **** 0.06
18901 C 59.14220884380525 52.10446834233187 108.91867963587178 C 0.0 **** -0.24
18902 H 59.0381545907498 51.25527593048517 108.2433481404387 H 0.0 **** 0.06
18903 H 58.21646016139741 52.238147634609675 109.47860097352346 H 0.0 **** 0.06
18904 H 59.35231954437795 53.004474823488366 108.34027967212866 H 0.0 **** 0.06
18905 H 59.96293500082315 51.91858539783178 109.6124770289572 H 0.0 **** 0.06
18906 C 112.32554185371863 91.81603121002951 80.66757750137295 C 0.0 **** -0.24
18907 H 112.32990743638258 90.99733017001077 81.388245434817 H 0.0 **** 0.06
18908 H 111.71968568325183 92.63582763318627 81.05377926487253 H 0.0 **** 0.06
18909 H 111.90674237542326 91.4671449343738 79.72413168655828 H 0.0 **** 0.06
18910 H 113.34677200625809 92.16268832031685 80.5074446978638 H 0.0 **** 0.06
18911 C 141.08053634274566 56.329562470901976 4.9093857305508095 C 0.0 **** -0.24
18912 H 141.56441999154532 57.298722176634044 4.779451817710111 H 0.0 **** 0.06
18913 H 140.81904841871503 55.9205317795323 3.9335288628954572 H 0.0 **** 0.06
18914 H 140.1772889414686 56.45233058170396 5.506605771880999 H 0.0 **** 0.06
18915 H 141.76333100679486 55.648701718377694 5.41767674434584 H 0.0 **** 0.06
18916 C 11.044169654577054 103.3838492715605 42.725140116326415 C 0.0 **** -0.24
18917 H 10.389481500438144 104.23068817009027 42.51732770317224 H 0.0 **** 0.06
18918 H 11.40382449891215 103.44676248696027 43.752232125557086 H 0.0 **** 0.06
18919 H 11.892528662386319 103.40379746066708 42.04104821140615 H 0.0 **** 0.06
18920 H 10.489838067192771 102.45514290901934 42.58993415090136 H 0.0 **** 0.06
18921 C 114.35254660524889 0.7431658718485039 99.04675283759343 C 0.0 **** -0.24
18922 H 114.25820659427986 0.5406593285817962 100.11369741867907 H 0.0 **** 0.06
18923 H 115.35362990799295 1.118743166430562 98.83613571811884 H 0.0 **** 0.06
18924 H 113.61405814306566 1.4884920096694145 98.75317767390626 H 0.0 **** 0.06
18925 H 114.18344303965519 -0.1765854479832285 98.48653933025474 H 0.0 **** 0.06
18926 C 36.27317849503733 8.47668874324026 143.71639143495094 C 0.0 **** -0.24
18927 H 35.68946368637749 7.5873258422293475 143.47984269022612 H 0.0 **** 0.06
18928 H 36.34720108731136 8.58528717451469 144.79838991188694 H 0.0 **** 0.06
18929 H 35.78419100263022 9.355128883890956 143.29510432691507 H 0.0 **** 0.06
18930 H 37.27270619701021 8.37871058002628 143.29179356541374 H 0.0 **** 0.06
18931 C 29.965187770380055 100.5477452813936 94.0576793883171 C 0.0 **** -0.24
18932 H 31.029836694665107 100.38197146592272 94.22589775453986 H 0.0 **** 0.06
18933 H 29.40408409487327 100.2146478432531 94.93065614966918 H 0.0 **** 0.06
18934 H 29.644471496041547 99.98350781611565 93.18184502501623 H 0.0 **** 0.06
18935 H 29.784211402143796 101.60929426317993 93.8919508391586 H 0.0 **** 0.06
18936 C 135.11622543087785 68.22678565355024 30.81071924402613 C 0.0 **** -0.24
18937 H 135.28517954569972 69.2779062530692 30.57451022858021 H 0.0 **** 0.06
18938 H 134.91392444983157 67.67720988252636 29.891071226643476 H 0.0 **** 0.06
18939 H 134.2623494683799 68.1394850391453 31.482859205144337 H 0.0 **** 0.06
18940 H 136.00203561461825 67.81564454985079 31.2932634716704 H 0.0 **** 0.06
18941 C 125.60125913175584 35.88413496207812 60.04397436034452 C 0.0 **** -0.24
18942 H 126.38587116798352 35.973799188986675 59.29225169144712 H 0.0 **** 0.06
18943 H 124.77546207091812 35.299458971463196 59.6385722481987 H 0.0 **** 0.06
18944 H 125.2438155537631 36.877485224434 60.31521044784657 H 0.0 **** 0.06
18945 H 126.00061959696735 35.38741721853228 60.92706343104288 H 0.0 **** 0.06
18946 C 57.16950771829522 111.79630792115114 130.51965154230376 C 0.0 **** -0.24
18947 H 57.49101048618695 111.67378740074219 131.55356562916947 H 0.0 **** 0.06
18948 H 58.00247699314531 112.16743930254023 129.92154419805752 H 0.0 **** 0.06
18949 H 56.345442159283266 112.50834111959904 130.47731547975945 H 0.0 **** 0.06
18950 H 56.83847730954943 110.83488829696978 130.12608468823137 H 0.0 **** 0.06
18951 C 62.32997033075026 79.19451870612076 77.67908399798029 C 0.0 **** -0.24
18952 H 61.95073860938061 79.37685148879882 76.6740045478433 H 0.0 **** 0.06
18953 H 61.63045272912211 78.55920855991599 78.22150706511314 H 0.0 **** 0.06
18954 H 62.43973074798731 80.14421687201684 78.20280312171381 H 0.0 **** 0.06
18955 H 63.29951663321333 78.69930185416854 77.6173673920447 H 0.0 **** 0.06
18956 C 155.98458743116367 84.78674668759591 75.54675775541446 C 0.0 **** -0.24
18957 H 156.52205095087334 84.95089229723129 76.48115428853288 H 0.0 **** 0.06
18958 H 156.69875815797923 84.58869229039949 74.74729649331937 H 0.0 **** 0.06
18959 H 155.40271421393751 85.6750344193626 75.30242169451788 H 0.0 **** 0.06
18960 H 155.31621019866847 83.93367922461854 75.65769650454976 H 0.0 **** 0.06
18961 C 49.689798628115184 97.25227747215735 32.3271762749539 C 0.0 **** -0.24
18962 H 49.81220568445063 96.63466882064455 31.43659175633394 H 0.0 **** 0.06
18963 H 48.6894297922541 97.68646065893145 32.3330806982072 H 0.0 **** 0.06
18964 H 50.4334237720489 98.04829754646397 32.32140473067068 H 0.0 **** 0.06
18965 H 49.82357815146932 96.63603786177666 33.21699226475829 H 0.0 **** 0.06
18966 C 72.85792172983065 47.95002815491641 143.68004966740122 C 0.0 **** -0.24
18967 H 73.41005950880002 47.04332529128136 143.4340040583597 H 0.0 **** 0.06
18968 H 71.9895768767752 47.691905660734676 144.28750313525396 H 0.0 **** 0.06
18969 H 72.52804877229852 48.43537872795426 142.76171513589503 H 0.0 **** 0.06
18970 H 73.50348285017684 48.62848646055947 144.23889927119396 H 0.0 **** 0.06
18971 C 88.30407302783772 93.30423394986235 98.23924558583141 C 0.0 **** -0.24
18972 H 88.55556315496035 92.66698204218567 99.08767025996274 H 0.0 **** 0.06
18973 H 87.28686344382663 93.67958124154647 98.35642401348497 H 0.0 **** 0.06
18974 H 88.37567778549413 92.72735500988733 97.3177624964386 H 0.0 **** 0.06
18975 H 88.99818295857533 94.1430406123602 98.19873110620078 H 0.0 **** 0.06
18976 C 149.08267435114658 16.53581001880923 31.462983068643197 C 0.0 **** -0.24
18977 H 148.38291136817125 16.05920712430418 30.777340974462355 H 0.0 **** 0.06
18978 H 149.82644972647063 17.093561434041135 30.892355099117722 H 0.0 **** 0.06
18979 H 149.58095718559485 15.773386916389086 32.062911352678775 H 0.0 **** 0.06
18980 H 148.54144295159458 17.217665799715007 32.11859646368478 H 0.0 **** 0.06
18981 C 112.77841788845829 101.34204179795468 26.197909948324735 C 0.0 **** -0.24
18982 H 112.7109282311783 101.87131284702299 25.24717234543448 H 0.0 **** 0.06
18983 H 111.8390728922757 100.82565510488898 26.393688925934782 H 0.0 **** 0.06
18984 H 112.97525000173958 102.05529995241342 26.997461417427957 H 0.0 **** 0.06
18985 H 113.59043882225448 100.61538043595304 26.15202983001967 H 0.0 **** 0.06
18986 C 18.790996003866667 131.26922873157605 82.78667827833685 C 0.0 **** -0.24
18987 H 17.724378226214753 131.4136066859648 82.6188267133437 H 0.0 **** 0.06
18988 H 19.3294251605208 131.42173107976768 81.85167200816508 H 0.0 **** 0.06
18989 H 18.96774553275 130.25567684525777 83.14685442109175 H 0.0 **** 0.06
18990 H 19.141710045867967 131.98483334364457 83.52993957310156 H 0.0 **** 0.06
18991 C 117.18262942199505 36.93771780244239 112.31030036060372 C 0.0 **** -0.24
18992 H 118.01813185784738 37.54314582037409 112.66076326025126 H 0.0 **** 0.06
18993 H 117.56338338161027 36.06652908137022 111.7776942306665 H 0.0 **** 0.06
18994 H 116.55980320878831 37.53049752556231 111.63929482698308 H 0.0 **** 0.06
18995 H 116.58827504646325 36.61135940654236 113.1642914473278 H 0.0 **** 0.06
18996 C 94.9569358610499 120.34096385319708 26.87498517218082 C 0.0 **** -0.24
18997 H 95.49330605205147 119.79079780709537 26.101860983703652 H 0.0 **** 0.06
18998 H 94.32779191858967 119.653017855999 27.440956830856827 H 0.0 **** 0.06
18999 H 94.33385295933107 121.10559023610392 26.411251565718764 H 0.0 **** 0.06
19000 H 95.67323332084655 120.81501454553927 27.547090526849445 H 0.0 **** 0.06
19001 C 52.12436109193848 99.98498898131821 12.998485638042098 C 0.0 **** -0.24
19002 H 51.93685669859528 99.02631909431182 12.513649728319535 H 0.0 **** 0.06
19003 H 52.83807045216389 99.84771806472354 13.810852745749003 H 0.0 **** 0.06
19004 H 51.189518736171294 100.37855776566234 13.397904041932009 H 0.0 **** 0.06
19005 H 52.532080635866436 100.68584542827055 12.269844647235288 H 0.0 **** 0.06
19006 C 11.480205044150466 35.863892297772836 57.701734793630735 C 0.0 **** -0.24
19007 H 12.459446607695668 36.02522558159667 57.25177237270134 H 0.0 **** 0.06
19008 H 11.600157557869949 35.642116398440365 58.7628245923721 H 0.0 **** 0.06
19009 H 10.987190863658611 35.026389267383706 57.20831979844786 H 0.0 **** 0.06
19010 H 10.874288149728756 36.76265331342462 57.584538196303285 H 0.0 **** 0.06
19011 C 22.53111955697817 112.00174541777277 148.23950027749876 C 0.0 **** -0.24
19012 H 22.055040636134066 112.07018690010524 149.21772688770423 H 0.0 **** 0.06
19013 H 23.423410558797983 111.37917771551501 148.31273229860554 H 0.0 **** 0.06
19014 H 22.811374073893 113.00031625659615 147.90118471014154 H 0.0 **** 0.06
19015 H 21.83614202856654 111.55884624709698 147.5275380849072 H 0.0 **** 0.06
19016 C 32.26537716923508 7.8261949421434736 2.4675344906228815 C 0.0 **** -0.24
19017 H 32.95472646687625 8.656236151381137 2.622136582827636 H 0.0 **** 0.06
19018 H 32.831435138278266 6.919438068267141 2.2527251792543552 H 0.0 **** 0.06
19019 H 31.606671085152584 8.052195711711278 1.628941251036764 H 0.0 **** 0.06
19020 H 31.668149600592812 7.677796461902915 3.3680487009874867 H 0.0 **** 0.06
19021 C 13.372322071292558 152.8062230301638 14.009504260020776 C 0.0 **** -0.24
19022 H 12.65180583460537 153.60548267824868 13.834961860654118 H 0.0 **** 0.06
19023 H 13.224757370024463 152.01737676822395 13.272042465370873 H 0.0 **** 0.06
19024 H 13.228180615412072 152.40037289083037 15.010352673334125 H 0.0 **** 0.06
19025 H 14.3834265402337 153.20331277143046 13.920525859723085 H 0.0 **** 0.06
19026 C 99.32240462115459 48.028156364626426 70.17205752704137 C 0.0 **** -0.24
19027 H 98.98962302493112 48.39944249992503 69.20249179744923 H 0.0 **** 0.06
19028 H 100.28294722138912 48.47792546520854 70.42189410556068 H 0.0 **** 0.06
19029 H 99.42866094547412 46.94417860136343 70.12858942215558 H 0.0 **** 0.06
19030 H 98.58752780130095 48.29100169558241 70.93296229301507 H 0.0 **** 0.06
19031 C 57.8035239555669 21.567250348902206 111.88470958900359 C 0.0 **** -0.24
19032 H 57.80606625411235 20.63768678877426 112.4529865995255 H 0.0 **** 0.06
19033 H 58.785741365301675 21.72034372497427 111.43599019338035 H 0.0 **** 0.06
19034 H 57.574602330368464 22.39878629228494 112.55109876200675 H 0.0 **** 0.06
19035 H 57.04938440509045 21.511171423161386 111.09980618193038 H 0.0 **** 0.06
19036 C 12.36630599198108 111.9486968717663 153.21285377464005 C 0.0 **** -0.24
19037 H 12.23627037527902 111.43841773099284 154.166869805121 H 0.0 **** 0.06
19038 H 12.810060531636637 111.2621074063219 152.49081739312066 H 0.0 **** 0.06
19039 H 13.022159363882487 112.80947492595432 153.3470931117414 H 0.0 **** 0.06
19040 H 11.396542183535082 112.28526209235297 152.8453164269407 H 0.0 **** 0.06
19041 C 109.34018415569192 135.51119553688252 52.303547579602466 C 0.0 **** -0.24
19042 H 109.40340069788896 135.34603046834988 51.22860860616139 H 0.0 **** 0.06
19043 H 110.27207286891782 135.1967351452676 52.774093835886035 H 0.0 **** 0.06
19044 H 108.51300979528118 134.93003535485204 52.71206577474581 H 0.0 **** 0.06
19045 H 109.17286246041674 136.5698404257792 52.49963707560917 H 0.0 **** 0.06
19046 C 128.5777950515007 57.60291583793797 114.57926702321537 C 0.0 **** -0.24
19047 H 128.58250032481527 58.381317559217564 113.81680898187123 H 0.0 **** 0.06
19048 H 128.1000744431925 56.70789575245783 114.18154008510304 H 0.0 **** 0.06
19049 H 128.0251406989214 57.953137662887755 115.45191274714047 H 0.0 **** 0.06
19050 H 129.60237363561606 57.370944253374645 114.86827143015712 H 0.0 **** 0.06
19051 C 89.80463035109867 96.43961369987663 125.99621386754649 C 0.0 **** -0.24
19052 H 90.34435584693864 97.32213933022975 125.65256058751794 H 0.0 **** 0.06
19053 H 88.73201628755439 96.62329144306696 125.93145092160705 H 0.0 **** 0.06
19054 H 90.0758501080097 96.22778789090415 127.03035618559079 H 0.0 **** 0.06
19055 H 90.06546590942946 95.58684402859545 125.36917608486215 H 0.0 **** 0.06
19056 C 81.80451114323046 17.695135755602678 107.24632119833693 C 0.0 **** -0.24
19057 H 80.98438937331053 18.288611508671693 107.64933168916956 H 0.0 **** 0.06
19058 H 82.07153519627212 16.91367541409815 107.95815655851978 H 0.0 **** 0.06
19059 H 82.667649298105 18.33863835957675 107.07184013242433 H 0.0 **** 0.06
19060 H 81.49493420483094 17.240379974553946 106.3048590382728 H 0.0 **** 0.06
19061 C 70.66041451502814 21.36673411868847 133.6611931770783 C 0.0 **** -0.24
19062 H 69.61265221268393 21.208420831280307 133.9178227783376 H 0.0 **** 0.06
19063 H 70.75439209620579 21.495412268708577 132.58298456405396 H 0.0 **** 0.06
19064 H 71.24459217272043 20.502774917167812 133.97604487504856 H 0.0 **** 0.06
19065 H 71.0271264512928 22.259057030681788 134.16787535181697 H 0.0 **** 0.06
19066 C 106.29284363113038 29.98299703043267 108.93073039291339 C 0.0 **** -0.24
19067 H 106.39315053108652 30.60957614027319 108.04518379593198 H 0.0 **** 0.06
19068 H 105.35438978166354 29.430492043229606 108.88093788855302 H 0.0 **** 0.06
19069 H 106.29886242809783 30.610351217377115 109.82241542088646 H 0.0 **** 0.06
19070 H 107.12540126938052 29.28144817011895 108.9752794758342 H 0.0 **** 0.06
19071 C 15.111793261948002 25.957896917954187 17.117413034990967 C 0.0 **** -0.24
19072 H 14.640533820254525 26.934680222305005 17.016247173889298 H 0.0 **** 0.06
19073 H 14.576071101654556 25.23048633580118 16.507162842919755 H 0.0 **** 0.06
19074 H 15.082839564709033 25.646323499841884 18.162398881070352 H 0.0 **** 0.06
19075 H 16.14878280498136 26.018513656313267 16.785385916306268 H 0.0 **** 0.06
19076 C 150.60391010077052 151.39444380964497 129.06381139132583 C 0.0 **** -0.24
19077 H 151.26225857809447 151.0013034517004 128.28922272105376 H 0.0 **** 0.06
19078 H 151.1019776985783 151.330436799924 130.03087520426809 H 0.0 **** 0.06
19079 H 149.68318516163197 150.81087398588252 129.08925830545638 H 0.0 **** 0.06
19080 H 150.36683032426913 152.43587645331135 128.84400253805177 H 0.0 **** 0.06
19081 C 89.8883356640803 19.421190314190085 102.22063277037887 C 0.0 **** -0.24
19082 H 89.99740805220392 18.33812933630793 102.16834712473849 H 0.0 **** 0.06
19083 H 90.07112193372527 19.756196190050787 103.24206115338717 H 0.0 **** 0.06
19084 H 88.87823661360221 19.70015881508374 101.92080089713932 H 0.0 **** 0.06
19085 H 90.60855298920802 19.89159487891709 101.54949023949234 H 0.0 **** 0.06
19086 C 24.6305903994741 139.47840684364968 37.83847458430631 C 0.0 **** -0.24
19087 H 25.181600921820063 139.6945390560033 38.75427148954907 H 0.0 **** 0.06
19088 H 23.901751670993406 138.69128385941204 38.03126250197252 H 0.0 **** 0.06
19089 H 25.325574168835487 139.1488619430519 37.0663558246211 H 0.0 **** 0.06
19090 H 24.115151424516796 140.37828439229642 37.50362728389064 H 0.0 **** 0.06
19091 C 23.006927870439313 133.70333995832237 27.546516622723317 C 0.0 **** -0.24
19092 H 23.547234164995132 134.33307057387697 28.253354745119054 H 0.0 **** 0.06
19093 H 23.66262456102791 132.90358317989165 27.199273649765672 H 0.0 **** 0.06
19094 H 22.683641551504024 134.30375029140487 26.697281085714792 H 0.0 **** 0.06
19095 H 22.13610049723428 133.27049864225393 28.038253068940833 H 0.0 **** 0.06
19096 C 153.22236247107497 110.3395683830564 107.93659790463583 C 0.0 **** -0.24
19097 H 153.96342842161562 110.61145740504328 107.18530350852713 H 0.0 **** 0.06
19098 H 152.83673920610687 109.34211423821607 107.7225590277245 H 0.0 **** 0.06
19099 H 152.40359003918792 111.05787985234277 107.91600746940988 H 0.0 **** 0.06
19100 H 153.68734903313003 110.34532554019056 108.92264660398662 H 0.0 **** 0.06
19101 C 4.703908409524047 127.24846990392427 28.60541004998384 C 0.0 **** -0.24
19102 H 4.009262399071645 127.27072441238198 27.766522522113853 H 0.0 **** 0.06
19103 H 4.317101416072205 127.86953120892724 29.41369149498086 H 0.0 **** 0.06
19104 H 5.673345353163256 127.63036433254081 28.28498480757238 H 0.0 **** 0.06
19105 H 4.814994660115644 126.22272442971894 28.95736281199391 H 0.0 **** 0.06
19106 C 152.20205540759162 44.57948884996097 117.11126232195913 C 0.0 **** -0.24
19107 H 151.13796492195587 44.339236979076986 117.12794222363853 H 0.0 **** 0.06
19108 H 152.72866925779527 43.942789008355305 117.82305223216811 H 0.0 **** 0.06
19109 H 152.34115169875497 45.625357563582156 117.38471162660524 H 0.0 **** 0.06
19110 H 152.5962151152089 44.40969239932349 116.1099861776376 H 0.0 **** 0.06
19111 C 118.08761752023673 14.397480331361663 146.29124183198397 C 0.0 **** -0.24
19112 H 119.16349965542423 14.278294547418454 146.165623235409 H 0.0 **** 0.06
19113 H 117.85855086030364 14.531266100956884 147.34922035533242 H 0.0 **** 0.06
19114 H 117.57871106890127 13.508680071404513 145.91921768170403 H 0.0 **** 0.06
19115 H 117.75085228457925 15.270522380279004 145.7324391651122 H 0.0 **** 0.06
19116 C 126.45099197423501 114.89108458990414 77.10312636958014 C 0.0 **** -0.24
19117 H 127.40212910753495 114.45867963397653 76.79117796626062 H 0.0 **** 0.06
19118 H 126.48037305735299 115.97197829062871 76.96117824115021 H 0.0 **** 0.06
19119 H 126.27963770246255 114.66712670616174 78.15604386522244 H 0.0 **** 0.06
19120 H 125.64464242862464 114.46714796424673 76.50495765876701 H 0.0 **** 0.06
19121 C 16.69224789554869 9.938301481422592 12.519263275694499 C 0.0 **** -0.24
19122 H 16.495991845325676 10.908232138515658 12.061968224372656 H 0.0 **** 0.06
19123 H 17.744445436095077 9.87350620941227 12.797754935598306 H 0.0 **** 0.06
19124 H 16.455092550912468 9.146381984866224 11.80826077876592 H 0.0 **** 0.06
19125 H 16.073461749861593 9.825085592895988 13.409069164040943 H 0.0 **** 0.06
19126 C 129.8914119624543 63.54038310671709 81.7125851800742 C 0.0 **** -0.24
19127 H 129.43577633676108 63.03067966227415 80.86407458932678 H 0.0 **** 0.06
19128 H 129.20289011180193 63.524864233566575 82.55781326569382 H 0.0 **** 0.06
19129 H 130.11155999312035 64.57338268828082 81.44126172938198 H 0.0 **** 0.06
19130 H 130.81542140813372 63.032605842746776 81.98719113589397 H 0.0 **** 0.06
19131 C 4.907130797652087 40.90338146016012 152.97742668673953 C 0.0 **** -0.24
19132 H 5.092427477233741 40.042360312279314 153.62102240865852 H 0.0 **** 0.06
19133 H 5.290783946187986 41.80408834945118 153.4574736203691 H 0.0 **** 0.06
19134 H 3.835895965050696 41.00826118600598 152.8115508865788 H 0.0 **** 0.06
19135 H 5.411224217780955 40.757081112852276 152.02243837049232 H 0.0 **** 0.06
19136 C 29.15731713160511 43.22127875856934 38.91536873354329 C 0.0 **** -0.24
19137 H 29.505755769702546 43.23503795142419 37.88344779776577 H 0.0 **** 0.06
19138 H 29.447037394695116 42.27967389125824 39.38379500866182 H 0.0 **** 0.06
19139 H 28.07109728978037 43.316965601260605 38.93334636217588 H 0.0 **** 0.06
19140 H 29.604099126152903 44.05167093434568 39.46137910750545 H 0.0 **** 0.06
19141 C 127.32552290990863 59.94412227043102 152.46835549320798 C 0.0 **** -0.24
19142 H 128.12088022500126 59.33949184316127 152.90452457623132 H 0.0 **** 0.06
19143 H 127.20650556620105 59.68251805102315 151.41665458798354 H 0.0 **** 0.06
19144 H 127.58387973647426 60.999592169738264 152.55361222701225 H 0.0 **** 0.06
19145 H 126.39182166654412 59.753911491733604 152.9988699245731 H 0.0 **** 0.06
19146 C 125.26932596585351 76.9873646500937 146.70143187028373 C 0.0 **** -0.24
19147 H 125.27269551425366 77.1083038778086 145.61803257647176 H 0.0 **** 0.06
19148 H 125.60894418592386 77.91131263409352 147.17086802192188 H 0.0 **** 0.06
19149 H 125.93895607311947 76.17218989994677 146.97749409246126 H 0.0 **** 0.06
19150 H 124.25880026968383 76.75753413945 147.0380643091512 H 0.0 **** 0.06
19151 C 41.573515280568586 98.96505473860232 111.63596577371887 C 0.0 **** -0.24
19152 H 41.206654377479 99.61345662556626 112.4320328327152 H 0.0 **** 0.06
19153 H 42.657162834280655 99.0568192786458 111.56270651589047 H 0.0 **** 0.06
19154 H 41.11876703441669 99.25906742669098 110.68968290792996 H 0.0 **** 0.06
19155 H 41.310086079685675 97.93062170342189 111.85947654589397 H 0.0 **** 0.06
19156 C 75.5671908180395 39.94071314438061 70.71509960476759 C 0.0 **** -0.24
19157 H 74.72914868996884 40.29600066799625 70.11439178873293 H 0.0 **** 0.06
19158 H 76.40147439156323 39.689485388418845 70.06128758573539 H 0.0 **** 0.06
19159 H 75.26248967020467 39.0552233153044 71.2736169898024 H 0.0 **** 0.06
19160 H 75.87156850603884 40.72257542062766 71.41149051621188 H 0.0 **** 0.06
19161 C 34.20136948126694 126.82739361461466 48.40823052787471 C 0.0 **** -0.24
19162 H 33.23145766017056 127.16000844942516 48.037641643244754 H 0.0 **** 0.06
19163 H 34.05454572612159 126.1146782601532 49.21943473291259 H 0.0 **** 0.06
19164 H 34.76382819716372 127.68535430368036 48.77476603469904 H 0.0 **** 0.06
19165 H 34.753807684191685 126.3490172744331 47.598766002395436 H 0.0 **** 0.06
19166 C 13.720524847963873 96.12967303620582 19.09549250062728 C 0.0 **** -0.24
19167 H 14.40327683731357 95.28810448688381 18.97698604670304 H 0.0 **** 0.06
19168 H 13.496561293342467 96.26958874364152 20.15301015596325 H 0.0 **** 0.06
19169 H 12.797704049340524 95.92594654650108 18.55179131248221 H 0.0 **** 0.06
19170 H 14.185145247834612 97.03185995328246 18.698613052301944 H 0.0 **** 0.06
19171 C 150.98553968139873 23.42535303893635 11.505233084940357 C 0.0 **** -0.24
19172 H 151.69509558655028 23.067437637931448 12.251699880251408 H 0.0 **** 0.06
19173 H 150.54392889087708 22.57384980984284 10.987588583979715 H 0.0 **** 0.06
19174 H 151.50468446945771 24.05945609578896 10.786920022188667 H 0.0 **** 0.06
19175 H 150.2012775708546 24.000046234667423 11.996872494996467 H 0.0 **** 0.06
19176 C 120.55556209186796 90.16904737480273 1.679748253221252 C 0.0 **** -0.24
19177 H 120.36646800593229 91.20327987923406 1.3921474453519913 H 0.0 **** 0.06
19178 H 121.52108189431897 89.85250532439868 1.2834688608528353 H 0.0 **** 0.06
19179 H 119.7699149493746 89.53064680612876 1.2748310101780866 H 0.0 **** 0.06
19180 H 120.56360692820851 90.09021259262664 2.766446002900082 H 0.0 **** 0.06
19181 C 40.92776702508448 150.79708968968703 99.14731393575815 C 0.0 **** -0.24
19182 H 40.61999726187554 150.91458695299795 100.18640143987754 H 0.0 **** 0.06
19183 H 40.576619343106074 149.83633220522717 98.77114239931403 H 0.0 **** 0.06
19184 H 42.01537666644688 150.8370516831684 99.0850565121046 H 0.0 **** 0.06
19185 H 40.50036002488676 151.60077738161073 98.54844333794408 H 0.0 **** 0.06
19186 C 51.138595144149974 102.2624064148174 76.24520082224235 C 0.0 **** -0.24
19187 H 51.236007486695655 102.60203106550358 77.27581935867515 H 0.0 **** 0.06
19188 H 50.16340354429303 101.79415005356361 76.10813869914449 H 0.0 **** 0.06
19189 H 51.92377905425414 101.53833845622 76.0259760198637 H 0.0 **** 0.06
19190 H 51.23152803967527 103.11435130591326 75.57201657186503 H 0.0 **** 0.06
19191 C 47.067980627245575 95.36768762398069 16.771837691418767 C 0.0 **** -0.24
19192 H 46.08855272749547 95.2881712155206 17.24182997722741 H 0.0 **** 0.06
19193 H 47.786279841676986 94.76062418540533 17.324714674030417 H 0.0 **** 0.06
19194 H 47.390914155781445 96.40823938622623 16.77805088639073 H 0.0 **** 0.06
19195 H 47.007759624426924 95.01236776298617 15.743576601572158 H 0.0 **** 0.06
19196 C 66.09313689283945 112.56194139298071 42.8700099927774 C 0.0 **** -0.24
19197 H 67.0181581833752 113.11542315459963 43.0271506209606 H 0.0 **** 0.06
19198 H 65.24200351719143 113.23107023249378 42.99857617499987 H 0.0 **** 0.06
19199 H 66.02805721852607 111.74884253682103 43.59296473187018 H 0.0 **** 0.06
19200 H 66.08323671781218 112.15085579907549 41.859821723269846 H 0.0 **** 0.06
19201 C 8.241902180938325 9.764147400054448 118.13872605599452 C 0.0 **** -0.24
19202 H 7.746184227338517 10.694644357851516 118.41433587835276 H 0.0 **** 0.06
19203 H 9.143877898025721 9.987875411891196 117.56755418123542 H 0.0 **** 0.06
19204 H 7.567779803912458 9.159076511931978 117.53239123497231 H 0.0 **** 0.06
19205 H 8.510664194108983 9.215170012618003 119.04102726300921 H 0.0 **** 0.06
19206 C 48.74316973093548 151.74738993662288 84.51267936235243 C 0.0 **** -0.24
19207 H 48.261026655033106 152.30307396336661 83.70841573185396 H 0.0 **** 0.06
19208 H 49.524835734803204 151.1116276032184 84.09727212396277 H 0.0 **** 0.06
19209 H 48.003780391476994 151.12951415660524 85.02122981540933 H 0.0 **** 0.06
19210 H 49.182405443981864 152.44674328022958 85.2246025217087 H 0.0 **** 0.06
19211 C 78.49492452077487 98.36396175729371 61.237819467128205 C 0.0 **** -0.24
19212 H 79.14091860540475 97.49954416661946 61.083447996622226 H 0.0 **** 0.06
19213 H 77.45601386856245 98.07466548662268 61.07480706165745 H 0.0 **** 0.06
19214 H 78.76840844994837 99.15104485851302 60.535114406058554 H 0.0 **** 0.06
19215 H 78.61464111765184 98.72971937108287 62.2583046561312 H 0.0 **** 0.06
19216 C 148.68740589921626 121.6964123306937 13.574209138365063 C 0.0 **** -0.24
19217 H 149.76320936884272 121.66083569759945 13.399378064987843 H 0.0 **** 0.06
19218 H 148.2670362315955 120.69763354060996 13.453068849805334 H 0.0 **** 0.06
19219 H 148.2260471980725 122.37486000820007 12.857321047176185 H 0.0 **** 0.06
19220 H 148.496062386536 122.05242201140192 14.58634175199586 H 0.0 **** 0.06
19221 C 138.65422583190693 139.02689426396302 142.01057097329095 C 0.0 **** -0.24
19222 H 138.6059099063397 139.98025487012978 142.5369527774342 H 0.0 **** 0.06
19223 H 138.16212602175295 138.25820501393554 142.60588203758644 H 0.0 **** 0.06
19224 H 139.6980401254745 138.75248968026426 141.8523730792346 H 0.0 **** 0.06
19225 H 138.15305730801623 139.11763937746406 141.04701915970708 H 0.0 **** 0.06
19226 C 135.8873276979968 39.7937871559068 146.84515576330347 C 0.0 **** -0.24
19227 H 136.53790464057357 40.34905484901704 146.16997646839175 H 0.0 **** 0.06
19228 H 136.4533634214977 39.49044558564643 147.7264429777552 H 0.0 **** 0.06
19229 H 135.50433782618853 38.90904123758904 146.3369273916019 H 0.0 **** 0.06
19230 H 135.05416396132415 40.42709592886355 147.14916043873632 H 0.0 **** 0.06
19231 C 107.70409883151446 57.6501131514766 76.91575631782649 C 0.0 **** -0.24
19232 H 106.86820607847208 57.651910094736095 77.61574257980112 H 0.0 **** 0.06
19233 H 108.17952658386928 58.631559326357674 76.91650940293596 H 0.0 **** 0.06
19234 H 107.33789525578895 57.425448155742075 75.91331365291859 H 0.0 **** 0.06
19235 H 108.42860272247263 56.89445407068666 77.21656868749375 H 0.0 **** 0.06
19236 C 90.30223340256308 64.87368340030291 29.20921190982991 C 0.0 **** -0.24
19237 H 89.35802790856961 65.33787007611325 28.924629088451404 H 0.0 **** 0.06
19238 H 91.11266848482467 65.3119709314629 28.626456642469464 H 0.0 **** 0.06
19239 H 90.2531266291732 63.80206380082498 29.013406743894507 H 0.0 **** 0.06
19240 H 90.48516424176194 65.04085839075636 30.270326643520534 H 0.0 **** 0.06
19241 C 45.02180791370199 26.820341621309638 123.79053545374568 C 0.0 **** -0.24
19242 H 44.97764427208398 25.732038766563278 123.83663482934908 H 0.0 **** 0.06
19243 H 44.3105660297536 27.243496523205238 124.50119053387688 H 0.0 **** 0.06
19244 H 44.77077021413925 27.151503580307605 122.78364298188019 H 0.0 **** 0.06
19245 H 46.02832613093415 27.153268506469573 124.04264142000572 H 0.0 **** 0.06
19246 C 69.478013970132 45.83792345709645 22.62146422013018 C 0.0 **** -0.24
19247 H 69.62473769163155 45.75716444567786 23.697896642019373 H 0.0 **** 0.06
19248 H 68.87590368199858 46.720068720959716 22.402494761660762 H 0.0 **** 0.06
19249 H 68.9645069690191 44.94748769510511 22.257587300083628 H 0.0 **** 0.06
19250 H 70.44589435522435 45.926032047281296 22.128175156154498 H 0.0 **** 0.06
19251 C 5.023865399670633 57.97611979657279 147.12484492708796 C 0.0 **** -0.24
19252 H 4.495482413258891 58.44948070596219 147.95283319009826 H 0.0 **** 0.06
19253 H 4.3151177419756195 57.412658594941405 146.51678247123806 H 0.0 **** 0.06
19254 H 5.782638871431196 57.300421671123516 147.51811645663798 H 0.0 **** 0.06
19255 H 5.5003890340428825 58.74170531560641 146.5129097216735 H 0.0 **** 0.06
19256 C 81.8481463033905 65.13781516058987 125.69869431199231 C 0.0 **** -0.24
19257 H 81.10487228782516 65.62736098880362 125.06917679774517 H 0.0 **** 0.06
19258 H 82.79637304063512 65.66882695340837 125.62089218424063 H 0.0 **** 0.06
19259 H 81.98006504511166 64.1073958880985 125.369795825008 H 0.0 **** 0.06
19260 H 81.50899832290689 65.14821981264936 126.73418938107687 H 0.0 **** 0.06
19261 C 73.14842080919405 15.296148270073566 116.09105353790729 C 0.0 **** -0.24
19262 H 73.45359263852947 15.30510697497386 117.13672916634495 H 0.0 **** 0.06
19263 H 72.29292520148437 15.958693449816508 115.95500626084875 H 0.0 **** 0.06
19264 H 72.87246447563064 14.281979415360304 115.80131343944514 H 0.0 **** 0.06
19265 H 73.97553075047873 15.639022820436097 115.46909946261043 H 0.0 **** 0.06
19266 C 3.1611799607782984 58.6556335722033 35.11173168767679 C 0.0 **** -0.24
19267 H 3.2250405093272434 58.04825630875385 34.20878131925071 H 0.0 **** 0.06
19268 H 2.4585483222023754 58.19784426157527 35.80846794925023 H 0.0 **** 0.06
19269 H 2.816263274324058 59.6566237510705 34.85178010371832 H 0.0 **** 0.06
19270 H 4.144673980161485 58.72028138008744 35.57624198550529 H 0.0 **** 0.06
19271 C 125.72483577534176 25.584925559741656 20.98499261791141 C 0.0 **** -0.24
19272 H 125.03918555700501 25.880830939050796 20.191778639607044 H 0.0 **** 0.06
19273 H 125.63066716783415 24.513808902764538 21.165586287229097 H 0.0 **** 0.06
19274 H 125.48159980834181 26.129422344043057 21.897496970723438 H 0.0 **** 0.06
19275 H 126.74677704930833 25.81524569938118 20.686375325243382 H 0.0 **** 0.06
19276 C 15.909529066613487 112.44765453694494 77.89394144357198 C 0.0 **** -0.24
19277 H 15.121633182770694 112.71037928562329 78.6001081844189 H 0.0 **** 0.06
19278 H 16.21016634329422 111.41191608436954 78.05412190222125 H 0.0 **** 0.06
19279 H 16.766704624038226 113.1032982824919 78.04646687292615 H 0.0 **** 0.06
19280 H 15.539025941085725 112.56548291169487 76.87573686076229 H 0.0 **** 0.06
19281 C 108.9777182491203 155.5021996067117 112.72450180873824 C 0.0 **** -0.24
19282 H 108.02010376920896 155.24790724904736 112.26874132530736 H 0.0 **** 0.06
19283 H 109.78191543686631 155.01004196187813 112.17563436075778 H 0.0 **** 0.06
19284 H 108.98699510538097 155.16705164687275 113.76139690392694 H 0.0 **** 0.06
19285 H 109.12086910322313 156.58166955360008 112.68968657339451 H 0.0 **** 0.06
19286 C 36.84225177304472 21.99484465784704 7.113394539514786 C 0.0 **** -0.24
19287 H 36.30003701250246 21.66415397757021 7.998375583265215 H 0.0 **** 0.06
19288 H 36.88303202540317 21.182389990864863 6.387015783283573 H 0.0 **** 0.06
19289 H 37.856174463351635 22.282028405412234 7.395236701697314 H 0.0 **** 0.06
19290 H 36.33145535310592 22.851094551038216 6.672715728510411 H 0.0 **** 0.06
19291 C 147.69446520647426 15.326003511551704 10.578069970786203 C 0.0 **** -0.24
19292 H 146.8125749915847 14.720823132360607 10.36731172528755 H 0.0 **** 0.06
19293 H 148.3178049590427 14.815910703996508 11.313470949246437 H 0.0 **** 0.06
19294 H 147.38553051309668 16.293761010226206 10.971276534025776 H 0.0 **** 0.06
19295 H 148.26219312288737 15.471437036327018 9.6594423263399 H 0.0 **** 0.06
19296 C 90.93672760110849 77.35453011251175 14.159883134573384 C 0.0 **** -0.24
19297 H 91.5784564592048 78.20889683944857 13.94803131831614 H 0.0 **** 0.06
19298 H 90.37565043803636 77.54029088399284 15.075538644098778 H 0.0 **** 0.06
19299 H 91.54988432703618 76.46163637547747 14.284571933357007 H 0.0 **** 0.06
19300 H 90.24329866392415 77.20591839385457 13.332369071604859 H 0.0 **** 0.06
19301 C 55.74687868455172 15.371436229580581 106.80795377048504 C 0.0 **** -0.24
19302 H 56.62314496677763 14.83939307132681 106.43871926016833 H 0.0 **** 0.06
19303 H 56.06359911754312 16.279603145961687 107.32169857096362 H 0.0 **** 0.06
19304 H 55.200723501046056 14.733236895801781 107.5019600878396 H 0.0 **** 0.06
19305 H 55.10149661608179 15.634441648070435 105.96925129673933 H 0.0 **** 0.06
19306 C 123.84177024603548 74.23772017665763 2.478074951246583 C 0.0 **** -0.24
19307 H 122.87405103023286 74.64288234744446 2.7712366067736696 H 0.0 **** 0.06
19308 H 123.78750752506102 73.87125015358696 1.4536258768398795 H 0.0 **** 0.06
19309 H 124.10949718965026 73.41733736174957 3.1448050530078717 H 0.0 **** 0.06
19310 H 124.59803268630287 75.02056853199589 2.5445375786343902 H 0.0 **** 0.06
19311 C 154.25692742562052 134.39285016443995 105.74431429694947 C 0.0 **** -0.24
19312 H 155.15193833268387 134.63159535862133 105.17017592880565 H 0.0 **** 0.06
19313 H 153.46198700670283 135.09190671001775 105.48439248232144 H 0.0 **** 0.06
19314 H 154.47758118537166 134.47254174694632 106.80909308314277 H 0.0 **** 0.06
19315 H 153.93897758912544 133.37632322867154 105.51476576361516 H 0.0 **** 0.06
19316 C 56.937966484773085 41.204194439545006 14.622496832114223 C 0.0 **** -0.24
19317 H 57.43071923797592 41.2337285334973 13.651557041385331 H 0.0 **** 0.06
19318 H 56.21013208202322 40.39243601502352 14.635802413836586 H 0.0 **** 0.06
19319 H 56.42990751002566 42.15165371001953 14.801694136595472 H 0.0 **** 0.06
19320 H 57.68133711549763 41.03788958684265 15.401829531676412 H 0.0 **** 0.06
19321 C 43.88326038685673 71.71244510217458 1.570704593797899 C 0.0 **** -0.24
19322 H 44.045118127982406 70.77931296861998 1.0299632469884443 H 0.0 **** 0.06
19323 H 43.381647188289875 71.50086870432216 2.515155390082981 H 0.0 **** 0.06
19324 H 43.263093439507486 72.37734662794574 0.9697390526492313 H 0.0 **** 0.06
19325 H 44.84275167857356 72.18984901583441 1.767761975201097 H 0.0 **** 0.06
19326 C 49.49231563789347 24.930820401504207 27.647825719074376 C 0.0 **** -0.24
19327 H 49.55810583724585 23.95093952782736 28.12106646701767 H 0.0 **** 0.06
19328 H 49.200693001149716 25.67375591390106 28.390801332916055 H 0.0 **** 0.06
19329 H 48.74833472000222 24.900483719276053 26.85232667900877 H 0.0 **** 0.06
19330 H 50.46163246233276 25.197777031867986 27.229018290965996 H 0.0 **** 0.06
19331 C 120.48650522621439 61.21309687493823 8.916637651609676 C 0.0 **** -0.24
19332 H 120.957346816825 62.19584185127391 8.890885361959192 H 0.0 **** 0.06
19333 H 121.24408192400888 60.44289445655215 8.770280323587997 H 0.0 **** 0.06
19334 H 119.7415199195495 61.14744902350159 8.123220392529959 H 0.0 **** 0.06
19335 H 120.00217851611852 61.068851728266054 9.882590371845367 H 0.0 **** 0.06
19336 C 27.84840455587326 8.579704937483797 120.97412983117833 C 0.0 **** -0.24
19337 H 28.16830618647279 8.016849693416304 120.09674472784467 H 0.0 **** 0.06
19338 H 28.162014754808524 8.055373244613861 121.87706648746077 H 0.0 **** 0.06
19339 H 26.763248141552737 8.676351691230366 120.96824810729119 H 0.0 **** 0.06
19340 H 28.301445311987834 9.571494387172407 120.95288195454593 H 0.0 **** 0.06
19341 C 122.12051583930116 148.00613416395566 136.63130003829048 C 0.0 **** -0.24
19342 H 122.29966563174281 148.63826597628776 137.50169042921345 H 0.0 **** 0.06
19343 H 123.03205181432685 147.46185970125893 136.38412570580147 H 0.0 **** 0.06
19344 H 121.82548010253561 148.6275090066524 135.7858919224505 H 0.0 **** 0.06
19345 H 121.32308006249917 147.29705542492945 136.85628278037842 H 0.0 **** 0.06
19346 C 10.944966826142945 9.320083471213877 144.12071753411283 C 0.0 **** -0.24
19347 H 10.786679906245354 9.078110381808955 145.17248461952786 H 0.0 **** 0.06
19348 H 10.641363882043152 8.47321236167545 143.50374321557112 H 0.0 **** 0.06
19349 H 12.001392354888651 9.53144035468614 143.95263104149717 H 0.0 **** 0.06
19350 H 10.351577066305367 10.19515971731559 143.85570653916213 H 0.0 **** 0.06
19351 C 151.9528884347493 67.7853377586805 100.39170687736254 C 0.0 **** -0.24
19352 H 152.02788371552504 66.72570546228144 100.6389068421056 H 0.0 **** 0.06
19353 H 151.0352735482354 67.96290650937658 99.83002995951045 H 0.0 **** 0.06
19354 H 152.81177352929467 68.07848840187211 99.78900734554935 H 0.0 **** 0.06
19355 H 151.93636890823063 68.37155211205425 101.3105123567259 H 0.0 **** 0.06
19356 C 8.426988897554516 45.65362538904105 43.21470420249477 C 0.0 **** -0.24
19357 H 8.99223832565314 46.583818917849214 43.1554019262187 H 0.0 **** 0.06
19358 H 9.102421217762995 44.83286122913273 43.457327503284716 H 0.0 **** 0.06
19359 H 7.947661560423974 45.45919000960589 42.255446236022976 H 0.0 **** 0.06
19360 H 7.665933513957079 45.73943856475057 43.99013212634043 H 0.0 **** 0.06
19361 C 42.86376319988091 125.67093120766299 152.28931665973943 C 0.0 **** -0.24
19362 H 43.49337748323396 126.17373305118196 153.02311487300764 H 0.0 **** 0.06
19363 H 41.86151713517623 126.10027940944946 152.31764806488587 H 0.0 **** 0.06
19364 H 42.8105640799634 124.60804563799223 152.52387960087486 H 0.0 **** 0.06
19365 H 43.28810720265358 125.80413619163676 151.29500975687023 H 0.0 **** 0.06
19366 C 88.95406100497952 12.068856108034396 24.853409297622612 C 0.0 **** -0.24
19367 H 89.24273022701827 11.215033487227686 24.239269468790326 H 0.0 **** 0.06
19368 H 88.28976611108058 11.734674628015625 25.650841882989347 H 0.0 **** 0.06
19369 H 88.43958334521693 12.803202576559016 24.234158418938122 H 0.0 **** 0.06
19370 H 89.84612464916145 12.519688902032044 25.287891642375584 H 0.0 **** 0.06
19371 C 52.839349050859454 154.50215423123984 54.43384419416779 C 0.0 **** -0.24
19372 H 53.501781208656 154.02808497893565 55.157580076223695 H 0.0 **** 0.06
19373 H 52.87185691192573 155.58370436241137 54.56570103614794 H 0.0 **** 0.06
19374 H 51.82061880508769 154.147159967707 54.58695658221373 H 0.0 **** 0.06
19375 H 53.16454078810702 154.2477364988125 53.42458523116491 H 0.0 **** 0.06
19376 C 153.96273540034952 86.09896691397567 115.79978816743062 C 0.0 **** -0.24
19377 H 154.5111639561428 86.12775507144718 116.74141709521115 H 0.0 **** 0.06
19378 H 152.92975328273712 86.39851864441293 115.9730894504861 H 0.0 **** 0.06
19379 H 153.9858245403787 85.08634209275333 115.39798658600768 H 0.0 **** 0.06
19380 H 154.42573646446323 86.78374227571665 115.08937956298485 H 0.0 **** 0.06
19381 C 128.98734694584743 126.91456821352882 56.61030979171167 C 0.0 **** -0.24
19382 H 128.18597484118152 127.33494120333366 57.21897555558924 H 0.0 **** 0.06
19383 H 129.01747809122142 125.83264843273834 56.746777507712025 H 0.0 **** 0.06
19384 H 129.93940528557604 127.34635093123622 56.91753811961567 H 0.0 **** 0.06
19385 H 128.80486085354295 127.14535006840303 55.56113859155562 H 0.0 **** 0.06
19386 C 145.88248912203574 120.13174985537533 26.96190484503075 C 0.0 **** -0.24
19387 H 145.0047628596987 119.65582127534309 27.39925627004358 H 0.0 **** 0.06
19388 H 145.66684633165056 120.41230136089938 25.930677552773325 H 0.0 **** 0.06
19389 H 146.7215798600117 119.4369477705179 26.982531032393133 H 0.0 **** 0.06
19390 H 146.1352504119232 121.02328656920297 27.536079643396747 H 0.0 **** 0.06
19391 C 146.78724646485327 120.48001265291737 68.09681888903023 C 0.0 **** -0.24
19392 H 146.64616463920257 119.44908242387811 67.77164591353218 H 0.0 **** 0.06
19393 H 147.82937227842973 120.6324502134812 68.37887610526042 H 0.0 **** 0.06
19394 H 146.14447011630938 120.67985191474679 68.95424731873175 H 0.0 **** 0.06
19395 H 146.52748749639173 121.15554571570112 67.28230676345603 H 0.0 **** 0.06
19396 C 141.31123426775986 117.64806080876208 138.51196028996006 C 0.0 **** -0.24
19397 H 140.43057539153816 117.01597593381972 138.6303467687616 H 0.0 **** 0.06
19398 H 141.22613712329144 118.51438341321382 139.16765174071526 H 0.0 **** 0.06
19399 H 141.38156174591012 117.98176289890897 137.47640022363242 H 0.0 **** 0.06
19400 H 142.20339400780324 117.08025348401928 138.77230323143036 H 0.0 **** 0.06
19401 C 54.55095789430476 88.85042928134013 99.309151018873 C 0.0 **** -0.24
19402 H 54.971197289636436 88.127230883867 98.61144653669872 H 0.0 **** 0.06
19403 H 54.48238741247117 89.82453641683774 98.82558403636244 H 0.0 **** 0.06
19404 H 55.19381282586167 88.92490609088819 100.18735286139174 H 0.0 **** 0.06
19405 H 53.55601015501935 88.52531165854964 99.6150043059598 H 0.0 **** 0.06
19406 C 139.33344880091727 84.59370804601747 94.2033666040713 C 0.0 **** -0.24
19407 H 138.4801592165403 85.26196850031653 94.09218438067822 H 0.0 **** 0.06
19408 H 139.90142761198211 84.57247979787468 93.2732670912132 H 0.0 **** 0.06
19409 H 138.98101864830915 83.58982495345501 94.43678970081147 H 0.0 **** 0.06
19410 H 139.97200560718113 84.95170119248994 95.01139742460607 H 0.0 **** 0.06
19411 C 27.416288837482682 102.05593963017422 105.56126064802375 C 0.0 **** -0.24
19412 H 28.32571728830726 102.53373869062516 105.19726667374034 H 0.0 **** 0.06
19413 H 27.677807937685202 101.26703779508834 106.26653671325475 H 0.0 **** 0.06
19414 H 26.871306450369673 101.62459559768457 104.7205066685773 H 0.0 **** 0.06
19415 H 26.790648741923803 102.79653220999889 106.05765737883071 H 0.0 **** 0.06
19416 C 55.359539146043346 66.55018758840929 48.61948866981628 C 0.0 **** -0.24
19417 H 55.19816298763814 66.53345742795209 49.69757146997601 H 0.0 **** 0.06
19418 H 54.39805351007803 66.62752700505109 48.110019613708104 H 0.0 **** 0.06
19419 H 55.86036840275368 65.63196080405935 48.313757942391064 H 0.0 **** 0.06
19420 H 55.97932617189261 67.40733004780088 48.358537563983234 H 0.0 **** 0.06
19421 C 40.51376697428799 29.17503656689331 94.34941289824609 C 0.0 **** -0.24
19422 H 40.06273876545433 28.187742428962963 94.24539107252211 H 0.0 **** 0.06
19423 H 40.52716704119811 29.67154409032861 93.37875208528509 H 0.0 **** 0.06
19424 H 41.53445104896511 29.071060131438173 94.71886333353886 H 0.0 **** 0.06
19425 H 39.9304660306357 29.768913626628375 95.05357036627672 H 0.0 **** 0.06
19426 C 28.327959749708157 100.12604279596955 71.67834880741276 C 0.0 **** -0.24
19427 H 28.709244503135608 99.60138083793534 70.80171691706715 H 0.0 **** 0.06
19428 H 27.23792722571568 100.13007748474779 71.65359983382211 H 0.0 **** 0.06
19429 H 28.696481201691 101.15154649122907 71.67702183703261 H 0.0 **** 0.06
19430 H 28.66948459378824 99.61934617275658 72.58102703769902 H 0.0 **** 0.06
19431 C 10.468109557201643 140.65872673952586 76.02623733805575 C 0.0 **** -0.24
19432 H 11.343613837329428 140.06978096052222 75.75113040112586 H 0.0 **** 0.06
19433 H 10.774616049539588 141.48718227350818 76.66500793560022 H 0.0 **** 0.06
19434 H 9.760205266288438 140.0279719930523 76.56330122019102 H 0.0 **** 0.06
19435 H 9.995416098993019 141.0500245624816 75.12553507308508 H 0.0 **** 0.06
19436 C 36.89018012080287 16.022573230169996 96.32285598831307 C 0.0 **** -0.24
19437 H 35.97956925763154 15.446956863851653 96.48814760375375 H 0.0 **** 0.06
19438 H 36.744899815934005 16.698419262731562 95.4797056658264 H 0.0 **** 0.06
19439 H 37.7144092795364 15.343154016872688 96.1058778888225 H 0.0 **** 0.06
19440 H 37.121470814229454 16.60099002981238 97.21656804996557 H 0.0 **** 0.06
19441 C 130.25914962776613 154.66415357227123 76.08837089044852 C 0.0 **** -0.24
19442 H 129.8409476031835 154.5150316828021 75.09275931529126 H 0.0 **** 0.06
19443 H 131.30570128496413 154.9574355234543 76.00237661278874 H 0.0 **** 0.06
19444 H 130.18676592040055 153.73586993030608 76.65569687524953 H 0.0 **** 0.06
19445 H 129.7031837025164 155.4482771525225 76.60265075846445 H 0.0 **** 0.06
19446 C 65.0004176088215 47.8610748271887 130.66010004326068 C 0.0 **** -0.24
19447 H 64.07918973654375 48.41988993652616 130.49519536520677 H 0.0 **** 0.06
19448 H 65.71311649962166 48.485493479578 131.19914115345625 H 0.0 **** 0.06
19449 H 65.42526202363001 47.570242252064716 129.69994366491153 H 0.0 **** 0.06
19450 H 64.78276971185409 46.96820139375332 131.2461598477979 H 0.0 **** 0.06
19451 C 126.45278627031335 144.9925185194001 69.123139638712 C 0.0 **** -0.24
19452 H 125.62631540032204 144.6738164307302 68.48717770401119 H 0.0 **** 0.06
19453 H 126.2673911955362 146.0061074109808 69.47867289641657 H 0.0 **** 0.06
19454 H 127.38035866661839 144.9713344424522 68.55063167202613 H 0.0 **** 0.06
19455 H 126.53549985469711 144.31762152288087 69.97463488493253 H 0.0 **** 0.06
19456 C 11.328952272686045 104.01416369617333 30.76766321522277 C 0.0 **** -0.24
19457 H 11.394187254238041 102.92793492876318 30.7062537114125 H 0.0 **** 0.06
19458 H 10.885164316955432 104.4035901406857 29.850853529665443 H 0.0 **** 0.06
19459 H 12.327607071344175 104.4327074352767 30.894759321638958 H 0.0 **** 0.06
19460 H 10.706720423018204 104.2923972524727 31.618106203276483 H 0.0 **** 0.06
19461 C 116.8486356714733 131.7348894321645 37.46674909355073 C 0.0 **** -0.24
19462 H 116.30841824835828 131.8384921722507 38.40835002503948 H 0.0 **** 0.06
19463 H 117.82244445604694 132.2167653426872 37.55321136945199 H 0.0 **** 0.06
19464 H 116.27813040390517 132.20699650753886 36.667337874021456 H 0.0 **** 0.06
19465 H 116.98490931453993 130.67680913001482 37.24161077624923 H 0.0 **** 0.06
19466 C 107.84416524144518 41.310917270477205 24.783048514301072 C 0.0 **** -0.24
19467 H 107.09519160491584 41.526376943530636 25.544453964935087 H 0.0 **** 0.06
19468 H 107.34797469577575 41.090640186189574 23.837492253454855 H 0.0 **** 0.06
19469 H 108.43832966128059 40.450852283652694 25.090626971198418 H 0.0 **** 0.06
19470 H 108.49517623257088 42.176525690382675 24.6584072650071 H 0.0 **** 0.06
19471 C 28.061745849351837 2.717751339355228 44.38920454466388 C 0.0 **** -0.24
19472 H 28.100791444196204 3.626770306198054 44.98955996927805 H 0.0 **** 0.06
19473 H 27.053183660358684 2.583781082643739 43.997527423670405 H 0.0 **** 0.06
19474 H 28.32706640830446 1.8618503631160728 45.010279588643485 H 0.0 **** 0.06
19475 H 28.766329524766576 2.798457832898407 43.5618654631465 H 0.0 **** 0.06
19476 C 59.2516392186681 63.50970523892663 136.78976662061535 C 0.0 **** -0.24
19477 H 58.22685980739864 63.16524189217306 136.64826801151267 H 0.0 **** 0.06
19478 H 59.46056687264702 64.32317971626378 136.0944593465808 H 0.0 **** 0.06
19479 H 59.939940918515845 62.68528843202148 136.60446319809893 H 0.0 **** 0.06
19480 H 59.377094626742505 63.864983780610245 137.8126482238511 H 0.0 **** 0.06
19481 C 1.4853030333686945 93.26013622679957 67.42580684838376 C 0.0 **** -0.24
19482 H 0.7432524830160503 94.0341790415116 67.62229446149367 H 0.0 **** 0.06
19483 H 0.979653767519352 92.32385883122475 67.18848186783526 H 0.0 **** 0.06
19484 H 2.1098365145587366 93.12291221043452 68.30838044968743 H 0.0 **** 0.06
19485 H 2.1082630030283553 93.56091578978618 66.58360960703038 H 0.0 **** 0.06
19486 C 98.73507791047996 13.921865641585896 29.019839059223813 C 0.0 **** -0.24
19487 H 99.7712763668914 13.969782649727627 28.686286420294664 H 0.0 **** 0.06
19488 H 98.70704163390918 13.865683182424505 30.10869452099446 H 0.0 **** 0.06
19489 H 98.2569152830818 13.038284996342163 28.59737201032604 H 0.0 **** 0.06
19490 H 98.20489775345966 14.814647506430056 28.68902612533762 H 0.0 **** 0.06
19491 C 149.93339262840922 3.1113851368606333 71.14625167092503 C 0.0 **** -0.24
19492 H 150.81208105704687 2.535294393200928 70.85553912550937 H 0.0 **** 0.06
19493 H 149.8887966007108 3.182304313007137 72.23296429682665 H 0.0 **** 0.06
19494 H 149.03561252852177 2.61465959113778 70.7762430953837 H 0.0 **** 0.06
19495 H 149.99743040722535 4.112429684917373 70.7182228296192 H 0.0 **** 0.06
19496 C 15.529577313799223 122.05537212734292 96.00419605641116 C 0.0 **** -0.24
19497 H 16.289247555724643 122.5830440913905 95.4267524475153 H 0.0 **** 0.06
19498 H 15.494390253971773 121.01221791393665 95.68925980105496 H 0.0 **** 0.06
19499 H 14.557536499984366 122.519315346592 95.83384039892735 H 0.0 **** 0.06
19500 H 15.777585425246457 122.10801880864479 97.06383795003512 H 0.0 **** 0.06
19501 C 9.211192528483082 140.78535228345976 33.25226184811703 C 0.0 **** -0.24
19502 H 9.975717783980599 140.70432493183787 32.47933016574829 H 0.0 **** 0.06
19503 H 9.528288932579116 141.51206511560548 34.00107894397236 H 0.0 **** 0.06
19504 H 9.070010781117354 139.81371424095255 33.72479531099647 H 0.0 **** 0.06
19505 H 8.273390897465234 141.1117756101766 32.80249458539321 H 0.0 **** 0.06
19506 C 63.50213897918525 25.19494704985054 82.42700022261937 C 0.0 **** -0.24
19507 H 63.00945233956372 25.60453365007828 83.30847985583118 H 0.0 **** 0.06
19508 H 62.8363614719176 24.484786955250286 81.9356666790845 H 0.0 **** 0.06
19509 H 64.4180746390191 24.685521767989187 82.72605776445576 H 0.0 **** 0.06
19510 H 63.74541899273629 26.00283983951114 81.73778276256199 H 0.0 **** 0.06
19511 C 23.78651404870564 26.165356360460976 76.51271444165248 C 0.0 **** -0.24
19512 H 24.066563936088528 26.959891986047438 77.20476999529943 H 0.0 **** 0.06
19513 H 24.32971646006655 26.290412827400814 75.576366925845 H 0.0 **** 0.06
19514 H 22.714502883971363 26.2136988782907 76.32056932326363 H 0.0 **** 0.06
19515 H 24.0338020623594 25.199249453703516 76.95188949884624 H 0.0 **** 0.06
19516 C 13.872362782827736 10.366809368868473 35.75279358538819 C 0.0 **** -0.24
19517 H 13.787575688636423 10.923306348478661 36.685706176236295 H 0.0 **** 0.06
19518 H 13.558544242349967 9.335141575889878 35.91521647613081 H 0.0 **** 0.06
19519 H 14.90839567867431 10.382147972222441 35.41355435426698 H 0.0 **** 0.06
19520 H 13.235655965636795 10.825974317487606 34.996886425485 H 0.0 **** 0.06
19521 C 132.46647878869425 83.50128648625835 24.351844153397536 C 0.0 **** -0.24
19522 H 133.53535742114695 83.68151189697693 24.46343232372047 H 0.0 **** 0.06
19523 H 132.309680435661 82.57076177282579 23.80610272053653 H 0.0 **** 0.06
19524 H 132.0146268349797 84.32683320913816 23.80056279114379 H 0.0 **** 0.06
19525 H 132.00593087026908 83.42820776211101 25.336837438387903 H 0.0 **** 0.06
19526 C 87.70056186638709 58.882414496275445 51.96718814398896 C 0.0 **** -0.24
19527 H 88.08436176793558 59.86323017696776 52.250235754762 H 0.0 **** 0.06
19528 H 88.49285922722873 58.30680933962486 51.48858677839746 H 0.0 **** 0.06
19529 H 86.86882290325914 59.00475389452588 51.27367604796173 H 0.0 **** 0.06
19530 H 87.35593067056328 58.35625289138778 52.857985544718034 H 0.0 **** 0.06
19531 C 39.0029954682245 49.42963643050399 57.64868507309126 C 0.0 **** -0.24
19532 H 38.20601705382131 50.028472694019385 57.20789577348704 H 0.0 **** 0.06
19533 H 39.23426994742199 49.81029386466912 58.643948722255814 H 0.0 **** 0.06
19534 H 39.8922111808308 49.488988588047675 57.021114034916906 H 0.0 **** 0.06
19535 H 38.67762753614298 48.39151968463558 57.72279332094513 H 0.0 **** 0.06
19536 C 94.70254117731359 143.9477546048268 141.7283595456973 C 0.0 **** -0.24
19537 H 95.55633792669026 144.4624671992601 141.287506132698 H 0.0 **** 0.06
19538 H 94.94485503337137 143.65223299075592 142.75001198065127 H 0.0 **** 0.06
19539 H 94.46937916754969 143.0601739194549 141.13897535694696 H 0.0 **** 0.06
19540 H 93.84055858640679 144.61474131018159 141.73663082650341 H 0.0 **** 0.06
19541 C 101.34711850209943 58.80956901761914 15.17012011260249 C 0.0 **** -0.24
19542 H 101.42350344023781 59.44649086706602 14.289191312028947 H 0.0 **** 0.06
19543 H 100.92243368929876 59.38068159097685 15.996271394350686 H 0.0 **** 0.06
19544 H 102.33878488357551 58.45184611445559 15.446966244096188 H 0.0 **** 0.06
19545 H 100.70239909857416 57.958882839832484 14.94788013231232 H 0.0 **** 0.06
19546 C 96.97294921951882 145.36101021674926 12.725096662834972 C 0.0 **** -0.24
19547 H 96.71445370613884 145.65674489746527 13.742122107991065 H 0.0 **** 0.06
19548 H 96.10352287881537 144.9082018984222 12.246978285611988 H 0.0 **** 0.06
19549 H 97.78859262973154 144.63841177742665 12.7539757029881 H 0.0 **** 0.06
19550 H 97.28373133751265 146.2383453269308 12.158827103714657 H 0.0 **** 0.06
19551 C 102.77171088288715 116.44767827845685 88.6212522499149 C 0.0 **** -0.24
19552 H 102.48347326528234 115.39700415984039 88.597260040794 H 0.0 **** 0.06
19553 H 103.75743462241884 116.56388928727911 88.17132740607481 H 0.0 **** 0.06
19554 H 102.80128203744066 116.7927377919254 89.65555742874713 H 0.0 **** 0.06
19555 H 102.04540167895361 117.03695432289321 88.06271459646425 H 0.0 **** 0.06
19556 C 5.223306063573453 92.42246570468885 59.02262197710519 C 0.0 **** -0.24
19557 H 4.7577544636337095 92.752414425121 59.95133249224068 H 0.0 **** 0.06
19558 H 4.61825005732512 91.63476970060623 58.57350961850506 H 0.0 **** 0.06
19559 H 6.221682912148239 92.03975797312705 59.23295768658562 H 0.0 **** 0.06
19560 H 5.2943597265248385 93.26430037644474 58.333996223747675 H 0.0 **** 0.06
19561 C 93.75654866075355 39.485766337051984 129.7110668258792 C 0.0 **** -0.24
19562 H 92.96312431188107 39.76439817286587 129.0167320281073 H 0.0 **** 0.06
19563 H 94.649348807172 40.07323165969618 129.49658823072775 H 0.0 **** 0.06
19564 H 93.9823585291681 38.42567180553104 129.59794237279635 H 0.0 **** 0.06
19565 H 93.4297809526227 39.680967206138746 130.73278360608035 H 0.0 **** 0.06
19566 C 118.28995277096118 59.819750726317 153.50188396225525 C 0.0 **** -0.24
19567 H 117.83729174256723 58.8739652812004 153.7999754947236 H 0.0 **** 0.06
19568 H 119.24300916054267 59.625915882211075 153.00958705266464 H 0.0 **** 0.06
19569 H 118.4549765570867 60.43680015212064 154.38395978671306 H 0.0 **** 0.06
19570 H 117.62374289471848 60.33975762920119 152.81311846490263 H 0.0 **** 0.06
19571 C 35.25551535779285 88.02760336173748 108.81394422698541 C 0.0 **** -0.24
19572 H 35.6080629936658 88.7843735712093 108.11287597202711 H 0.0 **** 0.06
19573 H 36.1055816928714 87.61510131129762 109.35935968815515 H 0.0 **** 0.06
19574 H 34.754040003437176 87.22997632240822 108.26513253659338 H 0.0 **** 0.06
19575 H 34.557215044702 88.48056147927258 109.51674024466398 H 0.0 **** 0.06
19576 C 142.3045182065172 119.85750528175765 79.88347050229748 C 0.0 **** -0.24
19577 H 141.7007674144437 119.11427744114383 80.40475837545276 H 0.0 **** 0.06
19578 H 142.97560469907717 120.34071474626847 80.59269836646087 H 0.0 **** 0.06
19579 H 141.65094913323497 120.60450897134166 79.43236891350743 H 0.0 **** 0.06
19580 H 142.88858998199697 119.36750147177463 79.10452179077515 H 0.0 **** 0.06
19581 C 7.720632828600095 153.23263575080165 108.39372505154176 C 0.0 **** -0.24
19582 H 8.571858572617053 152.77779683904305 107.8880908591808 H 0.0 **** 0.06
19583 H 6.896763829782401 152.51966450709665 108.43265532031336 H 0.0 **** 0.06
19584 H 7.405577276499578 154.12195362552478 107.846816077945 H 0.0 **** 0.06
19585 H 8.007216535292208 153.51278561764087 109.40834249967105 H 0.0 **** 0.06
19586 C 29.186120419520165 137.99481588063708 109.77205119342337 C 0.0 **** -0.24
19587 H 28.253431322026415 138.3856642357385 109.36584894357226 H 0.0 **** 0.06
19588 H 29.92575251083268 138.79392483289274 109.81960028531363 H 0.0 **** 0.06
19589 H 29.55456627125804 137.19551920753423 109.12930152017672 H 0.0 **** 0.06
19590 H 29.009194091021527 137.60274474826446 110.77425826589398 H 0.0 **** 0.06
19591 C 113.44600594345569 153.84456535235003 142.10192687284257 C 0.0 **** -0.24
19592 H 114.25908974069897 154.3037083183128 141.539860917763 H 0.0 **** 0.06
19593 H 113.74761285956042 153.7199350637033 143.14226828478635 H 0.0 **** 0.06
19594 H 113.21290894213602 152.87055382879404 141.6720501439363 H 0.0 **** 0.06
19595 H 112.56472371962296 154.48366953826667 142.052206296394 H 0.0 **** 0.06
19596 C 145.43369811132771 35.501004081591645 140.36382389802094 C 0.0 **** -0.24
19597 H 145.13194600705881 35.96665428199333 141.30226742025593 H 0.0 **** 0.06
19598 H 145.23382955129722 36.18397861620264 139.53869179530125 H 0.0 **** 0.06
19599 H 144.86953133516278 34.57898446958069 140.21835774247876 H 0.0 **** 0.06
19600 H 146.49912960161333 35.273382417586504 140.39793825304312 H 0.0 **** 0.06
19601 C 132.97358491212606 90.57032381288582 142.14865217780402 C 0.0 **** -0.24
19602 H 133.04367648521338 91.42081909097038 142.82685762467406 H 0.0 **** 0.06
19603 H 131.9334372687816 90.42278559132623 141.85920787720417 H 0.0 **** 0.06
19604 H 133.34219547001246 89.67514375729948 142.6504854438026 H 0.0 **** 0.06
19605 H 133.57566231607547 90.76327059002742 141.26071805099357 H 0.0 **** 0.06
19606 C 58.952473020225284 13.936301180553073 148.38334656238592 C 0.0 **** -0.24
19607 H 59.56118042449029 13.03802886492312 148.2826351111696 H 0.0 **** 0.06
19608 H 59.59417636338452 14.786449559197827 148.61580997910244 H 0.0 **** 0.06
19609 H 58.22940383878961 13.795426424587262 149.18755671914374 H 0.0 **** 0.06
19610 H 58.423497327407006 14.124171967484713 147.44881889222322 H 0.0 **** 0.06
19611 C 77.97050071306083 87.96315163268468 100.48407038719533 C 0.0 **** -0.24
19612 H 77.06909966093846 88.436640407965 100.87279674971425 H 0.0 **** 0.06
19613 H 78.40532851420956 87.32417548372743 101.25303134449571 H 0.0 **** 0.06
19614 H 78.68979981433175 88.7316952097604 100.20072033553136 H 0.0 **** 0.06
19615 H 77.7180616332282 87.36175326046515 99.61120604851222 H 0.0 **** 0.06
19616 C 44.04859293497165 1.448742412842389 34.31279381319541 C 0.0 **** -0.24
19617 H 44.94405948715668 2.066572364857034 34.24684330472667 H 0.0 **** 0.06
19618 H 43.66549313709763 1.4711254174342407 35.333509861085304 H 0.0 **** 0.06
19619 H 44.293955472601496 0.422359426811866 34.03940238662011 H 0.0 **** 0.06
19620 H 43.290157492428406 1.8342171873418778 33.631285519625635 H 0.0 **** 0.06
19621 C 37.13485858789126 137.51568608969905 11.911628523665513 C 0.0 **** -0.24
19622 H 37.33781902299825 138.5650147981744 11.700107935200577 H 0.0 **** 0.06
19623 H 38.07224332536745 136.99653531618105 12.111628530671396 H 0.0 **** 0.06
19624 H 36.64338032994934 137.06003577354744 11.051184086766796 H 0.0 **** 0.06
19625 H 36.4843917587187 137.44051269542746 12.783440750694751 H 0.0 **** 0.06
19626 C 66.13572422702137 0.8064975140399042 72.75918525234798 C 0.0 **** -0.24
19627 H 67.20712143220544 0.6219444803902832 72.67648156437924 H 0.0 **** 0.06
19628 H 65.65788230935058 0.6071709919754369 71.80043362483737 H 0.0 **** 0.06
19629 H 65.96748058505506 1.845321680063563 73.04063516557777 H 0.0 **** 0.06
19630 H 65.71236404272673 0.15010389113402312 73.51949455717237 H 0.0 **** 0.06
19631 C 133.02032940521292 29.115038060477332 1.234539648554886 C 0.0 **** -0.24
19632 H 133.9335974233315 29.317824875634557 0.6741757122497347 H 0.0 **** 0.06
19633 H 132.22810632337354 29.780362244474787 0.8919013904162796 H 0.0 **** 0.06
19634 H 133.20245139776648 29.282777000486533 2.297183510575479 H 0.0 **** 0.06
19635 H 132.71983579980665 28.078805062941598 1.0770675428545644 H 0.0 **** 0.06
19636 C 148.77393369193084 81.92364716356221 151.29525420732256 C 0.0 **** -0.24
19637 H 149.37853412066113 82.80475765091015 151.51041996832754 H 0.0 **** 0.06
19638 H 148.1119407974289 82.13446636940391 150.454857057975 H 0.0 **** 0.06
19639 H 148.17981591450263 81.66776488142567 152.17221314363616 H 0.0 **** 0.06
19640 H 149.42667594341313 81.08849580025267 151.04270243142065 H 0.0 **** 0.06
19641 C 68.829423698038 19.110233294217863 11.921761259035918 C 0.0 **** -0.24
19642 H 69.01929139571519 18.06512276652063 11.679130092069158 H 0.0 **** 0.06
19643 H 68.51301869063627 19.19056669534544 12.961242405553776 H 0.0 **** 0.06
19644 H 68.0442272008786 19.496733861499933 11.271752448326708 H 0.0 **** 0.06
19645 H 69.74115818401151 19.688284308216197 11.772932815915283 H 0.0 **** 0.06
19646 C 15.827029131685833 132.90511276906633 129.0201657762668 C 0.0 **** -0.24
19647 H 14.86223714954798 133.04719958161263 128.53285842737026 H 0.0 **** 0.06
19648 H 16.5214506195303 132.4392537146736 128.32091130685177 H 0.0 **** 0.06
19649 H 15.702336097754369 132.26305096567677 129.89164493942562 H 0.0 **** 0.06
19650 H 16.221303593527665 133.87228871095346 129.33448896761507 H 0.0 **** 0.06
19651 C 28.66967639982863 128.02458257083123 63.77765234641424 C 0.0 **** -0.24
19652 H 29.223190449370676 128.86241608982266 64.19980493984744 H 0.0 **** 0.06
19653 H 28.711949977914088 127.17869705911882 64.46407082593285 H 0.0 **** 0.06
19654 H 29.113015076115573 127.74014579164727 62.823306910034105 H 0.0 **** 0.06
19655 H 27.63090432958137 128.31570934614228 63.62356652717335 H 0.0 **** 0.06
19656 C 43.885587625075445 151.45714707169867 88.14144776292126 C 0.0 **** -0.24
19657 H 44.29853837042073 152.4303833195404 87.8766165888684 H 0.0 **** 0.06
19658 H 44.49181378946204 150.67063833756794 87.6921299285869 H 0.0 **** 0.06
19659 H 42.86244669987289 151.38495161738985 87.77289908681429 H 0.0 **** 0.06
19660 H 43.88973205410798 151.34376418385335 89.22630114938406 H 0.0 **** 0.06
19661 C 148.16776110007334 2.085182501945866 66.45320864867851 C 0.0 **** -0.24
19662 H 148.93759897288248 2.6188686024803154 65.89539014412873 H 0.0 **** 0.06
19663 H 148.58833044388155 1.71273651793285 67.3873061211618 H 0.0 **** 0.06
19664 H 147.80425404266197 1.2469944389719814 65.85793804465771 H 0.0 **** 0.06
19665 H 147.34224675976114 2.7627171272507063 66.67026753821906 H 0.0 **** 0.06
19666 C 128.3532476331912 2.1402227322601846 148.63736583895232 C 0.0 **** -0.24
19667 H 128.91076417594658 3.0576848612316496 148.45285792914973 H 0.0 **** 0.06
19668 H 128.8705892996697 1.3015356272066754 148.17133020180327 H 0.0 **** 0.06
19669 H 127.35268874995599 2.2315348142516314 148.21404596705457 H 0.0 **** 0.06
19670 H 128.27852790618078 1.9700606445402968 149.71213351067968 H 0.0 **** 0.06
19671 C 79.01922100961815 139.38929028477432 29.794423178956436 C 0.0 **** -0.24
19672 H 78.16354648258647 138.73258564204363 29.954725458240745 H 0.0 **** 0.06
19673 H 78.86010711962047 139.97858958246488 28.89058700759375 H 0.0 **** 0.06
19674 H 79.92132833816106 138.78937438189118 29.683032500239165 H 0.0 **** 0.06
19675 H 79.12877826472723 140.05728931492763 30.648463083529037 H 0.0 **** 0.06
19676 C 152.6741025785014 88.61735925957183 113.03168706331117 C 0.0 **** -0.24
19677 H 152.01689645302775 87.82590187212762 113.39111572717964 H 0.0 **** 0.06
19678 H 153.22750242496699 88.26325087221534 112.16303956930217 H 0.0 **** 0.06
19679 H 153.3735421948764 88.8938464628094 113.82070589966501 H 0.0 **** 0.06
19680 H 152.07653554044242 89.48650086206628 112.75417989849693 H 0.0 **** 0.06
19681 C 65.03751973304664 34.801845429907395 103.30562064887044 C 0.0 **** -0.24
19682 H 65.62921260370726 34.585286452974294 102.416084571505 H 0.0 **** 0.06
19683 H 64.83192406105199 35.87220265522866 103.35220998355396 H 0.0 **** 0.06
19684 H 65.5913480896196 34.49833513635551 104.19389724823986 H 0.0 **** 0.06
19685 H 64.09656891360105 34.25282847593123 103.25758270879857 H 0.0 **** 0.06
19686 C 15.781103272224641 118.01214685374623 5.885855103023573 C 0.0 **** -0.24
19687 H 16.32299147481018 118.79742608426483 6.414166961649244 H 0.0 **** 0.06
19688 H 15.157174180535094 118.45884339538509 5.112354406443444 H 0.0 **** 0.06
19689 H 15.15293669735911 117.46775684408749 6.591253541456922 H 0.0 **** 0.06
19690 H 16.49344001122381 117.32503282037203 5.427935477430424 H 0.0 **** 0.06
19691 C 50.9152121999353 134.906657707037 22.32709535454216 C 0.0 **** -0.24
19692 H 49.97397048667942 134.59506807868794 22.77954822494243 H 0.0 **** 0.06
19693 H 51.559455422146016 135.3433054027978 23.090886663451435 H 0.0 **** 0.06
19694 H 50.717828687904955 135.64620986893908 21.55114560320294 H 0.0 **** 0.06
19695 H 51.41027424994391 134.04075748565896 21.8858662853079 H 0.0 **** 0.06
19696 C 143.38870119245564 102.90141332868073 33.426944457665684 C 0.0 **** -0.24
19697 H 142.69325459372052 102.90921223557747 32.58777947388916 H 0.0 **** 0.06
19698 H 144.40230751838274 103.0654884629766 33.059851459775984 H 0.0 **** 0.06
19699 H 143.33731757871092 101.93858621194282 33.93378100762146 H 0.0 **** 0.06
19700 H 143.1229608930663 103.69457950327829 34.12619420035492 H 0.0 **** 0.06
19701 C 68.86641049837164 84.77434294565487 68.15031865360712 C 0.0 **** -0.24
19702 H 67.85289377483682 85.15472486391019 68.02622960297191 H 0.0 **** 0.06
19703 H 69.24122480369529 85.0565640225544 69.13522486173247 H 0.0 **** 0.06
19704 H 69.51069041396207 85.19981192671105 67.38060622479398 H 0.0 **** 0.06
19705 H 68.8610652171882 83.68817964123011 68.0603555073402 H 0.0 **** 0.06
19706 C 85.67588555018455 78.48457714319704 115.7073848983435 C 0.0 **** -0.24
19707 H 86.09822361646647 79.16828866892331 116.44426602983005 H 0.0 **** 0.06
19708 H 84.59398663047949 78.43705440429767 115.834176112154 H 0.0 **** 0.06
19709 H 86.10290422323692 77.49126886694955 115.84809173945057 H 0.0 **** 0.06
19710 H 85.90957628584249 78.84219076658792 114.70511209454203 H 0.0 **** 0.06
19711 C 80.80735804776782 87.43358334002403 24.16117362762327 C 0.0 **** -0.24
19712 H 81.28588042592082 87.83543363115623 23.268064256661944 H 0.0 **** 0.06
19713 H 80.10052869484275 88.16537042971967 24.55321522684585 H 0.0 **** 0.06
19714 H 81.56537824541527 87.2195216575956 24.91422782739221 H 0.0 **** 0.06
19715 H 80.27760904078028 86.51569332137758 23.907718402120565 H 0.0 **** 0.06
19716 C 17.023967757592587 134.48129711903374 7.256407318543637 C 0.0 **** -0.24
19717 H 16.704878627003886 134.42203931179353 8.29782335829293 H 0.0 **** 0.06
19718 H 17.496203122875656 133.5423146903012 6.96710049382375 H 0.0 **** 0.06
19719 H 17.73728069620968 135.29812673721983 7.141438911243199 H 0.0 **** 0.06
19720 H 16.15734765776449 134.66467244344483 6.621527997821829 H 0.0 **** 0.06
19721 C 33.077622698911625 58.18983678881031 81.5849693621764 C 0.0 **** -0.24
19722 H 33.66930314869855 59.05392648972118 81.28212300411028 H 0.0 **** 0.06
19723 H 32.19643889410358 58.52658425697973 82.13310437163199 H 0.0 **** 0.06
19724 H 33.67855279537191 57.5440665073764 82.225172010081 H 0.0 **** 0.06
19725 H 32.76569312338604 57.63512933779285 80.70026418993388 H 0.0 **** 0.06
19726 C 67.52320630746141 0.15787777045551366 34.62769986058558 C 0.0 **** -0.24
19727 H 68.07307653486869 0.9052788950126001 35.19969021389207 H 0.0 **** 0.06
19728 H 68.2105022422794 -0.6152482227702762 34.283531032424065 H 0.0 **** 0.06
19729 H 67.05203647256603 0.6337938517602026 33.7670195603331 H 0.0 **** 0.06
19730 H 66.75682672020272 -0.2922001094732707 35.25887329739663 H 0.0 **** 0.06
19731 C 90.27964078487072 89.2603074677892 54.38854666479425 C 0.0 **** -0.24
19732 H 91.337563667674 89.17838885006213 54.141449217860156 H 0.0 **** 0.06
19733 H 89.68085256820308 88.94753005615546 53.53318146152748 H 0.0 **** 0.06
19734 H 90.04392108404474 90.295526529621 54.63804703150407 H 0.0 **** 0.06
19735 H 90.0554431236048 88.62080694860701 55.24266737448622 H 0.0 **** 0.06
19736 C 72.77442345260924 102.10465923172795 4.472474215906914 C 0.0 **** -0.24
19737 H 73.36886275913452 101.92923716357079 3.5761362985781204 H 0.0 **** 0.06
19738 H 72.31491945086066 103.0920210066058 4.415619078678333 H 0.0 **** 0.06
19739 H 73.41773151845223 102.05320124089583 5.35071704619412 H 0.0 **** 0.06
19740 H 71.99608291943152 101.34584748667403 4.546975157974487 H 0.0 **** 0.06
19741 C 87.80691520878577 50.18708083362739 48.84319728261869 C 0.0 **** -0.24
19742 H 87.28190921576225 50.984636934946025 49.36736957387649 H 0.0 **** 0.06
19743 H 87.2782082514093 49.94956650746802 47.920380100985824 H 0.0 **** 0.06
19744 H 87.84682226022403 49.30096167302362 49.477559929505844 H 0.0 **** 0.06
19745 H 88.82041592215609 50.51184866388584 48.60952699338765 H 0.0 **** 0.06
19746 C 3.006963442101977 42.53160820239668 95.0522454246281 C 0.0 **** -0.24
19747 H 2.3224377859015704 41.80929473368735 95.49622687487795 H 0.0 **** 0.06
19748 H 2.641038716460912 42.822524491959825 94.06776055068212 H 0.0 **** 0.06
19749 H 3.995620913432788 42.08233898885817 94.95455062985036 H 0.0 **** 0.06
19750 H 3.0702784224009463 43.412048135069995 95.69206604322864 H 0.0 **** 0.06
19751 C 129.94308236929393 153.67295779412578 147.56241389524385 C 0.0 **** -0.24
19752 H 130.71948556371484 152.93488499774818 147.3612614774335 H 0.0 **** 0.06
19753 H 129.63765199106416 154.14181606195928 146.62744231637475 H 0.0 **** 0.06
19754 H 130.3311900960344 154.43258796840448 148.24095207479112 H 0.0 **** 0.06
19755 H 129.08492342196436 153.18028643527302 148.0202499426153 H 0.0 **** 0.06
19756 C 19.07105185487933 149.4006360279538 115.6342446430192 C 0.0 **** -0.24
19757 H 18.86836194349621 149.69896674891865 116.66245095766078 H 0.0 **** 0.06
19758 H 19.80614709800838 148.5953239940122 115.62822721118306 H 0.0 **** 0.06
19759 H 19.461147332715086 150.2540472307004 115.0790153842184 H 0.0 **** 0.06
19760 H 18.149220191180518 149.05525398238723 115.1679590601205 H 0.0 **** 0.06
19761 C 140.83760550894482 15.909727633676198 91.01838344574236 C 0.0 **** -0.24
19762 H 141.7900321131491 15.809205238571678 91.53822424994001 H 0.0 **** 0.06
19763 H 140.98422156695938 16.475784580039402 90.09799876198286 H 0.0 **** 0.06
19764 H 140.1277277013587 16.4334867963251 91.65826038357886 H 0.0 **** 0.06
19765 H 140.4489647420788 14.919867525406488 90.77786523155484 H 0.0 **** 0.06
19766 C 82.30811016354664 91.29213619352814 80.74148220928966 C 0.0 **** -0.24
19767 H 81.2220528140183 91.30815108354464 80.83334967701107 H 0.0 **** 0.06
19768 H 82.75406558672194 91.78113025390093 81.60866690837152 H 0.0 **** 0.06
19769 H 82.60376569978791 91.81990235232762 79.8346308631728 H 0.0 **** 0.06
19770 H 82.65306047959095 90.25880997983887 80.68994650140098 H 0.0 **** 0.06
19771 C 24.635070750344823 133.30168395011637 68.53899991627554 C 0.0 **** -0.24
19772 H 24.166233034516438 132.79230250024847 67.69659476874534 H 0.0 **** 0.06
19773 H 25.640528673795302 132.90732933043085 68.68757475694412 H 0.0 **** 0.06
19774 H 24.042203932118127 133.13490890243804 69.43854130091063 H 0.0 **** 0.06
19775 H 24.689183169840703 134.3706040688891 68.33158171293235 H 0.0 **** 0.06
19776 C 141.84499796033361 98.4431961214478 43.494010658336265 C 0.0 **** -0.24
19777 H 142.9044040092778 98.55858692328363 43.72363310172585 H 0.0 **** 0.06
19778 H 141.70141278861448 97.5533453818777 42.880197439902645 H 0.0 **** 0.06
19779 H 141.4933819896961 99.32011936499055 42.950589551145185 H 0.0 **** 0.06
19780 H 141.28125348783075 98.34102579899672 44.42031784662072 H 0.0 **** 0.06
19781 C 121.11779142901976 32.425235642706866 117.79537325470727 C 0.0 **** -0.24
19782 H 121.93365809977642 31.705077550685246 117.86176292041205 H 0.0 **** 0.06
19783 H 120.19617818096377 31.962759481673118 118.14805934401744 H 0.0 **** 0.06
19784 H 120.9943917438119 32.7370237918127 116.75793199899027 H 0.0 **** 0.06
19785 H 121.34808320142487 33.29391397110231 118.41091227138912 H 0.0 **** 0.06
19786 C 142.90479404237874 33.366560380669355 109.39095554723748 C 0.0 **** -0.24
19787 H 143.74525175114618 32.69896826539744 109.58351284212286 H 0.0 **** 0.06
19788 H 141.99483612303948 32.779310476957654 109.26985315762455 H 0.0 **** 0.06
19789 H 143.0955741035539 33.93615552665675 108.48164592162063 H 0.0 **** 0.06
19790 H 142.78727289051344 34.052016525774384 110.23076704423629 H 0.0 **** 0.06
19791 C 113.12662619461484 29.55908894492805 155.49427756563955 C 0.0 **** -0.24
19792 H 112.90131261805668 30.442025361684927 156.092438704857 H 0.0 **** 0.06
19793 H 112.38813404932311 28.783616221092416 155.6984615202735 H 0.0 **** 0.06
19794 H 114.12019891672271 29.191977138946754 155.75039242458485 H 0.0 **** 0.06
19795 H 113.0972029169772 29.82089824700654 154.43691820908344 H 0.0 **** 0.06
19796 C 152.8392064998689 44.71038599256485 125.01597814540064 C 0.0 **** -0.24
19797 H 152.86418149918052 45.79572833308822 124.92164944135995 H 0.0 **** 0.06
19798 H 152.08853093846415 44.427389727719145 125.75366369913904 H 0.0 **** 0.06
19799 H 153.81720594210014 44.35180818291957 125.3371816957221 H 0.0 **** 0.06
19800 H 152.58808936298988 44.266668254873025 124.05268306249782 H 0.0 **** 0.06
19801 C 18.166319839487294 133.73596146472607 27.03354646370326 C 0.0 **** -0.24
19802 H 18.18736339210742 133.50818433291641 25.966836809536034 H 0.0 **** 0.06
19803 H 17.678779412321425 132.92131922640695 27.569186297198883 H 0.0 **** 0.06
19804 H 17.613426446989948 134.66061586213215 27.19559514472101 H 0.0 **** 0.06
19805 H 19.186539802637455 133.85371447803334 27.39891905336617 H 0.0 **** 0.06
19806 C 130.17048814429654 71.83801999231952 53.181454480043456 C 0.0 **** -0.24
19807 H 130.43528799306432 72.09309125415477 54.20769196250319 H 0.0 **** 0.06
19808 H 130.65621591747038 72.53552004361283 52.498556316191554 H 0.0 **** 0.06
19809 H 129.08977871299652 71.90213955495827 53.05881498912292 H 0.0 **** 0.06
19810 H 130.50279217497683 70.82392905820582 52.961613064060444 H 0.0 **** 0.06
19811 C 90.57969919167944 92.71027763050262 77.56096511153643 C 0.0 **** -0.24
19812 H 89.6395572929123 92.82159944710565 77.02029113380189 H 0.0 **** 0.06
19813 H 90.91764746880347 93.6873946299385 77.90696658753832 H 0.0 **** 0.06
19814 H 91.33024863805727 92.27900019496707 76.89986306406485 H 0.0 **** 0.06
19815 H 90.42950169244618 92.05337379313212 78.41747589220901 H 0.0 **** 0.06
19816 C 62.71360846693848 32.084564895827384 68.03756737573781 C 0.0 **** -0.24
19817 H 62.86634598958706 33.10607256799105 68.38483236545908 H 0.0 **** 0.06
19818 H 61.70585254502127 31.985803282453503 67.6324330019592 H 0.0 **** 0.06
19819 H 62.83834223610603 31.39574918569167 68.87284640864691 H 0.0 **** 0.06
19820 H 63.442107154384814 31.85142733411857 67.2616349177985 H 0.0 **** 0.06
19821 C 35.32256616827385 47.02115827113943 66.85032437174428 C 0.0 **** -0.24
19822 H 35.57314803022058 46.41717626523223 65.97895126097006 H 0.0 **** 0.06
19823 H 35.08562893406838 46.36713954041221 67.69009812129815 H 0.0 **** 0.06
19824 H 34.458946530807054 47.64723548676511 66.62261147403876 H 0.0 **** 0.06
19825 H 36.17149153172102 47.65327924434598 67.11056362604211 H 0.0 **** 0.06
19826 C 153.88680330669905 39.10639900091836 0.323225910584199 C 0.0 **** -0.24
19827 H 154.9105945927734 38.80567585226757 0.5471403621537547 H 0.0 **** 0.06
19828 H 153.86272487745927 40.1722048013513 0.09594657027281528 H 0.0 **** 0.06
19829 H 153.25212998985137 38.90364476176315 1.1853553328016062 H 0.0 **** 0.06
19830 H 153.5224552587393 38.54321540745168 -0.5364277627046192 H 0.0 **** 0.06
19831 C 152.9796739622313 16.144888885899064 115.26853971740785 C 0.0 **** -0.24
19832 H 152.9152337033429 15.348873986350497 114.52667624919162 H 0.0 **** 0.06
19833 H 152.49555031866922 15.822278857909282 116.18969480864608 H 0.0 **** 0.06
19834 H 152.48138274302687 17.03689099000863 114.8876541590317 H 0.0 **** 0.06
19835 H 154.02670055930102 16.3710891430093 115.46716846696081 H 0.0 **** 0.06
19836 C 0.7437476699864192 40.593905680739965 10.460350672171728 C 0.0 **** -0.24
19837 H 1.75857468639677 40.93195304781278 10.669966451648463 H 0.0 **** 0.06
19838 H 0.39822122855247244 41.03992574202749 9.527256741714837 H 0.0 **** 0.06
19839 H 0.08480198957906282 40.89768275629194 11.274005859250337 H 0.0 **** 0.06
19840 H 0.7335056229910606 39.507971922992795 10.370753674620119 H 0.0 **** 0.06
19841 C 27.085697923357714 120.77000680162847 55.46815685111096 C 0.0 **** -0.24
19842 H 28.150455269043846 120.55220157608504 55.55708030472613 H 0.0 **** 0.06
19843 H 26.764771286967004 120.59954833171132 54.44043428134273 H 0.0 **** 0.06
19844 H 26.90421270755752 121.80945095697611 55.73925756216886 H 0.0 **** 0.06
19845 H 26.52531767941548 120.11630048571912 56.13672600507596 H 0.0 **** 0.06
19846 C 41.71191732951944 145.65209451663566 75.18278169016054 C 0.0 **** -0.24
19847 H 42.13679098135576 145.3995679561948 74.2114514803502 H 0.0 **** 0.06
19848 H 42.50087235734516 146.0178895159513 75.83949976904825 H 0.0 **** 0.06
19849 H 41.255888694492896 144.76466174496312 75.62097526801756 H 0.0 **** 0.06
19850 H 40.95413521511608 146.42574929558555 75.05702304407782 H 0.0 **** 0.06
19851 C 18.213982541671925 94.38786601279787 127.02319129489773 C 0.0 **** -0.24
19852 H 18.983922738497533 93.82560901083338 126.4957988461763 H 0.0 **** 0.06
19853 H 17.281272794029285 94.34303867031207 126.46005211228014 H 0.0 **** 0.06
19854 H 18.528106746300892 95.42702438224416 127.12442646747506 H 0.0 **** 0.06
19855 H 18.06262788785989 93.955791987802 128.01248775365934 H 0.0 **** 0.06
19856 C 148.88086665218285 24.52686394950738 156.39699711452886 C 0.0 **** -0.24
19857 H 149.56315574424224 23.69723876802331 156.21142683560907 H 0.0 **** 0.06
19858 H 148.51949424024897 24.47813057335236 157.42432701177705 H 0.0 **** 0.06
19859 H 148.03678917702683 24.46247713838514 155.71032963584162 H 0.0 **** 0.06
19860 H 149.40506243193678 25.470209250277534 156.24001578168526 H 0.0 **** 0.06
19861 C 22.784048595386885 37.086870205655714 81.97630048210415 C 0.0 **** -0.24
19862 H 22.198798040448025 37.812232326944866 82.54177043047103 H 0.0 **** 0.06
19863 H 22.12465454961052 36.52963355282054 81.31038494879574 H 0.0 **** 0.06
19864 H 23.271866414715944 36.39870454523475 82.66560696240988 H 0.0 **** 0.06
19865 H 23.538746216751555 37.60900525589585 81.38771983549738 H 0.0 **** 0.06
19866 C 34.46021266854149 25.612183345061737 140.35943115782015 C 0.0 **** -0.24
19867 H 33.94443138658431 25.680034170195 141.31728584739855 H 0.0 **** 0.06
19868 H 35.30127088471875 24.924256840726713 140.44844737620818 H 0.0 **** 0.06
19869 H 34.82543569621964 26.59918777685931 140.07373884430913 H 0.0 **** 0.06
19870 H 33.76888393957188 25.24644472793574 139.60022662466164 H 0.0 **** 0.06
19871 C 155.77879525744606 28.482618198191346 51.41762088105378 C 0.0 **** -0.24
19872 H 156.42185407341896 28.6573562030145 50.55582646482287 H 0.0 **** 0.06
19873 H 156.33244459628003 28.695036581870625 52.33328652731302 H 0.0 **** 0.06
19874 H 155.45260397572738 27.441910369754282 51.422737531725886 H 0.0 **** 0.06
19875 H 154.90832462451158 29.13660953599657 51.35997628617969 H 0.0 **** 0.06
19876 C 68.1507892761099 102.84199608276828 35.236950267117805 C 0.0 **** -0.24
19877 H 69.04714961723964 102.70033742885613 34.632397816685454 H 0.0 **** 0.06
19878 H 67.38107025936934 103.32699830973223 34.63696349027262 H 0.0 **** 0.06
19879 H 68.38866312952918 103.4664258879011 36.09771045246768 H 0.0 **** 0.06
19880 H 67.78852993050754 101.872308601452 35.58023159104819 H 0.0 **** 0.06
19881 C 129.64932293201525 69.41791161399814 75.14000969400368 C 0.0 **** -0.24
19882 H 128.58019602335713 69.4317935456036 75.35158146078102 H 0.0 **** 0.06
19883 H 129.93882462738225 70.35513755583528 74.6639708335627 H 0.0 **** 0.06
19884 H 129.87661571166288 68.58600295215672 74.47354766557078 H 0.0 **** 0.06
19885 H 130.20197854539472 69.29817296161013 76.0722055534822 H 0.0 **** 0.06
19886 C 75.79452202147417 71.89937783231096 154.17058166091658 C 0.0 **** -0.24
19887 H 75.53573663180066 70.91196330214403 154.55345938739887 H 0.0 **** 0.06
19888 H 75.10045039388388 72.17333993025645 153.3755306929969 H 0.0 **** 0.06
19889 H 76.81045438726593 71.87985576184929 153.77575385377418 H 0.0 **** 0.06
19890 H 75.73136060641644 72.62994934685707 154.97711533826964 H 0.0 **** 0.06
19891 C 79.85711007621023 87.61625254151323 75.28900381956021 C 0.0 **** -0.24
19892 H 80.22493284644479 86.70182372038744 75.75336464843093 H 0.0 **** 0.06
19893 H 78.76922454956805 87.645110757017 75.35621229785471 H 0.0 **** 0.06
19894 H 80.15784964563342 87.63846745371754 74.24143096382005 H 0.0 **** 0.06
19895 H 80.27587006519013 88.47988715021401 75.80578521569214 H 0.0 **** 0.06
19896 C 113.66024269847725 133.2761253677601 25.742995735884676 C 0.0 **** -0.24
19897 H 114.25659338825642 132.36405321969573 25.705928930943912 H 0.0 **** 0.06
19898 H 113.42572812288967 133.51355413530493 26.7808180599813 H 0.0 **** 0.06
19899 H 112.73556910827949 133.12888315908776 25.18496782039756 H 0.0 **** 0.06
19900 H 114.22483157756892 134.0966360808657 25.300062060074566 H 0.0 **** 0.06
19901 C 113.77393533128254 65.4752756724242 50.95706085269421 C 0.0 **** -0.24
19902 H 114.8625797067963 65.44266902923945 50.985165401482504 H 0.0 **** 0.06
19903 H 113.3749743504592 64.48377944492078 51.172128400858355 H 0.0 **** 0.06
19904 H 113.44462643589644 65.7934724117658 49.96809970801081 H 0.0 **** 0.06
19905 H 113.4126669060371 66.18215711078602 51.70491142120761 H 0.0 **** 0.06
19906 C 80.80685284647865 32.885988239422915 136.00500642501117 C 0.0 **** -0.24
19907 H 81.57546957785229 33.46783873831089 135.49571377069182 H 0.0 **** 0.06
19908 H 81.14910886461303 32.63287945268917 137.00862210964408 H 0.0 **** 0.06
19909 H 80.61301164557003 31.971494605859732 135.44489961601377 H 0.0 **** 0.06
19910 H 79.89072280855086 33.47378411572643 136.07088863969156 H 0.0 **** 0.06
19911 C 28.125726883951067 111.6670093657079 12.737869880617524 C 0.0 **** -0.24
19912 H 27.578702684001648 111.06570216246662 12.011468576334067 H 0.0 **** 0.06
19913 H 28.31609484867409 112.6557879604096 12.319554657311926 H 0.0 **** 0.06
19914 H 29.073050402726246 111.18141513490967 12.970397381158534 H 0.0 **** 0.06
19915 H 27.534386952203775 111.76437303607686 13.647829243526047 H 0.0 **** 0.06
19916 C 5.320202698525719 124.36887278523419 98.64363661306211 C 0.0 **** -0.24
19917 H 4.39082826463374 123.83016356269034 98.82816087355131 H 0.0 **** 0.06
19918 H 5.222875144277239 125.3930335755593 99.00203534677452 H 0.0 **** 0.06
19919 H 5.529062052629257 124.37543462032052 97.5734499883725 H 0.0 **** 0.06
19920 H 6.137249642255874 123.87401308252596 99.16939498204475 H 0.0 **** 0.06
19921 C 87.44514478393468 115.43510585496618 76.48692197915452 C 0.0 **** -0.24
19922 H 87.05034003245204 114.49600314451526 76.10086507024837 H 0.0 **** 0.06
19923 H 87.9767570918736 115.95939454905071 75.6924999210112 H 0.0 **** 0.06
19924 H 88.1302755628715 115.22981801449846 77.30913324904535 H 0.0 **** 0.06
19925 H 86.6232064485416 116.05520771180018 76.84518967631298 H 0.0 **** 0.06
19926 C 34.87349937195532 18.282161612467767 74.30008624913944 C 0.0 **** -0.24
19927 H 35.10987831289742 19.293197197248205 74.63111600443568 H 0.0 **** 0.06
19928 H 35.236088006204085 18.13944681983633 73.28288932125663 H 0.0 **** 0.06
19929 H 33.79329632241726 18.134860146295964 74.32545071188407 H 0.0 **** 0.06
19930 H 35.35334595581132 17.562181678115934 74.96261836452979 H 0.0 **** 0.06
19931 C 132.39394407145852 78.66417469160979 152.6131653209922 C 0.0 **** -0.24
19932 H 131.9432800107002 77.79974086717961 152.12637510667054 H 0.0 **** 0.06
19933 H 133.4151895156745 78.42338168638376 152.9092618567093 H 0.0 **** 0.06
19934 H 131.81169555317896 78.92832728682298 153.49653544388042 H 0.0 **** 0.06
19935 H 132.40573215179532 79.50607876031748 151.92103365173114 H 0.0 **** 0.06
19936 C 97.89783592833678 81.12847802830629 119.33830466326641 C 0.0 **** -0.24
19937 H 97.82647071497922 82.00799020652022 118.69901601136176 H 0.0 **** 0.06
19938 H 97.25191395873662 80.34146134236312 118.94598808818047 H 0.0 **** 0.06
19939 H 97.58244069696764 81.387850602647 120.34942454717428 H 0.0 **** 0.06
19940 H 98.92914385829675 80.77578624682945 119.35813244707741 H 0.0 **** 0.06
19941 C 114.7236325511841 102.15239684640788 156.73704222643542 C 0.0 **** -0.24
19942 H 114.01763369693606 102.59069019988563 157.44250181325123 H 0.0 **** 0.06
19943 H 115.13310436938525 102.93648591790704 156.09876572966726 H 0.0 **** 0.06
19944 H 114.21038790275452 101.41346794459626 156.12178319480356 H 0.0 **** 0.06
19945 H 115.53255282983173 101.66990794826906 157.28570525555375 H 0.0 **** 0.06
19946 C 7.804933328623065 155.18415966427543 26.53527704211686 C 0.0 **** -0.24
19947 H 6.958220832729523 155.67237889103566 26.05294976625015 H 0.0 **** 0.06
19948 H 7.4413977138892164 154.38744564444048 27.185074189321483 H 0.0 **** 0.06
19949 H 8.356531720055926 155.91415339066444 27.126812342272075 H 0.0 **** 0.06
19950 H 8.461463269380573 154.76125196292784 25.7746837254941 H 0.0 **** 0.06
19951 C 5.796263477173511 134.89740025802257 22.74292613244745 C 0.0 **** -0.24
19952 H 5.5825217622081595 135.95699391688154 22.60298534004025 H 0.0 **** 0.06
19953 H 6.859103210202079 134.76522796554246 22.945138531512185 H 0.0 **** 0.06
19954 H 5.526700825257194 134.35023202722692 21.839799030797565 H 0.0 **** 0.06
19955 H 5.216221124990284 134.51798930269894 23.583965285052102 H 0.0 **** 0.06
19956 C 115.83772612847213 63.40183420973514 28.043602647075318 C 0.0 **** -0.24
19957 H 116.55813722686855 64.07877520648154 28.50430694753245 H 0.0 **** 0.06
19958 H 114.87582453171109 63.906423869593525 27.947569858633152 H 0.0 **** 0.06
19959 H 115.72256561665967 62.5146143517763 28.667233700993243 H 0.0 **** 0.06
19960 H 116.19504795794842 63.108285563558056 27.05729238830535 H 0.0 **** 0.06
19961 C 7.519125640558229 109.59930115961937 5.242900029990281 C 0.0 **** -0.24
19962 H 7.875757119149171 109.19233209474679 6.188848667268381 H 0.0 **** 0.06
19963 H 8.327194309150343 109.58257442920932 4.51230446517836 H 0.0 **** 0.06
19964 H 7.184870573466469 110.62550690254575 5.39276652979828 H 0.0 **** 0.06
19965 H 6.687528625157142 108.99548783633433 4.879405117763298 H 0.0 **** 0.06
19966 C 153.37356662968307 25.120670922347387 57.531505689574004 C 0.0 **** -0.24
19967 H 153.2412857124609 26.168981116295214 57.80292461479961 H 0.0 **** 0.06
19968 H 153.2969560737173 25.013813879524577 56.44963691102953 H 0.0 **** 0.06
19969 H 152.6012978511576 24.520745822742185 58.01326754926967 H 0.0 **** 0.06
19970 H 154.3554001302937 24.782210978360638 57.86222688456016 H 0.0 **** 0.06
19971 C 5.024673759908289 154.92394723821323 136.10693229576515 C 0.0 **** -0.24
19972 H 5.988853285042559 154.46700041727257 135.88441462798565 H 0.0 **** 0.06
19973 H 4.258835731566762 154.1501937886571 136.15534062767176 H 0.0 **** 0.06
19974 H 4.771831024976031 155.638543039921 135.3231510199793 H 0.0 **** 0.06
19975 H 5.080561407261044 155.44032838220355 137.06486012873162 H 0.0 **** 0.06
19976 C 86.86380429731781 12.46652859921204 110.94932875998857 C 0.0 **** -0.24
19977 H 87.4627359235501 11.911307643250325 111.67069846006443 H 0.0 **** 0.06
19978 H 87.51405928035001 13.112861508769186 110.35884850179282 H 0.0 **** 0.06
19979 H 86.13002983090979 13.074921215445897 111.47767250735372 H 0.0 **** 0.06
19980 H 86.34917407270945 11.768200477242544 110.29002745770903 H 0.0 **** 0.06
19981 C 108.19834886411178 142.81420973809426 89.66885778364723 C 0.0 **** -0.24
19982 H 107.922998114488 143.54955306414644 88.91273621011248 H 0.0 **** 0.06
19983 H 108.95426323707699 143.23908434851984 90.32914839461162 H 0.0 **** 0.06
19984 H 108.59881633231316 141.92457811595824 89.18183716360386 H 0.0 **** 0.06
19985 H 107.31692314770362 142.54374236734205 90.25035652157754 H 0.0 **** 0.06
19986 C 136.20044771098316 9.801388647377564 10.579484393300959 C 0.0 **** -0.24
19987 H 137.1753502438998 10.041520267402802 11.003284481201547 H 0.0 **** 0.06
19988 H 136.32495915561447 9.4700636704913 9.548182616095232 H 0.0 **** 0.06
19989 H 135.5658812989143 10.686639061835024 10.603995732201781 H 0.0 **** 0.06
19990 H 135.737191707683 9.005788882731338 11.163517422987411 H 0.0 **** 0.06
19991 C 39.78531062618856 89.10200471009335 7.463028576178715 C 0.0 **** -0.24
19992 H 39.518317664579456 90.14391969734436 7.285513511969384 H 0.0 **** 0.06
19993 H 38.896294735235216 88.47833679773026 7.362670250832309 H 0.0 **** 0.06
19994 H 40.19156164702002 88.99681938553465 8.468366223191367 H 0.0 **** 0.06
19995 H 40.53259899917326 88.7891995362861 6.7333651597837445 H 0.0 **** 0.06
19996 C 121.18303817259802 104.92318189856697 60.9560225104417 C 0.0 **** -0.24
19997 H 121.4220711362576 105.88425276876693 60.50089979048467 H 0.0 **** 0.06
19998 H 120.58808419405624 104.33063509894852 60.26042941692707 H 0.0 **** 0.06
19999 H 120.61544393265736 105.08723399721855 61.87217280855016 H 0.0 **** 0.06
20000 H 122.10518393852213 104.39229071424244 61.18945421748225 H 0.0 **** 0.06
20001 C 1.2584722582972638 88.49830807330626 25.964422324631784 C 0.0 **** -0.24
20002 H 0.9280280789832709 87.46224348623562 25.887114478747435 H 0.0 **** 0.06
20003 H 0.468931325715392 89.09805449311816 26.415838959164887 H 0.0 **** 0.06
20004 H 1.482498904492477 88.88240026731945 24.968963667892353 H 0.0 **** 0.06
20005 H 2.154174623291027 88.54873604906066 26.583384325390085 H 0.0 **** 0.06
20006 C 64.70999650027457 80.87036517229575 106.15907175987589 C 0.0 **** -0.24
20007 H 63.958843286277855 80.26535371555224 105.65044745296377 H 0.0 **** 0.06
20008 H 64.62893437648867 80.72090172654686 107.2360927935648 H 0.0 **** 0.06
20009 H 64.54766132207197 81.9230379973232 105.92396765961259 H 0.0 **** 0.06
20010 H 65.70397535789678 80.57229315982755 105.82449172570732 H 0.0 **** 0.06
20011 C 55.16109725192274 155.14475757754923 73.78092323855827 C 0.0 **** -0.24
20012 H 54.96179110032932 155.73017622901355 74.67809752895704 H 0.0 **** 0.06
20013 H 56.22658401182255 155.17791754762268 73.55504931699102 H 0.0 **** 0.06
20014 H 54.59801779639565 155.558706751855 72.9446725185401 H 0.0 **** 0.06
20015 H 54.857287502331246 154.1116902887459 73.94697218111759 H 0.0 **** 0.06
20016 C 58.55595679244476 42.69958716356166 77.33117465203446 C 0.0 **** -0.24
20017 H 58.255079762914576 42.34246289657358 78.3170240333735 H 0.0 **** 0.06
20018 H 58.43363988384861 41.89828149532627 76.6019994384988 H 0.0 **** 0.06
20019 H 59.60025645967421 43.00958132992565 77.3605425593999 H 0.0 **** 0.06
20020 H 57.93316348418328 43.548470863589216 77.04776919586543 H 0.0 **** 0.06
20021 C 29.206121587934717 39.88726582236362 14.757869476846203 C 0.0 **** -0.24
20022 H 29.99900786372983 39.66013792808734 15.470142547830307 H 0.0 **** 0.06
20023 H 29.567122923082422 40.61683481351008 14.032912377435125 H 0.0 **** 0.06
20024 H 28.347141324782967 40.296061247042374 15.289304191516287 H 0.0 **** 0.06
20025 H 28.911106336728295 38.974055619759454 14.23942386460169 H 0.0 **** 0.06
20026 C 58.5545547001219 35.239853813044505 60.646997566438245 C 0.0 **** -0.24
20027 H 58.36169910370694 34.67866994007633 59.73248400053342 H 0.0 **** 0.06
20028 H 59.59661800000556 35.5587787884366 60.66484706202202 H 0.0 **** 0.06
20029 H 58.35233439337779 34.60569962178954 61.51032895677898 H 0.0 **** 0.06
20030 H 57.905131433452254 36.114755656353964 60.679445391893395 H 0.0 **** 0.06
20031 C 42.668300856758236 141.95345505182192 139.7421862048576 C 0.0 **** -0.24
20032 H 42.015181507966304 141.80858313618975 138.88162422804822 H 0.0 **** 0.06
20033 H 42.916047424246585 143.01093340071873 139.83585509555476 H 0.0 **** 0.06
20034 H 43.582341087602 141.37561507341576 139.60618591408573 H 0.0 **** 0.06
20035 H 42.15722363669951 141.61900931895858 140.64477901769314 H 0.0 **** 0.06
20036 C 112.13477607257734 122.45257460734557 8.148224082421507 C 0.0 **** -0.24
20037 H 113.0809380669357 121.99110530094164 8.427493070634085 H 0.0 **** 0.06
20038 H 112.09977943080206 122.58383782651318 7.066347980577746 H 0.0 **** 0.06
20039 H 112.04586984217606 123.42448244559891 8.635204120890194 H 0.0 **** 0.06
20040 H 111.31166246688362 121.8119997636886 8.463852839673393 H 0.0 **** 0.06
20041 C 7.977468710310518 30.69571936325201 8.896459838637412 C 0.0 **** -0.24
20042 H 8.269638398885178 29.848764411300778 9.518176727698659 H 0.0 **** 0.06
20043 H 6.898022126839635 30.833567905183656 8.955700968254973 H 0.0 **** 0.06
20044 H 8.262928758597837 30.50247703266625 7.862569311347812 H 0.0 **** 0.06
20045 H 8.479785753593717 31.595670311506808 9.24941664598856 H 0.0 **** 0.06
20046 C 58.2698196115054 73.89312640187005 61.24927400465131 C 0.0 **** -0.24
20047 H 57.32301375667262 74.1348356862762 60.76397817715383 H 0.0 **** 0.06
20048 H 58.368483146094846 72.81088678218715 61.332193094587126 H 0.0 **** 0.06
20049 H 58.29104224088593 74.33828037337524 62.24353764296177 H 0.0 **** 0.06
20050 H 59.0930844591783 74.28934013427265 60.65567202711728 H 0.0 **** 0.06
20051 C 74.17192570096017 120.76655181297706 26.46603590139813 C 0.0 **** -0.24
20052 H 73.18431977552407 120.95932181055294 26.88464780287778 H 0.0 **** 0.06
20053 H 74.28968254951462 119.6966704192994 26.29020119950912 H 0.0 **** 0.06
20054 H 74.93546237179265 121.10570502672032 27.166027699704237 H 0.0 **** 0.06
20055 H 74.27770196596211 121.30346525886857 25.524055030135564 H 0.0 **** 0.06
20056 C 58.14288816126577 118.61491946455665 43.2301127259028 C 0.0 **** -0.24
20057 H 57.74829427610632 119.63142305078746 43.21583577337016 H 0.0 **** 0.06
20058 H 59.04011663750657 118.56552650499249 42.61246550011553 H 0.0 **** 0.06
20059 H 57.39326317862378 117.92904639422237 42.83646292927443 H 0.0 **** 0.06
20060 H 58.390525715523836 118.33486034776102 44.253899909467066 H 0.0 **** 0.06
20061 C 131.72328471790632 123.91828818940627 10.227626948944135 C 0.0 **** -0.24
20062 H 131.50511300698128 124.52475500919803 11.106539211418635 H 0.0 **** 0.06
20063 H 132.40577674547788 124.45977665785307 9.572801375126573 H 0.0 **** 0.06
20064 H 130.7965307993262 123.70884371121258 9.69222625968905 H 0.0 **** 0.06
20065 H 132.1837821029567 122.98048336786132 10.538073304933391 H 0.0 **** 0.06
20066 C 149.71808834122368 68.6334208539495 121.7297816690387 C 0.0 **** -0.24
20067 H 150.49363444030433 68.1479903216747 121.13808403602836 H 0.0 **** 0.06
20068 H 149.30776378380727 69.47458526817117 121.1705912956648 H 0.0 **** 0.06
20069 H 150.14627777611037 68.99272227848724 122.66599745219646 H 0.0 **** 0.06
20070 H 148.92352312974032 67.91820490203445 121.94525087033817 H 0.0 **** 0.06
20071 C 44.55502266424635 33.06102703000032 112.19974692076994 C 0.0 **** -0.24
20072 H 44.52617316106361 33.40444037045776 113.23393146008294 H 0.0 **** 0.06
20073 H 44.294466028317515 32.00299222288561 112.16144182955276 H 0.0 **** 0.06
20074 H 45.55789243794332 33.20347486692543 111.7979665315761 H 0.0 **** 0.06
20075 H 43.84131092660061 33.633429428109956 111.6070212427332 H 0.0 **** 0.06
20076 C 1.4768388228995413 46.60432335762805 114.99224724222164 C 0.0 **** -0.24
20077 H 2.072640574956427 46.09760452604509 114.2332215764712 H 0.0 **** 0.06
20078 H 1.3356722246259167 45.9403810080948 115.845559169183 H 0.0 **** 0.06
20079 H 0.5071943639252297 46.87130370127882 114.57426670639823 H 0.0 **** 0.06
20080 H 1.994040460927767 47.50786851442457 115.31636036076124 H 0.0 **** 0.06
20081 C 76.55025681346999 111.48902794708103 144.62572502152395 C 0.0 **** -0.24
20082 H 75.70868333859664 111.0999193725073 144.05300758670288 H 0.0 **** 0.06
20083 H 77.28575949967438 111.91775098158716 143.94471471053424 H 0.0 **** 0.06
20084 H 77.0096638367622 110.67998998718217 145.19362944816663 H 0.0 **** 0.06
20085 H 76.19729056623429 112.26011743526784 145.31125221532807 H 0.0 **** 0.06
20086 C 128.09957264742172 151.80037253476 28.40729963735356 C 0.0 **** -0.24
20087 H 128.4445772297194 151.0502238205058 27.696210759037967 H 0.0 **** 0.06
20088 H 128.76901696720097 151.82106164303957 29.267296693784886 H 0.0 **** 0.06
20089 H 127.09101793664962 151.55102949181745 28.73772985326903 H 0.0 **** 0.06
20090 H 128.09336151435417 152.78012302775727 27.92792700784244 H 0.0 **** 0.06
20091 C 131.35024549243127 87.77313220431073 11.152758747301391 C 0.0 **** -0.24
20092 H 131.57197739631326 88.28609774436663 12.08823400947523 H 0.0 **** 0.06
20093 H 131.5257384263843 86.70431856425013 11.27506698328125 H 0.0 **** 0.06
20094 H 131.99519417098216 88.16043350234973 10.364521123950055 H 0.0 **** 0.06
20095 H 130.30700892254293 87.94186332187579 10.885171470916418 H 0.0 **** 0.06
20096 C 41.93468335122036 123.40360404508702 66.98617222608613 C 0.0 **** -0.24
20097 H 42.62773010211578 124.23522821834383 66.85873946653832 H 0.0 **** 0.06
20098 H 41.463511799605925 123.17418771879169 66.03049017398715 H 0.0 **** 0.06
20099 H 41.1707986931161 123.67573783425077 67.71391398736586 H 0.0 **** 0.06
20100 H 42.48026739283641 122.52897288007908 67.34191804183496 H 0.0 **** 0.06
20101 C 50.98763476542068 73.59922495134504 95.20437351763374 C 0.0 **** -0.24
20102 H 51.915743092865455 73.29402386159789 94.72029612382433 H 0.0 **** 0.06
20103 H 51.02557791904182 73.33451833794464 96.26157427063723 H 0.0 **** 0.06
20104 H 50.14759108119671 73.09087761012127 94.73152867378761 H 0.0 **** 0.06
20105 H 50.8639951172799 74.67775351614435 95.10353174958678 H 0.0 **** 0.06
20106 C 94.80759250775839 136.1928203108453 92.64543160113034 C 0.0 **** -0.24
20107 H 95.05083632576066 135.39533276629138 91.94356642782724 H 0.0 **** 0.06
20108 H 93.79756736782417 136.55330096167387 92.44879078718463 H 0.0 **** 0.06
20109 H 95.51551504087115 137.0119026299686 92.52378674162787 H 0.0 **** 0.06
20110 H 94.86572370315253 135.81093832310646 93.66438526168936 H 0.0 **** 0.06
20111 C 17.591769199431383 151.0161075301026 128.85330922290538 C 0.0 **** -0.24
20112 H 17.95456584295158 151.24942626609035 129.8545652587262 H 0.0 **** 0.06
20113 H 17.830836840704933 151.84038181174796 128.1800883838839 H 0.0 **** 0.06
20114 H 16.511118451010475 150.8738479435868 128.88363856659612 H 0.0 **** 0.06
20115 H 18.069652471235315 150.10387594363272 128.496832342345 H 0.0 **** 0.06
20116 C 75.10318068588231 5.835062778163291 139.38732962266724 C 0.0 **** -0.24
20117 H 74.82455265796848 5.531659886435925 140.39581647624655 H 0.0 **** 0.06
20118 H 75.55125597436468 4.990358862406509 138.86451848451262 H 0.0 **** 0.06
20119 H 75.82096961351964 6.653657388977976 139.43942172646936 H 0.0 **** 0.06
20120 H 74.21416947614132 6.1657935643572515 138.84895806436714 H 0.0 **** 0.06
20121 C 146.4744107311953 19.27807195057568 114.47240442256559 C 0.0 **** -0.24
20122 H 146.84308408990847 18.78550941196619 113.57231232129057 H 0.0 **** 0.06
20123 H 145.43338573629092 18.999105633455997 114.63824306722866 H 0.0 **** 0.06
20124 H 146.54624615296274 20.35904875541013 114.35121243023964 H 0.0 **** 0.06
20125 H 147.07447090238693 18.966956190078065 115.32795247451811 H 0.0 **** 0.06
20126 C 51.587323089213385 12.497853319433773 151.79082137750802 C 0.0 **** -0.24
20127 H 52.63036253235987 12.778160469751015 151.94096904936356 H 0.0 **** 0.06
20128 H 50.94479539655714 13.177654785276616 152.35131387123408 H 0.0 **** 0.06
20129 H 51.43179425358204 11.477687278900504 152.14070804140047 H 0.0 **** 0.06
20130 H 51.34472779640976 12.559969993428183 150.7305376064969 H 0.0 **** 0.06
20131 C 151.61277061019234 30.967566501177252 57.76984697989522 C 0.0 **** -0.24
20132 H 151.55508319418803 29.89411889233285 57.58622207875894 H 0.0 **** 0.06
20133 H 150.98980628482568 31.49443940569884 57.04751392550385 H 0.0 **** 0.06
20134 H 152.64657009353078 31.29800795816375 57.66907127657011 H 0.0 **** 0.06
20135 H 151.26022679311308 31.181826863068693 58.779056098369196 H 0.0 **** 0.06
20136 C 26.98038873443926 114.58716299939313 125.16834638183462 C 0.0 **** -0.24
20137 H 26.67981673346454 113.58004950235038 125.45871954616945 H 0.0 **** 0.06
20138 H 27.629851999143675 115.00828810203659 125.93585650596754 H 0.0 **** 0.06
20139 H 26.09389790395189 115.21208425439649 125.05824135455453 H 0.0 **** 0.06
20140 H 27.516593543581152 114.54700159836308 124.21982956136526 H 0.0 **** 0.06
20141 C 116.88915115891183 37.01983041239333 90.88128063808493 C 0.0 **** -0.24
20142 H 117.02996152686262 36.47001480116643 91.81108484224542 H 0.0 **** 0.06
20143 H 117.85007930641387 37.404120262229014 90.53726738226719 H 0.0 **** 0.06
20144 H 116.2051946977931 37.85128311072941 91.0514970890738 H 0.0 **** 0.06
20145 H 116.47163367354125 36.35561222730797 90.12537456986672 H 0.0 **** 0.06
20146 C 130.50959767355468 37.1395158001454 141.29573142160302 C 0.0 **** -0.24
20147 H 131.41205652251477 37.41952525326997 140.752597557481 H 0.0 **** 0.06
20148 H 130.75297893891928 36.97649476754219 142.34639332045305 H 0.0 **** 0.06
20149 H 130.09876402203935 36.223918500373 140.87053151586247 H 0.0 **** 0.06
20150 H 129.77371342067337 37.93991815925645 141.21351750636313 H 0.0 **** 0.06
20151 C 93.08997987977949 84.63274161065894 114.06503215985725 C 0.0 **** -0.24
20152 H 92.36922335496587 85.03037425069385 114.77939829894547 H 0.0 **** 0.06
20153 H 93.40191147055766 83.63686658688061 114.38126676002719 H 0.0 **** 0.06
20154 H 93.95868071919797 85.28936918646997 114.02122877078716 H 0.0 **** 0.06
20155 H 92.62879560091534 84.57306869432176 113.07951155858251 H 0.0 **** 0.06
20156 C 32.375911191436025 140.47292669279227 59.19605254432895 C 0.0 **** -0.24
20157 H 32.068365093948586 139.5820233749951 58.64896815339306 H 0.0 **** 0.06
20158 H 31.624958975968568 141.25243309452642 59.07131209849696 H 0.0 **** 0.06
20159 H 33.3333791932172 140.8237587875717 58.810444515939295 H 0.0 **** 0.06
20160 H 32.47735632951758 140.23108035430522 60.254904735944805 H 0.0 **** 0.06
20161 C 68.48058307675889 153.68762914675915 46.1493252124306 C 0.0 **** -0.24
20162 H 68.44796060396924 152.68836583008206 46.58487234883404 H 0.0 **** 0.06
20163 H 68.10008416839034 153.65055417565793 45.12831898582455 H 0.0 **** 0.06
20164 H 69.50935445237445 154.04657303851062 46.14175004084919 H 0.0 **** 0.06
20165 H 67.86342930815414 154.36240199048845 46.74329030844345 H 0.0 **** 0.06
20166 C 79.77292684890494 17.301898786243044 80.88635567441739 C 0.0 **** -0.24
20167 H 79.30174079030775 17.266481922680953 81.86933485076423 H 0.0 **** 0.06
20168 H 79.5027293312267 16.409734271151507 80.32182096667577 H 0.0 **** 0.06
20169 H 80.85626691515898 17.344156359753043 81.00518881776554 H 0.0 **** 0.06
20170 H 79.43183822489641 18.188504847093583 80.3518354080093 H 0.0 **** 0.06
20171 C 70.34599844746751 2.5517382187723285 128.21803941968437 C 0.0 **** -0.24
20172 H 69.29066931932613 2.616525344515356 128.48609125225528 H 0.0 **** 0.06
20173 H 70.77390911621156 1.6450037789885634 128.64630896736927 H 0.0 **** 0.06
20174 H 70.87341675224899 3.422897931653182 128.60682645925635 H 0.0 **** 0.06
20175 H 70.44358885518174 2.5223424527380516 127.1325313854917 H 0.0 **** 0.06
20176 C 7.3509013851110225 102.90011189472175 114.1805416870992 C 0.0 **** -0.24
20177 H 7.961594421165394 102.03660090646552 113.92014889804712 H 0.0 **** 0.06
20178 H 7.052145508398894 103.42146663643838 113.27026377262932 H 0.0 **** 0.06
20179 H 7.927265087248024 103.57487245665617 114.81286337166533 H 0.0 **** 0.06
20180 H 6.462997823022981 102.568171087756 114.71770665586293 H 0.0 **** 0.06
20181 C 149.7912304342794 61.03937781153651 128.99015605184928 C 0.0 **** -0.24
20182 H 150.86820144196145 60.95254675993185 129.13326957732414 H 0.0 **** 0.06
20183 H 149.2755288175979 60.44559260584897 129.74488424429722 H 0.0 **** 0.06
20184 H 149.5269993987897 60.6751650067398 127.99762461807732 H 0.0 **** 0.06
20185 H 149.49635550626775 62.08402531310587 129.08431024927523 H 0.0 **** 0.06
20186 C 0.5140119027478534 124.74303199704879 127.81542228756621 C 0.0 **** -0.24
20187 H 0.6942759740996962 123.68723926565879 127.61750516492629 H 0.0 **** 0.06
20188 H -0.5430905110541744 124.96541580143081 127.66365713484208 H 0.0 **** 0.06
20189 H 1.1141945106333537 125.34767767612938 127.13635890813435 H 0.0 **** 0.06
20190 H 0.789039337772806 124.97226327839063 128.84523082313214 H 0.0 **** 0.06
20191 C 90.94761327607448 81.36282743522251 39.38471782246721 C 0.0 **** -0.24
20192 H 91.94455569698499 81.16054905894755 39.77633235391579 H 0.0 **** 0.06
20193 H 90.25369696753506 80.60648379536362 39.75082724639542 H 0.0 **** 0.06
20194 H 90.97323943493046 81.33504759220766 38.29492184003824 H 0.0 **** 0.06
20195 H 90.62049813842395 82.34816694043165 39.71520592408787 H 0.0 **** 0.06
20196 C 92.79925696422745 135.37305997982165 134.882909024376 C 0.0 **** -0.24
20197 H 93.75906491342084 134.89135470714695 135.06476705903293 H 0.0 **** 0.06
20198 H 92.93390585640412 136.45493196253793 134.86005311960687 H 0.0 **** 0.06
20199 H 92.1036264875621 135.10974196399496 135.67966841860232 H 0.0 **** 0.06
20200 H 92.39928165900064 135.03687356759139 133.92565035349253 H 0.0 **** 0.06
20201 C 66.10747351606052 130.071157739471 60.540472665131006 C 0.0 **** -0.24
20202 H 66.72580355139088 129.60477166085425 59.77464657082973 H 0.0 **** 0.06
20203 H 66.67331872739469 130.86452442968812 61.03058103944113 H 0.0 **** 0.06
20204 H 65.81680683610045 129.32264290368653 61.27856692726159 H 0.0 **** 0.06
20205 H 65.21396716040273 130.49322372137846 60.07974455451395 H 0.0 **** 0.06
20206 C 81.76554544568171 30.87466761200701 105.71141191605568 C 0.0 **** -0.24
20207 H 81.13554316431987 31.721287736082843 105.44141911613372 H 0.0 **** 0.06
20208 H 81.37794449528104 30.408026106441987 106.61804080387168 H 0.0 **** 0.06
20209 H 82.78405744813713 31.220775756703205 105.887420794293 H 0.0 **** 0.06
20210 H 81.76467211194375 30.14768185586366 104.89985810574376 H 0.0 **** 0.06
20211 C 42.63166599588993 25.158445180518214 100.86888871548068 C 0.0 **** -0.24
20212 H 41.80000906676389 24.899140612653923 101.52387845427556 H 0.0 **** 0.06
20213 H 43.5654395170543 25.109356508594715 101.42971490020857 H 0.0 **** 0.06
20214 H 42.49075400318577 26.16983578387368 100.4863634730937 H 0.0 **** 0.06
20215 H 42.67035340081571 24.456421211367825 100.03539586417203 H 0.0 **** 0.06
20216 C 76.9308283426755 138.42156321161102 133.85050802976212 C 0.0 **** -0.24
20217 H 76.05172853743557 138.52836725379524 134.48591033966292 H 0.0 **** 0.06
20218 H 77.77624412834301 138.93333587911803 134.31273268124392 H 0.0 **** 0.06
20219 H 76.72842047660453 138.8610552550007 132.87444121383032 H 0.0 **** 0.06
20220 H 77.16680634901721 137.36442387322174 133.73212964135462 H 0.0 **** 0.06
20221 C 126.65739469748807 34.05869000765492 83.95316460749348 C 0.0 **** -0.24
20222 H 127.5327006622474 33.73423217802515 83.39043531576581 H 0.0 **** 0.06
20223 H 126.97667137959685 34.65098963455287 84.81106451094814 H 0.0 **** 0.06
20224 H 126.10532326467852 33.18567521958069 84.3003403026755 H 0.0 **** 0.06
20225 H 126.01718573875517 34.66338762448814 83.31150665754137 H 0.0 **** 0.06
20226 C 103.4769895469555 67.28363270041248 69.63295000266204 C 0.0 **** -0.24
20227 H 103.90462119936329 66.28963245995547 69.50125198560254 H 0.0 **** 0.06
20228 H 103.01602370402024 67.60679131148534 68.7000927554889 H 0.0 **** 0.06
20229 H 104.26464091715347 67.98318443508664 69.91206529537385 H 0.0 **** 0.06
20230 H 102.7237608810366 67.25235880685545 70.41950461335344 H 0.0 **** 0.06
20231 C 102.54573774338708 137.73318347204545 145.1052540174327 C 0.0 **** -0.24
20232 H 102.9814261527877 138.68923406382345 145.39485984400255 H 0.0 **** 0.06
20233 H 101.46721897856237 137.84583788821948 144.99100886454318 H 0.0 **** 0.06
20234 H 102.75358696559623 136.99159313655625 145.87713948450386 H 0.0 **** 0.06
20235 H 102.98008254911336 137.40708773616257 144.16075690351278 H 0.0 **** 0.06
20236 C 147.51003091588785 90.25121961812084 82.88415400091168 C 0.0 **** -0.24
20237 H 147.73898147705248 90.45112100082349 83.93112571145811 H 0.0 **** 0.06
20238 H 147.72892210756677 89.20813724652513 82.65679202543386 H 0.0 **** 0.06
20239 H 148.1182142174627 90.89714975583539 82.25073470262149 H 0.0 **** 0.06
20240 H 146.45462607350342 90.45054011635554 82.69853981133981 H 0.0 **** 0.06
20241 C 66.8511956800813 98.45961353700119 26.884097528076836 C 0.0 **** -0.24
20242 H 66.95687224110166 98.1056453676116 25.858994779881755 H 0.0 **** 0.06
20243 H 67.79453337044693 98.32714544314763 27.41369914336127 H 0.0 **** 0.06
20244 H 66.068370710062 97.89174504292976 27.386019914473366 H 0.0 **** 0.06
20245 H 66.58425454362906 99.51724090745819 26.87612856288297 H 0.0 **** 0.06
20246 C 47.18225041584088 56.53864780572276 26.15515942037915 C 0.0 **** -0.24
20247 H 46.301458014846446 56.7899583196143 25.56542778773253 H 0.0 **** 0.06
20248 H 47.08460400731366 55.52278188985417 26.538035759795818 H 0.0 **** 0.06
20249 H 47.27314622157627 57.234815397055385 26.988312632147426 H 0.0 **** 0.06
20250 H 48.070912459233796 56.605970799154434 25.527591051187933 H 0.0 **** 0.06
20251 C 133.63999867277795 149.44388346603145 7.536102268780695 C 0.0 **** -0.24
20252 H 132.7952436982674 149.77993564369382 6.934960328920546 H 0.0 **** 0.06
20253 H 134.1263682566706 150.30567110330855 7.993271134239194 H 0.0 **** 0.06
20254 H 134.35248497236367 148.91967013258952 6.899521314778781 H 0.0 **** 0.06
20255 H 133.2855365926478 148.7709845962365 8.317239537401711 H 0.0 **** 0.06
20256 C 107.28170096401588 31.371316484940564 112.94545743177885 C 0.0 **** -0.24
20257 H 106.48706979999646 31.854707396455638 113.51418164048071 H 0.0 **** 0.06
20258 H 108.19429993091599 31.352585804360388 113.54204354530286 H 0.0 **** 0.06
20259 H 107.45968093807373 31.92700002255316 112.02548810419579 H 0.0 **** 0.06
20260 H 106.98532614824104 30.350425861864096 112.7024656462058 H 0.0 **** 0.06
20261 C 10.711431263506086 83.51561202343794 22.371512938301123 C 0.0 **** -0.24
20262 H 11.067418689135337 82.59789487733255 22.839171840122226 H 0.0 **** 0.06
20263 H 9.62652870184536 83.47203438673051 22.265140190232174 H 0.0 **** 0.06
20264 H 11.168638748780495 83.62305256914107 21.388153137122217 H 0.0 **** 0.06
20265 H 10.981062907259485 84.36865584473742 22.99340332666474 H 0.0 **** 0.06
20266 C 37.667255940819956 115.15953042249744 153.8957477203533 C 0.0 **** -0.24
20267 H 37.064227688418626 114.88238951809923 153.03077978231983 H 0.0 **** 0.06
20268 H 38.2175001625598 116.07406613631669 153.6765278162697 H 0.0 **** 0.06
20269 H 38.37019177644102 114.35618613617048 154.11962913665468 H 0.0 **** 0.06
20270 H 37.016611891960295 115.32314545458378 154.75549893573617 H 0.0 **** 0.06
20271 C 63.86900679354123 127.32464149693128 30.989878521927153 C 0.0 **** -0.24
20272 H 63.9925783692392 126.84407956056963 31.960876973440975 H 0.0 **** 0.06
20273 H 64.57633116256216 128.14879821130677 30.900449220820548 H 0.0 **** 0.06
20274 H 62.8515907369509 127.70686911005133 30.9022696360839 H 0.0 **** 0.06
20275 H 64.0542242584482 126.59835553813325 30.19893298354515 H 0.0 **** 0.06
20276 C 130.41168740564257 26.486486359530026 152.53060271877894 C 0.0 **** -0.24
20277 H 131.39660668212878 26.8688669202552 152.7991800946377 H 0.0 **** 0.06
20278 H 130.37058537105162 26.313785121339933 151.45540015227868 H 0.0 **** 0.06
20279 H 129.6515024357319 27.21561572535277 152.81068992991985 H 0.0 **** 0.06
20280 H 130.22969874699453 25.550308176402986 153.05775657401944 H 0.0 **** 0.06
20281 C 68.8028350725739 12.288302529517942 63.25876593312974 C 0.0 **** -0.24
20282 H 67.72656284166266 12.444415095046196 63.33968973254707 H 0.0 **** 0.06
20283 H 69.00137627319347 11.48670935434366 62.54734661671712 H 0.0 **** 0.06
20284 H 69.20391586827687 12.015721081109774 64.23453137305827 H 0.0 **** 0.06
20285 H 69.27810560964187 13.206377411672307 62.91380638962943 H 0.0 **** 0.06
20286 C 72.75303498504923 26.55403030083511 1.1634236683501697 C 0.0 **** -0.24
20287 H 73.65160865480289 25.937386355385627 1.1512471803372435 H 0.0 **** 0.06
20288 H 73.0266404521339 27.59888401617104 1.015422163579487 H 0.0 **** 0.06
20289 H 72.24848884371951 26.442490539675703 2.124073344919232 H 0.0 **** 0.06
20290 H 72.08429677265516 26.23612268681063 0.3634489014723492 H 0.0 **** 0.06
20291 C 27.91591652292226 105.98117936643105 107.92558811154372 C 0.0 **** -0.24
20292 H 27.705324760596113 105.15700830054642 107.24354789490555 H 0.0 **** 0.06
20293 H 27.256806970568334 105.91302215558083 108.79183340451566 H 0.0 **** 0.06
20294 H 27.747867244703343 106.92842709974936 107.41296071322911 H 0.0 **** 0.06
20295 H 28.954286551154723 105.92413076297667 108.25372199598051 H 0.0 **** 0.06
20296 C 100.54446293463725 116.58584383090529 63.28549852333049 C 0.0 **** -0.24
20297 H 99.95332741400905 115.68961037740009 63.09647981010505 H 0.0 **** 0.06
20298 H 101.21890852790254 116.4062106671703 64.1226769609197 H 0.0 **** 0.06
20299 H 99.88058588823584 117.41580064803073 63.523295821773445 H 0.0 **** 0.06
20300 H 101.12653919549753 116.82964560127898 62.39684359044969 H 0.0 **** 0.06
20301 C 27.738842212020643 22.52119463412035 148.90399558327715 C 0.0 **** -0.24
20302 H 26.906575269778273 22.020897406788237 148.40822536084934 H 0.0 **** 0.06
20303 H 27.803809683847362 22.179639431648525 149.9369190716725 H 0.0 **** 0.06
20304 H 27.577009285788165 23.599074984225126 148.885837008539 H 0.0 **** 0.06
20305 H 28.666363991965795 22.28421724623496 148.3834182927807 H 0.0 **** 0.06
20306 C 20.118080178314614 58.92714191091285 149.13281937114863 C 0.0 **** -0.24
20307 H 20.118759087291643 59.796356438259124 149.7896315799738 H 0.0 **** 0.06
20308 H 20.02128720927861 58.020278960146044 149.73050357691307 H 0.0 **** 0.06
20309 H 21.050809928944318 58.89574494652764 148.5713355751252 H 0.0 **** 0.06
20310 H 19.279270184616948 58.99652050057858 148.4400790998883 H 0.0 **** 0.06
20311 C 10.977850252491237 36.03658865695077 0.420567008931954 C 0.0 **** -0.24
20312 H 10.637265599266073 36.961186286601205 -0.045004653772465986 H 0.0 **** 0.06
20313 H 11.755574436429782 35.583930652861895 -0.1954853705631301 H 0.0 **** 0.06
20314 H 10.13929237529257 35.34585670222438 0.5133018460020686 H 0.0 **** 0.06
20315 H 11.379211643469688 36.254886589309606 1.4107799938645904 H 0.0 **** 0.06
20316 C 108.29030865098669 26.823744114346226 21.154121525050584 C 0.0 **** -0.24
20317 H 108.81340582180401 26.936623130948647 20.20387977234782 H 0.0 **** 0.06
20318 H 108.8627396393948 27.309924338305393 21.94438935287178 H 0.0 **** 0.06
20319 H 108.18069726863267 25.76383300889927 21.383401836041287 H 0.0 **** 0.06
20320 H 107.3047661548869 27.283833802865757 21.082517488752842 H 0.0 **** 0.06
20321 C 81.06001504851261 82.70841349883055 140.19776700740937 C 0.0 **** -0.24
20322 H 81.2748861227841 81.64272655497861 140.1179019049667 H 0.0 **** 0.06
20323 H 81.39137541463356 83.21498366428736 139.29139421406148 H 0.0 **** 0.06
20324 H 81.58635286577461 83.12172670007598 141.05862088453603 H 0.0 **** 0.06
20325 H 79.98712127201765 82.85434920567526 140.32484729459998 H 0.0 **** 0.06
20326 C 155.98732978805575 99.15216583466929 47.789998154801395 C 0.0 **** -0.24
20327 H 156.65297886875814 99.69790516985773 48.45949616412234 H 0.0 **** 0.06
20328 H 155.51953406618563 98.33059096363084 48.3342247865822 H 0.0 **** 0.06
20329 H 156.5608310376293 98.75358451140221 46.953453535863616 H 0.0 **** 0.06
20330 H 155.21681692481056 99.8257348746256 47.41538190488775 H 0.0 **** 0.06
20331 C 61.474038765014456 23.20181083818416 134.62213877223647 C 0.0 **** -0.24
20332 H 61.0012610261258 23.110795130953584 135.59961511179128 H 0.0 **** 0.06
20333 H 61.583762613410116 24.255833607921588 134.36828580764245 H 0.0 **** 0.06
20334 H 60.85471465666636 22.70999661851267 133.8721253798856 H 0.0 **** 0.06
20335 H 62.45591456964979 22.729785054109747 134.64829631936772 H 0.0 **** 0.06
20336 C 26.224311353891096 90.43747563880925 38.0529567179716 C 0.0 **** -0.24
20337 H 25.835111367342734 89.78345676107999 38.83287615563148 H 0.0 **** 0.06
20338 H 26.21423008266416 89.91155984483724 37.098423005825595 H 0.0 **** 0.06
20339 H 27.24551647998888 90.7262621396439 38.29867824884097 H 0.0 **** 0.06
20340 H 25.601246619199713 91.32979981956187 37.98367034598152 H 0.0 **** 0.06
20341 C 6.14074210245775 26.676432079123146 28.82795764296639 C 0.0 **** -0.24
20342 H 6.331552741219525 27.330670754135063 27.978127259884772 H 0.0 **** 0.06
20343 H 7.088833836107312 26.35203790739682 29.257500625388502 H 0.0 **** 0.06
20344 H 5.574253767493985 25.80570559991979 28.496031336163256 H 0.0 **** 0.06
20345 H 5.5666236926635975 27.217322202205885 29.58047980816786 H 0.0 **** 0.06
20346 C 66.18954121572698 52.829956238631425 137.89880475764886 C 0.0 **** -0.24
20347 H 65.86220208717558 52.04146184355777 138.5766376001645 H 0.0 **** 0.06
20348 H 65.43225666761371 53.61358365223241 137.86070107998492 H 0.0 **** 0.06
20349 H 66.33300827270244 52.41354164898013 136.90067659260214 H 0.0 **** 0.06
20350 H 67.12995011492487 53.249219235111696 138.2560347985742 H 0.0 **** 0.06
20351 C 32.802665302219964 125.12282749408745 58.34391366339665 C 0.0 **** -0.24
20352 H 33.06101159750949 126.07703888652391 57.88472472429581 H 0.0 **** 0.06
20353 H 31.777408440074254 125.1640016695358 58.71340082982735 H 0.0 **** 0.06
20354 H 33.480377771195435 124.92369465190568 59.17318354945556 H 0.0 **** 0.06
20355 H 32.89069808593973 124.32802866039266 57.60361865858954 H 0.0 **** 0.06
20356 C 119.2912400426231 99.85563290872278 99.38594703380292 C 0.0 **** -0.24
20357 H 120.32286519713249 99.50896042909852 99.45164653581261 H 0.0 **** 0.06
20358 H 118.69595378955673 99.37225403580976 100.16099466672442 H 0.0 **** 0.06
20359 H 118.88533685565595 99.60267548863465 98.40620888779982 H 0.0 **** 0.06
20360 H 119.26136766073778 100.93653972774598 99.52442364212025 H 0.0 **** 0.06
20361 C 98.42439952267168 41.4441554403669 126.32345399442137 C 0.0 **** -0.24
20362 H 98.43119733436191 41.783956968259645 125.28716039450957 H 0.0 **** 0.06
20363 H 97.9056038022963 42.17710403388651 126.94171530435672 H 0.0 **** 0.06
20364 H 99.44992659301407 41.33201297479286 126.67493935316485 H 0.0 **** 0.06
20365 H 97.91097368338474 40.48505248064873 126.38704701771404 H 0.0 **** 0.06
20366 C 141.46986735583562 41.543849603719536 84.46636883378494 C 0.0 **** -0.24
20367 H 141.29739357488722 40.70425094434347 85.13955866523406 H 0.0 **** 0.06
20368 H 142.05050582404476 42.30934509756534 84.98208224371626 H 0.0 **** 0.06
20369 H 140.51266079299663 41.962180847372565 84.1549892567757 H 0.0 **** 0.06
20370 H 142.0186879946097 41.19989156281801 83.59021564351963 H 0.0 **** 0.06
20371 C 88.75970996652207 22.0246386980877 131.88003689758082 C 0.0 **** -0.24
20372 H 89.84750967848977 22.0160583567654 131.81699079392257 H 0.0 **** 0.06
20373 H 88.45364285989389 21.844947079200722 132.91056856368107 H 0.0 **** 0.06
20374 H 88.35389912076403 21.24179070209044 131.2386810925013 H 0.0 **** 0.06
20375 H 88.3838465249415 22.994097687974318 131.55241116139402 H 0.0 **** 0.06
20376 C 2.635724483169213 104.04765864449426 59.565601984155336 C 0.0 **** -0.24
20377 H 2.669642897970107 103.39101746901126 58.696750126512285 H 0.0 **** 0.06
20378 H 3.223536558339333 104.94418390769705 59.36639325978905 H 0.0 **** 0.06
20379 H 3.0486368073305528 103.52796798814923 60.43054864438278 H 0.0 **** 0.06
20380 H 1.602432221419889 104.32801251915772 59.7696521548406 H 0.0 **** 0.06
20381 C 7.204505330485773 6.562793812923502 103.62433211876923 C 0.0 **** -0.24
20382 H 7.185582296773987 5.503075796968318 103.36932559758453 H 0.0 **** 0.06
20383 H 6.267528334444734 6.83565789648145 104.11141118984698 H 0.0 **** 0.06
20384 H 7.327990821017721 7.153067045123493 102.71669260012065 H 0.0 **** 0.06
20385 H 8.036690213233982 6.757946286268435 104.30160425282803 H 0.0 **** 0.06
20386 C 33.639080898941444 156.93212200273513 150.1848057357556 C 0.0 **** -0.24
20387 H 32.728076088816564 156.5638017612298 149.71213763225342 H 0.0 **** 0.06
20388 H 33.96313053109923 157.84610093046717 149.68704673029117 H 0.0 **** 0.06
20389 H 34.42052934147996 156.17621512636947 150.10388717584016 H 0.0 **** 0.06
20390 H 33.44270429250053 157.1409439552092 151.2367987568016 H 0.0 **** 0.06
20391 C 105.24951478166366 28.236830946331793 103.66347108799066 C 0.0 **** -0.24
20392 H 105.86625216307993 28.19173097372834 102.76595581771174 H 0.0 **** 0.06
20393 H 104.99093080791624 27.225240690891383 103.976872052254 H 0.0 **** 0.06
20394 H 104.33817772769186 28.795192507965453 103.44985038153389 H 0.0 **** 0.06
20395 H 105.80272125231477 28.73465689461085 104.45927041357514 H 0.0 **** 0.06
20396 C 96.53107036829647 27.519196776136923 6.166210614014389 C 0.0 **** -0.24
20397 H 96.63830932188432 26.448091591909467 6.339086812894294 H 0.0 **** 0.06
20398 H 95.60153233125283 27.707907630957962 5.628617886997134 H 0.0 **** 0.06
20399 H 97.37353258147192 27.87730373019933 5.573998220269118 H 0.0 **** 0.06
20400 H 96.51121687861638 28.0413570222018 7.122523413487485 H 0.0 **** 0.06
20401 C 61.29402726129925 122.92494049530717 24.481604509120956 C 0.0 **** -0.24
20402 H 61.086279506108994 122.58548211851314 25.49693922760116 H 0.0 **** 0.06
20403 H 61.75249255641988 122.11414881331393 23.91445185811699 H 0.0 **** 0.06
20404 H 61.97529646777207 123.77470905468357 24.515373003206207 H 0.0 **** 0.06
20405 H 60.36254401537663 123.22415243677398 24.001424504715175 H 0.0 **** 0.06
20406 C 152.54627960688543 118.9563378865365 28.067847511482853 C 0.0 **** -0.24
20407 H 153.13617740457173 119.73406033267695 28.551789678767136 H 0.0 **** 0.06
20408 H 152.29505850428774 119.268919982138 27.053818866026006 H 0.0 **** 0.06
20409 H 151.62977978063643 118.78835450196435 28.63367905029162 H 0.0 **** 0.06
20410 H 153.1248869223859 118.03205350123964 28.03086512084184 H 0.0 **** 0.06
20411 C 85.45352291082828 10.400742515225147 18.84563502056716 C 0.0 **** -0.24
20412 H 86.39018968246876 9.853169325505405 18.94537769055495 H 0.0 **** 0.06
20413 H 85.10309443839026 10.70436517170549 19.832428747891072 H 0.0 **** 0.06
20414 H 84.70710205756276 9.760645976642309 18.3755456737222 H 0.0 **** 0.06
20415 H 85.61332158964265 11.285712762796038 18.229208436655966 H 0.0 **** 0.06
20416 C 61.30729231710373 37.72000423528755 147.50218269077436 C 0.0 **** -0.24
20417 H 60.57107813617412 38.51788756502893 147.41231335490687 H 0.0 **** 0.06
20418 H 62.310792264621256 38.14523358041424 147.45115714427186 H 0.0 **** 0.06
20419 H 61.17333135510424 37.00821824319412 146.68833086436703 H 0.0 **** 0.06
20420 H 61.17683412854599 37.21043385382457 148.4560937508031 H 0.0 **** 0.06
20421 C 63.174507277083876 88.41499382887726 106.77214506057493 C 0.0 **** -0.24
20422 H 62.136681535244406 88.41732924422115 107.10797984749422 H 0.0 **** 0.06
20423 H 63.21011869199921 88.20547438439263 105.70355670847084 H 0.0 **** 0.06
20424 H 63.72863647947423 87.64770668875047 107.3127936916772 H 0.0 **** 0.06
20425 H 63.620339360266655 89.3908745844108 106.96688387524006 H 0.0 **** 0.06
20426 C 98.26709807497474 32.91760777477248 23.03520936825862 C 0.0 **** -0.24
20427 H 98.50807133092292 32.557615954023674 24.03499255552765 H 0.0 **** 0.06
20428 H 99.14544915304594 33.39508777474245 22.599531800070736 H 0.0 **** 0.06
20429 H 97.45287565403368 33.64099375076307 23.095965518199478 H 0.0 **** 0.06
20430 H 97.96101828565043 32.0787364591572 22.410167171004503 H 0.0 **** 0.06
20431 C 106.47206075834232 153.29831242219828 68.42703419002555 C 0.0 **** -0.24
20432 H 106.31000821877912 152.37030799360736 68.97731638704641 H 0.0 **** 0.06
20433 H 107.20460002167785 153.9093586808953 68.95458643861895 H 0.0 **** 0.06
20434 H 105.53104499905693 153.8428365738396 68.35010269646386 H 0.0 **** 0.06
20435 H 106.84220122568566 153.06805268625791 67.4282743883922 H 0.0 **** 0.06
20436 C 80.63221082732714 147.19444703238952 26.182680398159867 C 0.0 **** -0.24
20437 H 80.99533632966178 146.31600896335794 25.64728506148591 H 0.0 **** 0.06
20438 H 80.30474583167404 147.94685242611868 25.46452964570416 H 0.0 **** 0.06
20439 H 81.4356938535677 147.60299643657194 26.796196582061746 H 0.0 **** 0.06
20440 H 79.79505971749535 146.9109034966316 26.820716259553876 H 0.0 **** 0.06
20441 C 146.00699236438615 148.25241051998447 56.453601427319 C 0.0 **** -0.24
20442 H 145.98673974516788 147.8282050975858 57.45756470783006 H 0.0 **** 0.06
20443 H 145.4844575762869 149.20906973607856 56.45313771433075 H 0.0 **** 0.06
20444 H 145.5157428619054 147.5684733800963 55.76161618125475 H 0.0 **** 0.06
20445 H 147.04116588285171 148.40205211241 56.14369629088122 H 0.0 **** 0.06
20446 C 32.98505279193429 119.12757271474781 139.49213809378972 C 0.0 **** -0.24
20447 H 32.412056423450686 119.99817450302781 139.17182514666808 H 0.0 **** 0.06
20448 H 32.61963520849452 118.7898029188501 140.46265407608848 H 0.0 **** 0.06
20449 H 34.038369974248305 119.39633298352437 139.57393975728857 H 0.0 **** 0.06
20450 H 32.86969049180861 118.3273948726116 138.76147085689098 H 0.0 **** 0.06
20451 C 110.19064834140677 149.85092354500034 117.80796392568321 C 0.0 **** -0.24
20452 H 109.15171832564106 149.5292591756695 117.88412260566035 H 0.0 **** 0.06
20453 H 110.22909065506018 150.9366015266187 117.72977108210178 H 0.0 **** 0.06
20454 H 110.64415522144769 149.405344579688 116.92226274291316 H 0.0 **** 0.06
20455 H 110.73609329056622 149.52998906298222 118.69507300366173 H 0.0 **** 0.06
20456 C 85.92324381833711 101.57832914182019 89.21092245948581 C 0.0 **** -0.24
20457 H 85.46026998309333 100.5944987306781 89.2847710115365 H 0.0 **** 0.06
20458 H 85.14752406805837 102.34454150310042 89.1825286713992 H 0.0 **** 0.06
20459 H 86.52016237829702 101.63235702234208 88.30104727053562 H 0.0 **** 0.06
20460 H 86.56482801682903 101.7431645449674 90.07689630263576 H 0.0 **** 0.06
20461 C 138.47029269770306 5.413358437749139 83.12226984801879 C 0.0 **** -0.24
20462 H 138.4311011576738 5.881479945009318 82.13842485732962 H 0.0 **** 0.06
20463 H 139.15298695809713 4.562659721579195 83.09248738639224 H 0.0 **** 0.06
20464 H 137.4738070232193 5.069873109894388 83.40097007883823 H 0.0 **** 0.06
20465 H 138.82342572750846 6.137325268627961 83.85643178729461 H 0.0 **** 0.06
20466 C 69.14657551975762 51.68712846730493 118.13241206339994 C 0.0 **** -0.24
20467 H 69.02606555252024 51.09116415043678 117.22749517929837 H 0.0 **** 0.06
20468 H 68.36363378440734 52.44428347074158 118.17520471727364 H 0.0 **** 0.06
20469 H 70.12209141589418 52.17295310801097 118.11945764710448 H 0.0 **** 0.06
20470 H 69.07489953069606 51.039282112750314 119.00602142826729 H 0.0 **** 0.06
20471 C 18.08263952684105 128.96729145863276 102.55690015710469 C 0.0 **** -0.24
20472 H 17.874441996164116 127.91120805088669 102.386086555495 H 0.0 **** 0.06
20473 H 18.387251422412206 129.43285855913365 101.61926826859003 H 0.0 **** 0.06
20474 H 18.88546079140373 129.0648936839082 103.28907469898844 H 0.0 **** 0.06
20475 H 17.185663038599884 129.4585205188858 102.93293184988038 H 0.0 **** 0.06
20476 C 64.34397470799937 131.11855116384217 74.42872153127325 C 0.0 **** -0.24
20477 H 63.54115300064355 131.48108682532637 73.78715403374179 H 0.0 **** 0.06
20478 H 64.55716082459472 131.8612910856624 75.19796582508218 H 0.0 **** 0.06
20479 H 65.23868503788508 130.94871722251068 73.82912620619726 H 0.0 **** 0.06
20480 H 64.03938973522271 130.18343522231538 74.89935393673323 H 0.0 **** 0.06
20481 C 66.13098975873426 89.51320038910639 68.57792388359093 C 0.0 **** -0.24
20482 H 65.67791200708623 89.28130038334571 67.61414818175545 H 0.0 **** 0.06
20483 H 65.91363108401403 88.71086508841613 69.28397698944038 H 0.0 **** 0.06
20484 H 65.72194917158235 90.45009286702786 68.9556525465587 H 0.0 **** 0.06
20485 H 67.2098488493273 89.60934357589659 68.45749461919381 H 0.0 **** 0.06
20486 C 2.8911872250012784 19.272874406374953 133.6650530581963 C 0.0 **** -0.24
20487 H 2.605380313129949 18.239181093030716 133.4693460645252 H 0.0 **** 0.06
20488 H 3.8132633382245444 19.50119842513736 133.13041256401215 H 0.0 **** 0.06
20489 H 3.047210253480067 19.410490425178203 134.73527889199414 H 0.0 **** 0.06
20490 H 2.09812717508834 19.93908216538871 133.32532279297624 H 0.0 **** 0.06
20491 C 145.97883352653668 65.22279171609847 64.75725382523262 C 0.0 **** -0.24
20492 H 144.94299526524958 64.90669336039622 64.8777261205886 H 0.0 **** 0.06
20493 H 146.06607577811656 66.28163115148635 65.00107243372429 H 0.0 **** 0.06
20494 H 146.29046270218214 65.05898232684893 63.72605142674861 H 0.0 **** 0.06
20495 H 146.61492213870815 64.64199742382806 65.42610431474121 H 0.0 **** 0.06
20496 C 70.12766874627957 71.758392287547 31.792948694040945 C 0.0 **** -0.24
20497 H 71.14479027670272 71.38209032156837 31.906541495000113 H 0.0 **** 0.06
20498 H 70.16040944928665 72.80194792123146 31.479072328254347 H 0.0 **** 0.06
20499 H 69.6032562523458 71.68125986309951 32.74493911858704 H 0.0 **** 0.06
20500 H 69.60443765768531 71.16851175520662 31.04110108924482 H 0.0 **** 0.06
20501 C 87.43754713258238 146.3351182519657 153.1158185453889 C 0.0 **** -0.24
20502 H 87.03901008716849 146.98836851151515 153.891794691945 H 0.0 **** 0.06
20503 H 88.03169072446588 145.54549114377636 153.5768913443763 H 0.0 **** 0.06
20504 H 88.06462571435529 146.91499319798157 152.43902156554626 H 0.0 **** 0.06
20505 H 86.61372245856185 145.8901064339238 152.55711908748606 H 0.0 **** 0.06
20506 C 25.84313873699147 102.23071974417597 135.44646373901548 C 0.0 **** -0.24
20507 H 26.71873628354787 102.55298675653991 134.8816959766249 H 0.0 **** 0.06
20508 H 26.149271683905617 101.92849999982114 136.44762331287092 H 0.0 **** 0.06
20509 H 25.374516631771975 101.38745886124094 134.9388220480256 H 0.0 **** 0.06
20510 H 25.132052568006863 103.05364614822427 135.515516249182 H 0.0 **** 0.06
20511 C 107.57433157089223 19.94255183099473 97.24757739817346 C 0.0 **** -0.24
20512 H 107.51409962140245 19.626194590247636 98.28830879397135 H 0.0 **** 0.06
20513 H 107.84420755257698 19.089759318101535 96.62342709098381 H 0.0 **** 0.06
20514 H 108.33083645401989 20.72067672043803 97.14794970961209 H 0.0 **** 0.06
20515 H 106.60679471693574 20.333846017738388 96.930589986165 H 0.0 **** 0.06
20516 C 58.13685890090645 145.06341267802102 118.16278645348085 C 0.0 **** -0.24
20517 H 57.59873673895248 145.15089674286335 117.21909225616788 H 0.0 **** 0.06
20518 H 58.870195074964656 144.260392587441 118.0898655665407 H 0.0 **** 0.06
20519 H 57.43076454225054 144.8393760758077 118.9633013358514 H 0.0 **** 0.06
20520 H 58.645819854590684 146.00317960046306 118.37941420713314 H 0.0 **** 0.06
20521 C 86.4622347957392 27.64946134305417 61.365151629846764 C 0.0 **** -0.24
20522 H 86.99513635831536 26.871221249233834 61.91118545849798 H 0.0 **** 0.06
20523 H 87.10353634494368 28.04445439721969 60.57707581540791 H 0.0 **** 0.06
20524 H 86.19218748804758 28.4532511916154 62.05113708896138 H 0.0 **** 0.06
20525 H 85.55860886932567 27.23033166567035 60.92398711575771 H 0.0 **** 0.06
20526 C 82.78381847617798 19.30864993171582 54.24827321313353 C 0.0 **** -0.24
20527 H 81.9442806120071 18.795243853904367 53.77958350317209 H 0.0 **** 0.06
20528 H 82.44255198365275 20.25832002397817 54.66255286336951 H 0.0 **** 0.06
20529 H 83.55720226820041 19.49395695056444 53.50288909158746 H 0.0 **** 0.06
20530 H 83.18921159749569 18.688218743577636 55.0472990053471 H 0.0 **** 0.06
20531 C 55.46784333411239 132.19319734175406 132.88761411851775 C 0.0 **** -0.24
20532 H 54.48172162493893 132.13211634769806 132.42742203604726 H 0.0 **** 0.06
20533 H 55.98192855716354 133.08482623786318 132.5274377786981 H 0.0 **** 0.06
20534 H 56.04712915316736 131.30796613959217 132.6238446136252 H 0.0 **** 0.06
20535 H 55.36051086563526 132.24789104342562 133.97034029310578 H 0.0 **** 0.06
20536 C 98.97702961486038 45.368185182121124 29.121918858528545 C 0.0 **** -0.24
20537 H 99.7051124156057 46.16560951313457 29.271910708909388 H 0.0 **** 0.06
20538 H 98.19931708913882 45.71147651898927 28.43889104607905 H 0.0 **** 0.06
20539 H 98.52966866798255 45.1006056619627 30.078559865018377 H 0.0 **** 0.06
20540 H 99.47520760670187 44.49728174765923 28.696414975452768 H 0.0 **** 0.06
20541 C 34.85469152876544 108.38880350120353 113.68694744830258 C 0.0 **** -0.24
20542 H 34.0129424555538 107.87743759778026 113.21822990574434 H 0.0 **** 0.06
20543 H 34.60871296044917 109.44176779554202 113.82297832043857 H 0.0 **** 0.06
20544 H 35.73434680648842 108.29839336574095 113.04985698165613 H 0.0 **** 0.06
20545 H 35.059722164423704 107.93419166215308 114.65689086458566 H 0.0 **** 0.06
20546 C 62.42264280234997 138.4984432122177 42.56233146315857 C 0.0 **** -0.24
20547 H 63.088111662157075 137.65026022437075 42.400697629616715 H 0.0 **** 0.06
20548 H 62.63851092065744 139.27479290687904 41.827149966015085 H 0.0 **** 0.06
20549 H 62.57791634559953 138.8953448309059 43.56603457370176 H 0.0 **** 0.06
20550 H 61.388136416357895 138.17396205914247 42.45592118264514 H 0.0 **** 0.06
20551 C 137.46903729649264 144.62826145708527 57.45843069826566 C 0.0 **** -0.24
20552 H 137.92291658855896 145.46387165859096 56.92653520111344 H 0.0 **** 0.06
20553 H 137.96417125674265 143.7014864972808 57.16793247459418 H 0.0 **** 0.06
20554 H 136.41007810127616 144.568545578413 57.20549763420189 H 0.0 **** 0.06
20555 H 137.57747249562976 144.7784182116467 58.53197035057934 H 0.0 **** 0.06
20556 C 78.55904248312191 64.66792387471854 155.66433148541682 C 0.0 **** -0.24
20557 H 78.6308438468549 63.615353204768766 155.93583871708682 H 0.0 **** 0.06
20558 H 77.5728484561738 65.04583048321936 155.93459546443043 H 0.0 **** 0.06
20559 H 78.70809237782703 64.77689883360323 154.590628910169 H 0.0 **** 0.06
20560 H 79.32306684502379 65.23383231826165 156.19672519038608 H 0.0 **** 0.06
20561 C 67.82446135539442 7.849801311642814 18.219005625150658 C 0.0 **** -0.24
20562 H 68.24946535731384 6.855058644591132 18.357578119444355 H 0.0 **** 0.06
20563 H 67.74453792541797 8.347499981500121 19.18598700261407 H 0.0 **** 0.06
20564 H 66.83438541963062 7.76214374892421 17.771439463576854 H 0.0 **** 0.06
20565 H 68.46972234097792 8.4319855733483 17.56262817822534 H 0.0 **** 0.06
20566 C 110.35229879412985 152.37179142701146 67.59364041380061 C 0.0 **** -0.24
20567 H 110.35189329158761 152.9275863126165 68.53104296151142 H 0.0 **** 0.06
20568 H 109.70646371230059 151.49818747460364 67.68942087475722 H 0.0 **** 0.06
20569 H 111.36815736072488 152.04914294701476 67.36448322371001 H 0.0 **** 0.06
20570 H 109.98375122551964 153.01087061809525 66.79184049068726 H 0.0 **** 0.06
20571 C 117.7791489545321 94.5082131781868 41.71978342405474 C 0.0 **** -0.24
20572 H 118.65246647953143 94.69952518989334 41.09511636791045 H 0.0 **** 0.06
20573 H 117.96068612722439 93.62863692202376 42.33792867842055 H 0.0 **** 0.06
20574 H 116.91021730282625 94.33388698795699 41.08493474371508 H 0.0 **** 0.06
20575 H 117.59484327620146 95.37115789787384 42.35965098676212 H 0.0 **** 0.06
20576 C 5.4590865384035965 83.68691964443363 75.41905431331172 C 0.0 **** -0.24
20577 H 5.16958384701033 83.07079383241415 76.2710571809857 H 0.0 **** 0.06
20578 H 6.524466673373183 83.91191334375452 75.48013390226232 H 0.0 **** 0.06
20579 H 4.889798401674767 84.6162702767927 75.43287771246045 H 0.0 **** 0.06
20580 H 5.253410647140015 83.14819499981903 74.49412574665479 H 0.0 **** 0.06
20581 C 63.71785923722064 52.096365816679395 58.183195704058605 C 0.0 **** -0.24
20582 H 62.791099619286626 51.528729914181014 58.26651293915023 H 0.0 **** 0.06
20583 H 63.841823995646934 52.43964195054511 57.15609156758259 H 0.0 **** 0.06
20584 H 64.55962607279048 51.46153922829325 58.45965992459256 H 0.0 **** 0.06
20585 H 63.67726455078059 52.95711761174809 58.85147567798808 H 0.0 **** 0.06
20586 C 101.69901340023182 75.46075216609978 86.5755663612565 C 0.0 **** -0.24
20587 H 102.21552697499891 75.24977278871233 87.51247838115506 H 0.0 **** 0.06
20588 H 102.38576399391457 75.31677526698928 85.74145489057759 H 0.0 **** 0.06
20589 H 101.34478617743224 76.49205333717876 86.58101359309876 H 0.0 **** 0.06
20590 H 100.85023053348232 74.78596201304997 86.46890552235845 H 0.0 **** 0.06
20591 C 76.88937807534778 42.85412022232168 103.78726807436188 C 0.0 **** -0.24
20592 H 77.08178831138375 42.835560990288855 102.71430183818156 H 0.0 **** 0.06
20593 H 76.5188898801264 43.83888071829895 104.07242406886787 H 0.0 **** 0.06
20594 H 77.81463769907973 42.6438680961858 104.32481191541255 H 0.0 **** 0.06
20595 H 76.14488542799381 42.09851402375253 104.03624922319604 H 0.0 **** 0.06
20596 C 10.007608573139606 103.7411419412449 100.58318417231415 C 0.0 **** -0.24
20597 H 9.011860664056826 103.4075545469745 100.29183865723421 H 0.0 **** 0.06
20598 H 10.043281160209546 103.87773488500568 101.66418348680303 H 0.0 **** 0.06
20599 H 10.231893205576341 104.6867275840765 100.0900839290447 H 0.0 **** 0.06
20600 H 10.74306749498885 102.9934904850677 100.28654779888414 H 0.0 **** 0.06
20601 C 52.543557523038544 89.67600693769404 33.838350633138106 C 0.0 **** -0.24
20602 H 53.33389002387162 90.42557220274271 33.8026559404461 H 0.0 **** 0.06
20603 H 52.986532618785645 88.67982041726893 33.835008601301354 H 0.0 **** 0.06
20604 H 51.896428460924426 89.78946951302568 32.968511051653735 H 0.0 **** 0.06
20605 H 51.956696112883606 89.80972269362579 34.74769956987289 H 0.0 **** 0.06
20606 C 99.8275892076257 99.70565150784186 59.69293258386503 C 0.0 **** -0.24
20607 H 99.21431208454463 99.99765017776342 60.54593648008044 H 0.0 **** 0.06
20608 H 100.85278353419851 99.53836564679547 60.02263046331693 H 0.0 **** 0.06
20609 H 99.80918919610919 100.49747018247758 58.9447740023397 H 0.0 **** 0.06
20610 H 99.43112013695016 98.78701335874764 59.259310708319234 H 0.0 **** 0.06
20611 C 76.17192238760396 72.87880240672752 143.444934772234 C 0.0 **** -0.24
20612 H 76.23733935126415 72.93302451893952 144.53153324840093 H 0.0 **** 0.06
20613 H 77.12076359760886 72.5224291303995 143.0418402770947 H 0.0 **** 0.06
20614 H 75.95503337180804 73.86869785235169 143.04444656102376 H 0.0 **** 0.06
20615 H 75.37591118341771 72.18991449239506 143.16327849809727 H 0.0 **** 0.06
20616 C 18.116348394076454 61.16420830287608 136.5321980928931 C 0.0 **** -0.24
20617 H 19.091127816903224 61.0089374987667 136.07131993105145 H 0.0 **** 0.06
20618 H 17.977078100773838 60.44237830600575 137.33752407708346 H 0.0 **** 0.06
20619 H 17.334635934314406 61.02873733968278 135.7840076387347 H 0.0 **** 0.06
20620 H 18.061736199010284 62.17448927906254 136.93564508272726 H 0.0 **** 0.06
20621 C 56.988906405631056 88.48615350535653 91.67147451257779 C 0.0 **** -0.24
20622 H 57.19859835010128 89.53345099669835 91.89256267500201 H 0.0 **** 0.06
20623 H 56.80550944624396 87.94809016288406 92.6017384966255 H 0.0 **** 0.06
20624 H 57.844259635605965 88.04561228046816 91.15832250543568 H 0.0 **** 0.06
20625 H 56.10804249425237 88.4194302238954 91.0325633607087 H 0.0 **** 0.06
20626 C 96.06598824902437 44.96188780536005 70.26089536403164 C 0.0 **** -0.24
20627 H 95.31338145211731 44.917828276632434 71.04980950652339 H 0.0 **** 0.06
20628 H 95.79616821034463 45.73885411847411 69.54597918066864 H 0.0 **** 0.06
20629 H 96.11427281911115 43.998546919901315 69.75268809627951 H 0.0 **** 0.06
20630 H 97.03768621196546 45.19108201307748 70.69891108376794 H 0.0 **** 0.06
20631 C 70.77375072980085 88.88674074503842 5.342420967711703 C 0.0 **** -0.24
20632 H 71.02949886303408 88.26908871609288 4.481914424559157 H 0.0 **** 0.06
20633 H 71.16136541997844 89.89552741582669 5.194187930355852 H 0.0 **** 0.06
20634 H 71.21430462785665 88.45734306061304 6.241926134776875 H 0.0 **** 0.06
20635 H 69.68941219008087 88.92629986088878 5.452032645711711 H 0.0 **** 0.06
20636 C 147.02598323021599 16.963414782179996 120.90219503118213 C 0.0 **** -0.24
20637 H 146.00930136011323 17.29593007159042 121.11360991831098 H 0.0 **** 0.06
20638 H 147.0393109781076 16.413713944564705 119.96129226441995 H 0.0 **** 0.06
20639 H 147.37049667503732 16.315238186687253 121.70782103028789 H 0.0 **** 0.06
20640 H 147.6825992136864 17.830593218062035 120.82692415597297 H 0.0 **** 0.06
20641 C 119.60957649868112 111.39704412050601 90.77787065127599 C 0.0 **** -0.24
20642 H 119.38203873021837 111.03764595180407 91.7815818648515 H 0.0 **** 0.06
20643 H 119.06797908025959 110.79674412865334 90.04576418486363 H 0.0 **** 0.06
20644 H 120.68101225850063 111.31469985660361 90.59549328682246 H 0.0 **** 0.06
20645 H 119.3056497301136 112.44061900502628 90.68855831759461 H 0.0 **** 0.06
20646 C 154.49427832050344 12.960142083655654 104.66541750607125 C 0.0 **** -0.24
20647 H 154.0827386940968 13.941694877123922 104.43228902235434 H 0.0 **** 0.06
20648 H 155.1467553860009 12.637621419387187 103.85418957105894 H 0.0 **** 0.06
20649 H 153.6814974624926 12.244439070747632 104.78547631559438 H 0.0 **** 0.06
20650 H 155.06691963110478 13.017494250812547 105.59168980119524 H 0.0 **** 0.06
20651 C 23.928173440388335 41.30593052468754 5.159265741978572 C 0.0 **** -0.24
20652 H 24.53743385602794 41.37647776224179 4.2583564819245225 H 0.0 **** 0.06
20653 H 23.992480681635804 42.24137520990513 5.715285974322796 H 0.0 **** 0.06
20654 H 24.293823182058624 40.48829560931625 5.780713320711442 H 0.0 **** 0.06
20655 H 22.89126021346715 41.11674847591888 4.882605726137001 H 0.0 **** 0.06
20656 C 25.944366240943168 111.73252026838456 51.54032350053353 C 0.0 **** -0.24
20657 H 25.334480289833408 111.98870427497307 50.67398144701551 H 0.0 **** 0.06
20658 H 25.32628854278863 111.22337758925583 52.28041632653043 H 0.0 **** 0.06
20659 H 26.356818419606896 112.64298958160278 51.97519647484623 H 0.0 **** 0.06
20660 H 26.757179785135634 111.0758817382313 51.230719493942104 H 0.0 **** 0.06
20661 C 86.16609385181505 81.5233629913093 75.99138089313954 C 0.0 **** -0.24
20662 H 86.05041883228375 80.90379191690047 76.88042005404515 H 0.0 **** 0.06
20663 H 86.86771616891463 81.04766992115243 75.30524756906846 H 0.0 **** 0.06
20664 H 86.54610609955273 82.5040725768677 76.27885453627815 H 0.0 **** 0.06
20665 H 85.1989893248234 81.63911198644001 75.5004891271762 H 0.0 **** 0.06
20666 C 148.8608152486143 93.5347487887712 110.77013443615151 C 0.0 **** -0.24
20667 H 149.42625784497199 93.8105663577987 109.88051936149806 H 0.0 **** 0.06
20668 H 148.99814644170905 94.2962225466187 111.5386203297618 H 0.0 **** 0.06
20669 H 149.2157168431043 92.57385429648629 111.14346983751294 H 0.0 **** 0.06
20670 H 147.80278984212055 93.4588080478439 110.51874644277841 H 0.0 **** 0.06
20671 C 50.970511653381834 42.410536136218255 69.87868800605537 C 0.0 **** -0.24
20672 H 50.467326085343075 42.65304133163154 68.94209032201206 H 0.0 **** 0.06
20673 H 52.01429912266099 42.72122839668674 69.82098402007927 H 0.0 **** 0.06
20674 H 50.92102231999752 41.3349603677362 70.04930820903934 H 0.0 **** 0.06
20675 H 50.47964337907044 42.93209915145515 70.70030167870533 H 0.0 **** 0.06
20676 C 132.2977612561424 137.93910899066748 140.32603906729847 C 0.0 **** -0.24
20677 H 133.17060898479178 137.34660777025772 140.60071310334746 H 0.0 **** 0.06
20678 H 132.26957925066898 138.84525471989528 140.93164486396316 H 0.0 **** 0.06
20679 H 131.3935048856161 137.3566156118368 140.49915034192549 H 0.0 **** 0.06
20680 H 132.3598170487703 138.2074245196171 139.2713677777567 H 0.0 **** 0.06
20681 C 27.339424754480333 107.9824885218729 72.82530396098818 C 0.0 **** -0.24
20682 H 27.621952569782998 108.34975410193222 71.83838820060572 H 0.0 **** 0.06
20683 H 28.234422301055147 107.8565912445256 73.43528999850344 H 0.0 **** 0.06
20684 H 26.830215830297426 107.0248475013929 72.72376297309088 H 0.0 **** 0.06
20685 H 26.67247081098739 108.7012852983407 73.3015899153873 H 0.0 **** 0.06
20686 C 134.71026851838718 36.06884485227829 4.835626320161225 C 0.0 **** -0.24
20687 H 135.3537204382127 35.19729837609776 4.947322213620652 H 0.0 **** 0.06
20688 H 135.26824052139278 36.9684430548146 5.097378153338184 H 0.0 **** 0.06
20689 H 133.84758994080752 35.97099401622296 5.4948156433563895 H 0.0 **** 0.06
20690 H 134.37123679855569 36.14015932491765 3.8022007512049356 H 0.0 **** 0.06
20691 C 131.21040344315597 134.79311732329532 45.96962384719177 C 0.0 **** -0.24
20692 H 130.69925481354082 134.59068899941886 45.02851677693684 H 0.0 **** 0.06
20693 H 131.3098926697084 133.86690500478676 46.53545182481548 H 0.0 **** 0.06
20694 H 130.63198682241656 135.51373126247304 46.54927847838326 H 0.0 **** 0.06
20695 H 132.19957644847673 135.20334289408157 45.76465692526233 H 0.0 **** 0.06
20696 C 28.955521946162357 84.31967102983018 46.19830601463519 C 0.0 **** -0.24
20697 H 28.62746192995366 84.84939126466065 45.30314523777328 H 0.0 **** 0.06
20698 H 29.88372247104389 84.7621985176362 46.56089242328463 H 0.0 **** 0.06
20699 H 29.121532308439463 83.26956670710666 45.959163543654626 H 0.0 **** 0.06
20700 H 28.188753537242782 84.40074699987355 46.968521278959486 H 0.0 **** 0.06
20701 C 142.46644416429524 144.65726002822203 60.614568872185714 C 0.0 **** -0.24
20702 H 143.35009547266125 144.931053450925 60.037463836336514 H 0.0 **** 0.06
20703 H 142.7393887983273 144.54148285611168 61.66346760128002 H 0.0 **** 0.06
20704 H 142.0649078302242 143.71662292303432 60.23729696978265 H 0.0 **** 0.06
20705 H 141.7133171793408 145.4391809824354 60.51871467688048 H 0.0 **** 0.06
20706 C 148.8614727925956 115.14251719648858 78.9309378317432 C 0.0 **** -0.24
20707 H 147.95328867131275 115.62448666644617 78.57035404013692 H 0.0 **** 0.06
20708 H 148.62786666520202 114.5393133569696 79.80866558000986 H 0.0 **** 0.06
20709 H 149.59543842092552 115.90293051315196 79.1962879602165 H 0.0 **** 0.06
20710 H 149.2689435543873 114.50262856993358 78.1478345079478 H 0.0 **** 0.06
20711 C 112.31230428462378 41.25148498256624 154.74751884281582 C 0.0 **** -0.24
20712 H 112.93186643555306 41.93915623936118 154.1720958271836 H 0.0 **** 0.06
20713 H 112.48389259406453 40.231645804207915 154.401313391141 H 0.0 **** 0.06
20714 H 111.26170699339401 41.5092461103103 154.61143716272963 H 0.0 **** 0.06
20715 H 112.57095684195271 41.32573170042332 155.80340042917865 H 0.0 **** 0.06
20716 C 120.27239739323704 81.61802548602655 63.34300522668339 C 0.0 **** -0.24
20717 H 120.340420901009 80.62146951975336 62.90819878997195 H 0.0 **** 0.06
20718 H 119.22399536552473 81.89904074164384 63.44533460305031 H 0.0 **** 0.06
20719 H 120.77942338141787 82.33224676617027 62.695029727585194 H 0.0 **** 0.06
20720 H 120.74656948707496 81.61974934062287 64.32492913136385 H 0.0 **** 0.06
20721 C 88.06516688501456 122.32407094673876 116.91588589543801 C 0.0 **** -0.24
20722 H 88.47549955630629 122.81450811829491 117.79881407058014 H 0.0 **** 0.06
20723 H 87.02837842480253 122.04662210431137 117.102627579748 H 0.0 **** 0.06
20724 H 88.64787291465767 121.4293805302613 116.694056119896 H 0.0 **** 0.06
20725 H 88.1118691111314 123.00746260903703 116.06739108513784 H 0.0 **** 0.06
20726 C 48.13466134977932 98.81167265971271 139.56077385689494 C 0.0 **** -0.24
20727 H 48.64459553752528 97.84886261716603 139.59150841806184 H 0.0 **** 0.06
20728 H 47.31938771697912 98.76781403893153 138.83873646825597 H 0.0 **** 0.06
20729 H 48.841077910885815 99.58721987171727 139.26471670583578 H 0.0 **** 0.06
20730 H 47.734422836324825 99.04226139753354 140.54801984175413 H 0.0 **** 0.06
20731 C 20.65475264619557 88.56789098383123 44.33657791338139 C 0.0 **** -0.24
20732 H 20.24110687674363 87.97966779386996 45.15586317196839 H 0.0 **** 0.06
20733 H 20.43026605475388 89.62284397636802 44.497337545808364 H 0.0 **** 0.06
20734 H 20.21285539886256 88.2409718541455 43.39578444587539 H 0.0 **** 0.06
20735 H 21.7351826974828 88.42714885946276 44.29831244555069 H 0.0 **** 0.06
20736 C 68.89270842642155 134.96746465982972 148.531361612806 C 0.0 **** -0.24
20737 H 68.925226044884 134.03462090747269 149.094249531576 H 0.0 **** 0.06
20738 H 68.03450665335981 135.55614844073858 148.85478978046274 H 0.0 **** 0.06
20739 H 68.80260103122738 134.7463397214055 147.46745742716575 H 0.0 **** 0.06
20740 H 69.80855282441645 135.53184267415338 148.70936777909657 H 0.0 **** 0.06
20741 C 51.53447129455431 105.7936177050555 44.162661724357406 C 0.0 **** -0.24
20742 H 52.08688821118379 105.12160940866436 44.818687668368014 H 0.0 **** 0.06
20743 H 52.20426857781176 106.18321710851886 43.395225331782996 H 0.0 **** 0.06
20744 H 51.131838608876805 106.62135318863132 44.747351038328205 H 0.0 **** 0.06
20745 H 50.716732662935385 105.24985334163007 43.69116148842524 H 0.0 **** 0.06
20746 C 49.19821265290568 115.68343787170517 22.234163313592937 C 0.0 **** -0.24
20747 H 49.326836628753085 115.87543949417773 21.168295138892965 H 0.0 **** 0.06
20748 H 48.61091052178554 114.77595924948326 22.370308057976835 H 0.0 **** 0.06
20749 H 48.6804174083796 116.52573349942878 22.693616085740437 H 0.0 **** 0.06
20750 H 50.175204928730764 115.5595809891883 22.701278112139207 H 0.0 **** 0.06
20751 C 149.4264436321661 63.17128125533944 69.74009337625664 C 0.0 **** -0.24
20752 H 149.89118605575533 62.77720172053898 70.64363720870261 H 0.0 **** 0.06
20753 H 149.90040711641893 64.1148865288757 69.4691996985537 H 0.0 **** 0.06
20754 H 148.3640874917156 63.33639205543989 69.91917581561343 H 0.0 **** 0.06
20755 H 149.55039918806958 62.456029373014005 68.92600954304218 H 0.0 **** 0.06
20756 C 32.174996244298065 40.24310253232392 121.49930807796692 C 0.0 **** -0.24
20757 H 31.368898982564993 40.081145105493306 122.21502986287827 H 0.0 **** 0.06
20758 H 31.957733329217454 39.70051594821777 120.57904707805328 H 0.0 **** 0.06
20759 H 33.113395168497426 39.88263575519261 121.92132211768465 H 0.0 **** 0.06
20760 H 32.259615907999724 41.3084450264941 121.28271263975729 H 0.0 **** 0.06
20761 C 4.430267293450399 87.59928955170022 27.907986887448644 C 0.0 **** -0.24
20762 H 4.025515030965828 86.69381167624987 28.360337527715636 H 0.0 **** 0.06
20763 H 4.04278601734493 88.47183229819545 28.4345902575999 H 0.0 **** 0.06
20764 H 4.134429344172858 87.64546677534234 26.860689799622882 H 0.0 **** 0.06
20765 H 5.518044188355461 87.58536231567335 27.978663201155555 H 0.0 **** 0.06
20766 C 124.45405618531555 128.6697256532979 147.2731394754902 C 0.0 **** -0.24
20767 H 123.94324964394514 128.81720227673395 146.32122823127526 H 0.0 **** 0.06
20768 H 124.74966720875972 129.6367318986801 147.67946163638155 H 0.0 **** 0.06
20769 H 125.34000785926105 128.05370532784758 147.11716101138956 H 0.0 **** 0.06
20770 H 123.78277846446127 128.1697203892454 147.97149012904626 H 0.0 **** 0.06
20771 C 44.884069527266874 79.33288611556553 92.3851808781084 C 0.0 **** -0.24
20772 H 45.03320480510155 80.36448609664534 92.70207798869042 H 0.0 **** 0.06
20773 H 44.101014398151705 79.29593720806437 91.62663742284735 H 0.0 **** 0.06
20774 H 44.58748850942047 78.72867218168807 93.24242406791474 H 0.0 **** 0.06
20775 H 45.81259117947316 78.94290849400362 91.96865038090012 H 0.0 **** 0.06
20776 C 153.6111555257604 139.07616713337822 26.760067418626704 C 0.0 **** -0.24
20777 H 153.36626380362793 139.88601569502134 26.07221419961388 H 0.0 **** 0.06
20778 H 152.7387602804639 138.8430644848573 27.37012835448354 H 0.0 **** 0.06
20779 H 154.43402160342123 139.3848897148881 27.40573180201642 H 0.0 **** 0.06
20780 H 153.90562927550576 138.1936157721878 26.192893767570922 H 0.0 **** 0.06
20781 C 151.89635144334855 122.76040716908028 123.38686002862967 C 0.0 **** -0.24
20782 H 151.89332580967056 121.9661409419943 124.13349292670618 H 0.0 **** 0.06
20783 H 152.73986809895413 123.42585303449357 123.56949931727006 H 0.0 **** 0.06
20784 H 150.9656573189818 123.32383421753235 123.45279238270284 H 0.0 **** 0.06
20785 H 151.9864797672983 122.32256671735257 122.39238865254335 H 0.0 **** 0.06
20786 C 113.4904514702908 129.61099540592477 15.364731014208537 C 0.0 **** -0.24
20787 H 112.51595375217886 129.3160304547295 15.755835341969615 H 0.0 **** 0.06
20788 H 113.53863158081657 129.38219806715728 14.300465962332709 H 0.0 **** 0.06
20789 H 114.27333978969045 129.06390575891487 15.890756199240556 H 0.0 **** 0.06
20790 H 113.6324247154592 130.6811079148003 15.513692307961584 H 0.0 **** 0.06
20791 C 93.8834460841621 2.928507547380967 99.90327798226919 C 0.0 **** -0.24
20792 H 94.57400973000966 2.109093673170751 100.1039878253511 H 0.0 **** 0.06
20793 H 93.19751527917305 2.6383029049967384 99.10686107098161 H 0.0 **** 0.06
20794 H 94.44549111334445 3.810325551263766 99.59706557727456 H 0.0 **** 0.06
20795 H 93.31670081913832 3.1545304341028313 100.80688140887001 H 0.0 **** 0.06
20796 C 28.371824029171357 52.77480619981009 101.014911969549 C 0.0 **** -0.24
20797 H 27.95761216380197 52.94856206736873 102.00842297790466 H 0.0 **** 0.06
20798 H 28.536268712212134 51.70654734632318 100.87254044215472 H 0.0 **** 0.06
20799 H 29.319201881351773 53.3048282801883 100.91938996506794 H 0.0 **** 0.06
20800 H 27.67375835138631 53.13905886692375 100.26147188548727 H 0.0 **** 0.06
20801 C 117.30613277307278 152.43866317193306 88.85152552244521 C 0.0 **** -0.24
20802 H 117.9421942677307 151.55890849708766 88.95163632716414 H 0.0 **** 0.06
20803 H 116.27990539577313 152.12426472502065 88.66051068039508 H 0.0 **** 0.06
20804 H 117.65999419907483 153.05061316129047 88.02084927651143 H 0.0 **** 0.06
20805 H 117.3432086322534 153.0203873958054 89.77268673854236 H 0.0 **** 0.06
20806 C 36.490682747834455 65.25211665747361 40.13636927185401 C 0.0 **** -0.24
20807 H 36.7762074361151 64.26525975055537 40.500256286850174 H 0.0 **** 0.06
20808 H 35.559933862977914 65.17544428237345 39.57326664454824 H 0.0 **** 0.06
20809 H 37.27681133599981 65.6424810271768 39.490027896092315 H 0.0 **** 0.06
20810 H 36.34868191811472 65.92420133859522 40.98272062863245 H 0.0 **** 0.06
20811 C 19.823658859228935 107.53267570271885 102.23385346954386 C 0.0 **** -0.24
20812 H 19.371816913640494 107.08362725972057 103.11810626728077 H 0.0 **** 0.06
20813 H 19.088501911867098 108.15814398895594 101.72807947232182 H 0.0 **** 0.06
20814 H 20.15832330114207 106.74499905599959 101.55769229623898 H 0.0 **** 0.06
20815 H 20.677206371945644 108.14220948546233 102.53078761533017 H 0.0 **** 0.06
20816 C 126.91633788045179 43.75650449551466 98.35704972010831 C 0.0 **** -0.24
20817 H 126.23294183514766 43.042408543965024 98.81625063409592 H 0.0 **** 0.06
20818 H 127.87558125860541 43.7258941850946 98.87361996297551 H 0.0 **** 0.06
20819 H 126.49573025291106 44.75991383212241 98.42988946662405 H 0.0 **** 0.06
20820 H 127.05907766496021 43.49854141926416 97.30783045522065 H 0.0 **** 0.06
20821 C 149.29580447013814 156.42251492410423 141.76101635148228 C 0.0 **** -0.24
20822 H 149.659112572774 157.4019235581875 142.07241581264464 H 0.0 **** 0.06
20823 H 148.32429223722195 156.53177123716412 141.27770718399165 H 0.0 **** 0.06
20824 H 149.19748849441146 155.77695047933398 142.6338967530047 H 0.0 **** 0.06
20825 H 150.00265249390574 155.97933687526438 141.05910412082036 H 0.0 **** 0.06
20826 C 54.512280411478145 137.79556402259763 62.169039784584044 C 0.0 **** -0.24
20827 H 54.2209099373643 137.22262824911235 63.04936729080197 H 0.0 **** 0.06
20828 H 54.9897391208014 137.1327605573262 61.4469979331476 H 0.0 **** 0.06
20829 H 55.21155132141959 138.57874650363183 62.46056001051171 H 0.0 **** 0.06
20830 H 53.62765854511588 138.24644654165604 61.7200422819313 H 0.0 **** 0.06
20831 C 122.83082972417134 56.700195629623224 52.01466298718215 C 0.0 **** -0.24
20832 H 122.99614059016648 55.739746439150025 51.5273403895102 H 0.0 **** 0.06
20833 H 121.88501252462675 56.67399969111074 52.55731971292067 H 0.0 **** 0.06
20834 H 122.79656277777741 57.4881761692036 51.26192323381156 H 0.0 **** 0.06
20835 H 123.64482718633207 56.899490096462316 52.71203127970524 H 0.0 **** 0.06
20836 C 19.265149863854077 10.089539546635748 68.28351527349746 C 0.0 **** -0.24
20837 H 20.087649307259746 9.53323634802328 67.83461209012937 H 0.0 **** 0.06
20838 H 18.55010994540026 10.367322711836657 67.50829521323152 H 0.0 **** 0.06
20839 H 19.652433578832742 10.988821800698794 68.76049992856585 H 0.0 **** 0.06
20840 H 18.769381159941467 9.467188083830735 69.02832512293074 H 0.0 **** 0.06
20841 C 35.46660089249709 61.477619988208914 110.28519292733232 C 0.0 **** -0.24
20842 H 35.828562037053885 62.46765406402767 110.0081869282205 H 0.0 **** 0.06
20843 H 34.40534268216489 61.53386802077813 110.5281555842712 H 0.0 **** 0.06
20844 H 36.019777867221975 61.119172173095876 111.15365023155026 H 0.0 **** 0.06
20845 H 35.61379786101304 60.791107825083316 109.45222550237357 H 0.0 **** 0.06
20846 C 12.92535862100084 93.09977542190033 151.07005202797382 C 0.0 **** -0.24
20847 H 12.098673289823466 92.56281464983158 150.604914238601 H 0.0 **** 0.06
20848 H 13.801016248604924 92.45219767965999 151.1109353785775 H 0.0 **** 0.06
20849 H 12.644041645433646 93.39537265938186 152.08006324371027 H 0.0 **** 0.06
20850 H 13.157604398049216 93.98811810563075 150.48192204642635 H 0.0 **** 0.06
20851 C 88.16116341716135 84.96632186293147 50.855906953886915 C 0.0 **** -0.24
20852 H 88.55441324725119 85.35178132102078 51.79697617144987 H 0.0 **** 0.06
20853 H 87.42947006325652 85.66664267615926 50.454170427473926 H 0.0 **** 0.06
20854 H 87.68539874026666 84.00142023273196 51.028838908639315 H 0.0 **** 0.06
20855 H 88.97818869506145 84.84561470449256 50.14345541178248 H 0.0 **** 0.06
20856 C 103.46302337148403 75.29305849555135 56.88928226004913 C 0.0 **** -0.24
20857 H 102.4611342388089 74.87465024043212 56.793650856329876 H 0.0 **** 0.06
20858 H 103.394872188852 76.31848008886391 57.25307430998295 H 0.0 **** 0.06
20859 H 103.95492103667884 75.28366736952074 55.91673860654322 H 0.0 **** 0.06
20860 H 104.04014618025458 74.69509874229709 57.59458507968462 H 0.0 **** 0.06
20861 C 119.24351751997533 85.3867954857163 63.61121130275376 C 0.0 **** -0.24
20862 H 120.04816155682583 86.05266266954116 63.300178312065555 H 0.0 **** 0.06
20863 H 119.03637753096315 84.67102099754125 62.81574001147601 H 0.0 **** 0.06
20864 H 118.34650309004302 85.97182802673298 63.81587622832194 H 0.0 **** 0.06
20865 H 119.54280197970111 84.85253853961743 64.51349231866209 H 0.0 **** 0.06
20866 C 155.26053775688007 15.406419781225594 99.22718835254994 C 0.0 **** -0.24
20867 H 154.64406679029727 14.696017844532207 98.67725901607574 H 0.0 **** 0.06
20868 H 154.64685641074317 15.928977996867019 99.96172141771285 H 0.0 **** 0.06
20869 H 155.6908572474997 16.1279234111297 98.53371717675833 H 0.0 **** 0.06
20870 H 156.06165472632065 14.871783812847895 99.73789929326801 H 0.0 **** 0.06
20871 C 116.9547165800596 60.30133379655541 53.626587512026944 C 0.0 **** -0.24
20872 H 117.30281958881835 59.923366519922126 54.58862636332147 H 0.0 **** 0.06
20873 H 116.11112176648061 59.70106318460722 53.28428985218426 H 0.0 **** 0.06
20874 H 117.76434589567992 60.24053185190775 52.89870483231766 H 0.0 **** 0.06
20875 H 116.64169212955761 61.33928515285902 53.73633414124491 H 0.0 **** 0.06
20876 C 30.05498324045206 22.55117260461705 93.58743937003916 C 0.0 **** -0.24
20877 H 30.07736407576091 21.46136597233334 93.62196928214608 H 0.0 **** 0.06
20878 H 31.034398672106846 22.943935414079846 93.8588697094818 H 0.0 **** 0.06
20879 H 29.30671012350811 22.920577347977144 94.28842163629336 H 0.0 **** 0.06
20880 H 29.798871365064315 22.876719540371283 92.57878749815433 H 0.0 **** 0.06
20881 C 62.84714397469304 88.97989498301673 56.09535568047403 C 0.0 **** -0.24
20882 H 63.64721652213484 89.44823943850164 55.520935882913605 H 0.0 **** 0.06
20883 H 63.01402556511857 89.1541462455518 57.15789540872049 H 0.0 **** 0.06
20884 H 62.84004260523511 87.90774946843845 55.89860903581682 H 0.0 **** 0.06
20885 H 61.890313725160865 89.4101735563778 55.80127429227697 H 0.0 **** 0.06
20886 C 22.91101373538107 3.442114832043501 123.97971639066047 C 0.0 **** -0.24
20887 H 22.439666566979085 4.389138012458659 123.71745201270188 H 0.0 **** 0.06
20888 H 22.75193999334826 2.7221615187842474 123.17775230201794 H 0.0 **** 0.06
20889 H 22.472288900491847 3.0621030666258378 124.90282162738363 H 0.0 **** 0.06
20890 H 23.980915184891224 3.596380906632902 124.12275682254507 H 0.0 **** 0.06
20891 C 98.97605146308584 37.64474419420749 148.9948821114738 C 0.0 **** -0.24
20892 H 98.68389100388693 37.36183533992798 150.00625964884284 H 0.0 **** 0.06
20893 H 99.8024433354344 38.354561375054956 149.0405848311382 H 0.0 **** 0.06
20894 H 98.12860534291771 38.10484617314303 148.48699934572792 H 0.0 **** 0.06
20895 H 99.28977377287394 36.75652139846392 148.44516282334388 H 0.0 **** 0.06
20896 C 33.395173392434515 44.028735008414344 26.14770243280629 C 0.0 **** -0.24
20897 H 33.91000329689902 44.13174823052 25.193023385623867 H 0.0 **** 0.06
20898 H 32.49038517487304 44.636655668461 26.13973819611426 H 0.0 **** 0.06
20899 H 34.051262694372 44.36308710172267 26.951871074105718 H 0.0 **** 0.06
20900 H 33.129974915103304 42.9833338360765 26.305834753144147 H 0.0 **** 0.06
20901 C 134.6776597329 138.2136646431976 25.571213818816744 C 0.0 **** -0.24
20902 H 135.70197415147652 137.8846084915682 25.396606578861764 H 0.0 **** 0.06
20903 H 134.1503920010423 137.460481123529 26.1574356397945 H 0.0 **** 0.06
20904 H 134.1723476690406 138.35046612085293 24.615137071870777 H 0.0 **** 0.06
20905 H 134.68727499226824 139.15733016377774 26.115864693333748 H 0.0 **** 0.06
20906 C 126.377211998074 62.78939248924982 3.035070215250137 C 0.0 **** -0.24
20907 H 127.25889631969814 62.18376834339715 2.8243931257476476 H 0.0 **** 0.06
20908 H 126.61448362204364 63.51764273636532 3.811612214067715 H 0.0 **** 0.06
20909 H 125.56637466992971 62.145244027693465 3.3750132292018833 H 0.0 **** 0.06
20910 H 126.0710673338704 63.312224051868185 2.128638037905006 H 0.0 **** 0.06
20911 C 130.46544349883928 40.58525526526316 105.2076523353618 C 0.0 **** -0.24
20912 H 130.5342949140035 41.28979902363088 106.03702394978014 H 0.0 **** 0.06
20913 H 129.6404498216324 40.87217957854027 104.55594494106656 H 0.0 **** 0.06
20914 H 130.2905530565691 39.582218288080426 105.59656726294197 H 0.0 **** 0.06
20915 H 131.39685363858504 40.59894283217389 104.64224323542608 H 0.0 **** 0.06
20916 C 138.18104251619806 90.183850871196 115.24280362786827 C 0.0 **** -0.24
20917 H 138.16631228580206 89.13874619956204 114.93107463239018 H 0.0 **** 0.06
20918 H 138.03992868624383 90.2425298848438 116.32206417717505 H 0.0 **** 0.06
20919 H 137.37686271093185 90.7227191650897 114.74156966973764 H 0.0 **** 0.06
20920 H 139.13896127039266 90.62944481516803 114.97519690542704 H 0.0 **** 0.06
20921 C 88.52062133035491 4.599072569617022 138.45503067606515 C 0.0 **** -0.24
20922 H 88.00388863495982 5.519794499520486 138.72596447207238 H 0.0 **** 0.06
20923 H 89.45370330743043 4.527471223768437 139.01434808036402 H 0.0 **** 0.06
20924 H 88.73652602892454 4.605424220316728 137.38642293502429 H 0.0 **** 0.06
20925 H 87.88691222285706 3.7440194941158254 138.69254637920432 H 0.0 **** 0.06
20926 C 144.54477485149278 112.86556716966919 64.365427948317 C 0.0 **** -0.24
20927 H 144.15611295733584 113.6432882392856 63.7084039576921 H 0.0 **** 0.06
20928 H 145.36756915252147 112.34927802392929 63.86856498670636 H 0.0 **** 0.06
20929 H 143.75239648904653 112.15213056911364 64.59191507905905 H 0.0 **** 0.06
20930 H 144.9040781213596 113.31614683460947 65.29062511495113 H 0.0 **** 0.06
20931 C 151.63490397272693 44.275343844017456 143.78860896629033 C 0.0 **** -0.24
20932 H 152.4999003493309 43.87859381542749 144.32027555423514 H 0.0 **** 0.06
20933 H 151.36357023361316 45.24414221818584 144.21053248063367 H 0.0 **** 0.06
20934 H 150.79704041351752 43.58547647688023 143.8921722853487 H 0.0 **** 0.06
20935 H 151.87998384646409 44.39427562999305 142.73318452193917 H 0.0 **** 0.06
20936 C 115.15123786235289 156.77965881052418 57.02863061039632 C 0.0 **** -0.24
20937 H 114.22691428028223 156.4185838159776 57.480917548532744 H 0.0 **** 0.06
20938 H 115.9520332149704 156.75173090712676 57.76806183072601 H 0.0 **** 0.06
20939 H 115.00979204659474 157.80296007466023 56.682233087469854 H 0.0 **** 0.06
20940 H 115.41364829491992 156.1428747525187 56.18380962429711 H 0.0 **** 0.06
20941 C 138.90512448756692 74.19710120506797 1.6881899670426037 C 0.0 **** -0.24
20942 H 139.70673313598178 74.81233231677365 1.2811151796684612 H 0.0 **** 0.06
20943 H 138.17986002408657 74.83390269542451 2.196385840520975 H 0.0 **** 0.06
20944 H 139.32110422045702 73.48116781277878 2.3970678908593754 H 0.0 **** 0.06
20945 H 138.4118006739617 73.66050024932998 0.8773257840094857 H 0.0 **** 0.06
20946 C 73.08382627061007 72.28983573347159 83.19214662404839 C 0.0 **** -0.24
20947 H 73.00970773847877 73.08779467761676 83.93140142325136 H 0.0 **** 0.06
20948 H 72.08853919701335 72.04246063826082 82.82434526349267 H 0.0 **** 0.06
20949 H 73.53123810939672 71.40910316234692 83.6521775317041 H 0.0 **** 0.06
20950 H 73.70748841323984 72.62312538180757 82.36182484439139 H 0.0 **** 0.06
20951 C 123.08510236720817 115.33351619125663 37.811671930917655 C 0.0 **** -0.24
20952 H 123.3687503812857 115.87025691709239 36.90587344438511 H 0.0 **** 0.06
20953 H 122.05229635429997 115.57335313156558 38.06732345258713 H 0.0 **** 0.06
20954 H 123.74005686562442 115.63152119494693 38.629889057457206 H 0.0 **** 0.06
20955 H 123.17884542434338 114.26080347191508 37.64306194766236 H 0.0 **** 0.06
20956 C 84.60287435155935 72.77594348780147 76.630773354413 C 0.0 **** -0.24
20957 H 85.68917669134426 72.85522913462978 76.66083422389647 H 0.0 **** 0.06
20958 H 84.24721050017286 73.03935761208928 75.63534789202002 H 0.0 **** 0.06
20959 H 84.1692300280065 73.45599173856428 77.36408273887965 H 0.0 **** 0.06
20960 H 84.30688780080715 71.75294244862047 76.86480867871914 H 0.0 **** 0.06
20961 C 138.1117790054556 30.664127361186182 102.46534660917148 C 0.0 **** -0.24
20962 H 138.1495879891949 31.40700722019095 103.26246371864603 H 0.0 **** 0.06
20963 H 137.68153372963857 29.739497834391237 102.85133746708983 H 0.0 **** 0.06
20964 H 139.1198397520099 30.4724831600953 102.09984195720484 H 0.0 **** 0.06
20965 H 137.4940960956861 31.039802930461406 101.6484895715861 H 0.0 **** 0.06
20966 C 127.66821451935435 74.81127972014565 153.1977120866551 C 0.0 **** -0.24
20967 H 128.13822332507038 73.82886379806712 153.14624977962458 H 0.0 **** 0.06
20968 H 126.89180428817637 74.88314907978742 152.43687663905058 H 0.0 **** 0.06
20969 H 128.41864045397494 75.58239661338726 153.02584208185232 H 0.0 **** 0.06
20970 H 127.22494456453525 74.94978963314907 154.1840210820896 H 0.0 **** 0.06
20971 C 61.55295732772997 57.92571207422458 23.385160844137232 C 0.0 **** -0.24
20972 H 60.61163824413531 58.07892518571225 23.911981272399032 H 0.0 **** 0.06
20973 H 61.69520735988408 58.722634801090194 22.6551507269684 H 0.0 **** 0.06
20974 H 61.53029949737977 56.963577806723166 22.872362657618623 H 0.0 **** 0.06
20975 H 62.37522737745378 57.93657771809262 24.099956300276403 H 0.0 **** 0.06
20976 C 85.45846836022784 82.71790126813528 88.66786526751122 C 0.0 **** -0.24
20977 H 85.25532455510346 81.93616542445903 89.39928943449621 H 0.0 **** 0.06
20978 H 85.21310600125769 82.35320286045919 87.6704159927873 H 0.0 **** 0.06
20979 H 86.51377571242476 82.98657582905588 88.70750138642563 H 0.0 **** 0.06
20980 H 84.8519468307087 83.59376397432172 88.89482291444773 H 0.0 **** 0.06
20981 C 95.25412829517363 51.19243742173995 105.66180230198462 C 0.0 **** -0.24
20982 H 95.03670669853567 51.72134770345771 106.59010960891477 H 0.0 **** 0.06
20983 H 95.45450619783698 50.14325368210662 105.87994413978636 H 0.0 **** 0.06
20984 H 96.12685619151006 51.63889646524164 105.1856132632944 H 0.0 **** 0.06
20985 H 94.39637875703329 51.26728605173 104.99235765996 H 0.0 **** 0.06
20986 C 6.0984947194531856 72.91854058853806 18.30327072965747 C 0.0 **** -0.24
20987 H 6.312603475062673 73.3053857186363 19.299661698686066 H 0.0 **** 0.06
20988 H 5.885062224551774 73.74867441227715 17.630534490019897 H 0.0 **** 0.06
20989 H 5.234826285454716 72.25499137816917 18.3494763662259 H 0.0 **** 0.06
20990 H 6.962409728916697 72.36463383802953 17.935390515315817 H 0.0 **** 0.06
20991 C 116.26541184838443 56.21810633331468 67.61406607700886 C 0.0 **** -0.24
20992 H 116.48645166378815 55.20320738718027 67.28342699369594 H 0.0 **** 0.06
20993 H 116.49060988823639 56.91876458905982 66.80925581156096 H 0.0 **** 0.06
20994 H 116.87560070564378 56.45636233309152 68.4851885156946 H 0.0 **** 0.06
20995 H 115.21056697001235 56.29337108629363 67.8766668104283 H 0.0 **** 0.06
20996 C 79.36707703750545 108.82929160510479 124.66110423298404 C 0.0 **** -0.24
20997 H 78.7053970576981 109.48497902723882 125.22639464836588 H 0.0 **** 0.06
20998 H 78.77180906788095 108.13898889477024 124.06374933826386 H 0.0 **** 0.06
20999 H 79.9945361130462 108.26513459841665 125.35155095118789 H 0.0 **** 0.06
21000 H 79.99761972315287 109.42807496469904 124.00409656896359 H 0.0 **** 0.06
21001 C 16.90629171675485 98.69242499899543 66.26231412471158 C 0.0 **** -0.24
21002 H 16.664451361869602 98.63446098263188 67.32417952532408 H 0.0 **** 0.06
21003 H 16.65429290684237 97.74736631950813 65.78088046005593 H 0.0 **** 0.06
21004 H 17.971650910271002 98.88871224255251 66.1428286950681 H 0.0 **** 0.06
21005 H 16.33376548657334 99.49847141312632 65.80349219603015 H 0.0 **** 0.06
21006 C 132.04061849643267 114.71461906304324 68.04251356842266 C 0.0 **** -0.24
21007 H 131.49926504099693 115.32478173840747 68.7653009552655 H 0.0 **** 0.06
21008 H 131.55349695831907 113.74312162742001 67.95141443128578 H 0.0 **** 0.06
21009 H 133.06777869760643 114.57533724518606 68.38090268686337 H 0.0 **** 0.06
21010 H 132.04204283528463 115.21335036592905 67.07399630673795 H 0.0 **** 0.06
21011 C 64.39225777656881 23.24756424364159 67.12913282916224 C 0.0 **** -0.24
21012 H 65.32657977401372 22.702898493619955 67.26119820303754 H 0.0 **** 0.06
21013 H 64.42264838558707 24.168731369508578 67.71122836673345 H 0.0 **** 0.06
21014 H 63.56088060242074 22.62929983836898 67.46946182927599 H 0.0 **** 0.06
21015 H 64.25708646278352 23.48805106476027 66.07467445059208 H 0.0 **** 0.06
21016 C 80.41336016346892 126.3188730283032 112.99402362005598 C 0.0 **** -0.24
21017 H 81.4810826839925 126.13444190678312 113.11370845780515 H 0.0 **** 0.06
21018 H 80.1955727602904 126.51902919332439 111.94427228175566 H 0.0 **** 0.06
21019 H 80.12338724931313 127.18054517842167 113.59515961145236 H 0.0 **** 0.06
21020 H 79.85415731116937 125.4425284176839 113.32087671481979 H 0.0 **** 0.06
21021 C 137.75776687718414 126.78008969316157 150.2873673734326 C 0.0 **** -0.24
21022 H 137.93905868498024 127.82415564869954 150.54278122271208 H 0.0 **** 0.06
21023 H 138.32798190613406 126.52068012486119 149.39471222962464 H 0.0 **** 0.06
21024 H 136.69584615785254 126.6328399758216 150.09681423529534 H 0.0 **** 0.06
21025 H 138.0709884367521 126.14470658457442 151.11531193998252 H 0.0 **** 0.06
21026 C 151.76948247110587 53.776959856818024 74.82172221551514 C 0.0 **** -0.24
21027 H 152.53240819783244 54.31613330379321 75.38234862133586 H 0.0 **** 0.06
21028 H 152.22907424176947 52.939511833200214 74.2962501406607 H 0.0 **** 0.06
21029 H 151.30544812414175 54.448963194530876 74.09915987243157 H 0.0 **** 0.06
21030 H 151.01105124209977 53.40223457278046 75.50919563934032 H 0.0 **** 0.06
21031 C 110.11477336819682 9.598607141979414 34.39315072943384 C 0.0 **** -0.24
21032 H 109.34648057858148 9.16580346887082 33.75295480660972 H 0.0 **** 0.06
21033 H 111.03261802962881 9.015696639358396 34.30228669987454 H 0.0 **** 0.06
21034 H 109.7759622568624 9.582644761253448 35.429078288330686 H 0.0 **** 0.06
21035 H 110.30538855587493 10.626797936792059 34.088176698990594 H 0.0 **** 0.06
21036 C 76.77295932504333 105.03067794947314 43.532554268284684 C 0.0 **** -0.24
21037 H 77.75827170030033 105.16885170754976 43.087902503398254 H 0.0 **** 0.06
21038 H 76.80258976148593 105.3279044480921 44.58116818195714 H 0.0 **** 0.06
21039 H 76.4857670615811 103.98106868772926 43.459563052372914 H 0.0 **** 0.06
21040 H 76.04544628754792 105.64349398029525 43.00152609423208 H 0.0 **** 0.06
21041 C 57.27088521948441 63.445246217643955 150.16411900371043 C 0.0 **** -0.24
21042 H 58.17907496591397 64.02746318870217 150.3220825274867 H 0.0 **** 0.06
21043 H 57.073796777854824 63.363907708444415 149.09499558865755 H 0.0 **** 0.06
21044 H 56.43220858389651 63.939379683540054 150.65311618476252 H 0.0 **** 0.06
21045 H 57.40179607260718 62.44888465697075 150.58605105209648 H 0.0 **** 0.06
21046 C 13.340212114278131 75.36145286390493 77.9183393061233 C 0.0 **** -0.24
21047 H 13.354169460214507 74.35537548965061 77.50004855053541 H 0.0 **** 0.06
21048 H 13.178317140575587 75.305122125357 78.99496205778189 H 0.0 **** 0.06
21049 H 12.53350639874185 75.93369985863742 77.45886136587984 H 0.0 **** 0.06
21050 H 14.292479162907966 75.85145767384498 77.71891167667806 H 0.0 **** 0.06
21051 C 109.6353334705049 117.6650635918075 38.81830157564954 C 0.0 **** -0.24
21052 H 109.85070697292544 118.29651157379095 37.955998038391556 H 0.0 **** 0.06
21053 H 110.52013475629549 117.081688473099 39.0714335564403 H 0.0 **** 0.06
21054 H 108.81186935436132 116.99215447574585 38.5787773649152 H 0.0 **** 0.06
21055 H 109.35807390741512 118.2913500664547 39.666225544399424 H 0.0 **** 0.06
21056 C 117.22247567836534 101.22767923737958 151.23240929393066 C 0.0 **** -0.24
21057 H 116.41206754937475 101.61797969112114 151.84847658625665 H 0.0 **** 0.06
21058 H 116.97653015931722 100.21609174143107 150.9085355068044 H 0.0 **** 0.06
21059 H 118.14433494002766 101.20977335368802 151.8127777246002 H 0.0 **** 0.06
21060 H 117.35528220365602 101.86602384068375 150.35919039236205 H 0.0 **** 0.06
21061 C 153.9965801222968 124.74090790684727 3.9638964320338914 C 0.0 **** -0.24
21062 H 153.64149465818917 124.28557665294 4.887977277293828 H 0.0 **** 0.06
21063 H 153.1807013298696 124.77816532333713 3.241581836954225 H 0.0 **** 0.06
21064 H 154.81572009391977 124.14828788231989 3.558163955703492 H 0.0 **** 0.06
21065 H 154.34637832651416 125.7529030750369 4.168311873471168 H 0.0 **** 0.06
21066 C 140.97900728749676 14.390468247357731 70.5729322080449 C 0.0 **** -0.24
21067 H 140.07693671854133 14.87225940299082 70.95096747572285 H 0.0 **** 0.06
21068 H 141.81283786244995 14.60905491082282 71.23990979966709 H 0.0 **** 0.06
21069 H 141.20226161550193 14.769478822275616 69.57587797475065 H 0.0 **** 0.06
21070 H 140.8233283765885 13.313462012981248 70.52634613928223 H 0.0 **** 0.06
21071 C 140.7366942497943 28.592176299304157 52.400957001779204 C 0.0 **** -0.24
21072 H 141.06673671537808 27.943374425277312 51.58947146321344 H 0.0 **** 0.06
21073 H 140.58358534342176 29.602207746665698 52.01971319936462 H 0.0 **** 0.06
21074 H 141.49522470219654 28.60994295458795 53.18344058967648 H 0.0 **** 0.06
21075 H 139.80071083116073 28.212379654833654 52.81150205965838 H 0.0 **** 0.06
21076 C 20.331095137705688 49.69172880663555 143.45455693242525 C 0.0 **** -0.24
21077 H 20.75142001240536 48.793566553870875 143.90745786091986 H 0.0 **** 0.06
21078 H 20.793059768387508 49.85656346236166 142.48031777281597 H 0.0 **** 0.06
21079 H 20.52433815405203 50.54885994831736 144.0993095991945 H 0.0 **** 0.06
21080 H 19.25553103322966 49.56579691970941 143.33045742421575 H 0.0 **** 0.06
21081 C 118.34740976689584 154.32489180535538 25.788108119333785 C 0.0 **** -0.24
21082 H 119.41281615907106 154.11943974366255 25.68035670508167 H 0.0 **** 0.06
21083 H 118.0935606332895 154.38529287928276 26.845958754935197 H 0.0 **** 0.06
21084 H 117.77416298770287 153.52355955717877 25.321325036437706 H 0.0 **** 0.06
21085 H 118.10954471618281 155.27119767074078 25.30182619261266 H 0.0 **** 0.06
21086 C 20.236107247729763 20.414187414507523 106.62182777979278 C 0.0 **** -0.24
21087 H 19.1917519145849 20.6975044157727 106.49131309848316 H 0.0 **** 0.06
21088 H 20.569934812268393 19.844400389672074 105.75458411273682 H 0.0 **** 0.06
21089 H 20.33679624024139 19.803286958902447 107.51915438990038 H 0.0 **** 0.06
21090 H 20.84593481917117 21.311702264246946 106.72366632176646 H 0.0 **** 0.06
21091 C 90.46924791066964 48.35863992385224 26.588167144630347 C 0.0 **** -0.24
21092 H 90.50326329085237 48.11963244772443 25.526185042257367 H 0.0 **** 0.06
21093 H 89.80656157018001 49.2088614891633 26.74900796184724 H 0.0 **** 0.06
21094 H 91.47199428780802 48.60915054755074 26.93689032847692 H 0.0 **** 0.06
21095 H 90.09719307270565 47.496897938867875 27.14280273453312 H 0.0 **** 0.06
21096 C 76.58671216910784 12.677255453205419 117.89124007972863 C 0.0 **** -0.24
21097 H 77.35430396955402 12.763452941670835 117.1221929481528 H 0.0 **** 0.06
21098 H 75.60165387950013 12.690650511879937 117.42349608067316 H 0.0 **** 0.06
21099 H 76.6710861966331 13.51374917122584 118.58427609822117 H 0.0 **** 0.06
21100 H 76.71963995011862 11.741230232435385 118.4332720402421 H 0.0 **** 0.06
21101 C 19.023694093973837 123.20040639661943 77.49168306307318 C 0.0 **** -0.24
21102 H 19.46251908957725 122.6701622675252 78.3363376832837 H 0.0 **** 0.06
21103 H 18.898379424317753 124.25226317967616 77.7501404846318 H 0.0 **** 0.06
21104 H 18.0522815718883 122.76578785884482 77.25529330054457 H 0.0 **** 0.06
21105 H 19.681006730853333 123.11464287493868 76.62699505331773 H 0.0 **** 0.06
21106 C 52.339114707315275 43.76338769702227 36.17290213416493 C 0.0 **** -0.24
21107 H 52.182888677026426 42.88140753232426 36.79428132399141 H 0.0 **** 0.06
21108 H 53.388319216119044 43.82188243183015 35.88355125434248 H 0.0 **** 0.06
21109 H 52.065715003453874 44.656092684734745 36.7359288620803 H 0.0 **** 0.06
21110 H 51.718839440887564 43.69317124667441 35.27972360024211 H 0.0 **** 0.06
21111 C 15.560919673302038 93.29846796669842 96.8176458427002 C 0.0 **** -0.24
21112 H 16.209675730484918 94.16997699468007 96.72582379951015 H 0.0 **** 0.06
21113 H 14.763114361355349 93.51251571891916 97.52892843022188 H 0.0 **** 0.06
21114 H 16.14415051395497 92.44818909634661 97.17029195474163 H 0.0 **** 0.06
21115 H 15.12844077684656 93.06463907455277 95.84557605272394 H 0.0 **** 0.06
21116 C 144.12484762388186 52.35203173925754 2.740587516148736 C 0.0 **** -0.24
21117 H 143.09143510846772 52.555322140999465 2.457723069866745 H 0.0 **** 0.06
21118 H 144.47041281277794 51.45167495466444 2.2308826124699976 H 0.0 **** 0.06
21119 H 144.18338709682797 52.20520501213309 3.818757582362764 H 0.0 **** 0.06
21120 H 144.75213724401922 53.19604952614506 2.45360427149771 H 0.0 **** 0.06
21121 C 89.01509370882134 65.57452056167392 71.27243133695777 C 0.0 **** -0.24
21122 H 89.93223866625993 65.15654909582668 70.85711259220636 H 0.0 **** 0.06
21123 H 88.56562679841738 64.85597046233994 71.9584852354534 H 0.0 **** 0.06
21124 H 88.31657590739742 65.7932520708502 70.4647921369372 H 0.0 **** 0.06
21125 H 89.24660134101042 66.49385492066159 71.8104166777083 H 0.0 **** 0.06
21126 C 51.48456795030235 137.35554027055267 38.819035538445064 C 0.0 **** -0.24
21127 H 52.3620664537837 137.82245125258504 39.266002172666845 H 0.0 **** 0.06
21128 H 51.799631010304566 136.55589147661658 38.14789041301924 H 0.0 **** 0.06
21129 H 50.92392488848408 138.10261169056608 38.25600413144514 H 0.0 **** 0.06
21130 H 50.85249454650375 136.94324887282244 39.60490171889836 H 0.0 **** 0.06
21131 C 62.76442153719904 89.94824463517733 64.76878473838903 C 0.0 **** -0.24
21132 H 62.722486272515766 90.09078018986423 63.68853812313594 H 0.0 **** 0.06
21133 H 61.754724207252934 89.98493456779772 65.17889795682372 H 0.0 **** 0.06
21134 H 63.367763077100335 90.73752115802444 65.2160220265167 H 0.0 **** 0.06
21135 H 63.211299910803206 88.97948792035811 64.98969599119705 H 0.0 **** 0.06
21136 C 109.63295730720937 73.00899727001547 111.39177438324685 C 0.0 **** -0.24
21137 H 108.81530980742859 72.91665909565063 112.1066694106716 H 0.0 **** 0.06
21138 H 109.23608861191751 73.31834362628359 110.42498757412761 H 0.0 **** 0.06
21139 H 110.13529232634109 72.04729266389927 111.28912722635226 H 0.0 **** 0.06
21140 H 110.34426202420524 73.7538257737433 111.74836625570418 H 0.0 **** 0.06
21141 C 29.526661329591604 3.1770833180638647 12.941801893099125 C 0.0 **** -0.24
21142 H 30.3560121562204 3.2094013419313114 12.23414839537071 H 0.0 **** 0.06
21143 H 29.775131706675324 3.773688130008793 13.81921446563399 H 0.0 **** 0.06
21144 H 29.347524194889587 2.1448533656467816 13.242793398054658 H 0.0 **** 0.06
21145 H 28.630658254799357 3.579418186882947 12.47012002541544 H 0.0 **** 0.06
21146 C 27.69444257097657 41.87149539361231 90.84009341514025 C 0.0 **** -0.24
21147 H 28.26777868128613 40.948093891910304 90.9209391721588 H 0.0 **** 0.06
21148 H 26.974231380866506 41.92307374717248 91.65735054987945 H 0.0 **** 0.06
21149 H 27.165983549819416 41.88817726511648 89.88779651063824 H 0.0 **** 0.06
21150 H 28.370073955949614 42.724655884591826 90.89652090126434 H 0.0 **** 0.06
21151 C 83.68020661523894 146.88348514470422 151.83422089801695 C 0.0 **** -0.24
21152 H 82.9455105852557 146.31776587634766 151.260597198461 H 0.0 **** 0.06
21153 H 84.37503797139175 146.19357540883942 152.31463911336016 H 0.0 **** 0.06
21154 H 83.16969716686057 147.47491803387732 152.59409911382008 H 0.0 **** 0.06
21155 H 84.22975180652872 147.54736156720213 151.166447832248 H 0.0 **** 0.06
21156 C 98.3006714428017 114.85670498061933 72.23119637319587 C 0.0 **** -0.24
21157 H 99.35133264254699 115.10241950909028 72.39054547269862 H 0.0 **** 0.06
21158 H 97.74249528805115 115.76977842681333 72.02358148492709 H 0.0 **** 0.06
21159 H 97.89906555611287 114.37940064231827 73.12457083159472 H 0.0 **** 0.06
21160 H 98.2118742349789 114.17573531706535 71.38490384992613 H 0.0 **** 0.06
21161 C 150.06128053344412 116.62531847746271 67.90637012505107 C 0.0 **** -0.24
21162 H 149.26789921563102 116.62883769840857 68.65256936880131 H 0.0 **** 0.06
21163 H 151.01801858775286 116.43854040725495 68.39425527989314 H 0.0 **** 0.06
21164 H 150.0918897087518 117.59182991574312 67.40319282573621 H 0.0 **** 0.06
21165 H 149.8672979319415 115.84076789271285 67.17431627986277 H 0.0 **** 0.06
21166 C 63.28820279006953 54.60627764584598 52.50138081643995 C 0.0 **** -0.24
21167 H 63.47603797885165 55.29200556940417 51.67532826354689 H 0.0 **** 0.06
21168 H 64.17354417942255 53.992155453643534 52.67165497526365 H 0.0 **** 0.06
21169 H 62.44226370910357 53.964322016344326 52.25507669276419 H 0.0 **** 0.06
21170 H 63.06179902828114 55.1756576130101 53.40285985733796 H 0.0 **** 0.06
21171 C 126.52487313741977 121.068146975589 40.09907165926424 C 0.0 **** -0.24
21172 H 126.69487644041254 121.07930660632775 39.022688365450335 H 0.0 **** 0.06
21173 H 125.94099958559059 120.187645374809 40.36626496136401 H 0.0 **** 0.06
21174 H 125.9810911087389 121.96718816626662 40.38995605144967 H 0.0 **** 0.06
21175 H 127.4840006221109 121.03987275053908 40.618267940622175 H 0.0 **** 0.06
21176 C 0.1893072135788998 141.8148811201466 150.65921007855638 C 0.0 **** -0.24
21177 H 0.8408431250961144 141.90442774793206 151.528411451156 H 0.0 **** 0.06
21178 H -0.35560502580381126 142.74727598757602 150.51509866460935 H 0.0 **** 0.06
21179 H -0.5180352094582759 141.0009377291583 150.82029249882495 H 0.0 **** 0.06
21180 H 0.7899500738448637 141.60331194490206 149.77509737090566 H 0.0 **** 0.06
21181 C 28.433473601352745 121.65321731908239 110.26282727432648 C 0.0 **** -0.24
21182 H 28.148503124664188 122.58844952565863 109.77952585485853 H 0.0 **** 0.06
21183 H 28.11174176178696 120.81353315755462 109.64669270572493 H 0.0 **** 0.06
21184 H 27.956728472689463 121.59063982418598 111.24079598290125 H 0.0 **** 0.06
21185 H 29.516303998637966 121.62213382467235 110.38285981755799 H 0.0 **** 0.06
21186 C 36.27123804998814 98.53472208616324 100.69277269450531 C 0.0 **** -0.24
21187 H 36.10895473388081 98.73284726578964 101.75182613021086 H 0.0 **** 0.06
21188 H 35.974649066777204 99.40774756781536 100.11075707630464 H 0.0 **** 0.06
21189 H 35.67452794674074 97.67580633031719 100.38776055252866 H 0.0 **** 0.06
21190 H 37.326829585010444 98.32479079222043 100.51991426090841 H 0.0 **** 0.06
21191 C 95.30649458695238 43.06387397240442 124.55671227707035 C 0.0 **** -0.24
21192 H 94.72486842020132 42.17146721179313 124.32731127262309 H 0.0 **** 0.06
21193 H 95.77307556413642 42.951754905782934 125.53521274494796 H 0.0 **** 0.06
21194 H 94.64897854251429 43.93341893813272 124.56470526699906 H 0.0 **** 0.06
21195 H 96.07802538993818 43.19850835063221 123.79871526506065 H 0.0 **** 0.06
21196 C 106.50511533308521 88.1319901861961 76.81815163176172 C 0.0 **** -0.24
21197 H 106.20065343589381 89.05550467394193 76.32606667687189 H 0.0 **** 0.06
21198 H 107.3643454751694 87.70876864620553 76.29743023172192 H 0.0 **** 0.06
21199 H 105.68008354266065 87.41952165978097 76.79818080851203 H 0.0 **** 0.06
21200 H 106.77602668076743 88.34475453803122 77.85298644481388 H 0.0 **** 0.06
21201 C 31.93920862348226 135.0160392275557 91.67320451403384 C 0.0 **** -0.24
21202 H 32.969891562012 134.89593020063003 91.33865079474873 H 0.0 **** 0.06
21203 H 31.37135491080891 134.11803028378 91.42920701594193 H 0.0 **** 0.06
21204 H 31.493331603456006 135.87593352284426 91.17140453627033 H 0.0 **** 0.06
21205 H 31.923485258766284 135.17558953002015 92.75116190401754 H 0.0 **** 0.06
21206 C 141.19159831156304 111.52370103319997 73.9825832883069 C 0.0 **** -0.24
21207 H 141.87549548584502 111.86615962019512 73.20666872626637 H 0.0 **** 0.06
21208 H 141.5962669606778 110.62662454839888 74.45392267694561 H 0.0 **** 0.06
21209 H 140.22337475463098 111.2950590263654 73.5381762460093 H 0.0 **** 0.06
21210 H 141.0723570367397 112.30540361326094 74.73310262887321 H 0.0 **** 0.06
21211 C 101.7738211820943 128.2286546978171 110.21366188068482 C 0.0 **** -0.24
21212 H 102.60563477193209 127.96668995518719 110.86829790820217 H 0.0 **** 0.06
21213 H 101.74005514457521 129.31026691262414 110.08538669877352 H 0.0 **** 0.06
21214 H 100.83965863205312 127.88487356643769 110.65872093472301 H 0.0 **** 0.06
21215 H 101.9114187419142 127.75051173362503 109.24386041270252 H 0.0 **** 0.06
21216 C 84.58755638940542 110.56587655374024 147.09487873425377 C 0.0 **** -0.24
21217 H 83.77093936526147 109.84551121160332 147.14077071689482 H 0.0 **** 0.06
21218 H 84.3333520413162 111.35932564618336 146.39193964388315 H 0.0 **** 0.06
21219 H 85.49647771078762 110.06263147805929 146.76271740414793 H 0.0 **** 0.06
21220 H 84.74985645587907 110.99306468798393 148.08410754233952 H 0.0 **** 0.06
21221 C 24.051489929905927 75.17946534749115 53.84135715644486 C 0.0 **** -0.24
21222 H 24.628620921063202 76.08865562714806 53.67575373286964 H 0.0 **** 0.06
21223 H 23.35969951714199 75.33457927385678 54.66977757638148 H 0.0 **** 0.06
21224 H 24.72644204690849 74.35846627365146 54.08022486995198 H 0.0 **** 0.06
21225 H 23.48931650385103 74.93686227716586 52.938687497804025 H 0.0 **** 0.06
21226 C 90.54730830306143 131.1796784874817 125.17866684996487 C 0.0 **** -0.24
21227 H 90.60070342135067 130.44247825490686 125.97952541180622 H 0.0 **** 0.06
21228 H 89.69512513041505 130.9563032683719 124.53545997890627 H 0.0 **** 0.06
21229 H 91.46443212871483 131.1456376388843 124.59212041375382 H 0.0 **** 0.06
21230 H 90.42618346381298 132.17456216849592 125.60794872315115 H 0.0 **** 0.06
21231 C 24.696808939477705 5.416867818323254 12.512594810779603 C 0.0 **** -0.24
21232 H 23.725931221108738 4.928868813897054 12.43353747249489 H 0.0 **** 0.06
21233 H 25.43870071808786 4.843231884445061 11.957016664949776 H 0.0 **** 0.06
21234 H 24.991238019478033 5.473181683186851 13.560329949293987 H 0.0 **** 0.06
21235 H 24.63189868447813 6.42346660304662 12.099206102238327 H 0.0 **** 0.06
21236 C 63.85924260134354 90.66832191434781 80.5705870025231 C 0.0 **** -0.24
21237 H 63.2163768074565 90.41592508924278 81.41416693427027 H 0.0 **** 0.06
21238 H 64.08341698463188 89.76531200435014 80.00216230064785 H 0.0 **** 0.06
21239 H 64.78788415481333 91.10435528845882 80.93909675724478 H 0.0 **** 0.06
21240 H 63.35092847113903 91.38617457818975 79.9270274004777 H 0.0 **** 0.06
21241 C 9.059910921174755 114.21907833470955 93.8069925307901 C 0.0 **** -0.24
21242 H 8.537598622959457 113.47088419120333 93.2101315066919 H 0.0 **** 0.06
21243 H 9.59393564182156 113.7265058634783 94.61992220037921 H 0.0 **** 0.06
21244 H 8.338236982021769 114.92311990086613 94.21947261727021 H 0.0 **** 0.06
21245 H 9.77090784243424 114.75446003706354 93.1769865681905 H 0.0 **** 0.06
21246 C 35.594693017019395 113.81603691928235 132.0603497598812 C 0.0 **** -0.24
21247 H 35.27320959897017 113.03453866647739 131.37120783449714 H 0.0 **** 0.06
21248 H 35.313807411295585 113.54108780173881 133.07782407596292 H 0.0 **** 0.06
21249 H 35.11454555610047 114.75683054792806 131.7917414487584 H 0.0 **** 0.06
21250 H 36.677368712756476 113.9304620976544 131.999943515308 H 0.0 **** 0.06
21251 C 129.83828581749162 25.75894974576417 74.64787232744473 C 0.0 **** -0.24
21252 H 129.04879892375178 25.10281171707541 75.01598513952865 H 0.0 **** 0.06
21253 H 129.6678399648768 25.97473672127063 73.59243880945115 H 0.0 **** 0.06
21254 H 130.80415773579625 25.268707370061236 74.7679785618713 H 0.0 **** 0.06
21255 H 129.82996013640826 26.689987021265324 75.21475851606954 H 0.0 **** 0.06
21256 C 122.9785903908521 86.64540843950346 101.717304843933 C 0.0 **** -0.24
21257 H 123.86266384339967 87.26208613618559 101.8786349823223 H 0.0 **** 0.06
21258 H 122.10508198876391 87.28670227791734 101.5977307218401 H 0.0 **** 0.06
21259 H 122.83318029758232 85.98803580539786 102.57448731802964 H 0.0 **** 0.06
21260 H 123.11512158631785 86.04442919241887 100.81847736579078 H 0.0 **** 0.06
21261 C 31.903364875682755 50.8309856444871 25.924181182301922 C 0.0 **** -0.24
21262 H 31.737654208706942 49.91492393137304 25.355730975338325 H 0.0 **** 0.06
21263 H 31.292633030427012 50.81192350169829 26.82745243531226 H 0.0 **** 0.06
21264 H 31.626325655939553 51.69069021652086 25.315170553357135 H 0.0 **** 0.06
21265 H 32.95514301992243 50.9024051286367 26.19805452244927 H 0.0 **** 0.06
21266 C 145.54998677294182 67.05048128692707 46.52363102511106 C 0.0 **** -0.24
21267 H 146.4627203207693 67.13422350327126 47.11541430855442 H 0.0 **** 0.06
21268 H 145.30945543452404 65.99776054686434 46.37580212356818 H 0.0 **** 0.06
21269 H 145.6989912465155 67.5286996426225 45.5562239242021 H 0.0 **** 0.06
21270 H 144.7310528718609 67.54006261843082 47.04962248987863 H 0.0 **** 0.06
21271 C 31.361743420084508 139.22580238503534 96.69585482857342 C 0.0 **** -0.24
21272 H 30.91090618324735 139.01221507977814 95.72679811462223 H 0.0 **** 0.06
21273 H 31.338707671583265 140.3004300266236 96.87770220346984 H 0.0 **** 0.06
21274 H 32.39539627782983 138.87850588159625 96.69980589168611 H 0.0 **** 0.06
21275 H 30.8025812153644 138.71195035556258 97.47784549052545 H 0.0 **** 0.06
21276 C 3.994287553113793 43.71336352868482 4.811560013387449 C 0.0 **** -0.24
21277 H 4.84776444306803 43.87697333824292 4.153799653490715 H 0.0 **** 0.06
21278 H 3.858370037679606 42.64229308588847 4.9693709348975545 H 0.0 **** 0.06
21279 H 3.0972691728633777 44.12914399405025 4.353700569662969 H 0.0 **** 0.06
21280 H 4.174281925811073 44.20134863776187 5.769123175328026 H 0.0 **** 0.06
21281 C 50.253069923849395 57.40643091546697 82.68940814024776 C 0.0 **** -0.24
21282 H 49.32979188631097 57.92279848430519 82.42906254337838 H 0.0 **** 0.06
21283 H 50.12751491216001 56.89972182827465 83.64654320287062 H 0.0 **** 0.06
21284 H 51.0644729061397 58.13035468003645 82.76556100600914 H 0.0 **** 0.06
21285 H 50.489707427001264 56.67312528435019 81.9185383650001 H 0.0 **** 0.06
21286 C 60.79066313316848 143.44780969474152 59.17309134675918 C 0.0 **** -0.24
21287 H 59.94287741795691 143.7595703224303 58.56424792262385 H 0.0 **** 0.06
21288 H 61.466287682581196 142.83943780270494 58.57162415042353 H 0.0 **** 0.06
21289 H 60.433641207986355 142.86431585968722 60.021653634827715 H 0.0 **** 0.06
21290 H 61.32090301725043 144.32836847204794 59.53613484801167 H 0.0 **** 0.06
21291 C 33.50317285183968 22.48671462064192 142.231458991227 C 0.0 **** -0.24
21292 H 33.5139140355206 21.396840838261767 142.23418506714322 H 0.0 **** 0.06
21293 H 34.439532185986366 22.858526824876606 141.81506066879982 H 0.0 **** 0.06
21294 H 33.38930324272218 22.850878105151935 143.2528763226245 H 0.0 **** 0.06
21295 H 32.66951149005354 22.84056320819053 141.62506013232303 H 0.0 **** 0.06
21296 C 114.82321982677946 122.44908935923 84.82410563336745 C 0.0 **** -0.24
21297 H 115.1016375720336 122.66769177524255 83.79234584048835 H 0.0 **** 0.06
21298 H 114.70582571935493 121.37172879786154 84.94749350880393 H 0.0 **** 0.06
21299 H 113.8830267933384 122.94687072403887 85.05918521199726 H 0.0 **** 0.06
21300 H 115.60402227260668 122.80868890310829 85.49432603112514 H 0.0 **** 0.06
21301 C 131.83820392274706 2.6544110622024277 70.74011979920829 C 0.0 **** -0.24
21302 H 131.41615866332376 2.3695057163149045 69.77619893895223 H 0.0 **** 0.06
21303 H 131.1634506190595 2.344145572695311 71.53858019809337 H 0.0 **** 0.06
21304 H 131.96838413428662 3.736182898199502 70.7741416451426 H 0.0 **** 0.06
21305 H 132.80482227431852 2.1678100616000506 70.871558414645 H 0.0 **** 0.06
21306 C 77.49418220132475 26.792448214251777 125.81031687068065 C 0.0 **** -0.24
21307 H 77.45725415986999 26.302887759192288 124.83729757908543 H 0.0 **** 0.06
21308 H 78.43332747461469 26.543244280255465 126.30579671350972 H 0.0 **** 0.06
21309 H 76.65859154449397 26.44994296322264 126.42068567501809 H 0.0 **** 0.06
21310 H 77.4280616393699 27.871878819752396 125.67595060330694 H 0.0 **** 0.06
21311 C 123.519979640968 70.72153278957305 57.612901030371916 C 0.0 **** -0.24
21312 H 122.96630514704715 71.65180418414735 57.485467277157454 H 0.0 **** 0.06
21313 H 124.47927333493702 70.93304544932914 58.08648493249183 H 0.0 **** 0.06
21314 H 123.68887205454921 70.26353658934303 56.638659026307266 H 0.0 **** 0.06
21315 H 122.94607850924505 70.04083956372938 58.241218525269915 H 0.0 **** 0.06
21316 C 17.805784551986847 95.7551303199074 138.80264348616117 C 0.0 **** -0.24
21317 H 17.038400245612422 95.86037185795225 139.56999883957417 H 0.0 **** 0.06
21318 H 18.120787327488188 96.74370163301948 138.46684932451512 H 0.0 **** 0.06
21319 H 17.402337187083674 95.19640385963602 137.9589328753545 H 0.0 **** 0.06
21320 H 18.662164626263348 95.22211895735767 139.2154179031324 H 0.0 **** 0.06
21321 C 48.311401391447646 110.86291305991455 124.50535505960335 C 0.0 **** -0.24
21322 H 48.822410753745174 109.93430700633462 124.25104835447291 H 0.0 **** 0.06
21323 H 47.241681931860995 110.67366588968196 124.60088251341551 H 0.0 **** 0.06
21324 H 48.48265426064799 111.5981241980981 123.71985542998686 H 0.0 **** 0.06
21325 H 48.69878589176513 111.24278943184032 125.45079404024523 H 0.0 **** 0.06
21326 C 105.32838872766318 107.088067830425 111.69383302478087 C 0.0 **** -0.24
21327 H 104.46068564470183 106.45035305535585 111.52362165187316 H 0.0 **** 0.06
21328 H 105.26538117314028 107.52863093078933 112.68946644849007 H 0.0 **** 0.06
21329 H 105.3488643139289 107.88096770101681 110.94599933659049 H 0.0 **** 0.06
21330 H 106.23820111611373 106.49244665140832 111.61714202243695 H 0.0 **** 0.06
21331 C 62.96566898233472 149.10582368946115 104.67142760501689 C 0.0 **** -0.24
21332 H 61.99019827153607 148.62957577641583 104.56593099957676 H 0.0 **** 0.06
21333 H 63.25870777199913 149.10580012771038 105.72205265220184 H 0.0 **** 0.06
21334 H 62.90900104226549 150.13237330705732 104.30965932089639 H 0.0 **** 0.06
21335 H 63.703069977616394 148.55462359640467 104.08858124939952 H 0.0 **** 0.06
21336 C 111.17447785016542 118.6337804856373 7.924769513563405 C 0.0 **** -0.24
21337 H 110.57788438915263 119.3851645436702 8.44042720566511 H 0.0 **** 0.06
21338 H 111.87419540434108 119.1266442101002 7.249507803241748 H 0.0 **** 0.06
21339 H 110.51827101828444 117.97743867042284 7.35350716189604 H 0.0 **** 0.06
21340 H 111.72891203114283 118.04498212341188 8.6562501576024 H 0.0 **** 0.06
21341 C 149.18810011805846 52.89424604863484 147.55281428365817 C 0.0 **** -0.24
21342 H 149.29874829968054 51.99233134825391 148.1560452280992 H 0.0 **** 0.06
21343 H 148.71993643989066 53.67508787449492 148.15238787674775 H 0.0 **** 0.06
21344 H 148.56409678408784 52.67682314901626 146.68682597905047 H 0.0 **** 0.06
21345 H 150.16929019131413 53.23044221461009 147.21893133842136 H 0.0 **** 0.06
21346 C 154.22395856166435 142.7786648011877 3.7721851117449887 C 0.0 **** -0.24
21347 H 154.1815289659338 143.866969007653 3.7437014433926947 H 0.0 **** 0.06
21348 H 153.82628603218103 142.42446203036766 4.723277446919212 H 0.0 **** 0.06
21349 H 155.2591111122897 142.45327313729456 3.6672701763712325 H 0.0 **** 0.06
21350 H 153.62958058630647 142.37069302915333 2.9545479478829293 H 0.0 **** 0.06
21351 C 35.4622023118568 41.230988323535 4.422065984482515 C 0.0 **** -0.24
21352 H 35.900794120082196 41.846235747826924 3.636450618591766 H 0.0 **** 0.06
21353 H 35.98590853875828 41.413057032157795 5.361405379367568 H 0.0 **** 0.06
21354 H 35.553800181190155 40.178819733457885 4.152763635365488 H 0.0 **** 0.06
21355 H 34.40933560955136 41.48679097089918 4.5374495057257604 H 0.0 **** 0.06
21356 C 99.26244700425246 146.41845398651967 141.18133056743835 C 0.0 **** -0.24
21357 H 99.380002089252 145.54863890519417 141.8275466255732 H 0.0 **** 0.06
21358 H 99.96380054970973 146.35031025489724 140.3499321694587 H 0.0 **** 0.06
21359 H 99.46257883811472 147.3257524764407 141.7520970697203 H 0.0 **** 0.06
21360 H 98.24340653993337 146.44911430954653 140.79574640500107 H 0.0 **** 0.06
21361 C 45.65884916185044 124.0391498346964 47.988763509872 C 0.0 **** -0.24
21362 H 45.46132016756124 122.99594392546909 48.236663529119085 H 0.0 **** 0.06
21363 H 44.857951959140536 124.66386186179308 48.38582681203167 H 0.0 **** 0.06
21364 H 45.70595428465177 124.15260562009372 46.90643799889017 H 0.0 **** 0.06
21365 H 46.60914744581541 124.34260491416431 48.428459847990496 H 0.0 **** 0.06
21366 C 67.64744014544446 74.40014763033423 28.435019510046892 C 0.0 **** -0.24
21367 H 66.88811879747003 74.69429501635568 29.159307479906794 H 0.0 **** 0.06
21368 H 68.38117722387679 75.20001942460601 28.333551804855425 H 0.0 **** 0.06
21369 H 67.17608783712076 74.2154039378346 27.46938165764721 H 0.0 **** 0.06
21370 H 68.14321058616673 73.49230139361475 28.777064119299617 H 0.0 **** 0.06
21371 C 25.380619541420252 100.8564661096152 77.20267949939091 C 0.0 **** -0.24
21372 H 26.171210904882003 101.26963814444387 76.57639375571303 H 0.0 **** 0.06
21373 H 25.522446804877532 101.18591562800451 78.23166768815663 H 0.0 **** 0.06
21374 H 25.415621426728386 99.76742555399112 77.16146986059258 H 0.0 **** 0.06
21375 H 24.41204601740702 101.2026778506446 76.84039443579336 H 0.0 **** 0.06
21376 C 116.80800555845491 42.591868269099834 92.97580019608814 C 0.0 **** -0.24
21377 H 117.43786371791373 43.48063976398082 93.02039410736685 H 0.0 **** 0.06
21378 H 115.99034587326554 42.69105846542395 93.6899413761418 H 0.0 **** 0.06
21379 H 117.4028782586688 41.71347721359621 93.2230010148199 H 0.0 **** 0.06
21380 H 116.40217856647456 42.4850195053249 91.97007336988885 H 0.0 **** 0.06
21381 C 152.3849870685931 36.49656350076582 128.8506395942003 C 0.0 **** -0.24
21382 H 151.7495136745137 37.264742289170286 129.29058455117627 H 0.0 **** 0.06
21383 H 152.5047386611767 36.692017912652744 127.78443612390691 H 0.0 **** 0.06
21384 H 151.9254142887092 35.51938045196839 128.99198935250024 H 0.0 **** 0.06
21385 H 153.3623544560814 36.51322069051362 129.33532843801146 H 0.0 **** 0.06
21386 C 40.63550730078539 92.14801667688042 117.39849023990472 C 0.0 **** -0.24
21387 H 41.18631534201259 91.86846401109958 118.29580647998374 H 0.0 **** 0.06
21388 H 40.500528658665104 91.27011802140616 116.76644720516201 H 0.0 **** 0.06
21389 H 41.19524246534675 92.90671839810683 116.85125909649732 H 0.0 **** 0.06
21390 H 39.66109430351338 92.54741443822783 117.67994434582202 H 0.0 **** 0.06
21391 C 108.15907688575756 134.18614972080226 76.1651291041336 C 0.0 **** -0.24
21392 H 108.08512286384827 134.6049056446568 77.16878091191558 H 0.0 **** 0.06
21393 H 108.77163954063668 133.2849776333423 76.19224981510763 H 0.0 **** 0.06
21394 H 108.61851281426259 134.9181775794743 75.49998734952516 H 0.0 **** 0.06
21395 H 107.16293622053304 133.93823698371324 75.8010760008512 H 0.0 **** 0.06
21396 C 3.8953206415138553 100.5920475644312 27.627018274483078 C 0.0 **** -0.24
21397 H 4.374403117399773 100.0569889268321 26.806998816683006 H 0.0 **** 0.06
21398 H 4.619611322819246 101.2569092000748 28.098508160675465 H 0.0 **** 0.06
21399 H 3.5248432218106913 99.87733737264244 28.361385669007632 H 0.0 **** 0.06
21400 H 3.0616141197693523 101.1790194177371 27.23942543869441 H 0.0 **** 0.06
21401 C 105.83213398077349 139.561379044793 58.220439506145894 C 0.0 **** -0.24
21402 H 106.88378081040956 139.27915071739073 58.17437676562015 H 0.0 **** 0.06
21403 H 105.28610860022853 139.05946468839142 57.42069268101751 H 0.0 **** 0.06
21404 H 105.7396667669082 140.6404051097386 58.10306323724309 H 0.0 **** 0.06
21405 H 105.4196180356533 139.2638286671936 59.1843181437295 H 0.0 **** 0.06
21406 C 136.05741936983475 84.54178065116491 147.4855643998423 C 0.0 **** -0.24
21407 H 136.83289079128315 85.21672705145403 147.84857283121397 H 0.0 **** 0.06
21408 H 136.51515937125345 83.74669000414775 146.89705303785257 H 0.0 **** 0.06
21409 H 135.3549514040083 85.09671882136473 146.86315852082117 H 0.0 **** 0.06
21410 H 135.52805915715547 84.10871328303935 148.33379848539755 H 0.0 **** 0.06
21411 C 7.658713528401108 50.96550335046459 64.83335602857937 C 0.0 **** -0.24
21412 H 7.358828911310297 50.218523785960144 65.56813518464651 H 0.0 **** 0.06
21413 H 6.7722389174675754 51.46722029102068 64.44356045110499 H 0.0 **** 0.06
21414 H 8.189328380509096 50.47674377890718 64.01488690667895 H 0.0 **** 0.06
21415 H 8.313929851591183 51.69724239775792 65.30525769848418 H 0.0 **** 0.06
21416 C 146.28077625910632 146.92745053143943 17.224002731669046 C 0.0 **** -0.24
21417 H 146.69418145423077 146.9130888553593 18.232468178926332 H 0.0 **** 0.06
21418 H 145.3358973976714 146.3839321572064 17.211338063294832 H 0.0 **** 0.06
21419 H 146.98209812951046 146.45283953330357 16.53716888720185 H 0.0 **** 0.06
21420 H 146.11089483659634 147.95911519278357 16.916182987729584 H 0.0 **** 0.06
21421 C 100.25959711494842 113.20839907387432 139.83276139789183 C 0.0 **** -0.24
21422 H 100.43784354041374 112.6394448158884 138.92016951660779 H 0.0 **** 0.06
21423 H 100.7888691452931 114.15958793857965 139.77631202448137 H 0.0 **** 0.06
21424 H 100.62146433082917 112.64132852126028 140.69005875418193 H 0.0 **** 0.06
21425 H 99.19062352720557 113.39261986198562 139.9433003760413 H 0.0 **** 0.06
21426 C 17.055399381963298 150.29593088651302 101.84645714456639 C 0.0 **** -0.24
21427 H 16.95616606083138 150.4598205015792 102.91916427631799 H 0.0 **** 0.06
21428 H 16.079851256300174 150.04937273292066 101.4253874861451 H 0.0 **** 0.06
21429 H 17.74735412009818 149.47269903398245 101.66712882298197 H 0.0 **** 0.06
21430 H 17.437095802054756 151.20112914982997 101.37462708517853 H 0.0 **** 0.06
21431 C 95.24137006279153 104.92383014675814 135.07061221116106 C 0.0 **** -0.24
21432 H 95.23832683326992 105.75377310611601 134.36256972633447 H 0.0 **** 0.06
21433 H 94.29102766541769 104.39350267870604 135.0109567779373 H 0.0 **** 0.06
21434 H 95.379725422664 105.30973580818973 136.08065542352088 H 0.0 **** 0.06
21435 H 96.05498687628102 104.24155073497504 134.82704473830907 H 0.0 **** 0.06
21436 C 18.346405508581512 118.65045231447317 67.15504120104542 C 0.0 **** -0.24
21437 H 18.788537287127554 117.8391784966285 67.73353835794113 H 0.0 **** 0.06
21438 H 18.877815418379782 119.57915509784021 67.36628363234436 H 0.0 **** 0.06
21439 H 17.29740619577862 118.76093095308966 67.42717818197866 H 0.0 **** 0.06
21440 H 18.424383635720943 118.42184463403038 66.09208889040539 H 0.0 **** 0.06
21441 C 24.31731581848169 57.51846375676023 120.96393598515691 C 0.0 **** -0.24
21442 H 24.980346588610303 57.7683444301921 120.13552152060036 H 0.0 **** 0.06
21443 H 23.29894829703278 57.8212931302305 120.71885710610205 H 0.0 **** 0.06
21444 H 24.645377286654536 58.04197499947375 121.86213381089745 H 0.0 **** 0.06
21445 H 24.345287334447278 56.44369779447152 121.1404136250316 H 0.0 **** 0.06
21446 C 49.19374417210753 71.88870419115142 32.50982852289005 C 0.0 **** -0.24
21447 H 48.424261993680574 71.15070465267178 32.73959269781338 H 0.0 **** 0.06
21448 H 48.73585087054488 72.87430624719502 32.42353254195848 H 0.0 **** 0.06
21449 H 49.67729750327075 71.62820317899607 31.568333398363905 H 0.0 **** 0.06
21450 H 49.93481885666279 71.90044322936984 33.30818316357815 H 0.0 **** 0.06
21451 C 69.54247320962156 103.69695789998701 4.3831825413513315 C 0.0 **** -0.24
21452 H 69.61371919083867 104.76701750107594 4.575791217253986 H 0.0 **** 0.06
21453 H 68.53678609760446 103.45642968379917 4.036784910842421 H 0.0 **** 0.06
21454 H 69.7503870649227 103.14874303605552 5.3017792679172615 H 0.0 **** 0.06
21455 H 70.26726009390778 103.4159724016821 3.61973918324788 H 0.0 **** 0.06
21456 C 41.66124579724965 62.76465491591114 67.78951658597695 C 0.0 **** -0.24
21457 H 40.86510716356631 62.46628148909562 68.47119262859508 H 0.0 **** 0.06
21458 H 41.9262424357313 63.80572974943448 67.97462101832157 H 0.0 **** 0.06
21459 H 41.317725608187914 62.653310070755026 66.76089766339237 H 0.0 **** 0.06
21460 H 42.53304441750612 62.13240461561708 67.95139408722797 H 0.0 **** 0.06
21461 C 107.63442045656596 6.819263575889465 22.14560373171497 C 0.0 **** -0.24
21462 H 106.72637294268732 7.299586704199555 22.50951589513531 H 0.0 **** 0.06
21463 H 107.73914083835915 5.8395434792852825 22.612258701384604 H 0.0 **** 0.06
21464 H 108.49792875954985 7.435542985811026 22.397096852829435 H 0.0 **** 0.06
21465 H 107.57423928566742 6.702381134261884 21.06354347751045 H 0.0 **** 0.06
21466 C 51.76968470257994 136.90684798602206 68.91870174972763 C 0.0 **** -0.24
21467 H 50.89106248477145 137.4242096384366 69.30306819788431 H 0.0 **** 0.06
21468 H 51.81390303140411 137.0228926270753 67.83515059846789 H 0.0 **** 0.06
21469 H 51.70421850478775 135.84712749247456 69.1685904785721 H 0.0 **** 0.06
21470 H 52.66770946480956 137.3310891012095 69.3668586940072 H 0.0 **** 0.06
21471 C 39.050192116786334 93.97275029371141 120.22674210086524 C 0.0 **** -0.24
21472 H 38.71975834064379 94.83284199221045 120.80867031291439 H 0.0 **** 0.06
21473 H 39.59418660056083 93.28402481694506 120.87339803815308 H 0.0 **** 0.06
21474 H 39.70360555659252 94.30819433675487 119.42107972942489 H 0.0 **** 0.06
21475 H 38.18247170212689 93.46530846193117 119.80360998775114 H 0.0 **** 0.06
21476 C 95.44375936102983 147.81367274005686 139.33585023562256 C 0.0 **** -0.24
21477 H 96.11632731700783 147.64405280035777 140.17654642614804 H 0.0 **** 0.06
21478 H 94.76447286200244 146.9669676643532 139.2381566791812 H 0.0 **** 0.06
21479 H 96.02709503916384 147.91937777241816 138.4203636701386 H 0.0 **** 0.06
21480 H 94.8692091972035 148.7243178616452 139.50748142988874 H 0.0 **** 0.06
21481 C 54.11515248643127 14.222731507499304 136.5727912754466 C 0.0 **** -0.24
21482 H 54.19805723434021 14.415986045154455 135.50285100304774 H 0.0 **** 0.06
21483 H 55.09045046533464 13.93830889921361 136.966752285507 H 0.0 **** 0.06
21484 H 53.40381221189267 13.414597499146339 136.74160801805183 H 0.0 **** 0.06
21485 H 53.76773436987796 15.124456991676823 137.07799965343187 H 0.0 **** 0.06
21486 C 11.413385971593037 56.04168174264288 69.58913952909883 C 0.0 **** -0.24
21487 H 10.798103463760619 56.42835736318898 68.77649379846686 H 0.0 **** 0.06
21488 H 12.074426736574551 55.26478746347942 69.20667643899503 H 0.0 **** 0.06
21489 H 10.769451018795088 55.62223665368515 70.36375578688484 H 0.0 **** 0.06
21490 H 12.008234399512602 56.85122413466809 70.0113374842168 H 0.0 **** 0.06
21491 C 94.87122394170915 67.16227517021338 120.23026999941642 C 0.0 **** -0.24
21492 H 94.81790103933065 67.74943871139436 121.14739558257536 H 0.0 **** 0.06
21493 H 95.20901339020382 66.15202027946555 120.46440897950338 H 0.0 **** 0.06
21494 H 95.57327284852404 67.62874672254316 119.5404727572187 H 0.0 **** 0.06
21495 H 93.88405058916284 67.11800368237152 119.76968179389162 H 0.0 **** 0.06
21496 C 87.31795002561076 30.891770711023973 136.73235936316388 C 0.0 **** -0.24
21497 H 86.63886806578832 31.47081188846655 137.35848609945012 H 0.0 **** 0.06
21498 H 87.19235257420617 29.829763042371518 136.94771888870372 H 0.0 **** 0.06
21499 H 88.34628658186145 31.186286380025805 136.94272126739853 H 0.0 **** 0.06
21500 H 87.09209240362607 31.078930568923006 135.6828546353663 H 0.0 **** 0.06
21501 C 83.19006490748683 18.13670081224371 8.897449787644064 C 0.0 **** -0.24
21502 H 82.21272974706079 18.126652030288966 9.37785650208582 H 0.0 **** 0.06
21503 H 83.06906951248976 18.32073097556499 7.830121501105623 H 0.0 **** 0.06
21504 H 83.67840634849532 17.172955976853537 9.046094470708567 H 0.0 **** 0.06
21505 H 83.80168519221553 18.92496821724292 9.335408426032984 H 0.0 **** 0.06
21506 C 110.1277607357476 14.933862052424843 108.16273873854702 C 0.0 **** -0.24
21507 H 110.0468429712396 16.021013788683263 108.13871544156628 H 0.0 **** 0.06
21508 H 110.02156762690034 14.539207265471248 107.15280940561088 H 0.0 **** 0.06
21509 H 109.34115264696221 14.526051930491377 108.7979113948429 H 0.0 **** 0.06
21510 H 111.10174801972683 14.651109174921089 108.56379645979398 H 0.0 **** 0.06
21511 C 92.55228797010514 42.38168342682431 137.3217167496449 C 0.0 **** -0.24
21512 H 92.12375359046784 42.24702335883535 138.31414285595446 H 0.0 **** 0.06
21513 H 93.63628824052404 42.46948985391788 137.40367503858596 H 0.0 **** 0.06
21514 H 92.1476042912589 43.28760905003625 136.87142958802784 H 0.0 **** 0.06
21515 H 92.30343602507031 41.5227458761114 136.6987403017115 H 0.0 **** 0.06
21516 C 49.88556655422559 40.87518277853144 65.06535418856302 C 0.0 **** -0.24
21517 H 50.185718134087324 41.119803586860115 66.08485671421175 H 0.0 **** 0.06
21518 H 48.81031921882408 41.023136324721634 64.95883832611575 H 0.0 **** 0.06
21519 H 50.13272767525697 39.835215795039005 64.85348700089257 H 0.0 **** 0.06
21520 H 50.413729100115575 41.52394667713992 64.36625160948164 H 0.0 **** 0.06
21521 C 85.85778759778269 40.72851723699398 25.16639316181611 C 0.0 **** -0.24
21522 H 85.74505067191514 41.810872229619235 25.235246294711466 H 0.0 **** 0.06
21523 H 84.93330979505463 40.29100161143958 24.788974886628914 H 0.0 **** 0.06
21524 H 86.07519073084114 40.32306001838339 26.154541932261587 H 0.0 **** 0.06
21525 H 86.67651616378919 40.490942679394266 24.48755774824709 H 0.0 **** 0.06
21526 C 5.670389170977046 38.457788340707 119.54680026898144 C 0.0 **** -0.24
21527 H 5.296902196298987 38.729309422198924 120.53396207951646 H 0.0 **** 0.06
21528 H 4.852889541667452 38.05650585549739 118.94723424481468 H 0.0 **** 0.06
21529 H 6.450181052895914 37.70342753011835 119.64893763731207 H 0.0 **** 0.06
21530 H 6.080897976835502 39.341745552958116 119.05777586376173 H 0.0 **** 0.06
21531 C 66.8309197635025 150.71618893597366 80.65910803724094 C 0.0 **** -0.24
21532 H 66.57408295855964 149.68023877610324 80.88081459956251 H 0.0 **** 0.06
21533 H 66.46149096743642 151.3608887734803 81.45688818891588 H 0.0 **** 0.06
21534 H 66.3731695277641 151.00769883286702 79.71344721269897 H 0.0 **** 0.06
21535 H 67.91331173340541 150.81275965186973 80.58320451667595 H 0.0 **** 0.06
21536 C 98.41285050839303 70.17348717200377 130.65300435737618 C 0.0 **** -0.24
21537 H 98.93685675816535 70.13793396990451 129.69785248828794 H 0.0 **** 0.06
21538 H 98.37597308952705 69.17266077548032 131.08375517392483 H 0.0 **** 0.06
21539 H 97.39911366989189 70.54117381254304 130.49766990747378 H 0.0 **** 0.06
21540 H 98.94213371625206 70.84278546895291 131.33204911471273 H 0.0 **** 0.06
21541 C 25.535366713571555 80.26962279856218 70.80937606501776 C 0.0 **** -0.24
21542 H 24.626494392614177 79.70918096655453 70.59102836293603 H 0.0 **** 0.06
21543 H 26.0386379564278 80.52374689394532 69.87541528544719 H 0.0 **** 0.06
21544 H 26.19827708673965 79.6615544094604 71.42552163723673 H 0.0 **** 0.06
21545 H 25.278427809199933 81.18360363226813 71.34470316247423 H 0.0 **** 0.06
21546 C 45.73489913376787 100.74197242177962 115.28324448180997 C 0.0 **** -0.24
21547 H 46.78254461162821 101.03259693366641 115.20225045395382 H 0.0 **** 0.06
21548 H 45.664360230434085 99.77050700557618 115.77436049491884 H 0.0 **** 0.06
21549 H 45.29813008436835 100.67781042464031 114.28661179692547 H 0.0 **** 0.06
21550 H 45.19580521459369 101.4863101102415 115.86986006712179 H 0.0 **** 0.06
21551 C 30.43929608469125 10.719874250977512 105.87931514894909 C 0.0 **** -0.24
21552 H 30.035398156235544 10.638971606854888 106.88860643724026 H 0.0 **** 0.06
21553 H 30.15156358546176 11.679717957809494 105.44919101479802 H 0.0 **** 0.06
21554 H 30.043043686258443 9.912486194407357 105.26376318206569 H 0.0 **** 0.06
21555 H 31.52654903542566 10.649587280323786 105.91572178484655 H 0.0 **** 0.06
21556 C 5.001244632560507 134.60002713652247 129.2417279898651 C 0.0 **** -0.24
21557 H 5.811703194827828 134.34047335331493 128.5599146316899 H 0.0 **** 0.06
21558 H 5.392445200522893 135.2172183912524 130.05181243611122 H 0.0 **** 0.06
21559 H 4.568696222697497 133.68961122695364 129.65480469763082 H 0.0 **** 0.06
21560 H 4.234765772491052 135.1543425900582 128.69953685527187 H 0.0 **** 0.06
21561 C 141.6506839359931 111.14817987673943 148.13512533334406 C 0.0 **** -0.24
21562 H 142.64268048114707 111.59866197485228 148.1779672325813 H 0.0 **** 0.06
21563 H 141.70404304146797 110.11819395674435 148.48710042528532 H 0.0 **** 0.06
21564 H 141.29051065391428 111.16279511774123 147.10664380215616 H 0.0 **** 0.06
21565 H 140.9680159831498 111.71461507262579 148.76825509431197 H 0.0 **** 0.06
21566 C 39.33048007532712 66.07685341329248 54.491487268661515 C 0.0 **** -0.24
21567 H 40.313407538757744 66.27119582453058 54.06311327589508 H 0.0 **** 0.06
21568 H 38.6826878352132 65.6394487849848 53.73178859433881 H 0.0 **** 0.06
21569 H 38.896945579142454 67.01242498291563 54.84418874995265 H 0.0 **** 0.06
21570 H 39.42872723133185 65.3847194134177 55.32821345849108 H 0.0 **** 0.06
21571 C 9.660982791750001 118.25457432145076 124.44554078780374 C 0.0 **** -0.24
21572 H 9.696669792709258 119.21010148899116 123.92255041304662 H 0.0 **** 0.06
21573 H 9.630720919269272 117.4428529113829 123.71841476284845 H 0.0 **** 0.06
21574 H 8.767885193051825 118.21581337070977 125.07015985341747 H 0.0 **** 0.06
21575 H 10.546470731752066 118.14869398864052 125.07176607739467 H 0.0 **** 0.06
21576 C 115.91250852124385 62.58814114051334 13.139069165913604 C 0.0 **** -0.24
21577 H 115.95195489631776 62.564931066740215 14.228388663065012 H 0.0 **** 0.06
21578 H 115.6871590692728 63.60095537271056 12.806219946921821 H 0.0 **** 0.06
21579 H 115.1344538305974 61.90882529925619 12.790861531341612 H 0.0 **** 0.06
21580 H 116.87501392378896 62.27644647237889 12.733955056677367 H 0.0 **** 0.06
21581 C 114.15973608319051 99.92496346629933 120.72603545002062 C 0.0 **** -0.24
21582 H 114.88420164712532 99.11157704140867 120.69079586836631 H 0.0 **** 0.06
21583 H 114.485546828413 100.72957089128873 120.06509597066179 H 0.0 **** 0.06
21584 H 114.08476120067589 100.30034946414979 121.74660038682583 H 0.0 **** 0.06
21585 H 113.18612856828285 99.55885109852373 120.40070822720298 H 0.0 **** 0.06
21586 C 52.32766374408256 121.63478974036082 107.672631434971 C 0.0 **** -0.24
21587 H 53.286327770362504 121.4277781138129 108.14779469976718 H 0.0 **** 0.06
21588 H 52.49718897014506 122.00653664654783 106.66141130460595 H 0.0 **** 0.06
21589 H 51.791123074407864 122.38702305296817 108.25098930720266 H 0.0 **** 0.06
21590 H 51.738023906233764 120.71913895305914 107.63080847608607 H 0.0 **** 0.06
21591 C 141.10212779366492 58.57520286243647 126.2076930874676 C 0.0 **** -0.24
21592 H 140.89528985581038 58.54639331534918 125.13759179837415 H 0.0 **** 0.06
21593 H 142.1748912205277 58.47053453623971 126.37290469147909 H 0.0 **** 0.06
21594 H 140.5769734369929 57.75663554805766 126.70024576060156 H 0.0 **** 0.06
21595 H 140.76090690675153 59.52550329515259 126.61837065785456 H 0.0 **** 0.06
21596 C 134.00087236856916 63.11613312379124 19.55710102317464 C 0.0 **** -0.24
21597 H 134.52183677935795 62.19752767815582 19.288019670950014 H 0.0 **** 0.06
21598 H 134.6937111064289 63.79421879002874 20.056637833288605 H 0.0 **** 0.06
21599 H 133.17489769675245 62.88186047834179 20.228513589343194 H 0.0 **** 0.06
21600 H 133.6122963506533 63.59098047462045 18.655894964383116 H 0.0 **** 0.06
21601 C 121.43157592353394 37.01995397408518 73.25642003833669 C 0.0 **** -0.24
21602 H 120.92490554594617 37.563930345556685 72.45912742374468 H 0.0 **** 0.06
21603 H 122.2481247770087 37.62661133502354 73.64756128747784 H 0.0 **** 0.06
21604 H 121.82876612412484 36.08501996182281 72.86237946088185 H 0.0 **** 0.06
21605 H 120.72275202597469 36.805175635292244 74.05634667848321 H 0.0 **** 0.06
21606 C 46.68923230590528 152.1853068382238 73.24784267659655 C 0.0 **** -0.24
21607 H 45.62010069505911 152.08313429336366 73.05869702255377 H 0.0 **** 0.06
21608 H 47.246374349722004 151.6386493777387 72.48808483230236 H 0.0 **** 0.06
21609 H 46.92234488765537 151.77963871275233 74.232802877963 H 0.0 **** 0.06
21610 H 46.96476138624969 153.23870372686952 73.21392591552186 H 0.0 **** 0.06
21611 C 49.56098767400951 5.291527606845307 8.388045525489588 C 0.0 **** -0.24
21612 H 48.53914815462258 4.925000215962143 8.284602908024397 H 0.0 **** 0.06
21613 H 49.84607437780679 5.281051527437398 9.439931206474114 H 0.0 **** 0.06
21614 H 49.621061328715086 6.310243368017751 8.004934540199855 H 0.0 **** 0.06
21615 H 50.235969017388356 4.650100296195944 7.82128643473925 H 0.0 **** 0.06
21616 C 10.872906485095399 65.87855686532032 136.89596773789822 C 0.0 **** -0.24
21617 H 11.475070833821462 66.57428561748819 136.312816620142 H 0.0 **** 0.06
21618 H 9.830215654094246 66.19826339676945 136.88043434188876 H 0.0 **** 0.06
21619 H 11.232811652626424 65.86225534313832 137.92577367752338 H 0.0 **** 0.06
21620 H 10.953524218902004 64.87944186610241 136.46708233482573 H 0.0 **** 0.06
21621 C 34.799194931195174 75.61142562634375 100.23589485440868 C 0.0 **** -0.24
21622 H 35.23876419332332 74.70464550702559 100.64885645301581 H 0.0 **** 0.06
21623 H 33.90939575469394 75.87689944992808 100.80709775901687 H 0.0 **** 0.06
21624 H 34.52475891278683 75.44065198903948 99.19454528138561 H 0.0 **** 0.06
21625 H 35.523224775590805 76.42383517174908 100.2918605750653 H 0.0 **** 0.06
21626 C 16.556775674846108 128.63866721868425 38.13383087110401 C 0.0 **** -0.24
21627 H 15.562021359065909 129.0761679442462 38.21613290562921 H 0.0 **** 0.06
21628 H 16.696330756785784 127.90151437501648 38.92423691819444 H 0.0 **** 0.06
21629 H 17.30683293050174 129.42398535231254 38.23212248621034 H 0.0 **** 0.06
21630 H 16.661973835448208 128.15630208428433 37.16251276364599 H 0.0 **** 0.06
21631 C 2.4782664217652837 25.623521553324572 80.71021548647451 C 0.0 **** -0.24
21632 H 3.3915568930535755 25.2502445433974 81.1735808512762 H 0.0 **** 0.06
21633 H 2.0484698148607663 26.406944014416695 81.33540652567456 H 0.0 **** 0.06
21634 H 1.7641244415365804 24.807096715721435 80.60715551687895 H 0.0 **** 0.06
21635 H 2.7104460799747585 26.030054523330293 79.72661385249509 H 0.0 **** 0.06
21636 C 76.97171070853915 152.08577478172978 51.49597313801294 C 0.0 **** -0.24
21637 H 76.66598603457885 153.10800503171532 51.718740750197895 H 0.0 **** 0.06
21638 H 77.71960459250727 152.09508534367663 50.70282010325549 H 0.0 **** 0.06
21639 H 76.10385825197659 151.51079952333154 51.170334853485514 H 0.0 **** 0.06
21640 H 77.39486256987948 151.62995137346377 52.39025281678916 H 0.0 **** 0.06
21641 C 46.80458545841648 102.33119143370375 40.287612362762985 C 0.0 **** -0.24
21642 H 47.5655987394486 102.4538411669612 39.51656533470701 H 0.0 **** 0.06
21643 H 46.30929605481268 101.36839840616163 40.15800643821677 H 0.0 **** 0.06
21644 H 46.07004617873292 103.13253034365293 40.20349523768651 H 0.0 **** 0.06
21645 H 47.27348804629801 102.36940610345864 41.270473313526495 H 0.0 **** 0.06
21646 C 85.5834094812643 146.17744145615046 63.52547442758551 C 0.0 **** -0.24
21647 H 84.76857667133912 145.93883394890247 62.84196245290977 H 0.0 **** 0.06
21648 H 85.97707440981713 147.16593872369856 63.29145796064759 H 0.0 **** 0.06
21649 H 86.37573820171444 145.4356423381828 63.417655182480786 H 0.0 **** 0.06
21650 H 85.21217612517738 146.16636854706329 64.55050412179972 H 0.0 **** 0.06
21651 C 96.21003212040881 93.70099885258833 100.6866733437376 C 0.0 **** -0.24
21652 H 96.102198208027 94.17885116747016 99.71262934879144 H 0.0 **** 0.06
21653 H 96.98785957021323 94.20903151885011 101.25631526917306 H 0.0 **** 0.06
21654 H 96.4856244866379 92.6552930452645 100.54872445601569 H 0.0 **** 0.06
21655 H 95.2657195209539 93.75915576558782 101.22687712088998 H 0.0 **** 0.06
21656 C 34.00783094596468 13.843792359510438 2.0656629660402928 C 0.0 **** -0.24
21657 H 33.75862460395439 14.707346002582199 1.4488331820687108 H 0.0 **** 0.06
21658 H 33.33659496985508 13.804791582939423 2.9241621840582184 H 0.0 **** 0.06
21659 H 35.037812978002044 13.9299784380813 2.4119759004822754 H 0.0 **** 0.06
21660 H 33.89814361211901 12.932864138062875 1.4762868802529852 H 0.0 **** 0.06
21661 C 24.53140825804462 110.85992546387014 72.03849550964819 C 0.0 **** -0.24
21662 H 24.16508568512782 110.13818221018887 72.76862229472289 H 0.0 **** 0.06
21663 H 23.68501551086689 111.36793203883839 71.57474411674303 H 0.0 **** 0.06
21664 H 25.10806732661075 110.34052262637108 71.27268175660384 H 0.0 **** 0.06
21665 H 25.165626494636996 111.59156049538312 72.53733518681389 H 0.0 **** 0.06
21666 C 7.171784565834173 114.96289075941877 141.0347654168556 C 0.0 **** -0.24
21667 H 6.354906812748226 115.15762428515734 140.34108090181326 H 0.0 **** 0.06
21668 H 7.250327120551049 115.78771319834476 141.74408180053823 H 0.0 **** 0.06
21669 H 8.105303282387553 114.86937227537317 140.48033620267816 H 0.0 **** 0.06
21670 H 6.97620766105689 114.03729943288289 141.57571830322289 H 0.0 **** 0.06
21671 C 122.39662722937237 153.7529591996019 120.40584268472891 C 0.0 **** -0.24
21672 H 123.31328410657983 154.14086760102077 119.96304603804707 H 0.0 **** 0.06
21673 H 122.52986971990623 153.64856182865392 121.48294635735662 H 0.0 **** 0.06
21674 H 122.16626494694248 152.78066124456754 119.97157601408055 H 0.0 **** 0.06
21675 H 121.57685898261002 154.44313717658991 120.20591004495908 H 0.0 **** 0.06
21676 C 128.22125723883772 65.326087175856 100.22482249712618 C 0.0 **** -0.24
21677 H 128.07625143610517 64.27964791410405 100.49516837515444 H 0.0 **** 0.06
21678 H 128.87851686105034 65.38954307962844 99.35810063876784 H 0.0 **** 0.06
21679 H 128.67190321393133 65.85777734187783 101.06278934556218 H 0.0 **** 0.06
21680 H 127.25807455413639 65.77645857692916 99.9852491615452 H 0.0 **** 0.06
21681 C 112.51079029691124 69.68058797715612 78.95688621663744 C 0.0 **** -0.24
21682 H 111.71217221837537 69.14864227164693 78.44069577402786 H 0.0 **** 0.06
21683 H 112.24563457840696 69.80303377949978 80.00736190136428 H 0.0 **** 0.06
21684 H 112.65015345884376 70.65981054314526 78.49967650370405 H 0.0 **** 0.06
21685 H 113.43678469477072 69.10944508755601 78.88049975508235 H 0.0 **** 0.06
21686 C 50.642451391272175 11.599332168785566 133.845215020649 C 0.0 **** -0.24
21687 H 49.68193830900668 11.57095173300732 133.33005789635064 H 0.0 **** 0.06
21688 H 51.36969956759708 11.007203762855426 133.28949591948913 H 0.0 **** 0.06
21689 H 50.527995341996984 11.186553553682927 134.8477464732856 H 0.0 **** 0.06
21690 H 50.98736345231026 12.630159857960109 133.91331461523055 H 0.0 **** 0.06
21691 C 56.317271328904425 86.76221349574602 54.41748388440554 C 0.0 **** -0.24
21692 H 56.63678942861384 86.36801860257185 53.4527122811016 H 0.0 **** 0.06
21693 H 56.019813696204636 87.80441203650557 54.30322620716625 H 0.0 **** 0.06
21694 H 57.14009869632278 86.69417919628124 55.12867802670068 H 0.0 **** 0.06
21695 H 55.47140937244818 86.17973564422603 54.78399282888391 H 0.0 **** 0.06
21696 C 100.29815402212857 109.10226940817323 21.809307738897296 C 0.0 **** -0.24
21697 H 99.65318633405873 108.43763027071257 21.235736362223705 H 0.0 **** 0.06
21698 H 100.64236967056202 109.91536286279843 21.170079848200793 H 0.0 **** 0.06
21699 H 101.15685849512987 108.5430498905903 22.18158297223669 H 0.0 **** 0.06
21700 H 99.73935055439661 109.51303412093922 22.65035691368802 H 0.0 **** 0.06
21701 C 66.78978919478004 122.52896944261438 145.82080831404284 C 0.0 **** -0.24
21702 H 67.3072072213239 122.77637193101053 146.74701035601936 H 0.0 **** 0.06
21703 H 66.22112947564375 123.3946175828358 145.48061409945802 H 0.0 **** 0.06
21704 H 66.11142037377013 121.6945342959845 145.9946080645783 H 0.0 **** 0.06
21705 H 67.51982389355413 122.2517110095179 145.06001150262676 H 0.0 **** 0.06
21706 C 70.2272549383501 123.90786764786485 51.53548762220839 C 0.0 **** -0.24
21707 H 70.24016006503705 123.14375911704475 52.31303459722223 H 0.0 **** 0.06
21708 H 69.41014988531185 123.7063439430734 50.84168127327693 H 0.0 **** 0.06
21709 H 71.17441613383748 123.89386775527147 50.99556321316258 H 0.0 **** 0.06
21710 H 70.08331445845647 124.8872970967332 51.99168140162432 H 0.0 **** 0.06
21711 C 30.656309216834686 6.326001006246514 137.18131105078507 C 0.0 **** -0.24
21712 H 30.601724162852506 5.959342487113304 138.20605426458883 H 0.0 **** 0.06
21713 H 31.24422402443885 5.633227638792263 136.57838655818057 H 0.0 **** 0.06
21714 H 31.129328025703074 7.307533411968571 137.17231184134576 H 0.0 **** 0.06
21715 H 29.65054072135551 6.4035921953322585 136.76924553570333 H 0.0 **** 0.06
21716 C 84.34701911803434 119.13681308154248 43.07573692112541 C 0.0 **** -0.24
21717 H 84.31600320710277 119.77169212700342 43.962013586793645 H 0.0 **** 0.06
21718 H 84.11406832201914 119.73419016196819 42.19334739564046 H 0.0 **** 0.06
21719 H 83.61428205285792 118.33608336758333 43.17789367696396 H 0.0 **** 0.06
21720 H 85.34359106320419 118.70721269323649 42.97198940216553 H 0.0 **** 0.06
21721 C 93.2348316518235 154.7649550102317 140.92890860060345 C 0.0 **** -0.24
21722 H 93.85314264291739 154.28792611149575 140.1677794037524 H 0.0 **** 0.06
21723 H 93.62541934779209 154.52393701863133 141.91790772710004 H 0.0 **** 0.06
21724 H 92.21043457050983 154.40268951826306 140.84348027754487 H 0.0 **** 0.06
21725 H 93.25086982888392 155.8457891256523 140.78436067214602 H 0.0 **** 0.06
21726 C 15.432993771729997 96.58101913270582 107.16894093404308 C 0.0 **** -0.24
21727 H 14.78989832009745 95.76614777635584 106.83574789673345 H 0.0 **** 0.06
21728 H 16.1356755222659 96.83683910409195 106.37548823060457 H 0.0 **** 0.06
21729 H 15.983600234351599 96.26882257180924 108.05575233908316 H 0.0 **** 0.06
21730 H 14.821220123745803 97.45049678037527 107.40816943345637 H 0.0 **** 0.06
21731 C 42.455373106225835 83.12979455251511 58.558348645598926 C 0.0 **** -0.24
21732 H 41.47469257935842 82.79201298486211 58.892085006856576 H 0.0 **** 0.06
21733 H 43.1346854997993 82.2793952697528 58.50697378560267 H 0.0 **** 0.06
21734 H 42.845046169915946 83.86517777654092 59.262979131759835 H 0.0 **** 0.06
21735 H 42.366502347686264 83.58472381711348 57.57172560235347 H 0.0 **** 0.06
21736 C 126.32638451724883 50.66854328235355 59.89652321355999 C 0.0 **** -0.24
21737 H 127.27806605178709 51.10784247441197 60.19639012403968 H 0.0 **** 0.06
21738 H 125.73186121653022 51.415178117106194 59.369255571337135 H 0.0 **** 0.06
21739 H 125.78711228423587 50.33298119794364 60.78221853916796 H 0.0 **** 0.06
21740 H 126.5103163738646 49.819068088060945 59.239172759499525 H 0.0 **** 0.06
21741 C 124.9091392777176 57.063427410073245 122.64171843819315 C 0.0 **** -0.24
21742 H 124.65334447628527 57.98868065126496 122.12676204702774 H 0.0 **** 0.06
21743 H 124.41862819408237 56.22522449531971 122.14642616636377 H 0.0 **** 0.06
21744 H 124.57497783849038 57.11975092948475 123.67755986188911 H 0.0 **** 0.06
21745 H 125.98976970677495 56.91929609894484 122.61549347836404 H 0.0 **** 0.06
21746 C 14.106919150273768 67.5046725718475 97.17622450765586 C 0.0 **** -0.24
21747 H 15.096357729169199 67.21407550345765 96.82348479392755 H 0.0 **** 0.06
21748 H 13.759025042587211 66.78454733819481 97.91746606045737 H 0.0 **** 0.06
21749 H 13.412300004129861 67.5265398870398 96.336527102507 H 0.0 **** 0.06
21750 H 14.159925419492367 68.49492150737336 97.62916718291382 H 0.0 **** 0.06
21751 C 54.69835819688592 43.495669087188574 85.18416515639615 C 0.0 **** -0.24
21752 H 55.546923480042324 43.74847886009616 84.54787915632619 H 0.0 **** 0.06
21753 H 54.03804011680478 42.80922673435562 84.65442787052734 H 0.0 **** 0.06
21754 H 54.15225633992122 44.40466524184491 85.43628898030533 H 0.0 **** 0.06
21755 H 55.05812298696526 43.02300098701113 86.09777109719585 H 0.0 **** 0.06
21756 C 54.12586366543604 33.928391113352546 25.98088666996196 C 0.0 **** -0.24
21757 H 53.29785754105353 34.17053260867149 26.648868032669654 H 0.0 **** 0.06
21758 H 53.97571854407417 34.42567963614576 25.022489963369644 H 0.0 **** 0.06
21759 H 54.16516591074861 32.85011172706635 25.82890461659712 H 0.0 **** 0.06
21760 H 55.0613523205505 34.268398051926624 26.424453924387038 H 0.0 **** 0.06
21761 C 44.352256402561295 121.93887675141248 27.15359218279501 C 0.0 **** -0.24
21762 H 43.60744246083027 121.94861493201098 27.94895499919167 H 0.0 **** 0.06
21763 H 43.85148057203628 121.98751769251196 26.18692973889995 H 0.0 **** 0.06
21764 H 44.93638302202868 121.02064793170065 27.215070625978996 H 0.0 **** 0.06
21765 H 45.013229188573234 122.79801962341416 27.26491670840862 H 0.0 **** 0.06
21766 C 71.14754348316438 74.57870332813783 156.4931212120511 C 0.0 **** -0.24
21767 H 70.42295853479283 75.22993363109678 156.00437648041645 H 0.0 **** 0.06
21768 H 71.3739769508615 74.96784183086014 157.48583858587256 H 0.0 **** 0.06
21769 H 72.06137489051031 74.54409948970272 155.89909390745532 H 0.0 **** 0.06
21770 H 70.7323607210032 73.57562220467447 156.58193084315593 H 0.0 **** 0.06
21771 C 8.05610366938366 95.52375424120558 85.52058098521834 C 0.0 **** -0.24
21772 H 7.843333926961563 96.4225463721953 86.09899467685749 H 0.0 **** 0.06
21773 H 7.5178320681970945 95.56531499400712 84.57393108043944 H 0.0 **** 0.06
21774 H 7.735755426998644 94.64661182939328 86.08355424511598 H 0.0 **** 0.06
21775 H 9.127037787084134 95.46053768500806 85.32751504864972 H 0.0 **** 0.06
21776 C 22.39630422415904 94.4084871709747 129.3036990626171 C 0.0 **** -0.24
21777 H 22.096375363510255 94.25690750809103 128.26674392428424 H 0.0 **** 0.06
21778 H 21.835143567347423 93.72928034356843 129.94619848213026 H 0.0 **** 0.06
21779 H 22.19134616610188 95.43871739471118 129.59372584056513 H 0.0 **** 0.06
21780 H 23.462558795626563 94.20686096400327 129.4052654198419 H 0.0 **** 0.06
21781 C 0.46539821523052183 44.68074454721511 84.51588652346894 C 0.0 **** -0.24
21782 H 0.7086831504905717 44.078772165144926 83.6394645852921 H 0.0 **** 0.06
21783 H -0.39533805655850074 44.24797081117788 85.02574202773502 H 0.0 **** 0.06
21784 H 0.22912815602930436 45.69763391736018 84.20268190145325 H 0.0 **** 0.06
21785 H 1.318981411901234 44.69802995370742 85.19239340599438 H 0.0 **** 0.06
21786 C 20.68184671490576 99.66455205608729 97.36160772854981 C 0.0 **** -0.24
21787 H 19.604139810593665 99.67047664710098 97.52385873552012 H 0.0 **** 0.06
21788 H 20.961646253277593 98.76287499102727 96.81529425265 H 0.0 **** 0.06
21789 H 21.19326059539719 99.68016074928538 98.32351201083583 H 0.0 **** 0.06
21790 H 20.96651007981484 100.54326074458659 96.78299691320436 H 0.0 **** 0.06
21791 C 58.291492111912575 67.49823303187227 35.8630691976451 C 0.0 **** -0.24
21792 H 58.239409951809705 67.80014990444265 36.908701204026556 H 0.0 **** 0.06
21793 H 58.77274688266259 66.52244750957844 35.7915488756899 H 0.0 **** 0.06
21794 H 58.87130862868561 68.23188224171061 35.301859471614364 H 0.0 **** 0.06
21795 H 57.28488637096021 67.43885701059446 35.45056222351812 H 0.0 **** 0.06
21796 C 16.05655390904326 72.75275290642458 119.1024936927496 C 0.0 **** -0.24
21797 H 15.74668557331762 72.51427306838906 118.08471145954682 H 0.0 **** 0.06
21798 H 16.14085581216193 73.83326921075188 119.21277666240196 H 0.0 **** 0.06
21799 H 17.022275973919022 72.28906549298281 119.3049154388337 H 0.0 **** 0.06
21800 H 15.316407984918783 72.37109498682796 119.8058242808239 H 0.0 **** 0.06
21801 C 69.69879672098698 12.973034875265029 74.82485062476178 C 0.0 **** -0.24
21802 H 69.42824792521648 13.046217061161883 75.87828329626467 H 0.0 **** 0.06
21803 H 70.24621005760346 13.867849644920426 74.52744541157173 H 0.0 **** 0.06
21804 H 68.79531234675915 12.882881525015478 74.22260815062043 H 0.0 **** 0.06
21805 H 70.32631861803748 12.09509040129484 74.67215015511249 H 0.0 **** 0.06
21806 C 47.47141445187107 77.66148623868412 95.94337255162463 C 0.0 **** -0.24
21807 H 47.68007677894283 77.4561128779041 94.89384005625493 H 0.0 **** 0.06
21808 H 48.23585707273864 78.32785934263242 96.34195379861467 H 0.0 **** 0.06
21809 H 47.47617233295753 76.72673660029729 96.50446270786313 H 0.0 **** 0.06
21810 H 46.49363403848146 78.13442803556642 96.0338169252517 H 0.0 **** 0.06
21811 C 28.3205006261122 112.85202878194524 102.44960104365607 C 0.0 **** -0.24
21812 H 28.224057676199315 112.1216649643123 101.64504390733897 H 0.0 **** 0.06
21813 H 29.376149891527447 113.0562263052045 102.63066649093737 H 0.0 **** 0.06
21814 H 27.86572825992465 112.4538509737517 103.35651128776077 H 0.0 **** 0.06
21815 H 27.815000723791385 113.77472116178164 102.1637054173922 H 0.0 **** 0.06
21816 C 126.49699644194432 119.31175298793595 46.51634227930374 C 0.0 **** -0.24
21817 H 126.33930829947936 119.97378416192568 45.66444271310168 H 0.0 **** 0.06
21818 H 127.13546973926849 118.48084178597774 46.217216760907434 H 0.0 **** 0.06
21819 H 125.53643669437189 118.92819123076599 46.86055881961438 H 0.0 **** 0.06
21820 H 126.97694159654218 119.86710679874936 47.32244988988589 H 0.0 **** 0.06
21821 C 32.922268646064595 55.256326405967386 146.77074088048028 C 0.0 **** -0.24
21822 H 31.970505233626852 54.85094660789049 146.4291135135281 H 0.0 **** 0.06
21823 H 32.74150464319257 56.143396157751425 147.37898042874303 H 0.0 **** 0.06
21824 H 33.53392607485176 55.525059475279775 145.90972613910012 H 0.0 **** 0.06
21825 H 33.44321089236473 54.5068700241965 147.36715852019336 H 0.0 **** 0.06
21826 C 82.47485890827215 98.87674873933855 125.64804829989373 C 0.0 **** -0.24
21827 H 81.72531798012335 99.64747000125527 125.82977564728913 H 0.0 **** 0.06
21828 H 82.18120223873711 98.28044487409682 124.7842953695806 H 0.0 **** 0.06
21829 H 82.55370232558334 98.23441470368925 126.52479589955857 H 0.0 **** 0.06
21830 H 83.43941740018477 99.34693078331719 125.45423534434298 H 0.0 **** 0.06
21831 C 125.17596684357528 120.69647008829354 61.28214551028633 C 0.0 **** -0.24
21832 H 126.06288895647117 121.32586925838957 61.21336686566424 H 0.0 **** 0.06
21833 H 125.44794002642811 119.66071064831497 61.07566867477354 H 0.0 **** 0.06
21834 H 124.43547998138638 121.02985754972441 60.55479092556591 H 0.0 **** 0.06
21835 H 124.75675029646317 120.7683221548382 62.28651371416133 H 0.0 **** 0.06
21836 C 89.85414415196311 129.07945628971598 82.21691173216519 C 0.0 **** -0.24
21837 H 89.8976234396386 129.90449677098107 82.92910165208711 H 0.0 **** 0.06
21838 H 90.82480595779018 128.9641859585226 81.73507974353099 H 0.0 **** 0.06
21839 H 89.09613168434338 129.29073800388414 81.46369412944391 H 0.0 **** 0.06
21840 H 89.59757606741148 128.1600985150892 82.74363631269952 H 0.0 **** 0.06
21841 C 101.18792544783588 149.5379471830513 71.25652655747604 C 0.0 **** -0.24
21842 H 101.82211113349803 149.2952318385603 72.10949459132291 H 0.0 **** 0.06
21843 H 101.81070760129819 149.70129177566466 70.37590367144958 H 0.0 **** 0.06
21844 H 100.61971574430936 150.4422749692583 71.47299050430911 H 0.0 **** 0.06
21845 H 100.50161701862544 148.71291525780381 71.06912940841721 H 0.0 **** 0.06
21846 C 87.17249875106904 59.56579740598825 101.68731250989656 C 0.0 **** -0.24
21847 H 86.40412579036814 58.79377474947404 101.67107564271738 H 0.0 **** 0.06
21848 H 88.02210395606863 59.246793960527356 101.08209310633971 H 0.0 **** 0.06
21849 H 87.50017700158594 59.7310152533104 102.7139797968495 H 0.0 **** 0.06
21850 H 86.76492015034557 60.491978524844455 101.28239661316901 H 0.0 **** 0.06
21851 C 154.3498655899367 13.592156444194671 48.51814416698801 C 0.0 **** -0.24
21852 H 154.4112887292482 12.558783042736252 48.17690190487883 H 0.0 **** 0.06
21853 H 155.3380169380364 13.931422584397552 48.8301619491499 H 0.0 **** 0.06
21854 H 153.66126705438387 13.656506219689447 49.359858959344024 H 0.0 **** 0.06
21855 H 153.98976405906137 14.222749780869606 47.704921183921556 H 0.0 **** 0.06
21856 C 112.6999804036355 98.4622275515054 94.80754455263931 C 0.0 **** -0.24
21857 H 111.79853780174972 97.89376045283838 94.57827163364487 H 0.0 **** 0.06
21858 H 112.7136221204538 98.7071926691961 95.870343554762 H 0.0 **** 0.06
21859 H 112.70872412869085 99.38229369333459 94.22238000934237 H 0.0 **** 0.06
21860 H 113.57807506354357 97.86637052637096 94.55994038835888 H 0.0 **** 0.06
21861 C 59.16988244885151 74.21423285565608 93.28603019541066 C 0.0 **** -0.24
21862 H 60.22026918935916 74.42408091272698 93.08795922365867 H 0.0 **** 0.06
21863 H 58.86537082780329 73.32915277360595 92.72657186438997 H 0.0 **** 0.06
21864 H 58.56514062968657 75.06637906955693 92.9752137778695 H 0.0 **** 0.06
21865 H 59.02861671642967 74.03772561339044 94.35218114491688 H 0.0 **** 0.06
21866 C 51.27934685134336 31.89892288293627 35.240680943531224 C 0.0 **** -0.24
21867 H 51.17360218286379 32.707968530852696 34.5175385686984 H 0.0 **** 0.06
21868 H 51.349174996315824 32.31628037866332 36.244639800264295 H 0.0 **** 0.06
21869 H 52.18310862298175 31.33090425645417 35.019732587734126 H 0.0 **** 0.06
21870 H 50.41305506006444 31.240763297271286 35.179573338574166 H 0.0 **** 0.06
21871 C 32.88570627670339 8.16126862830987 117.37883389140973 C 0.0 **** -0.24
21872 H 33.81576568687072 7.618261331390045 117.54329726574394 H 0.0 **** 0.06
21873 H 32.114832380908695 7.770503028703899 118.04382741654172 H 0.0 **** 0.06
21874 H 32.57013186604348 8.034830564243691 116.34329206586585 H 0.0 **** 0.06
21875 H 33.04129534070623 9.220324651858505 117.58508146385782 H 0.0 **** 0.06
21876 C 121.6938112420937 116.22020038602614 56.35473139678608 C 0.0 **** -0.24
21877 H 121.0441274927732 115.82472541144585 57.136185986554196 H 0.0 **** 0.06
21878 H 121.20915917629974 116.10005352240887 55.384870150206666 H 0.0 **** 0.06
21879 H 122.63890121149352 115.67637644789534 56.35862663370136 H 0.0 **** 0.06
21880 H 121.88185072393345 117.2778114433151 56.538820140689054 H 0.0 **** 0.06
21881 C 124.8175477725971 119.66674269777911 57.02130267127774 C 0.0 **** -0.24
21882 H 124.15694693220854 118.99121337447195 57.56439135677135 H 0.0 **** 0.06
21883 H 124.75450889701347 120.66456158858858 57.45681073186 H 0.0 **** 0.06
21884 H 124.51422993994072 119.70780386565667 55.97435233865622 H 0.0 **** 0.06
21885 H 125.84270536974452 119.30422281961216 57.08862184315552 H 0.0 **** 0.06
21886 C 11.293412988351065 151.2336943900068 104.72728058351186 C 0.0 **** -0.24
21887 H 10.333585832200043 150.72555225317433 104.64350100447194 H 0.0 **** 0.06
21888 H 11.35699783771122 152.01687510528217 103.97144354761798 H 0.0 **** 0.06
21889 H 12.099547250291124 150.51599519222083 104.5755437061776 H 0.0 **** 0.06
21890 H 11.384302055496988 151.6768013144872 105.71907093782801 H 0.0 **** 0.06
21891 C 139.97443009066598 48.317363429661555 111.61191902741832 C 0.0 **** -0.24
21892 H 139.2616269561908 47.767980393803754 112.22521958635063 H 0.0 **** 0.06
21893 H 140.94794295319232 47.828660963881305 111.66005739721534 H 0.0 **** 0.06
21894 H 140.0622354136678 49.33918383040569 111.98226075272605 H 0.0 **** 0.06
21895 H 139.6268591984314 48.334410681061996 110.57891489376964 H 0.0 **** 0.06
21896 C 64.79730537276254 79.45979466526799 47.45176346151362 C 0.0 **** -0.24
21897 H 63.96497377849721 79.11874907928984 48.0679815395232 H 0.0 **** 0.06
21898 H 65.73711851259941 79.14719921236312 47.90695135456872 H 0.0 **** 0.06
21899 H 64.77216109976479 80.54685375470106 47.37820422744869 H 0.0 **** 0.06
21900 H 64.71217829575505 79.02636040454433 46.45540570199853 H 0.0 **** 0.06
21901 C 147.8340606915445 24.156690175908295 38.208127248103835 C 0.0 **** -0.24
21902 H 148.38751435069406 23.286540588359486 38.56289118856438 H 0.0 **** 0.06
21903 H 147.1691310103206 23.856909358970398 37.39855166210421 H 0.0 **** 0.06
21904 H 148.53485718292336 24.90784643534093 37.84454203864317 H 0.0 **** 0.06
21905 H 147.24776443461298 24.572355870909178 39.02696261904903 H 0.0 **** 0.06
21906 C 7.930498410780103 23.410664463695923 70.02285843878002 C 0.0 **** -0.24
21907 H 7.597459944804207 23.942427799989957 70.91416804042831 H 0.0 **** 0.06
21908 H 8.122630109154422 22.36722634002342 70.27358334357922 H 0.0 **** 0.06
21909 H 8.845853823912421 23.86865248177952 69.64727338419351 H 0.0 **** 0.06
21910 H 7.157085844464312 23.464880834491396 69.25721280730323 H 0.0 **** 0.06
21911 C 20.43334028550541 39.77612255120553 47.078117834184525 C 0.0 **** -0.24
21912 H 20.53988506854131 39.481635769699224 46.03440983241481 H 0.0 **** 0.06
21913 H 19.436844844539962 39.50812497575211 47.43084697092755 H 0.0 **** 0.06
21914 H 20.57406618250417 40.85322793843184 47.16811159158951 H 0.0 **** 0.06
21915 H 21.182907256988585 39.260314826750545 47.67841394692948 H 0.0 **** 0.06
21916 C 21.060368532360712 12.359626150409014 63.48188662068873 C 0.0 **** -0.24
21917 H 21.61799045762001 11.511559214805459 63.87887518617151 H 0.0 **** 0.06
21918 H 21.15062567615948 13.204746415567797 64.16477612591552 H 0.0 **** 0.06
21919 H 20.010324477046368 12.08617905604828 63.378282376233244 H 0.0 **** 0.06
21920 H 21.461728841910457 12.63532953631045 62.50730867254467 H 0.0 **** 0.06
21921 C 41.0422981843337 121.13079609901355 40.84503496827517 C 0.0 **** -0.24
21922 H 41.87141738129151 120.54475069779777 40.44884459994249 H 0.0 **** 0.06
21923 H 40.30204611434674 120.46107941351552 41.282960887422576 H 0.0 **** 0.06
21924 H 40.583616802943524 121.7030770334624 40.03894962579871 H 0.0 **** 0.06
21925 H 41.41315393169971 121.81314128619569 41.6101753125422 H 0.0 **** 0.06
21926 C 69.62032980350337 150.62942743549303 2.138151058573328 C 0.0 **** -0.24
21927 H 69.15720469088663 151.60336228170002 2.299702134137789 H 0.0 **** 0.06
21928 H 69.39368754903903 149.97519529631882 2.980088272543128 H 0.0 **** 0.06
21929 H 70.69980939428073 150.7517114233645 2.0520459161753877 H 0.0 **** 0.06
21930 H 69.22962576851343 150.1901187833023 1.219848840966904 H 0.0 **** 0.06
21931 C 80.97929345653819 21.515511112081327 48.32157928075469 C 0.0 **** -0.24
21932 H 81.88295473623594 21.690759932742367 48.906584289721465 H 0.0 **** 0.06
21933 H 81.07614973640156 22.0017421839585 47.350484074055984 H 0.0 **** 0.06
21934 H 80.11929110401195 21.926790622679107 48.85039474818538 H 0.0 **** 0.06
21935 H 80.84026776989828 20.44406409276442 48.17988315655228 H 0.0 **** 0.06
21936 C 148.73339798901839 67.8597011038847 43.5670290698549 C 0.0 **** -0.24
21937 H 149.23562418466852 67.67017191171234 42.61841945475004 H 0.0 **** 0.06
21938 H 149.04723832778623 67.11450436077618 44.29874128320421 H 0.0 **** 0.06
21939 H 147.65487614506947 67.7984640029562 43.426184197152 H 0.0 **** 0.06
21940 H 148.9976940811961 68.85453847007385 43.925358327277934 H 0.0 **** 0.06
21941 C 30.008698519916152 91.8826750095359 123.58927622041496 C 0.0 **** -0.24
21942 H 29.15439004747344 92.55982535959568 123.57413935321547 H 0.0 **** 0.06
21943 H 30.31264375451343 91.70388839679686 124.62122648593443 H 0.0 **** 0.06
21944 H 30.8359574076066 92.330767330403 123.0387958137904 H 0.0 **** 0.06
21945 H 29.73222249876983 90.9370833155244 123.12266606653664 H 0.0 **** 0.06
21946 C 80.40482201163222 50.70354803635024 60.82741204462229 C 0.0 **** -0.24
21947 H 80.0177984766112 51.71777511857984 60.91860325242237 H 0.0 **** 0.06
21948 H 81.43240716560906 50.73711494524012 60.463717495529124 H 0.0 **** 0.06
21949 H 79.78933819701818 50.14126956868489 60.125572852195745 H 0.0 **** 0.06
21950 H 80.38113217637925 50.2165928670575 61.80275514039204 H 0.0 **** 0.06
21951 C 110.26757194818755 150.58054664843684 96.24414215266854 C 0.0 **** -0.24
21952 H 110.12480708435773 149.55702195830787 95.89713050565022 H 0.0 **** 0.06
21953 H 109.29941747821063 151.0255086861 96.47081666069042 H 0.0 **** 0.06
21954 H 110.76320351522203 151.16160599437853 95.46642622896256 H 0.0 **** 0.06
21955 H 110.88566675085904 150.57660179908055 97.14234922674294 H 0.0 **** 0.06
21956 C 129.23729077772683 62.23362617747965 111.26699118680557 C 0.0 **** -0.24
21957 H 129.31123836065325 63.04535810826282 111.9914811704262 H 0.0 **** 0.06
21958 H 128.56795992475196 61.4639295904158 111.65231581686879 H 0.0 **** 0.06
21959 H 130.22576131757774 61.80540837932166 111.0995301680523 H 0.0 **** 0.06
21960 H 128.8445910971114 62.621023848287294 110.32716212830707 H 0.0 **** 0.06
21961 C 101.03790471441857 8.678537811142462 34.300928606494 C 0.0 **** -0.24
21962 H 100.66267078418599 9.626701273735819 34.6871529526499 H 0.0 **** 0.06
21963 H 101.63284279225167 8.861828002849279 33.406184475131084 H 0.0 **** 0.06
21964 H 100.19803551288885 8.02945243095229 34.05399632738049 H 0.0 **** 0.06
21965 H 101.65873024371064 8.198347629869346 35.057286142618025 H 0.0 **** 0.06
21966 C 105.50138876882635 136.04758079345578 14.546110823356145 C 0.0 **** -0.24
21967 H 105.1446507346573 136.91992751538797 13.998671477382459 H 0.0 **** 0.06
21968 H 105.43714526682827 136.2414117624361 15.617253684817058 H 0.0 **** 0.06
21969 H 106.53804034987967 135.8465358883591 14.274287085584717 H 0.0 **** 0.06
21970 H 104.88548264627299 135.1845743549847 14.294881489375229 H 0.0 **** 0.06
21971 C 62.148853910144155 63.261790688250656 88.55996900622466 C 0.0 **** -0.24
21972 H 61.737360670312526 62.25940184192481 88.44346333349574 H 0.0 **** 0.06
21973 H 62.25368863026621 63.72788548241188 87.57975830124627 H 0.0 **** 0.06
21974 H 63.125814356013834 63.19883979479384 89.03952938067275 H 0.0 **** 0.06
21975 H 61.479180543765125 63.85946108859015 89.17818607025305 H 0.0 **** 0.06
21976 C 96.88840899246156 19.576503163134916 44.84215291672753 C 0.0 **** -0.24
21977 H 96.84904384823606 19.187466801902076 43.82525629979793 H 0.0 **** 0.06
21978 H 95.87448246913286 19.68547781726503 45.22798477577909 H 0.0 **** 0.06
21979 H 97.384095920076 20.546598272269584 44.84089695695516 H 0.0 **** 0.06
21980 H 97.4456470242872 18.885171119322592 45.47405040892457 H 0.0 **** 0.06
21981 C 147.09007123150434 117.05889892265247 44.099462608541046 C 0.0 **** -0.24
21982 H 147.74316255400092 117.39653743469938 43.29426967792401 H 0.0 **** 0.06
21983 H 146.32365486521067 117.81136249444774 44.285161819450764 H 0.0 **** 0.06
21984 H 147.67941924291753 116.90836698667744 45.0045221436055 H 0.0 **** 0.06
21985 H 146.61724630179998 116.1200416755783 43.81441126769502 H 0.0 **** 0.06
21986 C 107.73050523669646 72.46176757246803 103.39779563734322 C 0.0 **** -0.24
21987 H 107.00431440207372 72.67969914235562 104.18080353553205 H 0.0 **** 0.06
21988 H 108.4977395857198 71.79440606298226 103.78980294209032 H 0.0 **** 0.06
21989 H 108.19203389376979 73.39073948733801 103.06338998231274 H 0.0 **** 0.06
21990 H 107.2261971003022 71.98361148912244 102.55821852571285 H 0.0 **** 0.06
21991 C 98.92770182937679 41.95013557289796 103.73191472060994 C 0.0 **** -0.24
21992 H 98.9612066530362 42.762168253479715 104.45727530461765 H 0.0 **** 0.06
21993 H 97.94146331780037 41.484755368187734 103.75417652075377 H 0.0 **** 0.06
21994 H 99.68537953159709 41.207874053070896 103.98239824498889 H 0.0 **** 0.06
21995 H 99.121254130665 42.344985977082416 102.73488748213781 H 0.0 **** 0.06
21996 C 145.99039075098167 37.93561426208532 98.64203847761159 C 0.0 **** -0.24
21997 H 144.96587494745944 37.59129600715414 98.49402481740351 H 0.0 **** 0.06
21998 H 146.49983997293654 37.268846144671954 99.33777509519679 H 0.0 **** 0.06
21999 H 145.97827550180511 38.94637231458205 99.0485664799222 H 0.0 **** 0.06
22000 H 146.51527707057613 37.934546311335566 97.68645284570651 H 0.0 **** 0.06
22001 C 133.0581768701981 146.99250705380265 81.7727602163348 C 0.0 **** -0.24
22002 H 133.5105643256482 146.60429524815913 80.85976904351003 H 0.0 **** 0.06
22003 H 132.28488932326024 147.7154197147465 81.51559241079963 H 0.0 **** 0.06
22004 H 133.8240326633453 147.47875673458825 82.3779922887108 H 0.0 **** 0.06
22005 H 132.61649167672238 146.1709281255941 82.3367335552482 H 0.0 **** 0.06
22006 C 69.83279740133639 52.941430859636 25.755462969368395 C 0.0 **** -0.24
22007 H 69.31989167826745 52.13079529523658 25.23849841452605 H 0.0 **** 0.06
22008 H 69.15277467541122 53.40266342943919 26.472016733267267 H 0.0 **** 0.06
22009 H 70.15769089882916 53.68660327718324 25.02986946806128 H 0.0 **** 0.06
22010 H 70.70110884603095 52.54428341998664 26.281624381294996 H 0.0 **** 0.06
22011 C 16.781487127373232 62.21033324057555 74.2060911951969 C 0.0 **** -0.24
22012 H 17.424621913742143 61.39202053955677 74.53136442215964 H 0.0 **** 0.06
22013 H 15.738409266810635 61.896910357213756 74.26214818314793 H 0.0 **** 0.06
22014 H 17.02628123454101 62.477630959353405 73.17752399494941 H 0.0 **** 0.06
22015 H 16.93736043488915 63.074393841885126 74.85217359506123 H 0.0 **** 0.06
22016 C 60.01352288000578 69.63260645494974 81.43182561412146 C 0.0 **** -0.24
22017 H 60.76274845536636 70.4011427441272 81.61968634366218 H 0.0 **** 0.06
22018 H 60.07524058014485 68.86789917234032 82.20668650328946 H 0.0 **** 0.06
22019 H 60.19452768534887 69.17767911641076 80.45806073342999 H 0.0 **** 0.06
22020 H 59.02101631529047 70.08261030876308 81.44356907495248 H 0.0 **** 0.06
22021 C 75.99520474628407 9.032766633239476 96.5128315020509 C 0.0 **** -0.24
22022 H 76.34643902157755 9.768254420035476 95.78920323746685 H 0.0 **** 0.06
22023 H 76.80901136842304 8.771082917067247 97.18942820604596 H 0.0 **** 0.06
22024 H 75.65728672351985 8.139418370152043 95.98715101164898 H 0.0 **** 0.06
22025 H 75.16711928031232 9.452792652331766 97.08462631469642 H 0.0 **** 0.06
22026 C 8.53903786612716 57.25044421516684 64.92593811056963 C 0.0 **** -0.24
22027 H 7.949322739842984 57.223192070921854 65.84254166716914 H 0.0 **** 0.06
22028 H 9.363438362629978 57.95295487165207 65.0451406525558 H 0.0 **** 0.06
22029 H 7.906485446250201 57.56884233396465 64.09704260432568 H 0.0 **** 0.06
22030 H 8.935333991164725 56.256427951944985 64.7196623080963 H 0.0 **** 0.06
22031 C 25.262907837442157 76.92053656623649 121.9211002300687 C 0.0 **** -0.24
22032 H 25.427016443803296 77.92516556268805 122.31029632753581 H 0.0 **** 0.06
22033 H 25.32297544370119 76.2010373864243 122.73781773992795 H 0.0 **** 0.06
22034 H 26.02458536171666 76.69014151859112 121.17585586807974 H 0.0 **** 0.06
22035 H 24.2760766220431 76.86601286764436 121.46042678843219 H 0.0 **** 0.06
22036 C 147.01604816856616 140.28068450501826 50.523175242131884 C 0.0 **** -0.24
22037 H 147.8304762996601 139.98392823719377 49.86279036409621 H 0.0 **** 0.06
22038 H 147.17595866680662 141.30524698348103 50.858557145162536 H 0.0 **** 0.06
22039 H 146.98772561508866 139.6155329554535 51.386163026551515 H 0.0 **** 0.06
22040 H 146.07099073724316 140.21831579115144 49.98419078280267 H 0.0 **** 0.06
22041 C 0.45678954396771587 16.425818900736687 106.45317011447793 C 0.0 **** -0.24
22042 H 0.15475963651994107 16.015031790621492 105.4901168788403 H 0.0 **** 0.06
22043 H 0.7935663109710163 15.617659498059027 107.10287426111131 H 0.0 **** 0.06
22044 H -0.3913898603693724 16.933054044412927 106.91360132254778 H 0.0 **** 0.06
22045 H 1.2696545911074395 17.136451372548095 106.3053710629672 H 0.0 **** 0.06
22046 C 14.515558889777296 20.252871805728034 124.83113060828492 C 0.0 **** -0.24
22047 H 14.08079709264483 19.716783255821156 125.67455452705548 H 0.0 **** 0.06
22048 H 15.602871626509135 20.180943318102948 124.87722858357415 H 0.0 **** 0.06
22049 H 14.218226318650899 21.30111357005535 124.87419159168115 H 0.0 **** 0.06
22050 H 14.16192666978521 19.812524112893072 123.8992326468811 H 0.0 **** 0.06
22051 C 103.62160327349345 135.79082461039917 115.77661725570601 C 0.0 **** -0.24
22052 H 103.32123008958642 135.11051458416983 116.57315530920692 H 0.0 **** 0.06
22053 H 102.80119971439963 135.90560189060687 115.06770197878899 H 0.0 **** 0.06
22054 H 104.4933711902204 135.38545137631195 115.26222544232724 H 0.0 **** 0.06
22055 H 103.8717750207186 136.76229615480793 116.20395884554051 H 0.0 **** 0.06
22056 C 37.62247660890807 85.85528078406472 97.63374180887159 C 0.0 **** -0.24
22057 H 37.450220324117396 85.16395786734545 96.80823887172455 H 0.0 **** 0.06
22058 H 38.53137654850059 85.56881663206217 98.16367377558761 H 0.0 **** 0.06
22059 H 36.77564734502556 85.82044086827645 98.31881044377947 H 0.0 **** 0.06
22060 H 37.733151778576996 86.86665238394643 97.24381472040248 H 0.0 **** 0.06
22061 C 38.848763773832076 52.204532035796376 1.029595429128534 C 0.0 **** -0.24
22062 H 39.84721844020508 51.87505450178833 0.7431264320657078 H 0.0 **** 0.06
22063 H 38.84334002644931 53.28790456855647 1.1485668628792496 H 0.0 **** 0.06
22064 H 38.56860896089323 51.73439075988891 1.972786377957732 H 0.0 **** 0.06
22065 H 38.136457505890206 51.92020154865902 0.25598597984586036 H 0.0 **** 0.06
22066 C 135.12852583332372 94.54662077760122 25.752500599858024 C 0.0 **** -0.24
22067 H 135.99745084875912 94.21700989180755 26.321983390430262 H 0.0 **** 0.06
22068 H 134.39637668249316 94.98684753879905 26.429480431226665 H 0.0 **** 0.06
22069 H 134.6842936950615 93.69368754647326 25.240835344049458 H 0.0 **** 0.06
22070 H 135.43782749667207 95.28990446853388 25.016890278684002 H 0.0 **** 0.06
22071 C 15.765798236286173 42.97305644100187 29.044353119496094 C 0.0 **** -0.24
22072 H 16.553833894525155 43.48597406253768 29.595413891599776 H 0.0 **** 0.06
22073 H 15.99569706898859 41.90963488743853 28.985797452508677 H 0.0 **** 0.06
22074 H 15.698208072660805 43.38701551368747 28.038131405809253 H 0.0 **** 0.06
22075 H 14.81454688696266 43.11164015129819 29.55821311778297 H 0.0 **** 0.06
22076 C 9.166793526380502 132.7469520395336 29.80395863603266 C 0.0 **** -0.24
22077 H 8.195910463004452 132.68840349890064 30.297016290608695 H 0.0 **** 0.06
22078 H 9.618155910517203 133.71824883475864 30.00722746444599 H 0.0 **** 0.06
22079 H 9.035567564239784 132.62334031912843 28.7288709338479 H 0.0 **** 0.06
22080 H 9.814842531535703 131.95759869955748 30.184014477565 H 0.0 **** 0.06
22081 C 63.43208892938098 79.09547894291615 68.84540422756787 C 0.0 **** -0.24
22082 H 62.41472962296302 79.48292611508589 68.79473482372987 H 0.0 **** 0.06
22083 H 63.960477471909044 79.34248635261622 67.92370763335455 H 0.0 **** 0.06
22084 H 63.40236275451758 78.01288189609471 68.96804049674819 H 0.0 **** 0.06
22085 H 63.949736482718336 79.54333085587353 69.69345630928106 H 0.0 **** 0.06
22086 C 8.961703413399789 119.77919288211444 55.39499106703374 C 0.0 **** -0.24
22087 H 9.572691122328422 119.42047635821206 54.567270030906116 H 0.0 **** 0.06
22088 H 8.322911569557704 120.59301849223789 55.04933866321301 H 0.0 **** 0.06
22089 H 9.608611192226931 120.13841856154187 56.19521284942755 H 0.0 **** 0.06
22090 H 8.340999530617921 118.96420315546243 55.76824450522429 H 0.0 **** 0.06
22091 C 21.618544022497055 115.8498449050759 137.73598334676421 C 0.0 **** -0.24
22092 H 22.48194080763028 115.51158225958373 138.30886382647162 H 0.0 **** 0.06
22093 H 20.80269158551652 116.0910657912605 138.41799213221753 H 0.0 **** 0.06
22094 H 21.302188523391322 115.06006549428109 137.0544773985789 H 0.0 **** 0.06
22095 H 21.888467971488943 116.73745418592527 137.16297503255493 H 0.0 **** 0.06
22096 C 31.344572490763028 128.60324049778 1.8939239060902082 C 0.0 **** -0.24
22097 H 32.34082407145348 128.62113591137415 1.4533127662588754 H 0.0 **** 0.06
22098 H 31.125810303671813 127.59973608063348 2.259145300072447 H 0.0 **** 0.06
22099 H 30.609152309794382 128.8832593660399 1.1394477471182825 H 0.0 **** 0.06
22100 H 31.301793768303497 129.30966831205853 2.722898208523304 H 0.0 **** 0.06
22101 C 62.11436397474462 5.103924941372611 137.1934904047319 C 0.0 **** -0.24
22102 H 61.821826201865406 5.946607252604508 137.82020553667638 H 0.0 **** 0.06
22103 H 63.014653064599926 4.643532205595136 137.60151709842773 H 0.0 **** 0.06
22104 H 62.31269906761631 5.4556515092167785 136.18130303758767 H 0.0 **** 0.06
22105 H 61.30841675472418 4.370402096053709 137.1722540313599 H 0.0 **** 0.06
22106 C 45.925641282169465 61.643002806423226 53.77479231823547 C 0.0 **** -0.24
22107 H 45.57392065525596 62.17917440515218 52.89344262378357 H 0.0 **** 0.06
22108 H 46.308648701025675 62.35656667292842 54.50516183828948 H 0.0 **** 0.06
22109 H 46.71993460893458 60.954018262868544 53.48757100858285 H 0.0 **** 0.06
22110 H 45.09892379868114 61.08280214731056 54.212358446036916 H 0.0 **** 0.06
22111 C 115.49146309049654 82.40248998376636 146.14322541254924 C 0.0 **** -0.24
22112 H 115.43945448345106 83.48988662195794 146.19933542100904 H 0.0 **** 0.06
22113 H 116.53444056853108 82.09328382216638 146.073589171023 H 0.0 **** 0.06
22114 H 114.94974220170577 82.05801024710114 145.26215397905887 H 0.0 **** 0.06
22115 H 115.04308697066189 81.97095136351095 147.03710061979834 H 0.0 **** 0.06
22116 C 3.6118698692854636 72.28170569249431 101.82572813557304 C 0.0 **** -0.24
22117 H 2.5957758704356806 72.10119664135192 102.175496795044 H 0.0 **** 0.06
22118 H 3.988857497183261 73.20511336810651 102.26741277667286 H 0.0 **** 0.06
22119 H 3.611872330037066 72.37029834186882 100.73974287573576 H 0.0 **** 0.06
22120 H 4.251391411779231 71.44956810327028 102.12210616902438 H 0.0 **** 0.06
22121 C 87.80032755214502 42.872555878051344 76.30563095723201 C 0.0 **** -0.24
22122 H 87.58993948604652 42.34277211724134 75.37597793870536 H 0.0 **** 0.06
22123 H 88.85464027933175 43.14753644186436 76.335279444409 H 0.0 **** 0.06
22124 H 87.5698483229709 42.225901108159576 77.15183931226773 H 0.0 **** 0.06
22125 H 87.1880536559718 43.77282471653649 76.35763446153305 H 0.0 **** 0.06
22126 C 122.39587890200664 69.59034917258143 146.47744691480904 C 0.0 **** -0.24
22127 H 121.85063011310251 68.65214742683693 146.57920106006122 H 0.0 **** 0.06
22128 H 121.84279915405318 70.3869620255895 146.97648947056325 H 0.0 **** 0.06
22129 H 122.50809606168224 69.83243929305024 145.421212417949 H 0.0 **** 0.06
22130 H 123.37987133256854 69.49018019043046 146.93406787311602 H 0.0 **** 0.06
22131 C 137.7055731867987 19.661645453418004 92.35278388317532 C 0.0 **** -0.24
22132 H 138.7062253834912 19.40139849952709 92.00845357829714 H 0.0 **** 0.06
22133 H 137.23384832031138 18.783323247196336 92.79429316912866 H 0.0 **** 0.06
22134 H 137.1098326570691 20.00690018674777 91.50710835462911 H 0.0 **** 0.06
22135 H 137.77190573448308 20.453198321055027 93.09801449450501 H 0.0 **** 0.06
22136 C 13.417442744322216 22.19014650446138 8.989716688477415 C 0.0 **** -0.24
22137 H 13.158646248148955 21.361658485419582 8.330073103036966 H 0.0 **** 0.06
22138 H 12.824449583757826 22.125430528701827 9.902592726000478 H 0.0 **** 0.06
22139 H 13.2098575110912 23.13397833769318 8.486785806724527 H 0.0 **** 0.06
22140 H 14.476751161830663 22.13664051541224 9.240258992176564 H 0.0 **** 0.06
22141 C 139.2576588330269 103.74729827913619 29.278261939256197 C 0.0 **** -0.24
22142 H 138.94712406467863 102.74959679304847 28.96766802416377 H 0.0 **** 0.06
22143 H 138.43267463258059 104.24077855786867 29.791910603077753 H 0.0 **** 0.06
22144 H 139.54110829910746 104.32997458493851 28.401193853815073 H 0.0 **** 0.06
22145 H 140.11071409485396 103.6688468401487 29.952443496446563 H 0.0 **** 0.06
22146 C 87.31299095484165 95.14753851939723 136.20530562190376 C 0.0 **** -0.24
22147 H 86.52347041633102 94.43349645926538 135.96953041318912 H 0.0 **** 0.06
22148 H 87.26519237425434 95.9844559948485 135.50870379752246 H 0.0 **** 0.06
22149 H 88.28253921986733 94.65798260977589 136.1209504088255 H 0.0 **** 0.06
22150 H 87.17891951095817 95.51283925215789 137.22396205343284 H 0.0 **** 0.06
22151 C 30.912714248283727 79.2196777090412 128.8384936664573 C 0.0 **** -0.24
22152 H 30.56226417737531 79.18996023796348 127.80700286341244 H 0.0 **** 0.06
22153 H 31.745590376145614 79.91868059628567 128.91819942444107 H 0.0 **** 0.06
22154 H 31.243236900054853 78.22467452538933 129.13756578549663 H 0.0 **** 0.06
22155 H 30.101866589608804 79.54421724623893 129.4891577665777 H 0.0 **** 0.06
22156 C 153.70948628986181 57.01654276934107 2.341320977623365 C 0.0 **** -0.24
22157 H 153.55753033748837 58.090936141579505 2.4543077416751764 H 0.0 **** 0.06
22158 H 153.3428617212998 56.50310450992828 3.230425169926672 H 0.0 **** 0.06
22159 H 154.77283450147414 56.8123767681505 2.2164110403966326 H 0.0 **** 0.06
22160 H 153.16600040091112 56.66373118086568 1.4660206438468997 H 0.0 **** 0.06
22161 C 96.46188059566028 133.08141467876771 88.98506911208176 C 0.0 **** -0.24
22162 H 95.83581214928579 132.7991886310927 88.13802338604188 H 0.0 **** 0.06
22163 H 95.83558867344928 133.48254513369534 89.78153972558908 H 0.0 **** 0.06
22164 H 97.1788987973421 133.83949666495403 88.66916044173348 H 0.0 **** 0.06
22165 H 96.99702106467761 132.20451258170942 89.34911313936391 H 0.0 **** 0.06
22166 C 128.27754250985708 22.33323510163241 97.89880028388257 C 0.0 **** -0.24
22167 H 129.16393679829054 22.965077043081756 97.84368592288897 H 0.0 **** 0.06
22168 H 128.43156403799736 21.556870318745112 98.64778542552 H 0.0 **** 0.06
22169 H 128.1000423247117 21.871627635867156 96.92685329929026 H 0.0 **** 0.06
22170 H 127.41567633536935 22.940940492780186 98.1756857261233 H 0.0 **** 0.06
22171 C 80.14547915692565 79.94534434213678 46.722825927369115 C 0.0 **** -0.24
22172 H 80.84526093261543 80.55031695449583 47.29903965765129 H 0.0 **** 0.06
22173 H 79.36177847316492 79.57032236909518 47.38197649310763 H 0.0 **** 0.06
22174 H 80.6759556082231 79.10629881427172 46.27317496146327 H 0.0 **** 0.06
22175 H 79.69797068745817 80.55617853486412 45.93814735471551 H 0.0 **** 0.06
22176 C 28.024124072778534 55.66162299588275 138.2697349700166 C 0.0 **** -0.24
22177 H 27.381132188634353 56.06563660737538 139.0512348658026 H 0.0 **** 0.06
22178 H 28.07969116912082 56.370836300061015 137.443574286697 H 0.0 **** 0.06
22179 H 27.61335166609672 54.71807252392179 137.91315658461622 H 0.0 **** 0.06
22180 H 29.02296028389685 55.493875450506636 138.6729416971062 H 0.0 **** 0.06
22181 C 149.6158145127833 63.182755952138734 132.17631304739263 C 0.0 **** -0.24
22182 H 148.69500120521647 63.03831454472942 131.61031018819563 H 0.0 **** 0.06
22183 H 150.45923081873158 63.243287048301084 131.48757751495208 H 0.0 **** 0.06
22184 H 149.76020525634792 62.34238433914612 132.85487219531203 H 0.0 **** 0.06
22185 H 149.54805657119164 64.10642954219918 132.75048080132046 H 0.0 **** 0.06
22186 C 139.09590492441356 25.36448255114977 39.134019453700716 C 0.0 **** -0.24
22187 H 139.05185521694432 24.956330420240732 40.143998734747186 H 0.0 **** 0.06
22188 H 139.97640005980617 24.975054017036925 38.62282339623249 H 0.0 **** 0.06
22189 H 139.15559214936417 26.451743629565705 39.18390388402764 H 0.0 **** 0.06
22190 H 138.1986088427925 25.07476385382109 38.58615493925441 H 0.0 **** 0.06
22191 C 58.687201926184244 113.53651229813276 83.22998090781194 C 0.0 **** -0.24
22192 H 59.109960628292555 112.72304946932063 82.63992074666066 H 0.0 **** 0.06
22193 H 59.472542846284725 113.9906356916046 83.83576330626612 H 0.0 **** 0.06
22194 H 57.90516261471022 113.1461909447924 83.87999581064776 H 0.0 **** 0.06
22195 H 58.263330630784395 114.28727526638924 82.5622453339008 H 0.0 **** 0.06
22196 C 124.03793108818945 40.37022410413165 71.31374463134611 C 0.0 **** -0.24
22197 H 124.18854293417746 40.79002059433185 72.30818198005255 H 0.0 **** 0.06
22198 H 123.97053340864977 41.17825728778624 70.58554645368784 H 0.0 **** 0.06
22199 H 123.11565899634752 39.79062178406164 71.30097888797314 H 0.0 **** 0.06
22200 H 124.87827560167341 39.72288075973326 71.06215890433276 H 0.0 **** 0.06
22201 C 77.48230978388183 29.670600935579756 6.772574497244307 C 0.0 **** -0.24
22202 H 77.12083232949391 30.69832407428204 6.756239254895206 H 0.0 **** 0.06
22203 H 77.34559019595726 29.253576024447867 7.7699744302029785 H 0.0 **** 0.06
22204 H 78.54199594672482 29.654782367062175 6.514181888147391 H 0.0 **** 0.06
22205 H 76.92301350573214 29.07738724490123 6.049257239734288 H 0.0 **** 0.06
22206 C 99.99870846228765 41.92420595340775 91.88051574907463 C 0.0 **** -0.24
22207 H 100.54456289870188 42.817168375406425 91.57322960833228 H 0.0 **** 0.06
22208 H 99.95978515954982 41.879475360327774 92.96948997431018 H 0.0 **** 0.06
22209 H 100.50658415511407 41.039291082534646 91.49832261745426 H 0.0 **** 0.06
22210 H 98.98551293421929 41.963367644264395 91.48153100196552 H 0.0 **** 0.06
22211 C 74.64817754599738 20.34175591123335 116.66731747419044 C 0.0 **** -0.24
22212 H 73.63073121655324 20.118260427312407 116.34599922713835 H 0.0 **** 0.06
22213 H 74.91821573535807 21.347690185450148 116.34420090083802 H 0.0 **** 0.06
22214 H 75.33544338703703 19.620221715437197 116.2255542581421 H 0.0 **** 0.06
22215 H 74.70716625321964 20.281132403245095 117.75428380836007 H 0.0 **** 0.06
22216 C 150.52896945500018 109.79769568599545 111.71664594725728 C 0.0 **** -0.24
22217 H 150.80677017896772 110.69496561103028 112.26815211756524 H 0.0 **** 0.06
22218 H 150.78856561971105 108.91615950424858 112.3030873105783 H 0.0 **** 0.06
22219 H 151.0645403908888 109.77311636078116 110.76768899574078 H 0.0 **** 0.06
22220 H 149.45509730443467 109.80507952160843 111.52786888295073 H 0.0 **** 0.06
22221 C 97.44774656872231 122.61355707666235 19.132259627335202 C 0.0 **** -0.24
22222 H 97.20463469133243 123.66877117886565 19.012161963358196 H 0.0 **** 0.06
22223 H 98.10009039052966 122.48667681379135 19.997218391395492 H 0.0 **** 0.06
22224 H 97.95558806857147 122.2525178892081 18.237937321900326 H 0.0 **** 0.06
22225 H 96.52998296966094 122.04396544611467 19.283220111096547 H 0.0 **** 0.06
22226 C 59.951019019742205 66.64121040431651 32.137912048195496 C 0.0 **** -0.24
22227 H 60.517718586689966 67.05566072843294 32.97119901804301 H 0.0 **** 0.06
22228 H 60.18815230791682 67.19351935660887 31.22779483356151 H 0.0 **** 0.06
22229 H 58.884356498374984 66.7245206644017 32.34558276952856 H 0.0 **** 0.06
22230 H 60.214450362413004 65.59179750321586 32.00502047969885 H 0.0 **** 0.06
22231 C 66.87091782821538 15.531879174037059 128.2200540561866 C 0.0 **** -0.24
22232 H 67.63258958854486 14.752431493909825 128.18385815154875 H 0.0 **** 0.06
22233 H 66.38408010256326 15.519215889702693 129.19554334997008 H 0.0 **** 0.06
22234 H 66.12994410393539 15.351311784145487 127.44117984627296 H 0.0 **** 0.06
22235 H 67.33803605810176 16.503653388665704 128.05814319318438 H 0.0 **** 0.06
22236 C 37.348770981770826 19.91398471840386 95.8331941967052 C 0.0 **** -0.24
22237 H 37.25041147933689 19.020901486492328 96.45035902255013 H 0.0 **** 0.06
22238 H 36.80587324275453 20.737885511462423 96.29886068023973 H 0.0 **** 0.06
22239 H 36.93605080355506 19.719451072266196 94.8439210569284 H 0.0 **** 0.06
22240 H 38.402181922155634 20.177940950862315 95.7433268110455 H 0.0 **** 0.06
22241 C 90.21701053310916 148.551456847521 68.04544015357766 C 0.0 **** -0.24
22242 H 90.31850839572023 148.79716410356545 69.10293049735861 H 0.0 **** 0.06
22243 H 89.21943903242703 148.15208059130669 67.86063106037258 H 0.0 **** 0.06
22244 H 90.96413633681773 147.8059032352343 67.7726663881345 H 0.0 **** 0.06
22245 H 90.36583644580082 149.45083831233848 67.44852602675635 H 0.0 **** 0.06
22246 C 45.29588055056428 55.49605970988773 56.85982718092501 C 0.0 **** -0.24
22247 H 45.29997296826889 55.12434000421524 55.834796738008734 H 0.0 **** 0.06
22248 H 44.992689948836926 54.693696265534214 57.53456944817199 H 0.0 **** 0.06
22249 H 44.593623462350024 56.32476783152873 56.94228600282996 H 0.0 **** 0.06
22250 H 46.29566055340206 55.837194335850484 57.12641628079972 H 0.0 **** 0.06
22251 C 46.917708412131944 118.95567164283631 58.43228466329539 C 0.0 **** -0.24
22252 H 46.96246966035197 118.92654778462486 59.520993028176434 H 0.0 **** 0.06
22253 H 47.26729173019834 119.92599375413891 58.07942324609154 H 0.0 **** 0.06
22254 H 45.88958673660123 118.79881928513532 58.10698817057312 H 0.0 **** 0.06
22255 H 47.552443078304236 118.16944314683695 58.022468417046994 H 0.0 **** 0.06
22256 C 49.358672314266116 48.6938439682454 79.68408060502053 C 0.0 **** -0.24
22257 H 48.55876907420404 48.95566690884172 80.37656397649391 H 0.0 **** 0.06
22258 H 49.79125377750596 47.73538853296159 79.97406885376655 H 0.0 **** 0.06
22259 H 50.129848602906335 49.464299212736876 79.71160424391118 H 0.0 **** 0.06
22260 H 48.95481780244815 48.620021218441224 78.67408534591047 H 0.0 **** 0.06
22261 C 80.609108194734 32.63603926889715 65.94221791694787 C 0.0 **** -0.24
22262 H 80.24819008594743 32.98573832259359 64.97437009832208 H 0.0 **** 0.06
22263 H 79.76828232578734 32.26485483677786 66.53006374622578 H 0.0 **** 0.06
22264 H 81.08714290647693 33.459659075782724 66.47104855895259 H 0.0 **** 0.06
22265 H 81.33018964540615 31.832879484998443 65.791378387995 H 0.0 **** 0.06
22266 C 79.83150321996247 118.32357493353932 12.281334993820224 C 0.0 **** -0.24
22267 H 79.30302037862768 118.73151497651246 11.420152403330064 H 0.0 **** 0.06
22268 H 79.220526060323 117.55108746432565 12.749878203045853 H 0.0 **** 0.06
22269 H 80.02314106394917 119.12064014723349 13.00040709417084 H 0.0 **** 0.06
22270 H 80.77776224082041 117.8917117893629 11.956670958684697 H 0.0 **** 0.06
22271 C 7.307896509783916 53.392621645720496 51.65316497266241 C 0.0 **** -0.24
22272 H 6.9162370319533295 53.88652172991037 52.54231019431836 H 0.0 **** 0.06
22273 H 7.838398959796507 52.48603319757825 51.9456307524371 H 0.0 **** 0.06
22274 H 7.9925847680106585 54.0636498238395 51.13645733973016 H 0.0 **** 0.06
22275 H 6.483112438511398 53.13273418236261 50.98927911804623 H 0.0 **** 0.06
22276 C 120.23301481629845 110.62013447535641 85.57519581296836 C 0.0 **** -0.24
22277 H 120.89079353160189 110.1169510031091 84.86774958259082 H 0.0 **** 0.06
22278 H 119.64397931633776 111.37344048068634 85.0502806065405 H 0.0 **** 0.06
22279 H 120.83113254186019 111.10152830827481 86.34859533439811 H 0.0 **** 0.06
22280 H 119.56560388859593 109.89077615894091 86.03313766373526 H 0.0 **** 0.06
22281 C 49.442374738114836 71.16185966383436 79.74645822578196 C 0.0 **** -0.24
22282 H 49.289047125274436 71.37858623094134 80.80380439472836 H 0.0 **** 0.06
22283 H 50.5084771280101 71.0337438138603 79.55356508838777 H 0.0 **** 0.06
22284 H 49.0620895598484 71.98916507451457 79.14796630121462 H 0.0 **** 0.06
22285 H 48.912221492902916 70.24737945928129 79.48207188921003 H 0.0 **** 0.06
22286 C 118.332390628754 50.52988705222164 132.29187789655904 C 0.0 **** -0.24
22287 H 119.13881052521181 50.85995045459245 131.63805473412953 H 0.0 **** 0.06
22288 H 118.16950001889508 49.460170914069266 132.1565163875352 H 0.0 **** 0.06
22289 H 117.41872725916654 51.0707637750036 132.04272667483104 H 0.0 **** 0.06
22290 H 118.60102149829909 50.728252887837726 133.32945734971858 H 0.0 **** 0.06
22291 C 20.097375090609006 6.4309971648316875 136.64460009066312 C 0.0 **** -0.24
22292 H 21.174611539737526 6.3462916922380685 136.50332281219266 H 0.0 **** 0.06
22293 H 19.584095633663765 6.036202264456534 135.76822298434246 H 0.0 **** 0.06
22294 H 19.831032689848456 7.479549510780757 136.78024815428103 H 0.0 **** 0.06
22295 H 19.800704744978447 5.863395629828879 137.52653765715087 H 0.0 **** 0.06
22296 C 28.565013165018655 129.1141859847046 26.3360738509829 C 0.0 **** -0.24
22297 H 28.277213277907663 128.31851759511414 27.022725645741758 H 0.0 **** 0.06
22298 H 27.775631027752155 129.25920770103764 25.59790094086918 H 0.0 **** 0.06
22299 H 29.490982973759515 128.84139145141657 25.83021644536612 H 0.0 **** 0.06
22300 H 28.714730779525212 130.03907812579618 26.894265464293966 H 0.0 **** 0.06
22301 C 123.79962039161444 112.59732681908541 117.85126347200053 C 0.0 **** -0.24
22302 H 123.94195094582614 111.53056049992988 117.67721083899168 H 0.0 **** 0.06
22303 H 123.17308282830294 113.01334845739323 117.06136196105946 H 0.0 **** 0.06
22304 H 124.76780362273047 113.09810075620977 117.84972474202182 H 0.0 **** 0.06
22305 H 123.31447866978908 112.74664388971165 118.81629332673187 H 0.0 **** 0.06
22306 C 11.53444840629146 37.26502874986534 149.19777625369412 C 0.0 **** -0.24
22307 H 11.774360521224537 36.202119579705425 149.21549430580848 H 0.0 **** 0.06
22308 H 11.310938095592803 37.56959721849705 148.17495374442706 H 0.0 **** 0.06
22309 H 12.384026993157477 37.836750994431725 149.57048599774785 H 0.0 **** 0.06
22310 H 10.666299714141758 37.451651437883584 149.83071742393355 H 0.0 **** 0.06
22311 C 1.92040670373774 36.617249536062275 24.57337752867747 C 0.0 **** -0.24
22312 H 2.2645926943321797 36.88463697364057 23.57408395436073 H 0.0 **** 0.06
22313 H 0.9156617024959814 36.198939681792126 24.51095134168932 H 0.0 **** 0.06
22314 H 1.9058331478557022 37.50718943838467 25.20276076658729 H 0.0 **** 0.06
22315 H 2.5959180587233277 35.87821406356363 25.00435160542139 H 0.0 **** 0.06
22316 C 68.6013913623612 36.03163004160652 103.65500353262213 C 0.0 **** -0.24
22317 H 69.65957568848074 35.86321660671625 103.45381075434095 H 0.0 **** 0.06
22318 H 68.00762691213902 35.6400736937327 102.82803549892866 H 0.0 **** 0.06
22319 H 68.4168586525081 37.10079656467899 103.75991920555076 H 0.0 **** 0.06
22320 H 68.32141034185435 35.52240721476177 104.57651933408341 H 0.0 **** 0.06
22321 C 136.8788002762818 100.92964526555994 114.32164724892077 C 0.0 **** -0.24
22322 H 136.80235395091913 100.83281420944024 113.2388012920335 H 0.0 **** 0.06
22323 H 137.06940947046363 101.97197586010304 114.57931131855453 H 0.0 **** 0.06
22324 H 137.69767875370638 100.30922282120582 114.6843505246624 H 0.0 **** 0.06
22325 H 135.94554864982905 100.60595442926405 114.78238395504836 H 0.0 **** 0.06
22326 C 112.4829021122609 52.36618387569165 60.00743007501177 C 0.0 **** -0.24
22327 H 112.11855656607976 53.08874537914919 59.27715213526636 H 0.0 **** 0.06
22328 H 112.91534268597484 51.51096503882697 59.486850009279806 H 0.0 **** 0.06
22329 H 111.65452158397234 52.031103978188554 60.63105400883876 H 0.0 **** 0.06
22330 H 113.24365107234847 52.83392953399614 60.63271857100844 H 0.0 **** 0.06
22331 C 37.40934436742043 136.32444610590346 88.52893291499322 C 0.0 **** -0.24
22332 H 37.52132730144484 135.69651248696078 87.6444986918404 H 0.0 **** 0.06
22333 H 38.29758719949626 136.23342178658436 89.15388403835556 H 0.0 **** 0.06
22334 H 36.53292684509057 136.00363827394625 89.09269115827883 H 0.0 **** 0.06
22335 H 37.28450507385105 137.36339371955796 88.22285008820256 H 0.0 **** 0.06
22336 C 60.58850933422026 150.66037742641336 148.65767331191776 C 0.0 **** -0.24
22337 H 60.435223325319456 150.81824609440648 149.72495984104057 H 0.0 **** 0.06
22338 H 60.834532080322035 151.60990520397445 148.18161396624154 H 0.0 **** 0.06
22339 H 59.676496339948756 150.25816441683935 148.21591015856654 H 0.0 **** 0.06
22340 H 61.40685742981114 149.95536298943205 148.50787763720018 H 0.0 **** 0.06
22341 C 41.38971040760873 91.67589371635182 96.5885199801769 C 0.0 **** -0.24
22342 H 40.35208449388966 91.90665027141355 96.34546118984326 H 0.0 **** 0.06
22343 H 41.562212356929365 90.60722903015164 96.45951397980903 H 0.0 **** 0.06
22344 H 41.59094962226101 91.95451874230993 97.62262951269324 H 0.0 **** 0.06
22345 H 42.05003086495208 92.23409204225521 95.92612950829033 H 0.0 **** 0.06
22346 C 101.37819723100762 22.632567074744316 134.92943955683603 C 0.0 **** -0.24
22347 H 102.38996884180739 22.227709701137627 134.89266438759293 H 0.0 **** 0.06
22348 H 100.83790464139469 22.342284266797208 134.02881341118768 H 0.0 **** 0.06
22349 H 101.42597838577092 23.71942639881314 134.99215655404083 H 0.0 **** 0.06
22350 H 100.86259518118834 22.24043731133193 135.80598130743755 H 0.0 **** 0.06
22351 C 94.89161608442973 135.42780629350227 22.559054155409683 C 0.0 **** -0.24
22352 H 93.8443848675924 135.20430252384818 22.359100494437087 H 0.0 **** 0.06
22353 H 95.1555474430864 135.06813063839087 23.55441759985763 H 0.0 **** 0.06
22354 H 95.04930342386037 136.50474156870024 22.508095746874915 H 0.0 **** 0.06
22355 H 95.51746893801091 134.93333025906742 21.816159595107877 H 0.0 **** 0.06
22356 C 6.047190968207246 87.0372548710882 147.19518741836518 C 0.0 **** -0.24
22357 H 7.031344084738691 87.34623079158793 147.54849212977462 H 0.0 **** 0.06
22358 H 6.0479981001020064 86.99871580565288 146.1055880516662 H 0.0 **** 0.06
22359 H 5.298982884226092 87.75242395062904 147.53467743414 H 0.0 **** 0.06
22360 H 5.813046479597745 86.04971110361478 147.59355578856517 H 0.0 **** 0.06
22361 C 14.609222145941885 90.26994769638068 123.08027793678208 C 0.0 **** -0.24
22362 H 14.519876832844972 89.96586001343748 124.12274459689247 H 0.0 **** 0.06
22363 H 13.828084061681551 89.7862725303201 122.49176933456049 H 0.0 **** 0.06
22364 H 15.58675039471754 89.97458827487688 122.69866816681046 H 0.0 **** 0.06
22365 H 14.502015534151923 91.35207202219614 123.00694070747481 H 0.0 **** 0.06
22366 C 30.05083969611931 5.809799540891817 42.15694645085837 C 0.0 **** -0.24
22367 H 30.768226846949545 5.531873289171983 41.384860094081105 H 0.0 **** 0.06
22368 H 30.290732226004423 5.285128990796181 43.08183837099429 H 0.0 **** 0.06
22369 H 29.046134562882855 5.53895474024992 41.834581262101665 H 0.0 **** 0.06
22370 H 30.10016634113417 6.885318061547878 42.32623749052564 H 0.0 **** 0.06
22371 C 36.901860233844516 55.461206993523035 21.508576572827977 C 0.0 **** -0.24
22372 H 37.22430324747545 55.08703080043466 20.537141378756893 H 0.0 **** 0.06
22373 H 36.43741663613591 54.65186200294278 22.073251302864932 H 0.0 **** 0.06
22374 H 36.18086886156536 56.265948214050866 21.367581343898195 H 0.0 **** 0.06
22375 H 37.764729767454384 55.83866792906974 22.05682748693058 H 0.0 **** 0.06
22376 C 55.79933515535576 96.43374186939009 145.9810708894198 C 0.0 **** -0.24
22377 H 55.915132554006874 95.91282159452173 146.93114176991327 H 0.0 **** 0.06
22378 H 56.102063484885136 95.77595357718428 145.16618819803713 H 0.0 **** 0.06
22379 H 56.42468544440234 97.32712590623105 145.97915110780795 H 0.0 **** 0.06
22380 H 54.75561465965684 96.72096039486104 145.848980937623 H 0.0 **** 0.06
22381 C 114.69433057099486 0.0761893127373412 136.6455897718266 C 0.0 **** -0.24
22382 H 113.67461491937571 0.229440285125861 136.29147846185228 H 0.0 **** 0.06
22383 H 114.82631542786798 -0.9684786293764489 136.92829028092817 H 0.0 **** 0.06
22384 H 114.87589465263939 0.7126067720860192 137.5118645453574 H 0.0 **** 0.06
22385 H 115.3973409017009 0.3310997428656606 135.8533771890355 H 0.0 **** 0.06
22386 C 40.50312247750321 153.82312915949757 111.95549802310391 C 0.0 **** -0.24
22387 H 41.44196575470457 153.99294055174033 112.48404897870985 H 0.0 **** 0.06
22388 H 39.67223131555215 153.90018968145796 112.65692316591124 H 0.0 **** 0.06
22389 H 40.51209513874352 152.8280543417517 111.51068989624879 H 0.0 **** 0.06
22390 H 40.38741685962296 154.5710162503049 111.17097346408765 H 0.0 **** 0.06
22391 C 61.3506537562277 125.1549774494937 122.79105834282025 C 0.0 **** -0.24
22392 H 60.846622920162645 124.23499420188465 122.497609266721 H 0.0 **** 0.06
22393 H 60.780061248624804 126.01158888851442 122.43252564215815 H 0.0 **** 0.06
22394 H 62.34982739306946 125.17667251939115 122.35538294107725 H 0.0 **** 0.06
22395 H 61.42692588306079 125.19768056068504 123.87758845323818 H 0.0 **** 0.06
22396 C 12.074105285739243 56.73136320635106 41.94501376825815 C 0.0 **** -0.24
22397 H 11.790112190024182 57.135909829506446 40.9737719823608 H 0.0 **** 0.06
22398 H 11.379729820837234 57.08949360786433 42.70455703554617 H 0.0 **** 0.06
22399 H 13.084226135831969 57.05652069736777 42.19252360697715 H 0.0 **** 0.06
22400 H 12.041838716875745 55.641821537089186 41.90700667863074 H 0.0 **** 0.06
22401 C 42.26815733363928 49.641354175064095 91.30586117366 C 0.0 **** -0.24
22402 H 42.28478397705668 48.89167989131235 92.09595461312578 H 0.0 **** 0.06
22403 H 42.650793531109755 49.20563997828741 90.38264810739574 H 0.0 **** 0.06
22404 H 42.89275173861752 50.48689787125036 91.59451384956226 H 0.0 **** 0.06
22405 H 41.244942052498274 49.98245903403058 91.15034070755779 H 0.0 **** 0.06
22406 C 32.18286628730007 150.89696410449181 15.409124499306927 C 0.0 **** -0.24
22407 H 33.13994956425901 150.6031679887868 15.841054053743505 H 0.0 **** 0.06
22408 H 31.576325723843027 151.38670052937346 16.170736237523556 H 0.0 **** 0.06
22409 H 31.662647127938925 150.01231602581313 15.04325233402119 H 0.0 **** 0.06
22410 H 32.35426476579592 151.5857657653663 14.581294481735938 H 0.0 **** 0.06
22411 C 8.227454994827553 72.98031278347045 51.87713488402001 C 0.0 **** -0.24
22412 H 7.5883802550465305 73.7135245498722 52.36855286730865 H 0.0 **** 0.06
22413 H 7.647772554837985 72.43206613154136 51.13570822516358 H 0.0 **** 0.06
22414 H 8.619585239981632 72.28493334703403 52.6194622982772 H 0.0 **** 0.06
22415 H 9.05565904964405 73.49126632038958 51.38630681694258 H 0.0 **** 0.06
22416 C 89.23778692408277 7.94299000934064 56.14430015574693 C 0.0 **** -0.24
22417 H 89.52241762739125 8.9202614579389 56.5325919385904 H 0.0 **** 0.06
22418 H 89.06431365890327 8.01390239905966 55.07089151729235 H 0.0 **** 0.06
22419 H 88.32623551881485 7.606922284993871 56.63915489434804 H 0.0 **** 0.06
22420 H 90.0392068650546 7.229044414812385 56.33670719036152 H 0.0 **** 0.06
22421 C 88.08641231200208 31.40804619187906 47.02169161720997 C 0.0 **** -0.24
22422 H 87.9076436744663 30.87023544045538 47.953461483105116 H 0.0 **** 0.06
22423 H 89.14253127015411 31.668838936743917 46.94913419283205 H 0.0 **** 0.06
22424 H 87.48565643964098 32.31809177894574 47.00823351866575 H 0.0 **** 0.06
22425 H 87.80803631413558 30.776001907693356 46.17891378771293 H 0.0 **** 0.06
22426 C 149.47121035512401 105.84836407853027 93.91467088681041 C 0.0 **** -0.24
22427 H 149.3101579974197 105.5393961903788 94.94789239292146 H 0.0 **** 0.06
22428 H 150.49000316075194 106.2184610698273 93.80078453956183 H 0.0 **** 0.06
22429 H 148.76659313130074 106.64011378772028 93.65790703554899 H 0.0 **** 0.06
22430 H 149.3175780860733 104.99668682403859 93.25264473706306 H 0.0 **** 0.06
22431 C 92.86704678592469 136.7996778334193 17.33144336305878 C 0.0 **** -0.24
22432 H 93.47588524264472 135.9410192568537 17.614835070201877 H 0.0 **** 0.06
22433 H 92.70708333091895 137.4350343830779 18.20343560435535 H 0.0 **** 0.06
22434 H 91.90480069227247 136.45400906954512 16.952593446867525 H 0.0 **** 0.06
22435 H 93.3802978617762 137.36922568253303 16.556538041180204 H 0.0 **** 0.06
22436 C 94.68035653707625 71.72100418280985 86.81096770207705 C 0.0 **** -0.24
22437 H 93.61245806791214 71.79832324405825 87.01172438909293 H 0.0 **** 0.06
22438 H 95.17238224450927 71.22412412051511 87.64707390129684 H 0.0 **** 0.06
22439 H 95.09923904889558 72.71962819323613 86.68384090211003 H 0.0 **** 0.06
22440 H 94.83842962688917 71.14291243755343 85.90029129596974 H 0.0 **** 0.06
22441 C 66.79364256388375 80.36593633300245 5.296321066652354 C 0.0 **** -0.24
22442 H 67.00447720847448 79.37391145217157 5.695492775349862 H 0.0 **** 0.06
22443 H 66.63756889124758 81.06270808570889 6.1208729798605646 H 0.0 **** 0.06
22444 H 65.89666694463784 80.32611557523586 4.678309969377352 H 0.0 **** 0.06
22445 H 67.63683846675053 80.70111414105767 4.692032071202448 H 0.0 **** 0.06
22446 C 26.14789490706751 65.07013940909792 34.76053539665841 C 0.0 **** -0.24
22447 H 26.573710597696618 65.16047738995326 33.760771550858436 H 0.0 **** 0.06
22448 H 25.104565018929527 64.76351573610549 34.683585081946575 H 0.0 **** 0.06
22449 H 26.207192008131813 66.03259814746394 35.26806833157207 H 0.0 **** 0.06
22450 H 26.706016236531212 64.32495345504572 35.32625008206992 H 0.0 **** 0.06
22451 C 110.98483255124198 95.15829294108721 106.3389105665674 C 0.0 **** -0.24
22452 H 112.02055417981914 95.01601783100773 106.65023231359227 H 0.0 **** 0.06
22453 H 110.95347977868012 95.37784551337018 105.27257558981155 H 0.0 **** 0.06
22454 H 110.55013797461508 95.98930030637248 106.89423754146746 H 0.0 **** 0.06
22455 H 110.41796889857083 94.25022524124483 106.54105724590134 H 0.0 **** 0.06
22456 C 105.71093949988331 21.740254579295424 52.8937684673848 C 0.0 **** -0.24
22457 H 106.02171165722079 22.407340275778438 53.697879786354406 H 0.0 **** 0.06
22458 H 104.6298582206203 21.80120325300345 52.76890776140817 H 0.0 **** 0.06
22459 H 105.99237742279992 20.71668093387632 53.14118988893853 H 0.0 **** 0.06
22460 H 106.20169830872617 22.038053458746163 51.966520749922836 H 0.0 **** 0.06
22461 C 124.8753061592513 15.233926366746879 98.77083692944211 C 0.0 **** -0.24
22462 H 124.18944668463143 14.385820250214081 98.75358791454858 H 0.0 **** 0.06
22463 H 125.46623955784924 15.204018865667578 99.68603959417703 H 0.0 **** 0.06
22464 H 124.30494518385876 16.162239131002956 98.73614620572152 H 0.0 **** 0.06
22465 H 125.53838271434654 15.182614540627604 97.90727671288812 H 0.0 **** 0.06
22466 C 149.6009345217276 133.3046112043207 124.98540425655352 C 0.0 **** -0.24
22467 H 149.78127159346027 133.3343986616435 123.91084950309454 H 0.0 **** 0.06
22468 H 148.85771926429368 132.53781705747144 125.2069748591756 H 0.0 **** 0.06
22469 H 149.23332841144855 134.2740731337205 125.31957029189863 H 0.0 **** 0.06
22470 H 150.53134793374704 133.06974095987877 125.50381873397117 H 0.0 **** 0.06
22471 C 72.08894765048888 79.91540600796844 82.23734108800835 C 0.0 **** -0.24
22472 H 71.32929998422324 80.25321343061427 82.94209227196455 H 0.0 **** 0.06
22473 H 71.72487178075384 80.05060771066559 81.21846034950947 H 0.0 **** 0.06
22474 H 72.30110530965149 78.86046416995438 82.41089083554505 H 0.0 **** 0.06
22475 H 72.9997684647556 80.49694437287047 82.37905642867794 H 0.0 **** 0.06
22476 C 7.009168309197946 86.25433496942117 9.799607495811259 C 0.0 **** -0.24
22477 H 7.59629146551066 86.89332831206684 10.459266180916146 H 0.0 **** 0.06
22478 H 5.947816607185871 86.44785384873859 9.955888290577747 H 0.0 **** 0.06
22479 H 7.224172685561712 85.20872851344478 10.020562097922294 H 0.0 **** 0.06
22480 H 7.269272630101739 86.46695770630949 8.762658130669138 H 0.0 **** 0.06
22481 C 64.49058512769484 94.3482647686086 54.808493809915205 C 0.0 **** -0.24
22482 H 64.67599208391196 94.39696902270825 55.88204300060481 H 0.0 **** 0.06
22483 H 64.23228312918913 95.34079527074778 54.43963754508431 H 0.0 **** 0.06
22484 H 63.66671072482353 93.66167192300406 54.61393558873554 H 0.0 **** 0.06
22485 H 65.38745784179535 93.99302470906565 54.301297105637005 H 0.0 **** 0.06
22486 C 53.83686848750369 143.38649658184983 28.747797904243782 C 0.0 **** -0.24
22487 H 52.98103368378304 143.9198208902465 28.33326242658285 H 0.0 **** 0.06
22488 H 54.436655535812235 142.97494356832476 27.935433259595413 H 0.0 **** 0.06
22489 H 53.48560993897058 142.5777059299632 29.387920359608643 H 0.0 **** 0.06
22490 H 54.44433335290785 144.07651160653177 29.33460913367034 H 0.0 **** 0.06
22491 C 146.99580924740934 57.748641648729105 44.97009067092269 C 0.0 **** -0.24
22492 H 146.8065360200852 56.74844406930296 45.358461736272204 H 0.0 **** 0.06
22493 H 146.16069216997184 58.05816773389364 44.34045840406593 H 0.0 **** 0.06
22494 H 147.91225765628212 57.74098023464839 44.37901510309682 H 0.0 **** 0.06
22495 H 147.10414429389104 58.44635180669651 45.79951919206674 H 0.0 **** 0.06
22496 C 42.42933377490941 62.20193492389842 36.48716259920229 C 0.0 **** -0.24
22497 H 41.67702716877616 61.422511643587086 36.6104703850385 H 0.0 **** 0.06
22498 H 42.21974801218475 62.76816947885031 35.57911582712586 H 0.0 **** 0.06
22499 H 43.41588122736283 61.74535404564212 36.41149440190685 H 0.0 **** 0.06
22500 H 42.40232502684702 62.87103829262885 37.34744098074344 H 0.0 **** 0.06
22501 C 121.88708699968834 54.76976904790487 88.00681698489713 C 0.0 **** -0.24
22502 H 122.75551356392765 54.39847264913317 87.46234754598598 H 0.0 **** 0.06
22503 H 121.19590832806051 55.242252546400564 87.30824981799336 H 0.0 **** 0.06
22504 H 122.20875325487822 55.50027267632298 88.7495786983082 H 0.0 **** 0.06
22505 H 121.38863568696627 53.93886397115648 88.50561924930105 H 0.0 **** 0.06
22506 C 107.99488895224226 148.00879348824063 83.74385210900596 C 0.0 **** -0.24
22507 H 108.06114228627519 149.0506413658937 84.05558136834814 H 0.0 **** 0.06
22508 H 108.98418642001911 147.55199556487793 83.79030525806706 H 0.0 **** 0.06
22509 H 107.61928879085235 147.95846776983632 82.7215470997908 H 0.0 **** 0.06
22510 H 107.31586089452645 147.4730713885955 84.40619896439091 H 0.0 **** 0.06
22511 C 23.257285348592497 58.79239348601186 67.70858128115987 C 0.0 **** -0.24
22512 H 22.188972467588115 58.6004009758135 67.81554942589099 H 0.0 **** 0.06
22513 H 23.438826517701557 59.86681058117597 67.75686617872333 H 0.0 **** 0.06
22514 H 23.601903387238686 58.4068156368088 66.7493603565012 H 0.0 **** 0.06
22515 H 23.79667417806415 58.29623911885005 68.51497335829805 H 0.0 **** 0.06
22516 C 7.432878871873186 17.276585466661714 17.717289624302225 C 0.0 **** -0.24
22517 H 7.703791350639449 16.468676449741935 17.036882281878746 H 0.0 **** 0.06
22518 H 8.038693748750745 18.155455132859515 17.496846631354373 H 0.0 **** 0.06
22519 H 7.609673725798416 16.96075593227738 18.744878996681308 H 0.0 **** 0.06
22520 H 6.37866774695533 17.52058844500641 17.588607454805526 H 0.0 **** 0.06
22521 C 142.81195143947994 87.22255619934458 35.777141546939916 C 0.0 **** -0.24
22522 H 143.29112358445366 86.26547319167423 35.57090662161497 H 0.0 **** 0.06
22523 H 141.73413608566545 87.12606275419492 35.637417433490654 H 0.0 **** 0.06
22524 H 143.20026682554845 87.97792959800634 35.09374497789787 H 0.0 **** 0.06
22525 H 143.02046377335495 87.5194707289784 36.804486185447274 H 0.0 **** 0.06
22526 C 5.254818842612281 81.4699155890685 57.0351063791349 C 0.0 **** -0.24
22527 H 5.863122874439625 81.12091480089016 56.200945536505515 H 0.0 **** 0.06
22528 H 5.670255730342376 81.09528675225528 57.97055979589658 H 0.0 **** 0.06
22529 H 4.234548220608758 81.10401698553127 56.91803906909553 H 0.0 **** 0.06
22530 H 5.249930656921379 82.56050088221869 57.04951276919215 H 0.0 **** 0.06
22531 C 97.1435018015028 148.02273025469313 38.95610903687901 C 0.0 **** -0.24
22532 H 98.21164145599201 148.23586954661255 39.00227183755527 H 0.0 **** 0.06
22533 H 96.87042342730196 147.75427035338382 37.93518534684716 H 0.0 **** 0.06
22534 H 96.58320609873915 148.905717683782 39.26275962194171 H 0.0 **** 0.06
22535 H 96.90964432107624 147.19477700802682 39.624524876444355 H 0.0 **** 0.06
22536 C 18.40571822049003 135.861566226452 95.3877731229706 C 0.0 **** -0.24
22537 H 18.546367022083615 135.68224560272955 96.45345163149017 H 0.0 **** 0.06
22538 H 18.47290455271053 134.9162899744236 94.84892668342 H 0.0 **** 0.06
22539 H 19.18023795050783 136.53936893603523 95.0292465030613 H 0.0 **** 0.06
22540 H 17.426154084727557 136.30768017644525 95.22033337348118 H 0.0 **** 0.06
22541 C 83.73531121076924 94.7748020310064 110.57719603526688 C 0.0 **** -0.24
22542 H 82.77246044616615 95.11355176743672 110.96074227697717 H 0.0 **** 0.06
22543 H 83.93135642137472 95.25186027337867 109.61737972335028 H 0.0 **** 0.06
22544 H 83.71384093176998 93.69261275854984 110.44885634702793 H 0.0 **** 0.06
22545 H 84.52192535304702 95.04093321929986 111.28328105437059 H 0.0 **** 0.06
22546 C 72.67621736968721 93.71622597336328 49.16733196665565 C 0.0 **** -0.24
22547 H 72.42656913216122 94.25740567040314 48.25477459340627 H 0.0 **** 0.06
22548 H 73.71995149523444 93.89760381802077 49.423401909278226 H 0.0 **** 0.06
22549 H 72.5197078993107 92.64848561279827 49.01085829482304 H 0.0 **** 0.06
22550 H 72.03671676263234 94.06133548686633 49.97975246608455 H 0.0 **** 0.06
22551 C 111.5464358042474 50.19719518625183 78.16366168434098 C 0.0 **** -0.24
22552 H 111.72912492330165 50.881837853156824 77.33597771976861 H 0.0 **** 0.06
22553 H 111.83044249364532 50.676855473644565 79.10081370454031 H 0.0 **** 0.06
22554 H 112.13677078771211 49.291989229348644 78.02400699954188 H 0.0 **** 0.06
22555 H 110.48765773694457 49.939328434272525 78.19450686320198 H 0.0 **** 0.06
22556 C 62.30874715452882 31.31494955684937 101.71993024701176 C 0.0 **** -0.24
22557 H 61.81702078231859 32.28707948837851 101.68908820161487 H 0.0 **** 0.06
22558 H 63.29844929117013 31.422269095596107 102.16499754674076 H 0.0 **** 0.06
22559 H 62.40554424011526 30.92525031269531 100.70640742725872 H 0.0 **** 0.06
22560 H 61.71309787926219 30.626149175851282 102.3186535841479 H 0.0 **** 0.06
22561 C 0.7139660577089444 8.488375340866106 59.33064024235949 C 0.0 **** -0.24
22562 H -0.06386523749978323 8.157521127936576 60.01839936981878 H 0.0 **** 0.06
22563 H 0.7003692688022625 9.57676822384343 59.26341100920439 H 0.0 **** 0.06
22564 H 0.5330483617565278 8.060845898199453 58.34463769603144 H 0.0 **** 0.06
22565 H 1.6861278024647959 8.15935072998571 59.697111256266226 H 0.0 **** 0.06
22566 C 43.46173762436757 108.81004535023256 89.15121614010066 C 0.0 **** -0.24
22567 H 43.865988506527955 108.48371166874098 90.10986062582629 H 0.0 **** 0.06
22568 H 43.90584254748872 109.76805944955181 88.87685224810785 H 0.0 **** 0.06
22569 H 42.38020224653148 108.91979258646678 89.23134381538755 H 0.0 **** 0.06
22570 H 43.69645611523434 108.06909561573359 88.38744302536927 H 0.0 **** 0.06
22571 C 100.43522337130196 51.2935291828266 120.95896474033697 C 0.0 **** -0.24
22572 H 100.89870245123615 51.328219039646 119.97304718513544 H 0.0 **** 0.06
22573 H 101.04187622865464 50.67976319710681 121.62464956744009 H 0.0 **** 0.06
22574 H 99.43632922183161 50.863923183148074 120.87572489058044 H 0.0 **** 0.06
22575 H 100.36294189546436 52.30396025866838 121.36151424639917 H 0.0 **** 0.06
22576 C 143.25208404259706 59.95229871308902 121.79238789037002 C 0.0 **** -0.24
22577 H 144.2771601924572 60.175993003583756 122.08660787461939 H 0.0 **** 0.06
22578 H 142.7406739976605 59.44423027620661 122.61063048032001 H 0.0 **** 0.06
22579 H 143.25888069342273 59.30850535401828 120.91232845072047 H 0.0 **** 0.06
22580 H 142.73012780409599 60.880828254815924 121.55918567093188 H 0.0 **** 0.06
22581 C 21.791640839852278 16.080008722778075 153.42133128496994 C 0.0 **** -0.24
22582 H 21.602473266060883 16.57140254451923 152.4670779622654 H 0.0 **** 0.06
22583 H 22.23437884402466 16.794322728415437 154.11582264389398 H 0.0 **** 0.06
22584 H 22.47882224592672 15.246575534584053 153.2700879077384 H 0.0 **** 0.06
22585 H 20.853279798250753 15.707290970918905 153.8320400683603 H 0.0 **** 0.06
22586 C 95.26673328916142 149.03705452953918 106.72876463027676 C 0.0 **** -0.24
22587 H 95.0711961522291 147.96710604781717 106.79915029349614 H 0.0 **** 0.06
22588 H 94.32122905919606 149.5779653516593 106.69558496144752 H 0.0 **** 0.06
22589 H 95.83550622086068 149.24302585666166 105.82184796038224 H 0.0 **** 0.06
22590 H 95.83991063336472 149.35910076019775 107.59811014582304 H 0.0 **** 0.06
22591 C 67.80686331141372 97.17664031301283 31.870374235339256 C 0.0 **** -0.24
22592 H 67.24293631625937 96.82703917667106 31.006938085803114 H 0.0 **** 0.06
22593 H 67.80258158875928 96.40768780201645 32.64398229386872 H 0.0 **** 0.06
22594 H 67.34913962419087 98.0867511545494 32.25964662559403 H 0.0 **** 0.06
22595 H 68.83442464461513 97.3858477203076 31.572257392426465 H 0.0 **** 0.06
22596 C 17.863081370145224 119.04738526396035 43.91767182095501 C 0.0 **** -0.24
22597 H 16.843276608726455 118.97375609917718 44.295470269145895 H 0.0 **** 0.06
22598 H 17.84800774004998 119.45723811913287 42.90753019236317 H 0.0 **** 0.06
22599 H 18.31701443171695 118.05723334721942 43.90168485151594 H 0.0 **** 0.06
22600 H 18.443889798585055 119.70271404208283 44.56701182740109 H 0.0 **** 0.06
22601 C 101.37804325313567 146.52205399517507 132.60352413347448 C 0.0 **** -0.24
22602 H 101.08084661437772 147.13155623797215 133.4562385095676 H 0.0 **** 0.06
22603 H 102.46578426445365 146.44532383151517 132.57468485720466 H 0.0 **** 0.06
22604 H 101.02147303761382 146.98435704700415 131.68346912597195 H 0.0 **** 0.06
22605 H 100.94646118694362 145.52615938171462 132.70160316603713 H 0.0 **** 0.06
22606 C 155.31532733695008 62.33519727487368 29.061448100047073 C 0.0 **** -0.24
22607 H 155.09775913775792 63.362207330592526 28.767662285598362 H 0.0 **** 0.06
22608 H 155.66800058887247 61.776314990528135 28.193978286478114 H 0.0 **** 0.06
22609 H 154.40964268282443 61.86919173791921 29.449396308265193 H 0.0 **** 0.06
22610 H 156.0848296853489 62.332912473335455 29.83340897034452 H 0.0 **** 0.06
22611 C 68.60867920238553 19.76799487598325 39.52013197116973 C 0.0 **** -0.24
22612 H 68.85511855247083 20.33211122975132 40.41966521556729 H 0.0 **** 0.06
22613 H 69.36114703099719 18.99608683876781 39.357950504268544 H 0.0 **** 0.06
22614 H 68.58804808059236 20.441695435791814 38.66383671526563 H 0.0 **** 0.06
22615 H 67.62971516675175 19.30214827486995 39.63979852606748 H 0.0 **** 0.06
22616 C 5.264180897438337 15.614187791488177 91.45830122653868 C 0.0 **** -0.24
22617 H 6.020097809853269 15.271914973952136 92.16498475289734 H 0.0 **** 0.06
22618 H 4.908294657971169 16.600915611330578 91.75530775527523 H 0.0 **** 0.06
22619 H 4.4302709822389374 14.913349439136056 91.45065396333504 H 0.0 **** 0.06
22620 H 5.6999545765323205 15.6706012189521 90.45953619982168 H 0.0 **** 0.06
22621 C 29.438845641408925 34.909381532250585 122.19415960145231 C 0.0 **** -0.24
22622 H 29.09973499436078 35.92375806612803 121.98558379573596 H 0.0 **** 0.06
22623 H 29.287792503383344 34.287337378713644 121.31125092550302 H 0.0 **** 0.06
22624 H 28.870145135512267 34.50067323032796 123.02910385892069 H 0.0 **** 0.06
22625 H 30.49802116858664 34.92663760373239 122.45034135566881 H 0.0 **** 0.06
22626 C 62.109817667253935 40.941596301772094 150.72071182527878 C 0.0 **** -0.24
22627 H 61.46179130375447 40.60680889445864 149.91026076594437 H 0.0 **** 0.06
22628 H 61.63130167142691 41.764668313056376 151.25127527219317 H 0.0 **** 0.06
22629 H 63.06124932072481 41.27806134731523 150.30839427307495 H 0.0 **** 0.06
22630 H 62.28450853702344 40.115634293337536 151.41083033736635 H 0.0 **** 0.06
22631 C 149.33902129599088 94.29593792545165 6.1558045185304024 C 0.0 **** -0.24
22632 H 148.7029590845719 95.17925657981685 6.093420953478869 H 0.0 **** 0.06
22633 H 149.0783080506394 93.60364621817585 5.355281898025964 H 0.0 **** 0.06
22634 H 149.19176696863752 93.80930203824526 7.119828552936696 H 0.0 **** 0.06
22635 H 150.3828618538061 94.59255552981293 6.053713604961558 H 0.0 **** 0.06
22636 C 40.86810972678903 120.16021311499141 143.11812009900058 C 0.0 **** -0.24
22637 H 41.398204967094145 121.10643656714733 143.22445857307065 H 0.0 **** 0.06
22638 H 40.18079798304608 120.03301562083745 143.9551930189998 H 0.0 **** 0.06
22639 H 41.585781261057804 119.34017995189059 143.1103848581999 H 0.0 **** 0.06
22640 H 40.30715034087852 120.16110552748323 142.18376019559844 H 0.0 **** 0.06
22641 C 36.406253894467085 42.491700412948745 110.93744216534391 C 0.0 **** -0.24
22642 H 35.48772840515001 42.16724411596263 111.4272163295182 H 0.0 **** 0.06
22643 H 36.76049838575382 43.41025179984899 111.40394599210161 H 0.0 **** 0.06
22644 H 36.20917573749131 42.67191678842936 109.8800122746065 H 0.0 **** 0.06
22645 H 37.165148534697934 41.71569935405016 111.03886189655337 H 0.0 **** 0.06
22646 C 110.75579912390312 43.86046219041964 100.24645218638847 C 0.0 **** -0.24
22647 H 111.05383691175622 43.30261384638658 101.13425981030946 H 0.0 **** 0.06
22648 H 111.64153207678207 44.1139919798631 99.66305824814589 H 0.0 **** 0.06
22649 H 110.2447361970405 44.7741713673546 100.54725086433302 H 0.0 **** 0.06
22650 H 110.08335630163246 43.250416002959014 99.64246459986038 H 0.0 **** 0.06
22651 C 136.32784410994924 47.70464987013497 44.37350774724666 C 0.0 **** -0.24
22652 H 136.25187368678257 46.994053616757 45.196549745583894 H 0.0 **** 0.06
22653 H 136.71769869058528 47.19654735964956 43.49043471700183 H 0.0 **** 0.06
22654 H 137.00243639384325 48.51368177583872 44.65496879383187 H 0.0 **** 0.06
22655 H 135.34259401359967 48.11322115606853 44.15325707242458 H 0.0 **** 0.06
22656 C 152.2755244134006 103.9622930444894 96.42210906754718 C 0.0 **** -0.24
22657 H 153.2268116088248 103.8139832940185 96.93275723200577 H 0.0 **** 0.06
22658 H 151.76604019698317 104.82661319952359 96.8480541018863 H 0.0 **** 0.06
22659 H 151.65341233253235 103.0755002552267 96.54827490758913 H 0.0 **** 0.06
22660 H 152.45534089304397 104.13172274816691 95.36133188962629 H 0.0 **** 0.06
22661 C 71.64275224753334 93.28538545433744 68.01106098840816 C 0.0 **** -0.24
22662 H 71.54610712200557 94.30305998602589 67.6346265414688 H 0.0 **** 0.06
22663 H 72.41178610435668 92.75941350554903 67.44386863885437 H 0.0 **** 0.06
22664 H 70.69100785984978 92.76529666234283 67.90125229721093 H 0.0 **** 0.06
22665 H 71.92356746974201 93.3120140999752 69.0636128282 H 0.0 **** 0.06
22666 C 9.333127000004637 2.789679649664336 5.967848213455682 C 0.0 **** -0.24
22667 H 9.702748201058846 2.8704279573857825 4.945420434831078 H 0.0 **** 0.06
22668 H 9.199541411709973 1.7378679288469563 6.222982889401635 H 0.0 **** 0.06
22669 H 8.379219311440337 3.3096324400075474 6.05204361155387 H 0.0 **** 0.06
22670 H 10.054322812927978 3.240924617006282 6.649978905267687 H 0.0 **** 0.06
22671 C 138.23393482239234 146.13774821583456 135.906968990162 C 0.0 **** -0.24
22672 H 138.99654967075497 146.23276315711564 136.67970142300612 H 0.0 **** 0.06
22673 H 138.69765664059335 145.80657466420143 134.9770072318206 H 0.0 **** 0.06
22674 H 137.75370857426424 147.10447069130447 135.7497330674948 H 0.0 **** 0.06
22675 H 137.48774417738525 145.40809559733913 136.22035569375618 H 0.0 **** 0.06
22676 C 50.33145207439793 77.73703464435297 33.642575425535455 C 0.0 **** -0.24
22677 H 49.339886407599636 77.6883450346055 34.093768904498575 H 0.0 **** 0.06
22678 H 50.60283260391424 76.75461216511309 33.25516946659864 H 0.0 **** 0.06
22679 H 51.057517387352505 78.04335628664157 34.395570034202834 H 0.0 **** 0.06
22680 H 50.3250300727218 78.46035712529628 32.82767789133955 H 0.0 **** 0.06
22681 C 39.12044182569497 59.94187143955304 15.911782167893449 C 0.0 **** -0.24
22682 H 38.64742556498089 58.969776015040836 15.77741799718396 H 0.0 **** 0.06
22683 H 39.46830762744514 60.313185873440005 14.94789906219188 H 0.0 **** 0.06
22684 H 39.96730456243563 59.843609017020555 16.59159515762002 H 0.0 **** 0.06
22685 H 38.397891135022746 60.641940211224664 16.332277012520137 H 0.0 **** 0.06
22686 C 9.069196903136856 72.11799999550287 101.88789677713403 C 0.0 **** -0.24
22687 H 8.751401167105968 71.14659094145246 101.50993120868422 H 0.0 **** 0.06
22688 H 8.27307212562988 72.54974481015195 102.49414541709181 H 0.0 **** 0.06
22689 H 9.287127104707054 72.77954404440396 101.05012918798484 H 0.0 **** 0.06
22690 H 9.965173915542607 71.99531380672626 102.49679001807782 H 0.0 **** 0.06
22691 C 72.87871036816534 48.580022237350505 11.540857047609613 C 0.0 **** -0.24
22692 H 72.07761958513859 48.406771740486036 12.260011079215396 H 0.0 **** 0.06
22693 H 73.64240507659093 47.810838069037914 11.65653238452176 H 0.0 **** 0.06
22694 H 73.32005667723095 49.560133349463115 11.718295135275177 H 0.0 **** 0.06
22695 H 72.47289908221433 48.54073822770093 10.530307881981223 H 0.0 **** 0.06
22696 C 126.22427837569535 30.6745860142062 19.947012852324576 C 0.0 **** -0.24
22697 H 125.61005756748392 31.505717714447798 20.295323931492817 H 0.0 **** 0.06
22698 H 126.65932930707453 30.160006681260484 20.804406287984307 H 0.0 **** 0.06
22699 H 127.02191465581592 31.055513045137047 19.308808613770566 H 0.0 **** 0.06
22700 H 125.60625525280943 29.97831388310712 19.380100856312595 H 0.0 **** 0.06
22701 C 116.27112476440497 36.06082274474403 27.993762099609057 C 0.0 **** -0.24
22702 H 115.47980135050487 35.42076272499864 27.603409564788564 H 0.0 **** 0.06
22703 H 117.16644701907582 35.94468174336971 27.382564899783148 H 0.0 **** 0.06
22704 H 116.49337335506893 35.77657240393768 29.022446690705863 H 0.0 **** 0.06
22705 H 115.943550877672 37.09990032630502 27.96546388311208 H 0.0 **** 0.06
22706 C 6.86216805930809 97.70012439875958 27.106319426929986 C 0.0 **** -0.24
22707 H 7.000476533403372 98.6125528218161 26.527039890667652 H 0.0 **** 0.06
22708 H 5.865884778683352 97.6987245573225 27.548311882711175 H 0.0 **** 0.06
22709 H 7.611991292142477 97.65403122913024 27.89637336476187 H 0.0 **** 0.06
22710 H 6.970915705087691 96.83458985327164 26.451482328078555 H 0.0 **** 0.06
22711 C 92.08837257971483 117.60200575155966 16.411046531996604 C 0.0 **** -0.24
22712 H 92.47610853048936 118.07705263245953 15.509789648505695 H 0.0 **** 0.06
22713 H 91.15440483434304 118.08292466900161 16.702741466519626 H 0.0 **** 0.06
22714 H 92.81710101892523 117.70257999544651 17.215948628243716 H 0.0 **** 0.06
22715 H 91.90701172289133 116.54531979421347 16.214876469074234 H 0.0 **** 0.06
22716 C 44.955250424511405 32.92211517311995 126.02524881448643 C 0.0 **** -0.24
22717 H 45.267448108638916 33.89076851140754 126.41439526208661 H 0.0 **** 0.06
22718 H 44.78089836318469 32.237081411869326 126.85489197372534 H 0.0 **** 0.06
22719 H 45.73631999018198 32.52086237433707 125.37973569687942 H 0.0 **** 0.06
22720 H 44.03527119023988 33.040564804849964 125.45152360889442 H 0.0 **** 0.06
22721 C 62.823677626658196 28.130433977236642 146.8305573305253 C 0.0 **** -0.24
22722 H 63.270083708720676 27.37741820746941 147.48014453564934 H 0.0 **** 0.06
22723 H 63.444201447514274 28.259752615376982 145.94378873071685 H 0.0 **** 0.06
22724 H 62.753078039565764 29.077131013485847 147.36636988902166 H 0.0 **** 0.06
22725 H 61.826777298502975 27.806274225436646 146.53250054077995 H 0.0 **** 0.06
22726 C 94.14132794882127 40.270327433077455 54.74535978598631 C 0.0 **** -0.24
22727 H 93.97925994580369 40.93760802861313 55.59157206673606 H 0.0 **** 0.06
22728 H 95.04872957292234 39.689096054361954 54.909509259591246 H 0.0 **** 0.06
22729 H 94.24451092092613 40.857842582558845 53.833233213362305 H 0.0 **** 0.06
22730 H 93.2902105653746 39.59473804618382 54.64819023657064 H 0.0 **** 0.06
22731 C 38.52118467816993 87.75037187809495 50.77014723842581 C 0.0 **** -0.24
22732 H 37.73307037658648 87.35695565222416 50.12931953790729 H 0.0 **** 0.06
22733 H 39.46545774068072 87.75177294495447 50.225290279966984 H 0.0 **** 0.06
22734 H 38.61501145959758 87.12261981666029 51.65723044226999 H 0.0 **** 0.06
22735 H 38.272428426489356 88.76839610985655 51.0699532807009 H 0.0 **** 0.06
22736 C 32.422095416496774 8.073600385768287 133.5609961479311 C 0.0 **** -0.24
22737 H 33.26797505149199 8.549223033797986 133.06418690347115 H 0.0 **** 0.06
22738 H 31.622884926279994 7.907265441455181 132.83888470121775 H 0.0 **** 0.06
22739 H 32.06082375294585 8.718630842079584 134.3608074427314 H 0.0 **** 0.06
22740 H 32.737977964122024 7.1174493712033 133.98015384679394 H 0.0 **** 0.06
22741 C 95.54319880438314 20.894382598842896 23.522111995860257 C 0.0 **** -0.24
22742 H 95.56667966620127 20.012874483843888 24.16181796115268 H 0.0 **** 0.06
22743 H 96.42445977687134 21.506692720187118 23.713869894481462 H 0.0 **** 0.06
22744 H 94.64478261752139 21.473400361994607 23.7351764149559 H 0.0 **** 0.06
22745 H 95.53646374061367 20.58491619290689 22.476276969736887 H 0.0 **** 0.06
22746 C 132.22310764886888 44.72605783763311 43.034322977473494 C 0.0 **** -0.24
22747 H 131.52896332988507 44.625959509539484 43.86923775601639 H 0.0 **** 0.06
22748 H 131.9803328724309 43.988308866050374 42.26906514007641 H 0.0 **** 0.06
22749 H 133.2419550711783 44.56280624555063 43.38696380022492 H 0.0 **** 0.06
22750 H 132.14143194631495 45.72801948062062 42.6124632476085 H 0.0 **** 0.06
22751 C 15.640497380734672 108.94920196875107 88.53852982522018 C 0.0 **** -0.24
22752 H 16.030489204171886 107.93442587938019 88.45897141813612 H 0.0 **** 0.06
22753 H 14.684588032172229 108.93200569732774 89.0610824490449 H 0.0 **** 0.06
22754 H 15.500954911562786 109.36261531854721 87.53963394727977 H 0.0 **** 0.06
22755 H 16.34785527106203 109.56726419497936 89.09175724753791 H 0.0 **** 0.06
22756 C 59.72766353508595 111.8638703036906 54.00502381394392 C 0.0 **** -0.24
22757 H 59.32139171599704 112.87017591985536 53.90162218610678 H 0.0 **** 0.06
22758 H 59.81277969628263 111.61445975064511 55.06296960917517 H 0.0 **** 0.06
22759 H 60.71291664741557 111.821492433758 53.5405648853056 H 0.0 **** 0.06
22760 H 59.06337692058503 111.15175557009006 53.515377439295875 H 0.0 **** 0.06
22761 C 11.893070320421565 111.34691140753182 60.40167300444223 C 0.0 **** -0.24
22762 H 12.010976223385782 111.20745556835953 59.32733464054233 H 0.0 **** 0.06
22763 H 12.87125796726366 111.50691695750078 60.85584020134523 H 0.0 **** 0.06
22764 H 11.431897913720995 110.45957207674917 60.834781050038984 H 0.0 **** 0.06
22765 H 11.258121923711208 112.2133688253274 60.58779329420558 H 0.0 **** 0.06
22766 C 2.3918751761062254 51.62335685110577 156.7986387392521 C 0.0 **** -0.24
22767 H 2.180280117583692 50.554525562194726 156.80662935550825 H 0.0 **** 0.06
22768 H 1.4601172472042094 52.179108253078596 156.90516676967084 H 0.0 **** 0.06
22769 H 2.870189006311591 51.89171819110513 155.85677954832406 H 0.0 **** 0.06
22770 H 3.0580492729590674 51.86779585147056 157.62677541844366 H 0.0 **** 0.06
22771 C 111.93123719886286 107.66633083263177 86.17440822139201 C 0.0 **** -0.24
22772 H 111.6533734062986 107.97547233080887 85.16751653441315 H 0.0 **** 0.06
22773 H 112.61538332728911 106.81869869324096 86.11905886692143 H 0.0 **** 0.06
22774 H 111.03680738627061 107.3751056479148 86.72476706840746 H 0.0 **** 0.06
22775 H 112.41949527083345 108.49546508191396 86.68709637478567 H 0.0 **** 0.06
22776 C 140.95195933536368 132.1229665018938 110.95932823561422 C 0.0 **** -0.24
22777 H 140.53279807507047 132.81219203660362 111.69287557191468 H 0.0 **** 0.06
22778 H 141.048996311725 132.62998699121954 109.9994580823922 H 0.0 **** 0.06
22779 H 140.29230646453243 131.26173967085313 110.85159654017578 H 0.0 **** 0.06
22780 H 141.9336742584287 131.78844243791818 111.29531952485051 H 0.0 **** 0.06
22781 C 109.29700101083985 131.6666361441419 114.80213276195978 C 0.0 **** -0.24
22782 H 109.37711214390644 131.45735636992873 113.73566999381482 H 0.0 **** 0.06
22783 H 110.242981371021 131.42958038796863 115.29037803004111 H 0.0 **** 0.06
22784 H 108.50246577648095 131.05922103561878 115.23313653231533 H 0.0 **** 0.06
22785 H 109.06753547827704 132.72192642252935 114.94784360555961 H 0.0 **** 0.06
22786 C 38.737962047779575 24.73448817644686 104.92536003690623 C 0.0 **** -0.24
22787 H 39.0034428309318 23.745078415623425 105.29840958523425 H 0.0 **** 0.06
22788 H 39.468521637239775 25.462607074154647 105.27843261045518 H 0.0 **** 0.06
22789 H 37.748088358454396 25.006284471483156 105.28916281079682 H 0.0 **** 0.06
22790 H 38.73475689218439 24.72251666015157 103.83515175380148 H 0.0 **** 0.06
22791 C 106.60088238920189 46.05870010345035 103.00132603395826 C 0.0 **** -0.24
22792 H 107.15867397461325 46.00972188644073 103.93694795500653 H 0.0 **** 0.06
22793 H 105.95367629711272 46.9360552349665 103.0096889290773 H 0.0 **** 0.06
22794 H 105.99390112511706 45.15879906207283 102.89405261849606 H 0.0 **** 0.06
22795 H 107.29739991871013 46.12791022951201 102.16652011692122 H 0.0 **** 0.06
22796 C 142.78002925151839 17.32718076058427 45.34924137530652 C 0.0 **** -0.24
22797 H 141.92205699852192 17.222196434245348 46.01235489113108 H 0.0 **** 0.06
22798 H 143.1418805028775 16.33916559599453 45.06445657744477 H 0.0 **** 0.06
22799 H 143.5722853261282 17.870128542856037 45.86408666307372 H 0.0 **** 0.06
22800 H 142.48389417854568 17.877232469241164 44.45606736957653 H 0.0 **** 0.06
22801 C 23.647808171803135 68.53749479047181 43.42111005306741 C 0.0 **** -0.24
22802 H 22.88557511483217 69.2111687219824 43.81288279213216 H 0.0 **** 0.06
22803 H 23.73936569130541 68.68093400396258 42.34465193903257 H 0.0 **** 0.06
22804 H 23.360445132863887 67.50634010037805 43.62799934277068 H 0.0 **** 0.06
22805 H 24.602886857788206 68.75196239392041 43.89993465593635 H 0.0 **** 0.06
22806 C 4.0095742507684236 135.199406525744 92.70156663906151 C 0.0 **** -0.24
22807 H 4.48641070569488 134.78911231408765 91.81060066169317 H 0.0 **** 0.06
22808 H 3.072945635417682 135.68167172540223 92.42240400754307 H 0.0 **** 0.06
22809 H 4.672181160859253 135.93197954983276 93.162544427797 H 0.0 **** 0.06
22810 H 3.807875261893088 134.39505700819188 93.40878939996071 H 0.0 **** 0.06
22811 C 155.49538515506455 74.19518533774546 87.26822195569733 C 0.0 **** -0.24
22812 H 156.09642271954067 75.10065103864731 87.18763432896938 H 0.0 **** 0.06
22813 H 154.46760824914327 74.41539629235285 86.98116549876482 H 0.0 **** 0.06
22814 H 155.51716943645604 73.8368442978877 88.29811314544132 H 0.0 **** 0.06
22815 H 155.9016469164205 73.4294313273808 86.60816376472613 H 0.0 **** 0.06
22816 C 40.53023496928836 50.8613194514806 68.65076155522931 C 0.0 **** -0.24
22817 H 41.27623932047405 51.4114924027439 69.22411476025617 H 0.0 **** 0.06
22818 H 40.29561849259113 49.927314015390266 69.1618296930938 H 0.0 **** 0.06
22819 H 40.92417615612072 50.64222358685609 67.65826670943397 H 0.0 **** 0.06
22820 H 39.626737708990504 51.46309843237026 68.55826618233944 H 0.0 **** 0.06
22821 C 154.30056781720805 63.53029309324832 76.95410124961927 C 0.0 **** -0.24
22822 H 153.63577570444238 62.84707139262292 77.48147510690904 H 0.0 **** 0.06
22823 H 155.10569778034315 62.96488542048607 76.48561266458319 H 0.0 **** 0.06
22824 H 154.7204756555556 64.24572012716808 77.66051628874507 H 0.0 **** 0.06
22825 H 153.7376846641219 64.06491422912669 76.18862461072405 H 0.0 **** 0.06
22826 C 14.451651834109384 72.46884737798203 126.09532198002547 C 0.0 **** -0.24
22827 H 15.060639278993278 72.54676399728237 125.19391862534657 H 0.0 **** 0.06
22828 H 14.401331726633487 73.44106347403999 126.5851264364412 H 0.0 **** 0.06
22829 H 14.89940413689169 71.74184774929303 126.77325936859826 H 0.0 **** 0.06
22830 H 13.446570620298132 72.14383371258184 125.8260385798426 H 0.0 **** 0.06
22831 C 2.564512078285645 45.01149103147836 62.2966929692127 C 0.0 **** -0.24
22832 H 2.180755869589234 46.02698637844469 62.395227466265794 H 0.0 **** 0.06
22833 H 2.702903930402698 44.77556864434948 61.24135605235335 H 0.0 **** 0.06
22834 H 1.854036760252427 44.311423175562055 62.73672649473454 H 0.0 **** 0.06
22835 H 3.5200117656281407 44.93298890183017 62.815431283211666 H 0.0 **** 0.06
22836 C 37.49246171051979 145.46333456808665 33.67981576124902 C 0.0 **** -0.24
22837 H 36.990711693912885 145.8943472406327 34.54615037711949 H 0.0 **** 0.06
22838 H 37.666077547626145 144.40047418874028 33.852891121900655 H 0.0 **** 0.06
22839 H 38.44675034396677 145.96735502391738 33.52641348098558 H 0.0 **** 0.06
22840 H 36.86646061377408 145.59061948890601 32.796754699091224 H 0.0 **** 0.06
22841 C 37.41546931932818 31.869172697536477 51.26090549177239 C 0.0 **** -0.24
22842 H 36.67060300997362 31.159191590751 51.62128127063232 H 0.0 **** 0.06
22843 H 37.958647117510935 31.43102318422931 50.42332172304394 H 0.0 **** 0.06
22844 H 38.11396266454308 32.10214373712194 52.06448697878538 H 0.0 **** 0.06
22845 H 36.91863834788394 32.78260419836645 50.93441729888147 H 0.0 **** 0.06
22846 C 70.21685446793701 94.00724088397043 75.69287640642344 C 0.0 **** -0.24
22847 H 69.41543310498822 94.69187558984706 75.41370116245467 H 0.0 **** 0.06
22848 H 69.96754794198422 93.52215870015391 76.63692631041033 H 0.0 **** 0.06
22849 H 71.14756400897755 94.56314418483828 75.80342015679457 H 0.0 **** 0.06
22850 H 70.33516406515737 93.25170066057511 74.91570492926186 H 0.0 **** 0.06
22851 C 95.67283846989758 95.63692310091676 133.3211004532974 C 0.0 **** -0.24
22852 H 96.51145309045506 95.43767057348848 132.65346309699072 H 0.0 **** 0.06
22853 H 95.55580607851115 96.7137162095032 133.4449701649022 H 0.0 **** 0.06
22854 H 95.86313643439793 95.17767028076824 134.29088867096334 H 0.0 **** 0.06
22855 H 94.76210224913233 95.2187453675657 132.89316170863822 H 0.0 **** 0.06
22856 C 25.53739840042266 128.30610857156006 104.13968587293313 C 0.0 **** -0.24
22857 H 25.100581956657294 129.1993841638511 104.58712168876833 H 0.0 **** 0.06
22858 H 24.74831847275746 127.70099778875039 103.69390738472244 H 0.0 **** 0.06
22859 H 26.048040636335315 127.72808538065391 104.9099931968098 H 0.0 **** 0.06
22860 H 26.252749028482043 128.59826321998747 103.37049939892619 H 0.0 **** 0.06
22861 C 89.55160654593051 36.436400461538256 40.5575238915015 C 0.0 **** -0.24
22862 H 90.63254972434189 36.304278809974505 40.60472967469808 H 0.0 **** 0.06
22863 H 89.14787132979906 35.8356200455969 39.74164615142321 H 0.0 **** 0.06
22864 H 89.32077285856762 37.48786764470353 40.38446821897092 H 0.0 **** 0.06
22865 H 89.10573698469945 36.116979648970414 41.49936588632352 H 0.0 **** 0.06
22866 C 42.42938892730773 30.23318075033457 125.95452336803635 C 0.0 **** -0.24
22867 H 43.12250779939538 29.468577769979305 125.60187733503113 H 0.0 **** 0.06
22868 H 42.710089474285624 30.541110464192585 126.9619578222273 H 0.0 **** 0.06
22869 H 41.41736269672856 29.82746515799826 125.96576902158142 H 0.0 **** 0.06
22870 H 42.46824023158841 31.093783511326308 125.28694181830662 H 0.0 **** 0.06
22871 C 103.00956699979326 18.87672429538813 19.742959596805576 C 0.0 **** -0.24
22872 H 103.10764539587734 17.796638586393613 19.852198608465926 H 0.0 **** 0.06
22873 H 102.76074755776278 19.11632747012726 18.70899640369663 H 0.0 **** 0.06
22874 H 103.95209753216045 19.355198874295723 20.011039768907978 H 0.0 **** 0.06
22875 H 102.21933119193318 19.238206511830384 20.400160184253025 H 0.0 **** 0.06
22876 C 133.81591546964154 54.374381062212024 100.10376645291707 C 0.0 **** -0.24
22877 H 134.27163385330152 53.709238113527476 100.83732441716653 H 0.0 **** 0.06
22878 H 133.13096099995184 53.80485406809146 99.47509716821398 H 0.0 **** 0.06
22879 H 134.5935893321091 54.81926446783666 99.48381665221852 H 0.0 **** 0.06
22880 H 133.26645525830705 55.16159683762476 100.61998779118757 H 0.0 **** 0.06
22881 C 102.36545730453291 51.491221719212376 73.7458119040676 C 0.0 **** -0.24
22882 H 102.8849160958501 52.44607161187744 73.66801150397085 H 0.0 **** 0.06
22883 H 101.54448297309473 51.58034558635087 74.45683000125177 H 0.0 **** 0.06
22884 H 103.06240194192206 50.726015904100194 74.08813910958366 H 0.0 **** 0.06
22885 H 101.97063190722407 51.211451480833844 72.76811499100364 H 0.0 **** 0.06
22886 C 10.06011112133936 156.6388570133915 10.419338662655662 C 0.0 **** -0.24
22887 H 9.863439901414154 157.3867796223524 11.18697649938261 H 0.0 **** 0.06
22888 H 11.105544149020488 156.33541772869583 10.4672346967497 H 0.0 **** 0.06
22889 H 9.847793627616028 157.0621380271831 9.437229626717624 H 0.0 **** 0.06
22890 H 9.421545906622896 155.77066363041934 10.586477621615927 H 0.0 **** 0.06
22891 C 48.614382304338406 151.58017445212823 99.99796965664329 C 0.0 **** -0.24
22892 H 48.86588498303243 152.22608395914992 100.83962279552689 H 0.0 **** 0.06
22893 H 49.039289843837025 151.99423876066822 99.08338941754697 H 0.0 **** 0.06
22894 H 47.5307325525592 151.51694832729598 99.90026942568404 H 0.0 **** 0.06
22895 H 49.02205650407463 150.58425541887388 100.1696573920904 H 0.0 **** 0.06
22896 C 90.54660317751875 3.851608691718752 59.837553313686485 C 0.0 **** -0.24
22897 H 90.68043592965053 2.7970298202181425 60.07819592124304 H 0.0 **** 0.06
22898 H 91.44817579537956 4.402869472647126 60.107634945959674 H 0.0 **** 0.06
22899 H 89.69864953107584 4.24747458454118 60.396223584209764 H 0.0 **** 0.06
22900 H 90.36076108891046 3.95961236195609 58.76960970519045 H 0.0 **** 0.06
22901 C 145.80483210443163 20.18331679349197 98.68186356528281 C 0.0 **** -0.24
22902 H 146.26269787604235 20.610586068424 99.57343495351898 H 0.0 **** 0.06
22903 H 145.1343143416383 19.373247794142458 98.96999173228824 H 0.0 **** 0.06
22904 H 146.58241649217257 19.79506097217228 98.02441045465338 H 0.0 **** 0.06
22905 H 145.23930397651685 20.95505360208557 98.15919165901408 H 0.0 **** 0.06
22906 C 46.34668747010005 134.46417373348697 63.63436724338702 C 0.0 **** -0.24
22907 H 45.988780860629504 135.18350979210948 62.897795343300714 H 0.0 **** 0.06
22908 H 45.50517829118451 134.09393909117549 64.21973232155327 H 0.0 **** 0.06
22909 H 47.065294587104745 134.9479803826972 64.29493712373763 H 0.0 **** 0.06
22910 H 46.828268461920004 133.63054718206746 63.123032520202486 H 0.0 **** 0.06
22911 C 23.27933936822214 148.06782744954728 96.50752730036176 C 0.0 **** -0.24
22912 H 22.984081937788602 147.9313881384556 95.46688564465691 H 0.0 **** 0.06
22913 H 23.841210520542916 147.19581371493837 96.84227575504195 H 0.0 **** 0.06
22914 H 22.389688596404625 148.18745999294072 97.12561646933253 H 0.0 **** 0.06
22915 H 23.903700586384474 148.95789176290145 96.5940276164496 H 0.0 **** 0.06
22916 C 86.75386089127375 45.384869908987355 124.28056023226362 C 0.0 **** -0.24
22917 H 87.40682795595693 45.44131997010203 123.40922786403142 H 0.0 **** 0.06
22918 H 86.99692082262888 46.19289799332043 124.96976710953844 H 0.0 **** 0.06
22919 H 86.89576455788394 44.42595727004044 124.7780484634507 H 0.0 **** 0.06
22920 H 85.71564737814846 45.47863194126887 123.96181102158316 H 0.0 **** 0.06
22921 C 94.48125332510249 67.71740684124927 134.35932747957554 C 0.0 **** -0.24
22922 H 94.74380149119325 66.81185304816981 133.81224022452045 H 0.0 **** 0.06
22923 H 94.11947616197514 68.47142240560078 133.6599953005874 H 0.0 **** 0.06
22924 H 95.36193507239294 68.0958874273606 134.87806322303211 H 0.0 **** 0.06
22925 H 93.70179121973192 67.48975499544429 135.08488179183155 H 0.0 **** 0.06
22926 C 47.65718103403634 3.214128246596207 77.59886930346951 C 0.0 **** -0.24
22927 H 47.97202823001659 4.254451074383105 77.6784765667714 H 0.0 **** 0.06
22928 H 46.601912695580594 3.1331366713565245 77.86016182183994 H 0.0 **** 0.06
22929 H 48.24888739093551 2.602122169973878 78.27971056547216 H 0.0 **** 0.06
22930 H 47.80592756035064 2.868419656633492 76.57595107138542 H 0.0 **** 0.06
22931 C 51.841310453303535 114.2050791711593 80.74641238033433 C 0.0 **** -0.24
22932 H 52.464401778738946 114.32344699120762 81.63236435414285 H 0.0 **** 0.06
22933 H 51.159729844022365 115.0522213110026 80.66570451832911 H 0.0 **** 0.06
22934 H 51.26597761923206 113.28251444783956 80.8279179282826 H 0.0 **** 0.06
22935 H 52.47341538341179 114.16206913700967 79.85944554564787 H 0.0 **** 0.06
22936 C 113.26396159281597 84.7349304136964 12.307353554036126 C 0.0 **** -0.24
22937 H 112.67950934492853 84.0993602928204 12.971863772230051 H 0.0 **** 0.06
22938 H 112.75346912442973 85.68958848194649 12.175076843733535 H 0.0 **** 0.06
22939 H 113.37417513153582 84.24358456176296 11.339741567068188 H 0.0 **** 0.06
22940 H 114.24885529592103 84.90596556033087 12.74115768286552 H 0.0 **** 0.06
22941 C 24.420011365169785 74.13380969560112 61.39050162185856 C 0.0 **** -0.24
22942 H 23.473494309105206 74.21599672876084 61.925137420955366 H 0.0 **** 0.06
22943 H 24.443773137870096 74.86280478002111 60.58091518781089 H 0.0 **** 0.06
22944 H 24.518575625158462 73.1296784554095 60.97892880096117 H 0.0 **** 0.06
22945 H 25.243830859767343 74.32762455602513 62.07878933239539 H 0.0 **** 0.06
22946 C 21.503439761938303 119.67564790675696 0.85080053488349 C 0.0 **** -0.24
22947 H 20.44391230357852 119.58406582457017 1.0895450729264553 H 0.0 **** 0.06
22948 H 21.976444988038388 118.69615372314938 0.9152586239064249 H 0.0 **** 0.06
22949 H 21.977988099425986 120.355829522262 1.5591708943475169 H 0.0 **** 0.06
22950 H 21.614628493869688 120.06798064731875 -0.15962547916188896 H 0.0 **** 0.06
22951 C 155.69628330834206 92.05899222425748 148.34648189805424 C 0.0 **** -0.24
22952 H 154.8884704380166 91.46386461166578 147.9197428835481 H 0.0 **** 0.06
22953 H 156.41061155446866 91.4000011999386 148.8408943637307 H 0.0 **** 0.06
22954 H 155.28579757934372 92.76129936724963 149.07122031825858 H 0.0 **** 0.06
22955 H 156.19947064903738 92.60957038023459 147.55164803796336 H 0.0 **** 0.06
22956 C 109.0732502156482 118.41161644484497 26.6802400555423 C 0.0 **** -0.24
22957 H 109.59795411382252 117.46360386323799 26.798098572010844 H 0.0 **** 0.06
22958 H 109.08580252877177 118.95305150300847 27.62599381691186 H 0.0 **** 0.06
22959 H 108.04169412583757 118.2203951185357 26.383956204182567 H 0.0 **** 0.06
22960 H 109.56775822998723 119.00710678709895 25.91370388401097 H 0.0 **** 0.06
22961 C 119.610118539704 64.09407146169349 48.187414936244636 C 0.0 **** -0.24
22962 H 118.61908799978683 63.70556313506961 48.42119348131405 H 0.0 **** 0.06
22963 H 120.1259588717305 64.35584502590507 49.111617860749334 H 0.0 **** 0.06
22964 H 119.51394489449042 64.98099336988747 47.56090169660047 H 0.0 **** 0.06
22965 H 120.18181180776882 63.3340852736103 47.65352776086576 H 0.0 **** 0.06
22966 C 104.11791325953646 152.04037060973062 123.51150406948875 C 0.0 **** -0.24
22967 H 103.51419600142611 151.29421188830034 124.02882633857263 H 0.0 **** 0.06
22968 H 103.81941919973576 152.08701702258776 122.46350877978989 H 0.0 **** 0.06
22969 H 105.17031892495385 151.76519477901022 123.57843864577211 H 0.0 **** 0.06
22970 H 103.96680083080093 153.01415056636176 123.97639682259967 H 0.0 **** 0.06
22971 C 47.2049846032065 25.466988554277748 145.46694183357332 C 0.0 **** -0.24
22972 H 46.97980513699969 25.117181551200872 144.46008787290532 H 0.0 **** 0.06
22973 H 46.286872922768936 25.80197312168974 145.94946846370644 H 0.0 **** 0.06
22974 H 47.912011110123615 26.295440689157374 145.41321770064496 H 0.0 **** 0.06
22975 H 47.64368993327511 24.653329122578555 146.0447875254762 H 0.0 **** 0.06
22976 C 79.82542162978294 119.25683763263704 101.03543443335684 C 0.0 **** -0.24
22977 H 80.24995448223996 118.93574869857271 100.08429016385793 H 0.0 **** 0.06
22978 H 78.8944816648868 118.71886587374514 101.21804298185947 H 0.0 **** 0.06
22979 H 79.62595119660423 120.32774212807972 101.00032359406583 H 0.0 **** 0.06
22980 H 80.53093137601218 119.0445373711368 101.83827080766082 H 0.0 **** 0.06
22981 C 99.60334244753001 131.1053757365019 86.25205266920045 C 0.0 **** -0.24
22982 H 99.84031823695933 130.63939562200616 85.29483914735792 H 0.0 **** 0.06
22983 H 99.92625446459469 130.45288454909323 87.06335455798188 H 0.0 **** 0.06
22984 H 98.5266947213723 131.26481323415567 86.32000165853069 H 0.0 **** 0.06
22985 H 100.11818845513453 132.0633558876498 86.3275198943663 H 0.0 **** 0.06
22986 C 138.78640381885106 34.88199153124799 149.60890272750342 C 0.0 **** -0.24
22987 H 139.82389031505988 35.21390698994537 149.6417288444393 H 0.0 **** 0.06
22988 H 138.18193398068942 35.51444247359427 150.25896940629016 H 0.0 **** 0.06
22989 H 138.7251811748739 33.846833490012955 149.94816717216645 H 0.0 **** 0.06
22990 H 138.41482491882368 34.95124320608977 148.58598238141113 H 0.0 **** 0.06
22991 C 93.0485097971592 114.87216359525151 111.79305474414103 C 0.0 **** -0.24
22992 H 93.68167063758786 115.7377249252706 111.60127736016013 H 0.0 **** 0.06
22993 H 92.05921369807199 115.20731641392392 112.10580626180057 H 0.0 **** 0.06
22994 H 93.4931244478948 114.26433304363114 112.58070154647957 H 0.0 **** 0.06
22995 H 92.96035602052403 114.27835075899922 110.88219088939455 H 0.0 **** 0.06
22996 C 97.37407891771129 121.07178343945215 127.2249853476041 C 0.0 **** -0.24
22997 H 97.03145706921951 121.45989347073235 126.26631256186727 H 0.0 **** 0.06
22998 H 96.80373665650414 120.17885604460592 127.48005206352428 H 0.0 **** 0.06
22999 H 97.22922637802793 121.82894106525576 127.9959261749998 H 0.0 **** 0.06
23000 H 98.43290493014263 120.82075034689926 127.1571284872577 H 0.0 **** 0.06
23001 C 65.05720292902117 69.47993473285896 88.3510031850807 C 0.0 **** -0.24
23002 H 66.07997311106669 69.1011432769161 88.33634328936695 H 0.0 **** 0.06
23003 H 64.49645248687229 68.97899811573632 89.14088238907898 H 0.0 **** 0.06
23004 H 64.58486099887644 69.2851490231645 87.38843044347992 H 0.0 **** 0.06
23005 H 65.07029856746767 70.55359082304822 88.53961068140981 H 0.0 **** 0.06
23006 C 117.54870869980873 86.06635608228807 102.7987685248322 C 0.0 **** -0.24
23007 H 117.24928474253731 85.49199696212058 103.67540959392603 H 0.0 **** 0.06
23008 H 118.23400636359445 86.85813166077729 103.09957939804379 H 0.0 **** 0.06
23009 H 116.66556588305185 86.50565132753702 102.334289093616 H 0.0 **** 0.06
23010 H 118.04382341263242 85.40757065419587 102.08555408128127 H 0.0 **** 0.06
23011 C 137.64731098400364 83.67550411190493 124.31192134213639 C 0.0 **** -0.24
23012 H 137.63013206303904 84.12400584656231 125.30540448810426 H 0.0 **** 0.06
23013 H 136.6464804034424 83.71048237338636 123.88035399519698 H 0.0 **** 0.06
23014 H 137.97566917889583 82.63910156943649 124.38645534397854 H 0.0 **** 0.06
23015 H 138.33670919629463 84.23064501053088 123.67559409366963 H 0.0 **** 0.06
23016 C 13.917469248065373 63.3007998241402 63.879809564403956 C 0.0 **** -0.24
23017 H 13.953871550839615 64.21710155337644 63.29015313769895 H 0.0 **** 0.06
23018 H 12.925439141353657 63.1901823158841 64.3172094861294 H 0.0 **** 0.06
23019 H 14.661641688116028 63.35104330458779 64.67427329754133 H 0.0 **** 0.06
23020 H 14.129700310612613 62.446934035260256 63.2365313537386 H 0.0 **** 0.06
23021 C 52.33193957804164 1.464047167724516 119.34888094178524 C 0.0 **** -0.24
23022 H 51.96513300618648 0.9637158815075679 120.24544004931465 H 0.0 **** 0.06
23023 H 51.81350669389059 1.0698570015819087 118.47457141763118 H 0.0 **** 0.06
23024 H 53.40285277032413 1.2889968612750522 119.24759923269784 H 0.0 **** 0.06
23025 H 52.14516875848028 2.5358966097240057 119.42918146331374 H 0.0 **** 0.06
23026 C 131.14081686546638 108.78148807407915 61.24335049795171 C 0.0 **** -0.24
23027 H 131.77583559143963 109.56308904040934 60.82679941598438 H 0.0 **** 0.06
23028 H 131.39043828145188 108.63212502563827 62.294462548875316 H 0.0 **** 0.06
23029 H 131.3016558925286 107.85286319416814 60.695246193931496 H 0.0 **** 0.06
23030 H 130.0953376964455 109.07787503610048 61.156893833015786 H 0.0 **** 0.06
23031 C 105.18409771062828 76.64661407802753 118.76512041957756 C 0.0 **** -0.24
23032 H 104.22325647963781 76.80914815845125 119.25344866210395 H 0.0 **** 0.06
23033 H 105.89535428555307 77.40036154333458 119.10131453004311 H 0.0 **** 0.06
23034 H 105.05915298986638 76.7214306396453 117.68453955970915 H 0.0 **** 0.06
23035 H 105.55744107418938 75.6545200002442 119.01860954746826 H 0.0 **** 0.06
23036 C 91.81600824432324 149.81396203477595 115.70057001781147 C 0.0 **** -0.24
23037 H 92.22913974372472 149.464687976039 116.64591101966884 H 0.0 **** 0.06
23038 H 91.58541075602234 150.8761698499133 115.77502128482722 H 0.0 **** 0.06
23039 H 90.90427422844566 149.25881627203222 115.47495527858676 H 0.0 **** 0.06
23040 H 92.5440265574261 149.6533998687376 114.90501120961402 H 0.0 **** 0.06
23041 C 120.14679496190395 74.60001240144732 141.7033674411111 C 0.0 **** -0.24
23042 H 120.35331111382656 74.01314720312632 140.80863677057263 H 0.0 **** 0.06
23043 H 120.43155114979142 75.63802643920445 141.5296652176505 H 0.0 **** 0.06
23044 H 120.72109136364783 74.2007384146653 142.5389891126097 H 0.0 **** 0.06
23045 H 119.08337891959566 74.54784561536175 141.9356487357138 H 0.0 **** 0.06
23046 C 155.93047916578104 120.23212211994178 67.33533321270292 C 0.0 **** -0.24
23047 H 156.45754557403393 121.0483734920482 66.8418533720358 H 0.0 **** 0.06
23048 H 156.5893779503487 119.3670742396094 67.41071377152917 H 0.0 **** 0.06
23049 H 155.04780215150328 119.96717644766801 66.75314359118653 H 0.0 **** 0.06
23050 H 155.62615973132102 120.54667658466917 68.33355404912113 H 0.0 **** 0.06
23051 C 104.05513717808232 80.4612019755765 126.53008399953258 C 0.0 **** -0.24
23052 H 104.3331078260121 79.97985561724789 127.46765248761513 H 0.0 **** 0.06
23053 H 104.56607660861503 81.42168341402129 126.44975941592988 H 0.0 **** 0.06
23054 H 102.97737063938702 80.62032145090353 126.51026165462424 H 0.0 **** 0.06
23055 H 104.34435189046981 79.82376022216951 125.69534782050023 H 0.0 **** 0.06
23056 C 69.03653101099445 152.0987659427923 51.14822535613605 C 0.0 **** -0.24
23057 H 69.21784762392616 152.84043914118465 51.92555269652975 H 0.0 **** 0.06
23058 H 69.42227683297313 152.46709912735872 50.196910717586846 H 0.0 **** 0.06
23059 H 67.96478187535945 151.9187849033795 51.06077076311165 H 0.0 **** 0.06
23060 H 69.54079028747833 151.16847141278137 51.408804183173146 H 0.0 **** 0.06
23061 C 38.29869964341742 99.62076699498732 43.17957715313639 C 0.0 **** -0.24
23062 H 37.98321146862274 98.71897950417491 43.703549650464765 H 0.0 **** 0.06
23063 H 39.12466835348508 99.38081837231164 42.50913322681072 H 0.0 **** 0.06
23064 H 38.623633690556986 100.36767957303027 43.90415023344042 H 0.0 **** 0.06
23065 H 37.463583871537224 100.01502308555064 42.600215032206165 H 0.0 **** 0.06
23066 C 153.48213879929713 139.31106474975655 14.098737496607406 C 0.0 **** -0.24
23067 H 152.44408705479532 139.6391304357153 14.141470584207 H 0.0 **** 0.06
23068 H 154.0525472286198 139.8054992796421 14.884605404251829 H 0.0 **** 0.06
23069 H 153.90451878231718 139.56756667516512 13.127076243658806 H 0.0 **** 0.06
23070 H 153.52742008897368 138.23145306301487 14.239892954578906 H 0.0 **** 0.06
23071 C 58.39807786050652 137.09913054656715 140.12760568318345 C 0.0 **** -0.24
23072 H 57.48860524531854 136.49790996086676 140.12221513731083 H 0.0 **** 0.06
23073 H 58.99588575539161 136.86126653552174 139.2473085007851 H 0.0 **** 0.06
23074 H 58.972578628569835 136.88159147948565 141.0281001574273 H 0.0 **** 0.06
23075 H 58.13338813861502 138.15708260245844 140.11190481079953 H 0.0 **** 0.06
23076 C 38.33731044740921 145.4457242628779 10.946001920823306 C 0.0 **** -0.24
23077 H 38.60077887100141 146.1563403028996 11.72929937352307 H 0.0 **** 0.06
23078 H 38.228885961275125 145.97436078832766 9.99824442551052 H 0.0 **** 0.06
23079 H 37.397664514512655 144.95678747661765 11.19941452777779 H 0.0 **** 0.06
23080 H 39.12454603504062 144.6965214926966 10.856140678317082 H 0.0 **** 0.06
23081 C 130.31356451015614 34.24438081772663 98.48963879384017 C 0.0 **** -0.24
23082 H 129.39010178781956 34.4467831159192 97.94662166889272 H 0.0 **** 0.06
23083 H 130.62648683110012 35.142626017755724 99.02165274387258 H 0.0 **** 0.06
23084 H 131.0916807703543 33.949460544415565 97.78448785932295 H 0.0 **** 0.06
23085 H 130.1459966291983 33.43790030195221 99.20288897796773 H 0.0 **** 0.06
23086 C 1.525954647990634 33.22353150517074 118.34541290694392 C 0.0 **** -0.24
23087 H 0.5287608911344712 33.313804397272236 118.77692548881794 H 0.0 **** 0.06
23088 H 1.5445541942028242 33.70847669333136 117.36942064690197 H 0.0 **** 0.06
23089 H 1.7779306940138468 32.169589120123874 118.23288666665934 H 0.0 **** 0.06
23090 H 2.2511864040338416 33.7024829741199 119.00258109923124 H 0.0 **** 0.06
23091 C 10.137938549612642 25.68616601925507 68.03228727465657 C 0.0 **** -0.24
23092 H 11.086830008063735 25.320700550390058 67.63938694422983 H 0.0 **** 0.06
23093 H 10.043801933741257 25.396466831375903 69.07929700666827 H 0.0 **** 0.06
23094 H 9.316850385540093 25.254540137195136 67.45940332941377 H 0.0 **** 0.06
23095 H 10.105888842987497 26.772657148726836 67.95160574260497 H 0.0 **** 0.06
23096 C 85.00431092694686 154.59806180887688 98.71419813107427 C 0.0 **** -0.24
23097 H 85.05479405110623 154.74187291107404 99.79289292115756 H 0.0 **** 0.06
23098 H 86.0138702243336 154.5253423413115 98.30943328247032 H 0.0 **** 0.06
23099 H 84.49008912781426 155.44491095395585 98.25885741883467 H 0.0 **** 0.06
23100 H 84.45749197053212 153.68017428083846 98.49563183719322 H 0.0 **** 0.06
23101 C 145.0038790868751 145.8267084945615 22.79652552061731 C 0.0 **** -0.24
23102 H 144.4876995347107 146.56703453398077 22.185533959591794 H 0.0 **** 0.06
23103 H 145.73446642704351 145.29695177773908 22.184435117623792 H 0.0 **** 0.06
23104 H 144.27995815304553 145.1163342316395 23.194648026473033 H 0.0 **** 0.06
23105 H 145.51315646339026 146.32674616031528 23.62011009085532 H 0.0 **** 0.06
23106 C 29.5770080456914 143.36571516056375 139.4357290005529 C 0.0 **** -0.24
23107 H 29.74437196308753 142.83477091229983 140.37381228810585 H 0.0 **** 0.06
23108 H 28.936060852855007 144.2288085300348 139.61739414190254 H 0.0 **** 0.06
23109 H 29.09376302529796 142.6978999313382 138.72306869038516 H 0.0 **** 0.06
23110 H 30.53220230213134 143.69872525832744 139.03133830246193 H 0.0 **** 0.06
23111 C 154.40498045563717 134.977815779573 2.3813457100198434 C 0.0 **** -0.24
23112 H 153.60459670492804 135.61027358886713 1.9974764120626105 H 0.0 **** 0.06
23113 H 155.36861105306218 135.44140875772797 2.167574034783911 H 0.0 **** 0.06
23114 H 154.35725034159609 133.99977257834206 1.902417732556387 H 0.0 **** 0.06
23115 H 154.29033528563497 134.86054826535832 3.458746968934804 H 0.0 **** 0.06
23116 C 18.320855748554216 39.420642625168 128.54271221533077 C 0.0 **** -0.24
23117 H 18.78128037263729 38.55474438329401 129.01884463743963 H 0.0 **** 0.06
23118 H 17.720415295939702 39.09319995786281 127.6950228997786 H 0.0 **** 0.06
23119 H 19.098687398378544 40.101760382136945 128.19612567765137 H 0.0 **** 0.06
23120 H 17.68338768709905 39.93467609447141 129.2630008913144 H 0.0 **** 0.06
23121 C 0.5333379844229569 102.58722672432019 28.525951342384417 C 0.0 **** -0.24
23122 H 1.0422947070568114 103.5145977458095 28.789137058497545 H 0.0 **** 0.06
23123 H -0.3861750962189774 102.81866566640063 27.987528265375943 H 0.0 **** 0.06
23124 H 0.29443940425937853 102.03366997444162 29.433913377552756 H 0.0 **** 0.06
23125 H 1.1834320021775682 101.98386408906914 27.892217979262 H 0.0 **** 0.06
23126 C 101.39024520096588 142.76577820860314 104.75968230930937 C 0.0 **** -0.24
23127 H 100.79283354385466 143.30761397599065 104.02665026697088 H 0.0 **** 0.06
23128 H 102.44617516220966 142.8504170736725 104.50133394689658 H 0.0 **** 0.06
23129 H 101.09949714071551 141.71539856235856 104.76163848082166 H 0.0 **** 0.06
23130 H 101.22354434765167 143.19188527581153 105.7490195951874 H 0.0 **** 0.06
23131 C 44.502216287866574 106.59961494535497 4.995732963013523 C 0.0 **** -0.24
23132 H 44.899365607325365 106.69028770974859 6.007023997795571 H 0.0 **** 0.06
23133 H 43.4124192154585 106.60230393967561 5.032048387268773 H 0.0 **** 0.06
23134 H 44.8487982876356 105.66630883557559 4.552252088685648 H 0.0 **** 0.06
23135 H 44.848216376780016 107.4396581839577 4.39301662439982 H 0.0 **** 0.06
23136 C 65.93234773034465 120.5722865530566 44.29976449999748 C 0.0 **** -0.24
23137 H 65.3340536509917 119.84888306226306 43.74712699784479 H 0.0 **** 0.06
23138 H 66.97661894021871 120.26104467469425 44.292032573458755 H 0.0 **** 0.06
23139 H 65.5772845141293 120.62710708751924 45.32889252657179 H 0.0 **** 0.06
23140 H 65.84209843012064 121.55257563330385 43.8315913905748 H 0.0 **** 0.06
23141 C 82.40760341534795 93.00384116155118 19.00103359131367 C 0.0 **** -0.24
23142 H 83.21034833525074 93.31227596146249 19.671878049002032 H 0.0 **** 0.06
23143 H 81.53910787448375 93.64395315336913 19.155745581759675 H 0.0 **** 0.06
23144 H 82.13944683771037 91.9679765648778 19.20973498225686 H 0.0 **** 0.06
23145 H 82.74427233491538 93.09164558052538 17.96854675820026 H 0.0 **** 0.06
23146 C 93.57461285324692 9.303117538966887 21.29712393387942 C 0.0 **** -0.24
23147 H 92.95457953148289 10.087833663923107 20.863427079976077 H 0.0 **** 0.06
23148 H 93.12237587691493 8.331416328108276 21.097236055759538 H 0.0 **** 0.06
23149 H 93.65110725803817 9.454890600912165 22.374124044368386 H 0.0 **** 0.06
23150 H 94.56923325652969 9.339043635877431 20.854102265619645 H 0.0 **** 0.06
23151 C 76.26939415655806 147.69209446546802 112.65768058849672 C 0.0 **** -0.24
23152 H 77.35923325551596 147.68941471583963 112.69219516384753 H 0.0 **** 0.06
23153 H 75.87978942782047 148.20072311742751 113.53999161585001 H 0.0 **** 0.06
23154 H 75.9039449025579 146.66614819181382 112.63707217605365 H 0.0 **** 0.06
23155 H 75.93763604805758 148.21487136127791 111.7604088586266 H 0.0 **** 0.06
23156 C 105.26163658335837 121.67399368782189 53.170016505954365 C 0.0 **** -0.24
23157 H 104.85055629124359 122.58290773333106 53.60838723449049 H 0.0 **** 0.06
23158 H 105.88909317431857 121.16815228008336 53.90493447359147 H 0.0 **** 0.06
23159 H 105.85970347219465 121.9306004652904 52.29566095647323 H 0.0 **** 0.06
23160 H 104.44761780576273 121.01412433141955 52.87196870155944 H 0.0 **** 0.06
23161 C 146.94442043946776 62.828028390593104 34.57609875471658 C 0.0 **** -0.24
23162 H 146.41832256891269 62.17388375652638 35.27185986389631 H 0.0 **** 0.06
23163 H 146.32267275747367 62.9980229981813 33.696250828556856 H 0.0 **** 0.06
23164 H 147.88081081197734 62.35964962031649 34.274267604848504 H 0.0 **** 0.06
23165 H 147.15484868228157 63.78090200624064 35.063368238310915 H 0.0 **** 0.06
23166 C 25.65867365241624 71.3631423203015 32.98771796873143 C 0.0 **** -0.24
23167 H 24.976732892519095 72.14911939144454 33.3124355680896 H 0.0 **** 0.06
23168 H 26.668130523064974 71.59559203914716 33.326457714126036 H 0.0 **** 0.06
23169 H 25.64586020934331 71.29712852166867 31.89973696286779 H 0.0 **** 0.06
23170 H 25.342646935683035 70.41063866013445 33.414041306484705 H 0.0 **** 0.06
23171 C 124.74214089889648 5.635472092328683 38.46015005840289 C 0.0 **** -0.24
23172 H 124.72885646533831 4.55868025114448 38.290389822165025 H 0.0 **** 0.06
23173 H 124.98574760692208 6.147334519982671 37.529092433053336 H 0.0 **** 0.06
23174 H 125.49287534694531 5.87527920582356 39.21366849471019 H 0.0 **** 0.06
23175 H 123.76207307461334 5.960570028014182 38.80730278939819 H 0.0 **** 0.06
23176 C 148.38541248881097 53.6913153828238 48.00817101411124 C 0.0 **** -0.24
23177 H 148.4185102794694 54.07679111951214 49.0263957489191 H 0.0 **** 0.06
23178 H 148.72423317135537 54.46295203607605 47.31667112183 H 0.0 **** 0.06
23179 H 147.36227510419576 53.405027703400094 47.76083725610002 H 0.0 **** 0.06
23180 H 149.0354961661821 52.820131601478636 47.92801679336213 H 0.0 **** 0.06
23181 C 62.34682858160784 57.53280460215228 68.88994137384557 C 0.0 **** -0.24
23182 H 61.63694577337128 56.772117335766936 68.56631670441348 H 0.0 **** 0.06
23183 H 61.92136323843471 58.098992648764494 69.71854140451788 H 0.0 **** 0.06
23184 H 62.55900428335315 58.20697038076622 68.05976870192012 H 0.0 **** 0.06
23185 H 63.270480630245856 57.0535736697026 69.21388159281969 H 0.0 **** 0.06
23186 C 61.64689281134412 84.77622457521366 133.39389756914284 C 0.0 **** -0.24
23187 H 61.47947856397471 83.72378316154007 133.61803846219368 H 0.0 **** 0.06
23188 H 60.689861155445215 85.26590526523952 133.21056469776505 H 0.0 **** 0.06
23189 H 62.27523729907551 84.86328853842332 132.50744918096876 H 0.0 **** 0.06
23190 H 62.14359552295497 85.25319326513669 134.23968182280848 H 0.0 **** 0.06
23191 C 11.039581361653461 117.63393035441 140.72780035379267 C 0.0 **** -0.24
23192 H 11.753461405288448 118.4575806970149 140.75875348210826 H 0.0 **** 0.06
23193 H 11.47358784234666 116.75900897593193 141.21226979777848 H 0.0 **** 0.06
23194 H 10.804095035367425 117.39706211980167 139.69038419305593 H 0.0 **** 0.06
23195 H 10.127511405852374 117.92423334374091 141.25025157040767 H 0.0 **** 0.06
23196 C 117.96104173605114 127.02682883897391 116.36883330105282 C 0.0 **** -0.24
23197 H 118.79937299259988 126.35475697571674 116.18824605597159 H 0.0 **** 0.06
23198 H 117.29944891272693 127.02277747599634 115.50224792566384 H 0.0 **** 0.06
23199 H 118.33439997354007 128.0373961753537 116.53669627968235 H 0.0 **** 0.06
23200 H 117.41094506533777 126.69238472882877 117.2481429428935 H 0.0 **** 0.06
23201 C 119.61222859462059 81.24661710948793 99.47609424379516 C 0.0 **** -0.24
23202 H 118.77922618206328 81.84906538008711 99.11410429151154 H 0.0 **** 0.06
23203 H 119.30015745433882 80.20480957134487 99.55407085363818 H 0.0 **** 0.06
23204 H 119.92253620750976 81.607257449035 100.4564392749033 H 0.0 **** 0.06
23205 H 120.44699453457041 81.3253360374848 98.77976255512775 H 0.0 **** 0.06
23206 C 138.86076923855515 140.32313297500207 98.19787111537846 C 0.0 **** -0.24
23207 H 139.78812825361393 140.68662030236192 98.64077730974904 H 0.0 **** 0.06
23208 H 138.01823478829465 140.61971126620895 98.82264122532217 H 0.0 **** 0.06
23209 H 138.89481811266808 139.23601776409853 98.12520153036124 H 0.0 **** 0.06
23210 H 138.74190060809897 140.7499795631113 97.20188521340583 H 0.0 **** 0.06
23211 C 139.2304544645233 113.27490440232408 11.207460473350409 C 0.0 **** -0.24
23212 H 139.157595801362 114.25826734611486 11.67324223002771 H 0.0 **** 0.06
23213 H 140.18708633663388 112.82119724500775 11.46779673562395 H 0.0 **** 0.06
23214 H 139.16057945911177 113.37995246199806 10.125163363849708 H 0.0 **** 0.06
23215 H 138.41835520436797 112.64231963224178 11.565147424911686 H 0.0 **** 0.06
23216 C 33.93020614220404 22.537308861693788 114.48710208127154 C 0.0 **** -0.24
23217 H 33.45870453501118 21.861435451615733 113.77438193560327 H 0.0 **** 0.06
23218 H 33.92842165286203 23.550328642950433 114.08401843171795 H 0.0 **** 0.06
23219 H 34.95800743645498 22.217811023540946 114.66428661464288 H 0.0 **** 0.06
23220 H 33.377244173963504 22.519412720174614 115.42644678497236 H 0.0 **** 0.06
23221 C 45.29261090428665 44.07426942578921 87.22189352976304 C 0.0 **** -0.24
23222 H 45.584737294695174 43.1707007560623 86.68571581678935 H 0.0 **** 0.06
23223 H 44.520374688518984 44.597018096196535 86.65769434481982 H 0.0 **** 0.06
23224 H 46.16052140098384 44.7231025019361 87.33749917113127 H 0.0 **** 0.06
23225 H 44.90608938256838 43.80469579475397 88.20444470979021 H 0.0 **** 0.06
23226 C 98.76669574300443 126.23044366594223 9.108809830064217 C 0.0 **** -0.24
23227 H 98.4765954883361 125.75573847868384 10.045897063630548 H 0.0 **** 0.06
23228 H 99.82793868235872 126.4791256037962 9.141725222221794 H 0.0 **** 0.06
23229 H 98.18455125332886 127.14053833071733 8.967834191254497 H 0.0 **** 0.06
23230 H 98.57884928803526 125.54655262887076 8.281937176885606 H 0.0 **** 0.06
23231 C 21.533577830844308 59.21562316635702 77.56224079579859 C 0.0 **** -0.24
23232 H 20.955642363230197 58.43229074281382 78.05175642645142 H 0.0 **** 0.06
23233 H 21.355974200862647 59.17962854552488 76.4869287282753 H 0.0 **** 0.06
23234 H 22.59485367186352 59.06280938530688 77.76095980013926 H 0.0 **** 0.06
23235 H 21.227841087421154 60.187763991782475 77.94931822832852 H 0.0 **** 0.06
23236 C 92.92987268865782 132.66177909242 44.55180085491543 C 0.0 **** -0.24
23237 H 93.51003496476129 132.0705601250235 45.26094933507079 H 0.0 **** 0.06
23238 H 93.18984946150087 133.7149804027115 44.6595216010375 H 0.0 **** 0.06
23239 H 91.86691877080517 132.52615775633825 44.75125132725064 H 0.0 **** 0.06
23240 H 93.15426608576382 132.33387174690225 43.537246756974 H 0.0 **** 0.06
23241 C 5.206836472879274 61.403556303354975 118.01980929838771 C 0.0 **** -0.24
23242 H 6.24910598216799 61.68596144561741 117.87381870427197 H 0.0 **** 0.06
23243 H 5.0364747775816525 61.17578316927241 119.07317012943776 H 0.0 **** 0.06
23244 H 4.9802546132277925 60.52492538468124 117.41622001250698 H 0.0 **** 0.06
23245 H 4.561255788289756 62.22901242583717 117.7179807409978 H 0.0 **** 0.06
23246 C 27.981458181901303 81.01126410804079 122.51800169681856 C 0.0 **** -0.24
23247 H 28.401251666959325 80.47070552544426 121.66889006536691 H 0.0 **** 0.06
23248 H 28.20070295441522 82.07396300606922 122.41550561676608 H 0.0 **** 0.06
23249 H 28.42323530711309 80.63569592325393 123.44079158088364 H 0.0 **** 0.06
23250 H 26.90167912236535 80.86313261239161 122.54524009074863 H 0.0 **** 0.06
23251 C 115.50867939359988 145.3215072543244 103.49846781746096 C 0.0 **** -0.24
23252 H 116.26245333509762 144.64924487922747 103.9091219739688 H 0.0 **** 0.06
23253 H 114.59030326474605 145.2357727249264 104.07901715880722 H 0.0 **** 0.06
23254 H 115.31058256204271 145.05393932430576 102.46081243069214 H 0.0 **** 0.06
23255 H 115.87395584762974 146.34822063825192 103.54593850734243 H 0.0 **** 0.06
23256 C 23.829929024322126 78.37369354162229 46.200448756693575 C 0.0 **** -0.24
23257 H 24.88588429180453 78.13246742150653 46.075352280101356 H 0.0 **** 0.06
23258 H 23.73426323755021 79.37116355983255 46.630982536088325 H 0.0 **** 0.06
23259 H 23.367602703615432 77.64467520293908 46.865721104155526 H 0.0 **** 0.06
23260 H 23.33395848975107 78.34714654564948 45.23049353223233 H 0.0 **** 0.06
23261 C 73.67323155795052 37.99715500282019 8.724742035007061 C 0.0 **** -0.24
23262 H 73.86811546253664 36.969736809287866 8.415056977235515 H 0.0 **** 0.06
23263 H 74.56366223285572 38.40864469946487 9.19968424485247 H 0.0 **** 0.06
23264 H 72.84428362795703 38.01157662558791 9.43154468013143 H 0.0 **** 0.06
23265 H 73.41671258424664 38.59682595770174 7.8514148149767 H 0.0 **** 0.06
23266 C 24.531145307691645 128.07610640053838 62.44215947294046 C 0.0 **** -0.24
23267 H 24.87831468385349 128.2523522204885 61.42363626024367 H 0.0 **** 0.06
23268 H 24.658585706655742 128.98464749011652 63.03197703133581 H 0.0 **** 0.06
23269 H 25.110525695680053 127.26714736319066 62.88810940415095 H 0.0 **** 0.06
23270 H 23.47667626297317 127.80025453413207 62.422731103672234 H 0.0 **** 0.06
23271 C 150.77162158495298 87.26881702036542 45.60987009135715 C 0.0 **** -0.24
23272 H 150.32551159268743 86.62382814478498 46.366691659844776 H 0.0 **** 0.06
23273 H 150.58425959628937 88.31239325447065 45.86549060169119 H 0.0 **** 0.06
23274 H 150.32923463382534 87.04803181381293 44.63790898948156 H 0.0 **** 0.06
23275 H 151.84593625561334 87.09114878047642 45.56812520994802 H 0.0 **** 0.06
23276 C 67.13472991571075 76.84946424266326 19.87307468075423 C 0.0 **** -0.24
23277 H 66.70809880930932 76.8083563145391 20.875529031422488 H 0.0 **** 0.06
23278 H 67.34313601434559 75.83751627387139 19.525366633133636 H 0.0 **** 0.06
23279 H 68.06047252608306 77.42493071921885 19.89664679922697 H 0.0 **** 0.06
23280 H 66.42663370585632 77.32797272172617 19.196951877609557 H 0.0 **** 0.06
23281 C 26.73771197209024 25.725350630353546 70.16602713752593 C 0.0 **** -0.24
23282 H 27.565834102118657 25.28430685061386 70.72040857506221 H 0.0 **** 0.06
23283 H 25.913252908342287 25.931273813589797 70.84947911318426 H 0.0 **** 0.06
23284 H 26.406068338140983 25.03060352236497 69.39465328958727 H 0.0 **** 0.06
23285 H 27.06534517036303 26.6554048563234 69.70092573622935 H 0.0 **** 0.06
23286 C 22.52849685633373 82.26399722405078 89.1673724400518 C 0.0 **** -0.24
23287 H 21.505498738745416 82.2937079333391 88.79236871464936 H 0.0 **** 0.06
23288 H 22.845266648786207 81.22673136067563 89.27688090241286 H 0.0 **** 0.06
23289 H 22.57523926613908 82.76314018125981 90.13496383566621 H 0.0 **** 0.06
23290 H 23.187599500523106 82.77223908393765 88.46286295217135 H 0.0 **** 0.06
23291 C 85.04926134676637 97.31757186229852 156.1454060669289 C 0.0 **** -0.24
23292 H 84.77406785429099 97.54773396306322 155.1164373599353 H 0.0 **** 0.06
23293 H 86.10156982021084 97.55782303706648 156.30126806346635 H 0.0 **** 0.06
23294 H 84.88586930557682 96.25777314398447 156.33683056091135 H 0.0 **** 0.06
23295 H 84.43637772454952 97.90852376646613 156.825731114473 H 0.0 **** 0.06
23296 C 89.71576595618143 37.476673402021845 144.8799782689133 C 0.0 **** -0.24
23297 H 90.40123080699038 38.32303006025214 144.83397802104415 H 0.0 **** 0.06
23298 H 89.88746773865915 36.9210808807197 145.80164637841983 H 0.0 **** 0.06
23299 H 89.88735688655186 36.82361153183663 144.0243344084156 H 0.0 **** 0.06
23300 H 88.68903640995518 37.840340152973894 144.85983967655096 H 0.0 **** 0.06
23301 C 97.37623060571036 12.191182628762931 148.29306161323865 C 0.0 **** -0.24
23302 H 96.41673013548677 11.67635512785941 148.34760683573137 H 0.0 **** 0.06
23303 H 98.17156451010031 11.507888071059199 148.59100825750744 H 0.0 **** 0.06
23304 H 97.36494858577815 13.051390486508637 148.96207866418337 H 0.0 **** 0.06
23305 H 97.54864185854632 12.527800265370558 147.27124628428356 H 0.0 **** 0.06
23306 C 65.06149887928439 112.56113152263536 123.06165748142637 C 0.0 **** -0.24
23307 H 64.6101703716181 111.58203355689655 123.22382233527797 H 0.0 **** 0.06
23308 H 65.01122541648658 112.81256491617064 122.00192236318468 H 0.0 **** 0.06
23309 H 66.1027883510443 112.53824988405155 123.38204368057949 H 0.0 **** 0.06
23310 H 64.52013212952909 113.31043210170394 123.63963444576244 H 0.0 **** 0.06
23311 C 134.20448859179112 76.33342699889972 12.361881658904444 C 0.0 **** -0.24
23312 H 133.3470828874294 76.95088696486255 12.627585034383294 H 0.0 **** 0.06
23313 H 134.092103323111 75.34493492712453 12.808069590385472 H 0.0 **** 0.06
23314 H 135.11649902636037 76.79888815226266 12.734200767191709 H 0.0 **** 0.06
23315 H 134.2619667221132 76.23840284709388 11.276926641222744 H 0.0 **** 0.06
23316 C 130.16320219257733 80.1067772221212 68.55679787961037 C 0.0 **** -0.24
23317 H 129.23969863355742 80.49250271276057 68.12459572266889 H 0.0 **** 0.06
23318 H 130.24275670172418 80.43308248901732 69.59476882901996 H 0.0 **** 0.06
23319 H 131.01509406960994 80.48515919247525 67.99093834088626 H 0.0 **** 0.06
23320 H 130.15626368328424 79.01815730255353 68.51777029853395 H 0.0 **** 0.06
23321 C 65.7719340814536 36.54288703109657 31.319466053139138 C 0.0 **** -0.24
23322 H 66.45980093389811 36.208568131745764 30.54258333991848 H 0.0 **** 0.06
23323 H 64.83364017638668 35.99493013440849 31.233585579646196 H 0.0 **** 0.06
23324 H 65.58281503235496 37.61016609495684 31.201304810312784 H 0.0 **** 0.06
23325 H 66.2133760961675 36.358179417645374 32.29787683435155 H 0.0 **** 0.06
23326 C 53.926888882823675 13.48356700318267 67.27474000769746 C 0.0 **** -0.24
23327 H 53.451713827403694 12.982556189458094 68.1176940269795 H 0.0 **** 0.06
23328 H 53.31083527394293 13.358880340628573 66.38479404039265 H 0.0 **** 0.06
23329 H 54.909893287870545 13.047282179457724 67.10099731904734 H 0.0 **** 0.06
23330 H 54.034717158344506 14.545145635616521 67.49763807038607 H 0.0 **** 0.06
23331 C 98.9004401081963 5.107525231612669 84.95556990633071 C 0.0 **** -0.24
23332 H 99.88613274909845 4.652341604325187 84.85653168094801 H 0.0 **** 0.06
23333 H 98.79559507162665 5.910198701697233 84.22601423941568 H 0.0 **** 0.06
23334 H 98.78724811287124 5.511800639139942 85.96080599508694 H 0.0 **** 0.06
23335 H 98.13383976138486 4.352392921446125 84.77768280609669 H 0.0 **** 0.06
23336 C 146.54817671068275 127.09352388163182 35.2752759335466 C 0.0 **** -0.24
23337 H 146.49107028132164 126.61070916967589 36.25008947103936 H 0.0 **** 0.06
23338 H 147.5622361955363 127.00839632330326 34.88578870170833 H 0.0 **** 0.06
23339 H 146.2839917951079 128.14677604835248 35.37691706250618 H 0.0 **** 0.06
23340 H 145.85221253685495 126.60968064309805 34.58910518267581 H 0.0 **** 0.06
23341 C 38.304326038615 121.99347406888462 148.89953731294383 C 0.0 **** -0.24
23342 H 38.756950025893346 122.91851476389455 149.25599754143988 H 0.0 **** 0.06
23343 H 38.815563433536994 121.142618011402 149.3511566270473 H 0.0 **** 0.06
23344 H 38.39655329484064 121.93891145568757 147.81483425483864 H 0.0 **** 0.06
23345 H 37.250985547627906 121.9750540118814 149.17621786481322 H 0.0 **** 0.06
23346 C 53.098872381395 150.4653006430761 32.847386259840505 C 0.0 **** -0.24
23347 H 53.066596826994854 151.5451996398487 32.99320851113143 H 0.0 **** 0.06
23348 H 52.893902795304285 149.96468505126558 33.79374991791681 H 0.0 **** 0.06
23349 H 54.086318567536665 150.17700048505657 32.488933093662524 H 0.0 **** 0.06
23350 H 52.34645712883578 150.1759304408787 32.112430541850244 H 0.0 **** 0.06
23351 C 119.09582168876325 78.4323334645257 53.49774926322647 C 0.0 **** -0.24
23352 H 119.77565199196233 78.28446831313174 52.65801397024023 H 0.0 **** 0.06
23353 H 118.36403670100547 77.62593364446262 53.518836514685745 H 0.0 **** 0.06
23354 H 118.58155920070699 79.38743895613422 53.3838619718494 H 0.0 **** 0.06
23355 H 119.66348698718959 78.43448159586309 54.42856083582012 H 0.0 **** 0.06
23356 C 87.05850356825215 10.180108384122775 132.70652283898022 C 0.0 **** -0.24
23357 H 86.3077208139201 9.652551411860259 132.11932906764588 H 0.0 **** 0.06
23358 H 86.56465033814487 10.803255383303252 133.4527617466217 H 0.0 **** 0.06
23359 H 87.65898805601694 10.8083721774276 132.04758452439205 H 0.0 **** 0.06
23360 H 87.70325272429375 9.456779717813845 133.20581017140867 H 0.0 **** 0.06
23361 C 6.036696502800282 10.339063675568319 65.71640961048142 C 0.0 **** -0.24
23362 H 6.9817225656044 10.487409954180293 66.23995218593822 H 0.0 **** 0.06
23363 H 6.2231736101477395 10.268953133695469 64.64432495784288 H 0.0 **** 0.06
23364 H 5.374380763069041 11.181322168846592 65.91646750685443 H 0.0 **** 0.06
23365 H 5.56994286856235 9.41842005705604 66.06512727473199 H 0.0 **** 0.06
23366 C 147.80105370331734 5.085502697980175 132.75308394103772 C 0.0 **** -0.24
23367 H 147.75374771202235 5.179717933715821 133.83867610809057 H 0.0 **** 0.06
23368 H 148.61703142919546 5.699078191887388 132.37103402251535 H 0.0 **** 0.06
23369 H 146.85938214915944 5.419617708723351 132.31790179104812 H 0.0 **** 0.06
23370 H 147.97396658341853 4.0426152419742465 132.48696635699338 H 0.0 **** 0.06
23371 C 147.71926900008486 29.718793736247918 78.48842158664189 C 0.0 **** -0.24
23372 H 147.98293608488513 29.9259595549725 79.52558100744807 H 0.0 **** 0.06
23373 H 148.12363375229438 30.50270879201731 77.8478132713027 H 0.0 **** 0.06
23374 H 146.6344242583695 29.690639197797303 78.38833729098593 H 0.0 **** 0.06
23375 H 148.13657877661797 28.756542966973555 78.19309354503702 H 0.0 **** 0.06
23376 C 54.26305399260161 97.56525639241158 38.03515129045405 C 0.0 **** -0.24
23377 H 55.124685218740694 97.40454345167122 38.68330301617249 H 0.0 **** 0.06
23378 H 53.650341255279386 98.37115226837527 38.43803909176813 H 0.0 **** 0.06
23379 H 53.67253586156653 96.65040608062216 37.98433869711536 H 0.0 **** 0.06
23380 H 54.60512279617524 97.83196066156624 37.034937586929004 H 0.0 **** 0.06
23381 C 24.64389136814033 122.4656237460578 9.954701388303988 C 0.0 **** -0.24
23382 H 24.61767685776354 122.4031428261773 8.867184225886376 H 0.0 **** 0.06
23383 H 23.776518785422304 123.02562216839705 10.306938954043517 H 0.0 **** 0.06
23384 H 25.555803893771966 122.97488161131655 10.266614272124627 H 0.0 **** 0.06
23385 H 24.62479663490833 121.46157923130595 10.377092954266203 H 0.0 **** 0.06
23386 C 85.87807818128141 44.82712578088568 55.78337279952041 C 0.0 **** -0.24
23387 H 84.81089746797383 44.682419091077534 55.61406543871463 H 0.0 **** 0.06
23388 H 86.35368318205371 43.86028733964045 55.9469178101959 H 0.0 **** 0.06
23389 H 86.02494824044715 45.45855218694243 56.659426758334874 H 0.0 **** 0.06
23390 H 86.32151024536086 45.307234650772045 54.91001880104318 H 0.0 **** 0.06
23391 C 39.249285230767384 87.46247951588074 141.6651963984641 C 0.0 **** -0.24
23392 H 39.02423777003955 86.78174688784166 140.84556518448264 H 0.0 **** 0.06
23393 H 39.875415824427705 86.95374154928561 142.39860955156158 H 0.0 **** 0.06
23394 H 38.32050378727703 87.78074184412647 142.13918670182375 H 0.0 **** 0.06
23395 H 39.7774174814773 88.33494042343128 141.27853891323207 H 0.0 **** 0.06
23396 C 31.172732559930182 53.63896431492802 136.12202871642998 C 0.0 **** -0.24
23397 H 31.295487608451168 54.60607411607373 135.6351617129099 H 0.0 **** 0.06
23398 H 31.947547503653254 53.513134079073254 136.87861859343602 H 0.0 **** 0.06
23399 H 31.256229701965566 52.845468500642454 135.38045455278152 H 0.0 **** 0.06
23400 H 30.1920030432708 53.5929095512612 136.5952572429099 H 0.0 **** 0.06
23401 C 58.65930503204879 30.29890611603429 8.934775504723234 C 0.0 **** -0.24
23402 H 58.85040368418154 31.36410266650978 8.8002752351249 H 0.0 **** 0.06
23403 H 58.593183021416564 29.816657800921078 7.958820507625433 H 0.0 **** 0.06
23404 H 57.72134530644803 30.162976381948653 9.472560136922311 H 0.0 **** 0.06
23405 H 59.47414698457709 29.85430242983412 9.506601389665434 H 0.0 **** 0.06
23406 C 125.78400138211408 13.985265980590498 30.4356970185669 C 0.0 **** -0.24
23407 H 125.805484806991 14.670659997676012 29.588368169883566 H 0.0 **** 0.06
23408 H 125.76407197434175 14.555946313849262 31.36407756688523 H 0.0 **** 0.06
23409 H 126.67229139128379 13.354443197540917 30.414107061509014 H 0.0 **** 0.06
23410 H 124.89316868664058 13.359680948500369 30.3740190788548 H 0.0 **** 0.06
23411 C 5.4018321243577105 142.95733907048503 17.1490497632725 C 0.0 **** -0.24
23412 H 6.180063247175241 143.24013443717217 17.857538121602886 H 0.0 **** 0.06
23413 H 5.266313370584669 141.87600191597846 17.17188173976109 H 0.0 **** 0.06
23414 H 5.693376615892134 143.26617007317583 16.14538204934553 H 0.0 **** 0.06
23415 H 4.467182703763534 143.44713319036651 17.42231310335262 H 0.0 **** 0.06
23416 C 28.184153041804727 82.56248450867609 51.212202640340166 C 0.0 **** -0.24
23417 H 27.877038505276225 82.52986386696428 50.16713699257481 H 0.0 **** 0.06
23418 H 27.416265429825323 83.06247094152414 51.8022847064084 H 0.0 **** 0.06
23419 H 29.122619665939645 83.11009200092677 51.297847810865406 H 0.0 **** 0.06
23420 H 28.32228769820562 81.54613425092028 51.582280565604364 H 0.0 **** 0.06
23421 C 144.83571454401687 10.671474193224924 18.999798033872253 C 0.0 **** -0.24
23422 H 145.79126854093047 10.174808643404731 18.83012901439244 H 0.0 **** 0.06
23423 H 144.37560826369148 10.27450267660825 19.904810467121877 H 0.0 **** 0.06
23424 H 144.17829843970173 10.492147628179225 18.148131566530253 H 0.0 **** 0.06
23425 H 144.99877743621664 11.742929023990541 19.113770369830007 H 0.0 **** 0.06
23426 C 128.66191776063778 122.62549580970949 101.02161500958137 C 0.0 **** -0.24
23427 H 129.22357292808175 123.54238426803585 100.83775974346896 H 0.0 **** 0.06
23428 H 127.59971182605243 122.81386965854318 100.86404111346882 H 0.0 **** 0.06
23429 H 128.82504044161092 122.299304247512 102.04877795957576 H 0.0 **** 0.06
23430 H 129.00006445411816 121.85001432131611 100.33510578870194 H 0.0 **** 0.06
23431 C 105.56710253082804 15.935362274005342 75.91990872852939 C 0.0 **** -0.24
23432 H 105.53023406746979 16.720315551730778 76.67524887545301 H 0.0 **** 0.06
23433 H 106.03654877663178 15.046091654731612 76.34266364299049 H 0.0 **** 0.06
23434 H 106.14719102777497 16.281183695300683 75.06482830900119 H 0.0 **** 0.06
23435 H 104.55441976323095 15.693538353362754 75.59827158260372 H 0.0 **** 0.06
23436 C 105.30995456789117 127.15562913245924 40.28380720488393 C 0.0 **** -0.24
23437 H 104.5736956385872 127.64792396484921 40.918024999703746 H 0.0 **** 0.06
23438 H 105.0381953731254 126.10669184981134 40.1598425592763 H 0.0 **** 0.06
23439 H 106.29381753635988 127.22310464371361 40.74986346681372 H 0.0 **** 0.06
23440 H 105.33512044473974 127.64285011435084 39.309776393964526 H 0.0 **** 0.06
23441 C 141.3176573039626 108.7961088415139 104.27034629797434 C 0.0 **** -0.24
23442 H 141.97310248562604 108.05078144675434 103.81945122135913 H 0.0 **** 0.06
23443 H 140.37999155667595 108.32401618243728 104.56429042762356 H 0.0 **** 0.06
23444 H 141.11654154242586 109.5860545583331 103.54805700488696 H 0.0 **** 0.06
23445 H 141.80247159951662 109.22061435279937 105.14963171820837 H 0.0 **** 0.06
23446 C 94.75700957255697 52.5671004748762 131.78868402105587 C 0.0 **** -0.24
23447 H 94.24170532007284 51.60770748914639 131.8434044518121 H 0.0 **** 0.06
23448 H 94.71273453789158 53.05996526718572 132.75960094391024 H 0.0 **** 0.06
23449 H 94.27564812559285 53.19479530091067 131.0392482267581 H 0.0 **** 0.06
23450 H 95.7986610732276 52.40297053263505 131.5111732768819 H 0.0 **** 0.06
23451 C 69.38317158061848 4.414295941866442 85.46781304624494 C 0.0 **** -0.24
23452 H 69.73329402429808 5.1041724613573365 86.23571495154782 H 0.0 **** 0.06
23453 H 70.2087599252209 4.160473887106434 84.80317862814447 H 0.0 **** 0.06
23454 H 68.58533572827022 4.885210523726073 84.89330535368389 H 0.0 **** 0.06
23455 H 69.00393683308742 3.507585454236107 85.93934329433033 H 0.0 **** 0.06
23456 C 60.37784311482281 40.29407345620746 60.221903499741984 C 0.0 **** -0.24
23457 H 60.89711934618714 40.06488003447032 59.291171393803836 H 0.0 **** 0.06
23458 H 60.57909851446894 39.51031398271948 60.9521432005491 H 0.0 **** 0.06
23459 H 59.30504670686099 40.34892300522699 60.03457466029681 H 0.0 **** 0.06
23460 H 60.72828246607706 41.2504744364021 60.60754068181143 H 0.0 **** 0.06
23461 C 13.830718875819457 154.71127821693813 47.454731883302486 C 0.0 **** -0.24
23462 H 14.737320313052749 155.01991930024926 46.932205084287034 H 0.0 **** 0.06
23463 H 13.454076242788858 155.5438426969926 48.04946829986818 H 0.0 **** 0.06
23464 H 14.05850943790142 153.87035713695346 48.10893050197046 H 0.0 **** 0.06
23465 H 13.076469486509097 154.41308793965712 46.727719482094074 H 0.0 **** 0.06
23466 C 47.07498403256946 66.73687049594629 21.60462626724359 C 0.0 **** -0.24
23467 H 47.963557835914 66.26975198046605 21.179683250708592 H 0.0 **** 0.06
23468 H 47.267756660311534 67.00476755995861 22.643475895121014 H 0.0 **** 0.06
23469 H 46.24003898047016 66.03752570555277 21.558136438703798 H 0.0 **** 0.06
23470 H 46.82999325369681 67.63417614089255 21.03656045983996 H 0.0 **** 0.06
23471 C 146.8962102734408 1.148098416604494 102.37548809292987 C 0.0 **** -0.24
23472 H 147.69752156351157 1.3359069326249262 101.66074908270546 H 0.0 **** 0.06
23473 H 146.37732274016452 0.22785964363456657 102.10628182561608 H 0.0 **** 0.06
23474 H 146.19207582733074 1.98001330982391 102.35893619744873 H 0.0 **** 0.06
23475 H 147.31792096275643 1.0486137803343851 103.37598526594921 H 0.0 **** 0.06
23476 C 75.69760296594018 98.64313778059332 97.665418091481 C 0.0 **** -0.24
23477 H 76.1823537509185 98.20656904537628 96.79229892390276 H 0.0 **** 0.06
23478 H 75.69243621550636 97.91687709997734 98.47867476957515 H 0.0 **** 0.06
23479 H 74.67304619358909 98.9154285398146 97.41362490991429 H 0.0 **** 0.06
23480 H 76.2438752319634 99.53335224420124 97.97752784447312 H 0.0 **** 0.06
23481 C 119.63049502625681 148.86047421196423 121.39535895774385 C 0.0 **** -0.24
23482 H 119.8334186690203 149.69642364498208 120.72517297949013 H 0.0 **** 0.06
23483 H 118.57204619338155 148.8549502280088 121.65869007337419 H 0.0 **** 0.06
23484 H 120.2292097681855 148.96564990368068 122.29957042126038 H 0.0 **** 0.06
23485 H 119.88516557819527 147.92568803869744 120.89606406766616 H 0.0 **** 0.06
23486 C 78.28573318422166 67.55025945248073 83.80045776444484 C 0.0 **** -0.24
23487 H 78.00551920964774 66.8300296816338 84.56874277504755 H 0.0 **** 0.06
23488 H 77.38524732376263 67.96304819293196 83.34396198947378 H 0.0 **** 0.06
23489 H 78.88483312876917 67.0535420563043 83.03715719355263 H 0.0 **** 0.06
23490 H 78.86632662529945 68.3546531118457 84.2510038068888 H 0.0 **** 0.06
23491 C 28.83364133802398 121.52852013599586 101.90844793614788 C 0.0 **** -0.24
23492 H 29.807933517420906 121.88990909006436 102.23756409519153 H 0.0 **** 0.06
23493 H 28.741334550229553 120.46823126559723 102.14382559097591 H 0.0 **** 0.06
23494 H 28.73803083205133 121.67232863933357 100.83198268692952 H 0.0 **** 0.06
23495 H 28.04794821865162 122.08474219529954 102.41991251965463 H 0.0 **** 0.06
23496 C 40.59573654179884 76.58102910578584 75.7623039662154 C 0.0 **** -0.24
23497 H 40.249578318226924 77.39197287893428 76.40282589385839 H 0.0 **** 0.06
23498 H 40.07370338994849 75.66121202400743 76.02720511144251 H 0.0 **** 0.06
23499 H 41.668032519346156 76.44255475502872 75.90003870151807 H 0.0 **** 0.06
23500 H 40.39134716229607 76.82841926342682 74.72085413737284 H 0.0 **** 0.06
23501 C 83.74726009276897 116.55773864928767 155.9667379412737 C 0.0 **** -0.24
23502 H 84.50309103587686 116.53000741990314 155.1820034463868 H 0.0 **** 0.06
23503 H 83.96234714127027 115.78582306866463 156.70604341813356 H 0.0 **** 0.06
23504 H 82.7642162095702 116.38069704646819 155.53090580439908 H 0.0 **** 0.06
23505 H 83.75942725524466 117.53527504312848 156.44852754434112 H 0.0 **** 0.06
23506 C 44.435520032177635 100.41043274087872 94.53384491378083 C 0.0 **** -0.24
23507 H 45.17764752616807 101.00588192274938 95.06515998930199 H 0.0 **** 0.06
23508 H 44.6167060245337 99.35169596155725 94.7220702427268 H 0.0 **** 0.06
23509 H 44.50963873631099 100.60771380535539 93.46372608016266 H 0.0 **** 0.06
23510 H 43.437907836579825 100.67643289120002 94.88343968142051 H 0.0 **** 0.06
23511 C 50.23924178319966 71.22049501654735 7.820786597038932 C 0.0 **** -0.24
23512 H 49.89195750874474 71.09755968663654 8.84673016966849 H 0.0 **** 0.06
23513 H 51.174070319063375 71.7815531916741 7.817782737311745 H 0.0 **** 0.06
23514 H 49.48868741254242 71.7621185195064 7.245373894225565 H 0.0 **** 0.06
23515 H 50.402808837290664 70.23997199109445 7.373553895288524 H 0.0 **** 0.06
23516 C 124.75162901009706 35.28724864733459 98.87331267273389 C 0.0 **** -0.24
23517 H 124.39283891151423 34.26677878381112 98.73503169086489 H 0.0 **** 0.06
23518 H 124.54091620107702 35.870854386199355 97.97701075211867 H 0.0 **** 0.06
23519 H 125.82683188972679 35.27279770440823 99.05412925666474 H 0.0 **** 0.06
23520 H 124.24588799130198 35.73699205579838 99.72780583406175 H 0.0 **** 0.06
23521 C 154.2231769448888 120.96297846422004 131.04233123393024 C 0.0 **** -0.24
23522 H 153.82159886673793 121.74939173488735 130.40400697812527 H 0.0 **** 0.06
23523 H 154.04438652181761 119.992389137342 130.5792685760499 H 0.0 **** 0.06
23524 H 153.73188133378375 120.99867766614659 132.0142334062108 H 0.0 **** 0.06
23525 H 155.29550079558032 121.11257003367666 131.17124833066217 H 0.0 **** 0.06
23526 C 110.23217933517832 99.26735991952143 53.460706358475264 C 0.0 **** -0.24
23527 H 109.20545803271808 99.53475685601694 53.71245215648132 H 0.0 **** 0.06
23528 H 110.23573457373202 98.33572458080815 52.894368432565 H 0.0 **** 0.06
23529 H 110.80899777477448 99.13849004633073 54.37673077146168 H 0.0 **** 0.06
23530 H 110.67685470025141 100.06020101739006 52.859637752997315 H 0.0 **** 0.06
23531 C 63.28597724895367 27.970650963648453 35.207515546541345 C 0.0 **** -0.24
23532 H 63.85146645555332 28.880426157061876 35.40880817434606 H 0.0 **** 0.06
23533 H 62.8532633253414 27.59983468049724 36.13628601947477 H 0.0 **** 0.06
23534 H 63.95079628739141 27.21584359403945 34.78805739879829 H 0.0 **** 0.06
23535 H 62.489969724278225 28.189213581218716 34.49657037786369 H 0.0 **** 0.06
23536 C 14.686152251112503 103.69874610171756 135.8766578721839 C 0.0 **** -0.24
23537 H 15.37792986147241 104.42858276279584 135.45386369305987 H 0.0 **** 0.06
23538 H 15.145493001631564 103.22521050419921 136.74411033248975 H 0.0 **** 0.06
23539 H 14.455820433894928 102.94234775453437 135.1272511581152 H 0.0 **** 0.06
23540 H 13.768123679692849 104.20211520966954 136.17976635439527 H 0.0 **** 0.06
23541 C 51.56031070725919 104.17429688182231 130.4282701308839 C 0.0 **** -0.24
23542 H 52.32072242345794 104.64688220971597 129.806494606338 H 0.0 **** 0.06
23543 H 51.23763086597148 104.87295335906695 131.20159127272248 H 0.0 **** 0.06
23544 H 51.976451571037614 103.28178851924626 130.89605137282524 H 0.0 **** 0.06
23545 H 50.70643984249784 103.8961293274976 129.81023935501543 H 0.0 **** 0.06
23546 C 95.10708590157572 77.40560216545025 135.00405467891608 C 0.0 **** -0.24
23547 H 95.24609076667316 78.47027861372761 134.81953817545258 H 0.0 **** 0.06
23548 H 95.568206979006 77.13853033977766 135.95571413072182 H 0.0 **** 0.06
23549 H 95.57410825467524 76.83443049661841 134.20098945416535 H 0.0 **** 0.06
23550 H 94.04134441584026 77.17914126659034 135.03983493384845 H 0.0 **** 0.06
23551 C 36.33329418991673 145.0574834910652 98.46365666074409 C 0.0 **** -0.24
23552 H 35.60086126667818 145.04734092317466 99.27082938816956 H 0.0 **** 0.06
23553 H 35.88277230208979 145.48842423886973 97.56995439032642 H 0.0 **** 0.06
23554 H 36.6562344343032 144.03747730853974 98.25414849067079 H 0.0 **** 0.06
23555 H 37.194300092474236 145.65625110582138 98.76266483458367 H 0.0 **** 0.06
23556 C 53.81524670056572 8.272923064897235 122.65824695598873 C 0.0 **** -0.24
23557 H 54.1673085567741 7.701497855134946 123.51760333042766 H 0.0 **** 0.06
23558 H 53.67128500780335 9.314172444516196 122.94964957799745 H 0.0 **** 0.06
23559 H 52.87034088991793 7.85766135897827 122.30898721219528 H 0.0 **** 0.06
23560 H 54.555101000956654 8.21796843172583 121.85863246861716 H 0.0 **** 0.06
23561 C 145.3035500329835 92.30106707134091 78.28780145165315 C 0.0 **** -0.24
23562 H 144.79062619424343 92.7720754260332 77.44911858912366 H 0.0 **** 0.06
23563 H 146.14150675367273 91.71076237812666 77.91526069239823 H 0.0 **** 0.06
23564 H 144.608335249446 91.65039007062569 78.81874922034237 H 0.0 **** 0.06
23565 H 145.67334015217278 93.06905417188435 78.96610205215676 H 0.0 **** 0.06
23566 C 139.80840411177275 130.40488972236963 149.56260596546954 C 0.0 **** -0.24
23567 H 140.38675569520976 129.48310066909602 149.62153850173723 H 0.0 **** 0.06
23568 H 139.3991280613784 130.51279964914215 148.55726607739714 H 0.0 **** 0.06
23569 H 140.453591040348 131.25419983497983 149.78538568249348 H 0.0 **** 0.06
23570 H 138.99275707510716 130.3689633444992 150.2848779936929 H 0.0 **** 0.06
23571 C 126.25118764615092 24.466812622653862 148.42590712442282 C 0.0 **** -0.24
23572 H 126.07046112633833 23.732981359023142 147.63995210125105 H 0.0 **** 0.06
23573 H 127.06427745624461 25.12781191887217 148.12352721988876 H 0.0 **** 0.06
23574 H 126.52467669324551 23.952834757332425 149.34669924247152 H 0.0 **** 0.06
23575 H 125.34786110313985 25.05235205183311 148.59099903764567 H 0.0 **** 0.06
23576 C 106.47917183816286 145.4385373664751 100.53489675531169 C 0.0 **** -0.24
23577 H 105.68056220913873 144.75509555576778 100.82455628768942 H 0.0 **** 0.06
23578 H 106.8096180285908 145.20294314967282 99.5223309980832 H 0.0 **** 0.06
23579 H 107.31599635195043 145.33225581382408 101.22473413790242 H 0.0 **** 0.06
23580 H 106.10932338143591 146.4636063859049 100.56672929651567 H 0.0 **** 0.06
23581 C 74.61045597112536 32.77021414440211 2.121600165656048 C 0.0 **** -0.24
23582 H 75.33472402616036 32.56522275698802 2.9102261860867884 H 0.0 **** 0.06
23583 H 75.12926617793775 33.15024627430026 1.2411115257991128 H 0.0 **** 0.06
23584 H 73.89332741230811 33.51291101713762 2.4712866796481876 H 0.0 **** 0.06
23585 H 74.08504161850294 31.850426187621203 1.864490177366804 H 0.0 **** 0.06
23586 C 65.43625576871705 103.13433954596098 151.32552918054398 C 0.0 **** -0.24
23587 H 65.68640952207754 103.11793049325229 152.3865652456049 H 0.0 **** 0.06
23588 H 66.17931612972258 102.5629735285936 150.7686585809326 H 0.0 **** 0.06
23589 H 65.42844609805927 104.16427288007395 150.97024904731265 H 0.0 **** 0.06
23590 H 64.45145120479877 102.69224727880385 151.17744123229807 H 0.0 **** 0.06
23591 C 54.95782027144125 66.20435371982552 12.7320064154558 C 0.0 **** -0.24
23592 H 54.68984953461813 65.1478890920637 12.71745146042312 H 0.0 **** 0.06
23593 H 55.986342456183365 66.32229141410028 12.389237507239983 H 0.0 **** 0.06
23594 H 54.8666674297213 66.58836040572533 13.747860087762604 H 0.0 **** 0.06
23595 H 54.288922822413895 66.75720139217498 12.072079646730373 H 0.0 **** 0.06
23596 C 130.98796461431965 96.89633319447019 97.06333679874966 C 0.0 **** -0.24
23597 H 131.02786927179213 95.96720608974015 97.63338519029256 H 0.0 **** 0.06
23598 H 131.7554295603665 97.57891774926271 97.4284786316214 H 0.0 **** 0.06
23599 H 130.00609688923436 97.35439130717326 97.18508336530284 H 0.0 **** 0.06
23600 H 131.16053005626364 96.68294624178665 96.0090006048185 H 0.0 **** 0.06
23601 C 47.825927994049465 119.63168916746798 75.79434419581465 C 0.0 **** -0.24
23602 H 47.247434436965136 118.77811479537019 75.4412724462877 H 0.0 **** 0.06
23603 H 47.231842766402906 120.54043116737682 75.6934510946555 H 0.0 **** 0.06
23604 H 48.73525189715606 119.72486226911803 75.19956900912263 H 0.0 **** 0.06
23605 H 48.090409390881575 119.48409003313361 76.84168930405063 H 0.0 **** 0.06
23606 C 55.37886625127365 89.38372192188629 9.47723888227091 C 0.0 **** -0.24
23607 H 55.035763135417085 89.61623954535247 10.48544594585212 H 0.0 **** 0.06
23608 H 55.63547408828464 90.30888531874801 8.95966296624124 H 0.0 **** 0.06
23609 H 54.58523982351133 88.87101794235268 8.932874643785794 H 0.0 **** 0.06
23610 H 56.25672283104268 88.74059265166993 9.531646685915916 H 0.0 **** 0.06
23611 C 38.81611105116174 111.5958131556359 127.72510423344283 C 0.0 **** -0.24
23612 H 39.32591080637654 112.50576457227122 128.0399204729851 H 0.0 **** 0.06
23613 H 39.459098333106496 110.73539865090505 127.91226974395892 H 0.0 **** 0.06
23614 H 38.591057016490495 111.65529565843168 126.65960142754659 H 0.0 **** 0.06
23615 H 37.88867827765603 111.48615628488038 128.28739908479736 H 0.0 **** 0.06
23616 C 84.48503868281205 21.771601633976104 21.90242795449788 C 0.0 **** -0.24
23617 H 84.63578446621881 21.065030624309827 22.71777251004289 H 0.0 **** 0.06
23618 H 84.02157579648178 22.679027198523244 22.288709777878836 H 0.0 **** 0.06
23619 H 83.83686244899945 21.32456191891106 21.148871237914165 H 0.0 **** 0.06
23620 H 85.44783049404995 22.01712719681683 21.45337804287172 H 0.0 **** 0.06
23621 C 20.072298600384187 75.65371575990359 40.64779362943766 C 0.0 **** -0.24
23622 H 19.024106441608836 75.47805775798963 40.893315914366056 H 0.0 **** 0.06
23623 H 20.378763617400466 76.62288940904747 41.04181687021851 H 0.0 **** 0.06
23624 H 20.19815940025609 75.64407982131357 39.56574842013235 H 0.0 **** 0.06
23625 H 20.68462250119609 74.86977158861852 41.09336701957302 H 0.0 **** 0.06
23626 C 92.17260101036281 17.735801844742497 131.0357542356947 C 0.0 **** -0.24
23627 H 91.57627511333344 17.497218971722077 130.15438805279928 H 0.0 **** 0.06
23628 H 91.94998171631214 18.75167074062273 131.36091831831405 H 0.0 **** 0.06
23629 H 93.2317129370616 17.656807702111564 130.7897755069663 H 0.0 **** 0.06
23630 H 91.93283864261703 17.036001126908843 131.83633504643217 H 0.0 **** 0.06
23631 C 126.2367563038175 88.10059605092323 20.660591380249997 C 0.0 **** -0.24
23632 H 125.80602949623024 88.92943007547899 20.098687249534315 H 0.0 **** 0.06
23633 H 127.32151412201752 88.10919416523598 20.546034504592058 H 0.0 **** 0.06
23634 H 125.83801330561663 87.1594341851823 20.283434914065815 H 0.0 **** 0.06
23635 H 125.98263032510674 88.20692648296995 21.715150289593637 H 0.0 **** 0.06
23636 C 45.433167766755645 16.799551016891087 115.10915910978053 C 0.0 **** -0.24
23637 H 44.61514329449744 16.679256963053945 114.39915279798083 H 0.0 **** 0.06
23638 H 45.840635613824034 17.807027193686963 115.02488349579039 H 0.0 **** 0.06
23639 H 46.21436296256395 16.071757544885486 114.88864739898486 H 0.0 **** 0.06
23640 H 45.062483291789945 16.640173595814417 116.12150367266804 H 0.0 **** 0.06
23641 C 61.63552081271922 28.954589718818852 43.64480296287252 C 0.0 **** -0.24
23642 H 62.1749633387156 28.42208947457405 44.42809149328821 H 0.0 **** 0.06
23643 H 61.830803418027756 28.482125599356294 42.68270421804192 H 0.0 **** 0.06
23644 H 61.96934230387302 29.99173220791255 43.61501476499899 H 0.0 **** 0.06
23645 H 60.566524181507134 28.924209781377556 43.85500268947544 H 0.0 **** 0.06
23646 C 25.397794457115708 88.41317223967881 83.58297366451654 C 0.0 **** -0.24
23647 H 24.497606664971556 88.40994111629666 84.19739140662995 H 0.0 **** 0.06
23648 H 25.145230244929962 88.73327341294195 82.57149441654613 H 0.0 **** 0.06
23649 H 25.82024731877948 87.40966031067252 83.55207050040642 H 0.0 **** 0.06
23650 H 26.126894999785634 89.10194639032002 84.01080805966052 H 0.0 **** 0.06
23651 C 134.4015959531622 49.23951256407827 151.58043106659744 C 0.0 **** -0.24
23652 H 134.0135418121132 50.244587920918036 151.74435228692147 H 0.0 **** 0.06
23653 H 135.36384571361157 49.30169274107425 151.0702921070903 H 0.0 **** 0.06
23654 H 133.70056237436242 48.674832327166484 150.9663270030964 H 0.0 **** 0.06
23655 H 134.52978352327682 48.739028644585915 152.53940938435338 H 0.0 **** 0.06
23656 C 96.78758171076092 47.714473174487466 123.81200900737794 C 0.0 **** -0.24
23657 H 97.17941599366455 48.059504831849495 124.76906686116602 H 0.0 **** 0.06
23658 H 96.95612721752673 46.64178031418987 123.71717172732518 H 0.0 **** 0.06
23659 H 97.29557674016618 48.23707567527441 123.00224588902982 H 0.0 **** 0.06
23660 H 95.71820665403015 47.920734144756324 123.76336660498428 H 0.0 **** 0.06
23661 C 89.10204400743764 142.58264036006057 70.05898286910828 C 0.0 **** -0.24
23662 H 89.55746336513678 141.63031159168105 70.32739997123105 H 0.0 **** 0.06
23663 H 89.61488017550292 142.99852860781948 69.19112070538065 H 0.0 **** 0.06
23664 H 89.18526253926285 143.27436768394614 70.89706141326782 H 0.0 **** 0.06
23665 H 88.04927868435725 142.4272602788792 69.81978017854047 H 0.0 **** 0.06
23666 C 123.23624081413453 18.460305707502812 123.48403010590748 C 0.0 **** -0.24
23667 H 122.65830547476918 19.12586156005318 124.12383223448093 H 0.0 **** 0.06
23668 H 124.05983900879403 18.03043400202182 124.05512732984776 H 0.0 **** 0.06
23669 H 123.63475872021394 19.022651418911238 122.6396537397013 H 0.0 **** 0.06
23670 H 122.59278046211733 17.6606190648842 123.1161894552197 H 0.0 **** 0.06
23671 C 27.87512609535463 15.18591503771205 48.55599748319504 C 0.0 **** -0.24
23672 H 27.478455962541346 16.109724138919375 48.13315676976869 H 0.0 **** 0.06
23673 H 27.501814527468184 14.335518773582976 47.985032201897766 H 0.0 **** 0.06
23674 H 27.55534192416556 15.096170102097062 49.594517403783954 H 0.0 **** 0.06
23675 H 28.963938325100912 15.204503393206892 48.51127540248618 H 0.0 **** 0.06
23676 C 27.32124932989879 95.86195118152929 138.0038418085748 C 0.0 **** -0.24
23677 H 28.29672721291459 96.3470238775071 137.9800925324312 H 0.0 **** 0.06
23678 H 27.044748086641363 95.65357959433666 139.03758502041939 H 0.0 **** 0.06
23679 H 27.36612032007082 94.92754699062796 137.4441444952339 H 0.0 **** 0.06
23680 H 26.57768888258039 96.52050060367958 137.55399381439457 H 0.0 **** 0.06
23681 C 104.28713843373502 3.79285577019931 51.7649056187401 C 0.0 **** -0.24
23682 H 104.70032625243265 4.679850921192724 51.28354906167942 H 0.0 **** 0.06
23683 H 103.21566147860467 3.9269867056130465 51.913184733432104 H 0.0 **** 0.06
23684 H 104.77297809930427 3.6443929040967475 52.72923246412927 H 0.0 **** 0.06
23685 H 104.46127980965879 2.9223048980817907 51.13202043825905 H 0.0 **** 0.06
23686 C 46.22201750434033 130.96771125584132 98.29872418056951 C 0.0 **** -0.24
23687 H 46.4266574380093 130.1335716808726 98.970073081654 H 0.0 **** 0.06
23688 H 45.514958587627405 131.64872766377607 98.77205387564524 H 0.0 **** 0.06
23689 H 45.79652355302693 130.58875288106853 97.36929094917393 H 0.0 **** 0.06
23690 H 47.15021858547132 131.4969133985606 98.08427022295551 H 0.0 **** 0.06
23691 C 9.106643940556907 36.68242839912685 62.59198371740274 C 0.0 **** -0.24
23692 H 9.19100960341894 35.87792025638504 61.86103038655051 H 0.0 **** 0.06
23693 H 9.918341013766884 36.60322281734736 63.31450013757291 H 0.0 **** 0.06
23694 H 8.150022194728479 36.603908286433125 63.10864037550812 H 0.0 **** 0.06
23695 H 9.165678915973473 37.64400596171333 62.08226504179879 H 0.0 **** 0.06
23696 C 45.2570280104148 86.7777341046193 109.1306028550564 C 0.0 **** -0.24
23697 H 45.15395133112585 87.44611356100359 108.2748547482721 H 0.0 **** 0.06
23698 H 46.03642401904294 86.04430766995719 108.92562682113441 H 0.0 **** 0.06
23699 H 44.311264804821036 86.26493286345345 109.30557861155103 H 0.0 **** 0.06
23700 H 45.52475518497758 87.35714628331459 110.01420477886592 H 0.0 **** 0.06
23701 C 29.63529522494008 11.526677193649391 88.03155273676197 C 0.0 **** -0.24
23702 H 29.811615351427434 10.801116070123527 87.23761512437729 H 0.0 **** 0.06
23703 H 29.52525820749284 12.520853775298349 87.59710079751703 H 0.0 **** 0.06
23704 H 30.480194732938457 11.522915655899965 88.72074528446568 H 0.0 **** 0.06
23705 H 28.724953579115862 11.262614833229833 88.56993348989609 H 0.0 **** 0.06
23706 C 129.68245644715134 139.66252438769 58.18407889652012 C 0.0 **** -0.24
23707 H 130.4457770212442 139.23413939189507 57.533881469185175 H 0.0 **** 0.06
23708 H 128.71919885245364 139.64290780865193 57.673413940499515 H 0.0 **** 0.06
23709 H 129.94629967064247 140.6916211570028 58.424235524883855 H 0.0 **** 0.06
23710 H 129.61916027277326 139.0787092075872 59.10272797117037 H 0.0 **** 0.06
23711 C 63.495609559915096 38.39943218553452 33.626807619864195 C 0.0 **** -0.24
23712 H 63.07926751394183 39.362020219333445 33.32787069117316 H 0.0 **** 0.06
23713 H 62.746208130769105 37.62068785749565 33.48780252391671 H 0.0 **** 0.06
23714 H 63.78535079151351 38.44109263915038 34.67752839551321 H 0.0 **** 0.06
23715 H 64.37085505370337 38.17650815853908 33.01745973830411 H 0.0 **** 0.06
23716 C 146.0861825076955 110.15291904661858 85.21113716527395 C 0.0 **** -0.24
23717 H 145.79377748505217 111.0891541315839 85.68631484850599 H 0.0 **** 0.06
23718 H 145.3428415622565 109.87809530646784 84.46235225406883 H 0.0 **** 0.06
23719 H 146.15050036857636 109.367669472081 85.9648008907015 H 0.0 **** 0.06
23720 H 147.05700619558854 110.27663864363988 84.73186847244745 H 0.0 **** 0.06
23721 C 47.77654140429527 96.5405046558344 69.80786352612334 C 0.0 **** -0.24
23722 H 47.42598827355009 95.54641117653782 70.08512571999958 H 0.0 **** 0.06
23723 H 48.362801154234035 96.47550322280951 68.89016474368312 H 0.0 **** 0.06
23724 H 48.396714361754235 96.94330871135787 70.60805040194727 H 0.0 **** 0.06
23725 H 46.92025005220607 97.19575548605687 69.6459340231769 H 0.0 **** 0.06
23726 C 75.61802787147086 84.59799649861573 92.94320233811348 C 0.0 **** -0.24
23727 H 75.19833165879186 84.33105737389397 93.91305091430758 H 0.0 **** 0.06
23728 H 75.65836213187694 83.71330247725184 92.3085762488561 H 0.0 **** 0.06
23729 H 76.62437431446585 84.99314709580848 93.08030631092447 H 0.0 **** 0.06
23730 H 74.99108695573574 85.35511785782488 92.47301835015048 H 0.0 **** 0.06
23731 C 36.23681127443781 21.962340639717922 63.727813561643984 C 0.0 **** -0.24
23732 H 35.29494129034042 21.67551317492041 64.19580995005947 H 0.0 **** 0.06
23733 H 36.30237241151349 23.04977256342505 63.67929290492651 H 0.0 **** 0.06
23734 H 36.28247494231887 21.549694808450397 62.71969504839814 H 0.0 **** 0.06
23735 H 37.06820323737168 21.574521422438806 64.31710665947358 H 0.0 **** 0.06
23736 C 114.98807210085306 26.673554348063746 31.66006136092676 C 0.0 **** -0.24
23737 H 114.49271989472402 26.84210626267386 30.70363774717319 H 0.0 **** 0.06
23738 H 115.14786053631934 27.63037143231167 32.15865282074684 H 0.0 **** 0.06
23739 H 115.94802301389467 26.187082201829696 31.491008936495454 H 0.0 **** 0.06
23740 H 114.36255302440333 26.036997929317586 32.28544881288735 H 0.0 **** 0.06
23741 C 30.41574149633191 134.11292202206386 119.39917954788716 C 0.0 **** -0.24
23742 H 30.701429217511247 134.38579458824998 120.41499190987024 H 0.0 **** 0.06
23743 H 30.936567545683147 133.19995822134706 119.10793902154113 H 0.0 **** 0.06
23744 H 30.68646767128822 134.91879927795543 118.71696121088634 H 0.0 **** 0.06
23745 H 29.339324449731585 133.946568730522 119.35679326946881 H 0.0 **** 0.06
23746 C 20.712836491776216 56.99499350873043 12.797262922649566 C 0.0 **** -0.24
23747 H 20.82925697227563 57.24301056233742 11.742388771432388 H 0.0 **** 0.06
23748 H 19.791587150827525 56.427744794190744 12.937221067951867 H 0.0 **** 0.06
23749 H 20.667868686011104 57.912092951336376 13.384088415367813 H 0.0 **** 0.06
23750 H 21.562287247469158 56.39486417171486 13.124478273779289 H 0.0 **** 0.06
23751 C 116.97252816451856 26.16766016414857 87.25886567906974 C 0.0 **** -0.24
23752 H 118.02811832616004 25.894379404332142 87.25477468130417 H 0.0 **** 0.06
23753 H 116.45464685186533 25.63030032728625 86.46458360430914 H 0.0 **** 0.06
23754 H 116.87561540125233 27.241191849430777 87.09610414717937 H 0.0 **** 0.06
23755 H 116.53364488505252 25.905527082866683 88.22218360436881 H 0.0 **** 0.06
23756 C 0.5422553057023265 43.97684476664081 36.99014333089096 C 0.0 **** -0.24
23757 H -0.3903313878269614 44.33560216394041 36.55347653278665 H 0.0 **** 0.06
23758 H 0.5073760069747664 42.89067551144224 37.07807213439857 H 0.0 **** 0.06
23759 H 0.6733907113607529 44.41787439725206 37.97822482465945 H 0.0 **** 0.06
23760 H 1.3768861533272343 44.263936626220186 36.35002044758278 H 0.0 **** 0.06
23761 C 36.642604474232144 37.605061979090365 126.26068183468664 C 0.0 **** -0.24
23762 H 37.196762483512146 37.46143930327217 127.18755348531442 H 0.0 **** 0.06
23763 H 37.11629626524319 38.39148514080287 125.67299878010368 H 0.0 **** 0.06
23764 H 35.615960824932245 37.89132814951387 126.49126631171447 H 0.0 **** 0.06
23765 H 36.64139832324082 36.67599532277259 125.69090876161391 H 0.0 **** 0.06
23766 C 20.98451740367608 27.57886269510331 31.977313675468466 C 0.0 **** -0.24
23767 H 20.429983315896152 27.769014975291213 31.05876552543409 H 0.0 **** 0.06
23768 H 20.749486066547774 26.577996303937567 32.34263337722691 H 0.0 **** 0.06
23769 H 20.70460593422399 28.316032918951123 32.73040751294772 H 0.0 **** 0.06
23770 H 22.053912626960994 27.65040985932893 31.77736730678138 H 0.0 **** 0.06
23771 C 26.926340486418013 11.686844744522574 6.586035751352284 C 0.0 **** -0.24
23772 H 27.38589482195914 12.574120996636701 7.022693934952429 H 0.0 **** 0.06
23773 H 26.355903186561477 11.159313182655971 7.350279428452069 H 0.0 **** 0.06
23774 H 27.704933764474845 11.030632510884423 6.196849820347268 H 0.0 **** 0.06
23775 H 26.262113364736194 11.984199970831291 5.775358978916131 H 0.0 **** 0.06
23776 C 124.06428201281828 37.050416317788745 52.125293120609285 C 0.0 **** -0.24
23777 H 124.75578885645614 36.27147539146449 51.804124957752606 H 0.0 **** 0.06
23778 H 123.16859146561525 37.01921660132814 51.50462597620407 H 0.0 **** 0.06
23779 H 124.54319612430827 38.02454533104208 52.02520007883689 H 0.0 **** 0.06
23780 H 123.79059232454678 36.885954603487164 53.16805388379396 H 0.0 **** 0.06
23781 C 145.30373408403491 79.42164815532345 140.3891218309613 C 0.0 **** -0.24
23782 H 144.92277171117897 80.42077322449637 140.6038134292857 H 0.0 **** 0.06
23783 H 144.8057650079242 79.02578375474008 139.50412531114034 H 0.0 **** 0.06
23784 H 145.10717055966762 78.76869063839837 141.23981681249973 H 0.0 **** 0.06
23785 H 146.37732777945806 79.47359140285596 140.21026121232094 H 0.0 **** 0.06
23786 C 114.59651159957436 57.177520308681764 3.3966470551893906 C 0.0 **** -0.24
23787 H 115.63513807900004 57.506949227796525 3.4168034595663244 H 0.0 **** 0.06
23788 H 114.2340793114982 57.1854118790546 2.3680517635962417 H 0.0 **** 0.06
23789 H 113.99115461629638 57.85195076005479 4.001222210601043 H 0.0 **** 0.06
23790 H 114.52808507119154 56.16756108886274 3.7995215020785054 H 0.0 **** 0.06
23791 C 77.88768620136486 45.22033645641079 124.83381094752751 C 0.0 **** -0.24
23792 H 77.44895372721125 45.665944728874024 123.94034589798521 H 0.0 **** 0.06
23793 H 77.3106617922923 44.3419625643437 125.12215413381956 H 0.0 **** 0.06
23794 H 77.87365309223634 45.94822211402291 125.64566083840192 H 0.0 **** 0.06
23795 H 78.91629227377025 44.928961420176904 124.62582838867361 H 0.0 **** 0.06
23796 C 86.99217769659674 112.09425335860901 71.98408314976132 C 0.0 **** -0.24
23797 H 87.6694130116553 112.02867241177596 71.13167527464145 H 0.0 **** 0.06
23798 H 87.5522509988672 111.93034783662851 72.90532447743362 H 0.0 **** 0.06
23799 H 86.21578281358893 111.33572666414308 71.88963275549094 H 0.0 **** 0.06
23800 H 86.53416503313244 113.0825178324183 72.00735039222275 H 0.0 **** 0.06
23801 C 79.95519158516561 68.8391145150178 74.10888247407651 C 0.0 **** -0.24
23802 H 78.9732024829357 68.90362327691746 74.57568289965027 H 0.0 **** 0.06
23803 H 80.72340070428184 68.80873084636183 74.88223251564185 H 0.0 **** 0.06
23804 H 80.11392671459272 69.70999061503919 73.47265793983019 H 0.0 **** 0.06
23805 H 80.01192477899114 67.93390742581106 73.50462910861827 H 0.0 **** 0.06
23806 C 130.34188019830495 20.79487335221347 114.62428896457477 C 0.0 **** -0.24
23807 H 129.44813565051157 20.65640043501469 115.23306283100591 H 0.0 **** 0.06
23808 H 131.20621657738133 20.93434781607027 115.27512092003194 H 0.0 **** 0.06
23809 H 130.2179942870103 21.673706234557358 113.9920005044335 H 0.0 **** 0.06
23810 H 130.49575182600154 19.91548790468073 113.99908466152563 H 0.0 **** 0.06
23811 C 99.87918406894615 122.69368656622804 137.0619506398345 C 0.0 **** -0.24
23812 H 99.76208618914656 122.25008916578922 138.05019356128344 H 0.0 **** 0.06
23813 H 98.94949193388803 123.18300962674412 136.7714336015065 H 0.0 **** 0.06
23814 H 100.12161833333668 121.91427483916696 136.33970577036052 H 0.0 **** 0.06
23815 H 100.6841243265507 123.42817367429386 137.08659892096986 H 0.0 **** 0.06
23816 C 2.528824789987965 63.500647801341145 69.79060332013933 C 0.0 **** -0.24
23817 H 2.539387458604182 63.188800403955796 70.83471647650899 H 0.0 **** 0.06
23818 H 1.7219986732970938 64.21614156769319 69.63299320930918 H 0.0 **** 0.06
23819 H 2.3719810494437468 62.629505073764804 69.1540853879751 H 0.0 **** 0.06
23820 H 3.4824071241895354 63.96598067777971 69.54031202982367 H 0.0 **** 0.06
23821 C 108.3841686351608 122.03204267366517 125.35394091452447 C 0.0 **** -0.24
23822 H 107.8269447741756 122.91626473829966 125.6634155998599 H 0.0 **** 0.06
23823 H 109.19736906166436 121.85147020626358 126.05623735442889 H 0.0 **** 0.06
23824 H 108.79427789268983 122.19304760527483 124.35602631900132 H 0.0 **** 0.06
23825 H 107.71774632794593 121.1703996911195 125.33728833032835 H 0.0 **** 0.06
23826 C 21.66626610075565 95.92140139560613 112.31011166018921 C 0.0 **** -0.24
23827 H 21.714496431481166 94.88052721927585 112.63198662952571 H 0.0 **** 0.06
23828 H 22.650193418201184 96.37970277100563 112.41508112798194 H 0.0 **** 0.06
23829 H 20.947141698950816 96.45953736574867 112.92650795882192 H 0.0 **** 0.06
23830 H 21.355564872829746 95.96393703950147 111.26589752631192 H 0.0 **** 0.06
23831 C 82.01833701754391 1.26479412119539 55.59254167971045 C 0.0 **** -0.24
23832 H 81.95048485622542 0.8382917538442065 54.591195824522345 H 0.0 **** 0.06
23833 H 82.3486705317991 0.49644325145577284 56.292016770360135 H 0.0 **** 0.06
23834 H 81.04029021148416 1.636872785449718 55.895298244506506 H 0.0 **** 0.06
23835 H 82.73500171188145 2.0861825172569084 55.588358814334356 H 0.0 **** 0.06
23836 C 109.19324741741501 65.62907256388408 85.12302700824294 C 0.0 **** -0.24
23837 H 109.92938625088543 65.65486139373537 84.3190007305805 H 0.0 **** 0.06
23838 H 109.34214215191004 66.48893258656335 85.77713847614697 H 0.0 **** 0.06
23839 H 109.31386472923002 64.71062291129009 85.69616776018987 H 0.0 **** 0.06
23840 H 108.19103902881643 65.66434086217068 84.69778576878785 H 0.0 **** 0.06
23841 C 101.44158774590659 131.0216203287007 147.71614278110445 C 0.0 **** -0.24
23842 H 100.95486188302215 130.25425183256448 147.11503866082364 H 0.0 **** 0.06
23843 H 102.41976927170424 131.25031743183263 147.2925318458394 H 0.0 **** 0.06
23844 H 101.56389429624761 130.65970683670335 148.73692453921944 H 0.0 **** 0.06
23845 H 100.82890965402169 131.92283668415064 147.72127024082687 H 0.0 **** 0.06
23846 C 42.66716406364445 90.00407946034716 38.95870135755415 C 0.0 **** -0.24
23847 H 41.86633891853562 90.63463686060905 39.34561884247813 H 0.0 **** 0.06
23848 H 42.76609459057508 89.11833319007596 39.58528728853189 H 0.0 **** 0.06
23849 H 43.60316785133165 90.56197541375028 38.96567723109857 H 0.0 **** 0.06
23850 H 42.4309431210301 89.70439626220173 37.93759199822945 H 0.0 **** 0.06
23851 C 4.917711081895618 22.64885412362257 4.866411118113156 C 0.0 **** -0.24
23852 H 5.594421091435208 23.49955935725417 4.949193073316486 H 0.0 **** 0.06
23853 H 5.423013587778826 21.748205025205706 5.213778675013906 H 0.0 **** 0.06
23854 H 4.620912457014867 22.5212031350828 3.8253277992079333 H 0.0 **** 0.06
23855 H 4.032562623853664 22.828439280888688 5.4771590781776 H 0.0 **** 0.06
23856 C 52.55815418100849 151.2177322493213 126.46151403740521 C 0.0 **** -0.24
23857 H 51.52706123395842 151.08811693299907 126.79058375624987 H 0.0 **** 0.06
23858 H 53.14458131867093 150.34829879879882 126.75665861209211 H 0.0 **** 0.06
23859 H 52.97613711300073 152.11288031614177 126.92179424569025 H 0.0 **** 0.06
23860 H 52.58133749886554 151.32177572290178 125.37616331021223 H 0.0 **** 0.06
23861 C 107.33650432356161 111.19261318183204 108.23772184253734 C 0.0 **** -0.24
23862 H 106.3181876737677 111.4829962241093 107.9777053304956 H 0.0 **** 0.06
23863 H 107.52977290890637 111.44226893916608 109.28137501938552 H 0.0 **** 0.06
23864 H 108.03981567492382 111.72707734770431 107.59930672520439 H 0.0 **** 0.06
23865 H 107.45620475185414 110.1191488319058 108.09161994441958 H 0.0 **** 0.06
23866 C 142.08334702511485 124.07238797026095 34.77973447105458 C 0.0 **** -0.24
23867 H 142.81080579795628 123.45932113593047 34.24889888423195 H 0.0 **** 0.06
23868 H 142.31919679843205 125.12664916612697 34.63058713931058 H 0.0 **** 0.06
23869 H 142.11907355549707 123.83891625232921 35.844237768702286 H 0.0 **** 0.06
23870 H 141.08502423798578 123.86498122906475 34.39639430998808 H 0.0 **** 0.06
23871 C 63.964590180955895 123.32477239285748 73.89296288461007 C 0.0 **** -0.24
23872 H 64.70338033783344 122.5248059358089 73.86484897051868 H 0.0 **** 0.06
23873 H 63.823541376794424 123.65385509436953 74.92239305486846 H 0.0 **** 0.06
23874 H 63.018564562061584 122.95927315867766 73.4954223707729 H 0.0 **** 0.06
23875 H 64.31382554430303 124.16198907915305 73.28800373117787 H 0.0 **** 0.06
23876 C 106.60971509560784 141.98944504947656 37.5592907523517 C 0.0 **** -0.24
23877 H 105.6672983981079 141.45972415100033 37.697037610271536 H 0.0 **** 0.06
23878 H 106.42326735802743 143.0640939552424 37.54235851350927 H 0.0 **** 0.06
23879 H 107.0634002395845 141.6837393664515 36.61748268403949 H 0.0 **** 0.06
23880 H 107.28438508489398 141.75072651011823 38.38302045318767 H 0.0 **** 0.06
23881 C 43.6190051646812 83.99840826661045 0.9251808195685385 C 0.0 **** -0.24
23882 H 44.25989477766001 84.2255207481652 1.7764446205734998 H 0.0 **** 0.06
23883 H 42.88222383902382 84.79182185341519 0.8035222867967775 H 0.0 **** 0.06
23884 H 43.10790587768412 83.05132946306789 1.0985357561150977 H 0.0 **** 0.06
23885 H 44.22593465324195 83.92327174223915 0.023684438988709644 H 0.0 **** 0.06
23886 C 88.64872674985907 53.29566174354164 8.18546140605482 C 0.0 **** -0.24
23887 H 88.80923093511608 52.64489897710358 9.045036824560576 H 0.0 **** 0.06
23888 H 89.32876150927484 54.146763920159 8.24165342614588 H 0.0 **** 0.06
23889 H 87.61892398558271 53.65229581382377 8.18689808526777 H 0.0 **** 0.06
23890 H 88.83937152696429 52.73888008559632 7.268020168865327 H 0.0 **** 0.06
23891 C 53.11721936544592 103.54042717616223 144.84297018579713 C 0.0 **** -0.24
23892 H 53.74881366270621 103.1354245632288 144.052751118135 H 0.0 **** 0.06
23893 H 53.460656847720884 103.1676937485095 145.8087378633804 H 0.0 **** 0.06
23894 H 52.08558058462036 103.2281419523314 144.67900050883017 H 0.0 **** 0.06
23895 H 53.17463199993102 104.62899337197733 144.83187481066543 H 0.0 **** 0.06
23896 C 115.93875709996142 61.126160760031084 45.8125284465998 C 0.0 **** -0.24
23897 H 116.52940266556173 60.518379603666546 45.12791796214725 H 0.0 **** 0.06
23898 H 116.13761463005285 60.81430245781762 46.83828513392726 H 0.0 **** 0.06
23899 H 114.87943896546263 60.9964032443027 45.59184601691703 H 0.0 **** 0.06
23900 H 116.20910116508283 62.174832672414794 45.69162370978472 H 0.0 **** 0.06
23901 C 155.97274521942745 21.95900521042023 5.4175309757980585 C 0.0 **** -0.24
23902 H 156.47930844618017 21.14891409645938 4.891844956226578 H 0.0 **** 0.06
23903 H 156.44346974676347 22.111618266378798 6.388342657342093 H 0.0 **** 0.06
23904 H 154.92361391616922 21.699298635786846 5.558387889743358 H 0.0 **** 0.06
23905 H 156.0447226512289 22.87391137184767 4.830659108199484 H 0.0 **** 0.06
23906 C 116.10465604015167 112.17565565442568 6.048733241981928 C 0.0 **** -0.24
23907 H 116.16198914042513 111.76455411875791 7.056641033522219 H 0.0 **** 0.06
23908 H 115.1549297300138 112.69413737027985 5.921877899360709 H 0.0 **** 0.06
23909 H 116.17709064865033 111.36578197961741 5.322608225821824 H 0.0 **** 0.06
23910 H 116.92618943365483 112.87615439817758 5.895399952139172 H 0.0 **** 0.06
23911 C 93.62161944876229 102.37267775033257 42.63680202157104 C 0.0 **** -0.24
23912 H 92.56495933479214 102.11662168782789 42.5472451513516 H 0.0 **** 0.06
23913 H 93.74620708786625 103.4468353894012 42.503059997195905 H 0.0 **** 0.06
23914 H 94.18926120083334 101.84190786877599 41.8739719148694 H 0.0 **** 0.06
23915 H 93.98187448944668 102.08440993071588 43.62457054510533 H 0.0 **** 0.06
23916 C 82.25902004642063 121.11860858573355 154.4403800286285 C 0.0 **** -0.24
23917 H 82.55556484232946 121.87441023415825 153.71271819666381 H 0.0 **** 0.06
23918 H 83.12060275997169 120.50160102333199 154.69537133203204 H 0.0 **** 0.06
23919 H 81.47618783463975 120.49114232698138 154.013363027996 H 0.0 **** 0.06
23920 H 81.88324435042813 121.60766095623354 155.3392771783787 H 0.0 **** 0.06
23921 C 137.52737865467532 80.8550086417055 6.420353791315279 C 0.0 **** -0.24
23922 H 137.22306854982568 81.74142037875072 5.862392041715566 H 0.0 **** 0.06
23923 H 137.15463124605776 80.92454158635451 7.4427329970876315 H 0.0 **** 0.06
23924 H 138.61507228438086 80.7905218998113 6.433906535272939 H 0.0 **** 0.06
23925 H 137.11560907886673 79.96602563499484 5.943151859368527 H 0.0 **** 0.06
23926 C 5.546113977959777 137.9338757128873 96.96819088578764 C 0.0 **** -0.24
23927 H 5.300939729507299 137.67692745635367 95.93734081199369 H 0.0 **** 0.06
23928 H 4.664808792621123 138.34784404315047 97.45901375743509 H 0.0 **** 0.06
23929 H 6.347523297339173 138.67290831688445 96.97616564094349 H 0.0 **** 0.06
23930 H 5.870760464250537 137.0387583737504 97.49801940017258 H 0.0 **** 0.06
23931 C 49.78126092256565 22.67940711069619 48.618015900478156 C 0.0 **** -0.24
23932 H 49.38671773938091 21.665467691719243 48.548566514325216 H 0.0 **** 0.06
23933 H 50.72234344937999 22.740688779515523 48.07018202803039 H 0.0 **** 0.06
23934 H 49.95334305086226 22.930312452853116 49.6648100203148 H 0.0 **** 0.06
23935 H 49.06342949296332 23.37856399801788 48.18978542921343 H 0.0 **** 0.06
23936 C 135.5674593075598 77.67106515258627 18.01310194582271 C 0.0 **** -0.24
23937 H 134.78049830655206 78.27248618002949 18.4670818677356 H 0.0 **** 0.06
23938 H 135.75652595745174 78.02547797016663 17.000129583393004 H 0.0 **** 0.06
23939 H 135.25354362691985 76.62714627711077 17.980436376413394 H 0.0 **** 0.06
23940 H 136.47936656980815 77.75778751630085 18.60512567516878 H 0.0 **** 0.06
23941 C 117.60769790618197 21.60602549346862 65.18723266687564 C 0.0 **** -0.24
23942 H 116.58831427917714 21.64420860486743 65.57090274956263 H 0.0 **** 0.06
23943 H 117.74006360532285 20.699851306264605 64.59627722977098 H 0.0 **** 0.06
23944 H 118.30860370791014 21.60201114421693 66.02210188977108 H 0.0 **** 0.06
23945 H 117.79312656778963 22.479642558060448 64.56104007730505 H 0.0 **** 0.06
23946 C 32.72856965897563 149.42835181194746 129.19990570011686 C 0.0 **** -0.24
23947 H 33.78645935818679 149.68305996886107 129.27512445461898 H 0.0 **** 0.06
23948 H 32.49719433908081 148.63086500599698 129.90649960702856 H 0.0 **** 0.06
23949 H 32.50772946204182 149.092749464296 128.18713113956846 H 0.0 **** 0.06
23950 H 32.12659222598842 150.3057240098945 129.43201515744286 H 0.0 **** 0.06
23951 C 95.31788160681222 19.502528592689444 78.07564159252087 C 0.0 **** -0.24
23952 H 95.61943736573404 20.495284130194072 78.40919702554436 H 0.0 **** 0.06
23953 H 94.2346870078856 19.40758532951289 78.15332632126731 H 0.0 **** 0.06
23954 H 95.79495255972097 18.748151560465708 78.70249270700799 H 0.0 **** 0.06
23955 H 95.62314485176637 19.359241207954334 77.03941974019801 H 0.0 **** 0.06
23956 C 146.272854535996 67.41002179390989 114.52035963542282 C 0.0 **** -0.24
23957 H 146.15093972058892 68.48537581054109 114.6553086331388 H 0.0 **** 0.06
23958 H 146.0384257183844 67.1446309322078 113.48901365935016 H 0.0 **** 0.06
23959 H 145.6000325355097 66.88112269712838 115.1943543878305 H 0.0 **** 0.06
23960 H 147.30276745234553 67.13202940567072 114.74284394559488 H 0.0 **** 0.06
23961 C 94.2963805531848 96.95209894411406 23.289609053819675 C 0.0 **** -0.24
23962 H 93.5076544518432 97.69817641019478 23.199148102438812 H 0.0 **** 0.06
23963 H 94.44662020348352 96.70856314010953 24.34112748612489 H 0.0 **** 0.06
23964 H 95.2218594319676 97.35044380452419 22.87253001801082 H 0.0 **** 0.06
23965 H 94.01011289095847 96.05233351336503 22.745163775366223 H 0.0 **** 0.06
23966 C 72.47374512708984 43.27946780818935 125.39348636701497 C 0.0 **** -0.24
23967 H 72.96549522568404 42.4750629312139 124.84700188700255 H 0.0 **** 0.06
23968 H 71.68742183002473 42.86228852873849 126.02332191915595 H 0.0 **** 0.06
23969 H 72.03770549294887 43.98641462415135 124.68749180936742 H 0.0 **** 0.06
23970 H 73.20456291580712 43.793688434830074 126.01746566976853 H 0.0 **** 0.06
23971 C 136.16668655640552 75.11064344621823 21.9326963017769 C 0.0 **** -0.24
23972 H 136.22714080091998 75.22796860378881 23.0150515064895 H 0.0 **** 0.06
23973 H 135.123888355369 74.99042117909629 21.638466458155506 H 0.0 **** 0.06
23974 H 136.73355390075918 74.23057022033443 21.63056194234781 H 0.0 **** 0.06
23975 H 136.5824453453527 75.99464648885255 21.448668474802503 H 0.0 **** 0.06
23976 C 57.79160896548444 46.49145099313546 125.27440004044013 C 0.0 **** -0.24
23977 H 57.63999176899917 45.43648860757402 125.0469725853132 H 0.0 **** 0.06
23978 H 58.78049965718968 46.79857720273456 124.93296134111637 H 0.0 **** 0.06
23979 H 57.71470912705355 46.64642002091442 126.35089607302405 H 0.0 **** 0.06
23980 H 57.0305629586431 47.08543003373629 124.76732846845749 H 0.0 **** 0.06
23981 C 47.242973137233776 151.6816346384188 110.90467825036988 C 0.0 **** -0.24
23982 H 47.091996576817465 152.74786135126362 110.73270330421867 H 0.0 **** 0.06
23983 H 46.28395003548695 151.20771251902656 111.11564794015543 H 0.0 **** 0.06
23984 H 47.913020241132074 151.54223173788614 111.75279815225632 H 0.0 **** 0.06
23985 H 47.68399607356821 151.23062032563388 110.01549179888273 H 0.0 **** 0.06
23986 C 78.01267144479175 13.113443894061696 55.730271221883186 C 0.0 **** -0.24
23987 H 78.29589758820474 13.248117555262489 56.77431654509826 H 0.0 **** 0.06
23988 H 77.09253807374266 12.531585475885684 55.6749536203929 H 0.0 **** 0.06
23989 H 78.80793621192021 12.58624242020587 55.20311258057865 H 0.0 **** 0.06
23990 H 77.85431390529953 14.087830124892754 55.26870214146288 H 0.0 **** 0.06
23991 C 37.39633250470911 77.47752884885114 137.96659496123488 C 0.0 **** -0.24
23992 H 36.849324551515906 77.20511009817976 138.8698358109665 H 0.0 **** 0.06
23993 H 37.64707082552485 78.53808431182142 137.99988304882763 H 0.0 **** 0.06
23994 H 36.77603556782731 77.27804423397434 137.0927332601262 H 0.0 **** 0.06
23995 H 38.31112148900428 76.88843078840996 137.90520892423456 H 0.0 **** 0.06
23996 C 65.27555488291874 133.39833090954042 68.50155762064767 C 0.0 **** -0.24
23997 H 64.59660805494102 132.8422864332157 67.85399568431328 H 0.0 **** 0.06
23998 H 65.70034997088923 134.23496813360438 67.9480570186285 H 0.0 **** 0.06
23999 H 66.0764690089628 132.74012702787607 68.83847584133342 H 0.0 **** 0.06
24000 H 64.72611766175918 133.77365727874928 69.36442696264741 H 0.0 **** 0.06
24001 C 88.84240292510057 89.38345596857823 79.49153252391011 C 0.0 **** -0.24
24002 H 89.60222994367348 89.87220748124122 80.10118777487457 H 0.0 **** 0.06
24003 H 88.64302371738421 89.98715333179513 78.60672233898339 H 0.0 **** 0.06
24004 H 87.92553159979008 89.27507740342344 80.07197353714119 H 0.0 **** 0.06
24005 H 89.19871208224606 88.39894787231077 79.18758634438564 H 0.0 **** 0.06
24006 C 36.22966639685501 109.40955027340154 23.33384674211794 C 0.0 **** -0.24
24007 H 37.216228606893026 109.87357022212377 23.36745057481329 H 0.0 **** 0.06
24008 H 36.326044385557964 108.37732697145482 22.99877962223917 H 0.0 **** 0.06
24009 H 35.593219888526164 109.96011778654692 22.640856888631106 H 0.0 **** 0.06
24010 H 35.78554986993936 109.42976359778244 24.329606069635872 H 0.0 **** 0.06
24011 C 31.193515220447694 144.5283596185585 7.271228691291469 C 0.0 **** -0.24
24012 H 31.976930356419786 143.78682456262567 7.118876746649505 H 0.0 **** 0.06
24013 H 31.01819237597681 145.06764887009206 6.339487457431858 H 0.0 **** 0.06
24014 H 31.50368657325845 145.23074230913562 8.045136936041416 H 0.0 **** 0.06
24015 H 30.27557279129556 144.0290604588571 7.580320418625547 H 0.0 **** 0.06
24016 C 5.007459039607987 112.37106257426187 117.83415937588465 C 0.0 **** -0.24
24017 H 4.357920086671946 111.90987008935589 118.5782395573937 H 0.0 **** 0.06
24018 H 4.4014758341525635 112.76017572257108 117.01543780506866 H 0.0 **** 0.06
24019 H 5.705094792426692 111.62847641959586 117.44958459404235 H 0.0 **** 0.06
24020 H 5.563918810458738 113.1878483711151 118.29494695103018 H 0.0 **** 0.06
24021 C 43.31768542658733 8.173918442646993 95.18765295799908 C 0.0 **** -0.24
24022 H 44.14077370222175 8.48181129179305 94.54231941990908 H 0.0 **** 0.06
24023 H 42.58950786823313 7.610355521963783 94.6025050974446 H 0.0 **** 0.06
24024 H 42.83909731137848 9.057033913145887 95.61032202014849 H 0.0 **** 0.06
24025 H 43.70091313044681 7.547600575245923 95.99192595790115 H 0.0 **** 0.06
24026 C 119.4414178492827 27.19406087406523 139.3748280252525 C 0.0 **** -0.24
24027 H 120.35436528481553 26.945189358275 138.83497843618585 H 0.0 **** 0.06
24028 H 119.56210762894382 26.941231175442113 140.42823145847603 H 0.0 **** 0.06
24029 H 118.6074737291937 26.628155159413723 138.95902805649476 H 0.0 **** 0.06
24030 H 119.24144077434444 28.260812222162173 139.2775070115067 H 0.0 **** 0.06
24031 C 7.154462849826928 19.86054860074711 40.18853273241149 C 0.0 **** -0.24
24032 H 7.85383263992253 20.659274700914295 39.94165790119615 H 0.0 **** 0.06
24033 H 7.420387360443442 19.429650022651174 41.15351782260875 H 0.0 **** 0.06
24034 H 7.201148303886782 19.08789664422062 39.41973811594016 H 0.0 **** 0.06
24035 H 6.143166189964319 20.26461852561272 40.23575811320704 H 0.0 **** 0.06
24036 C 143.79853209806188 109.37439706576515 89.611931349689 C 0.0 **** -0.24
24037 H 143.0412999920174 108.94962987567743 88.95190401148028 H 0.0 **** 0.06
24038 H 143.47673259916414 110.36139307736562 89.94517097552057 H 0.0 **** 0.06
24039 H 144.74136860369615 109.46245048009013 89.07216974601259 H 0.0 **** 0.06
24040 H 143.93337817710565 108.72343020164698 90.47505840272838 H 0.0 **** 0.06
24041 C 138.11107260210775 68.99662019020458 125.1660311799293 C 0.0 **** -0.24
24042 H 138.07434011848184 67.98296728490475 125.56497250371434 H 0.0 **** 0.06
24043 H 138.2581950861437 69.7031939735453 125.98336658314828 H 0.0 **** 0.06
24044 H 137.17309220607555 69.21949515970259 124.6568050826604 H 0.0 **** 0.06
24045 H 138.93698238817174 69.07952722039765 124.46020252426585 H 0.0 **** 0.06
24046 C 39.14749459612399 144.34073500339184 132.96437251881034 C 0.0 **** -0.24
24047 H 38.56135740753051 145.22910272885508 133.1973480899003 H 0.0 **** 0.06
24048 H 40.20831816568233 144.56343023625175 133.08627376511276 H 0.0 **** 0.06
24049 H 38.95635298854664 144.03769464778918 131.93540261219192 H 0.0 **** 0.06
24050 H 38.865492315810926 143.5322368680243 133.6400131049072 H 0.0 **** 0.06
24051 C 44.53199176028977 79.37507019608805 107.66015651135702 C 0.0 **** -0.24
24052 H 43.848836244813356 78.91615348192747 106.94596351319633 H 0.0 **** 0.06
24053 H 45.233757636850385 80.01833470962463 107.12846099768446 H 0.0 **** 0.06
24054 H 45.08102274517694 78.59678064961122 108.18962323467046 H 0.0 **** 0.06
24055 H 43.963824456320594 79.96995396669287 108.37566395584899 H 0.0 **** 0.06
24056 C 29.99819032679912 19.697809826002867 41.562829530891264 C 0.0 **** -0.24
24057 H 29.360358330109648 18.83953584905703 41.35278006358081 H 0.0 **** 0.06
24058 H 30.27360963934568 20.18314712704722 40.625518142904355 H 0.0 **** 0.06
24059 H 30.898971996814993 19.3625739082473 42.07770229084784 H 0.0 **** 0.06
24060 H 29.460780582601643 20.404454527737954 42.19399642812769 H 0.0 **** 0.06
24061 C 143.75908684931764 18.872511915738045 39.91157865128186 C 0.0 **** -0.24
24062 H 144.83651162902456 19.03144195104059 39.85534879393124 H 0.0 **** 0.06
24063 H 143.3258121506758 18.971290191597888 38.916427632953216 H 0.0 **** 0.06
24064 H 143.31711380108092 19.613735629134254 40.57730824909278 H 0.0 **** 0.06
24065 H 143.56037871978677 17.87217736667759 40.29722040912591 H 0.0 **** 0.06
24066 C 150.85177684154897 63.069478955501395 106.79779796885846 C 0.0 **** -0.24
24067 H 150.3586968813173 62.15489275503971 107.12728986210219 H 0.0 **** 0.06
24068 H 151.48577033749504 62.85171875376719 105.93845088861487 H 0.0 **** 0.06
24069 H 151.46203656862193 63.46541882463764 107.60959065147703 H 0.0 **** 0.06
24070 H 150.0987401396327 63.80653397951575 106.51731211003757 H 0.0 **** 0.06
24071 C 144.71844129585423 44.33891633111443 137.8321174224467 C 0.0 **** -0.24
24072 H 145.01061523976338 43.2946021663098 137.94107142124017 H 0.0 **** 0.06
24073 H 144.3036657262469 44.699377258586196 138.77375526982115 H 0.0 **** 0.06
24074 H 143.96772308853548 44.425901768236145 137.04713057321337 H 0.0 **** 0.06
24075 H 145.59199617302764 44.93397027537617 137.56779883275206 H 0.0 **** 0.06
24076 C 60.67371230463232 31.085753138666064 59.276301274467244 C 0.0 **** -0.24
24077 H 61.22797910119158 31.74792965180322 59.940887033199374 H 0.0 **** 0.06
24078 H 59.820709162931394 31.621897638023455 58.857914548382325 H 0.0 **** 0.06
24079 H 60.319565447083164 30.22061183494 59.83745563925811 H 0.0 **** 0.06
24080 H 61.3253538920585 30.753051692886913 58.46846858469081 H 0.0 **** 0.06
24081 C 97.95384627905872 86.08186722539904 67.58774207398938 C 0.0 **** -0.24
24082 H 97.64712381252633 87.04815345244032 67.1855182869599 H 0.0 **** 0.06
24083 H 99.0260430767745 85.9498374827337 67.43754588984609 H 0.0 **** 0.06
24084 H 97.4136322529481 85.28726466086658 67.0731507418576 H 0.0 **** 0.06
24085 H 97.72802872078267 86.04350931458396 68.65301844438034 H 0.0 **** 0.06
24086 C 119.59328691364374 39.361435383586496 3.481729266202592 C 0.0 **** -0.24
24087 H 119.07591528465832 40.19493696366605 3.9586259434697126 H 0.0 **** 0.06
24088 H 119.24972052648411 39.262829159413286 2.451478978064472 H 0.0 **** 0.06
24089 H 119.37945656930606 38.44220181312997 4.025434002364648 H 0.0 **** 0.06
24090 H 120.66729430558502 39.54776156585322 3.49069325115056 H 0.0 **** 0.06
24091 C 103.80441060218413 6.88743391839796 22.574472146405554 C 0.0 **** -0.24
24092 H 102.8646914301645 6.480498806641663 22.202763493828343 H 0.0 **** 0.06
24093 H 104.5127672956047 6.976937832426643 21.75066359683592 H 0.0 **** 0.06
24094 H 104.21335146825271 6.220337002084307 23.334022525282336 H 0.0 **** 0.06
24095 H 103.62749391473426 7.870090636591215 23.011468626614857 H 0.0 **** 0.06
24096 C 26.759097084861025 154.22676148249917 48.053667577864275 C 0.0 **** -0.24
24097 H 26.73158452300845 153.26333052390885 48.564752292110995 H 0.0 **** 0.06
24098 H 25.78237111135681 154.70610326680082 48.12984201697736 H 0.0 **** 0.06
24099 H 27.008540702438324 154.07303490245687 47.004348440053064 H 0.0 **** 0.06
24100 H 27.51322478787108 154.8620550170432 48.518409667364494 H 0.0 **** 0.06
24101 C 154.3867462121516 61.59040095714701 126.81544151856173 C 0.0 **** -0.24
24102 H 153.35232705241606 61.93237657382919 126.78541914140959 H 0.0 **** 0.06
24103 H 155.05386989158546 62.45254180090453 126.8260171668988 H 0.0 **** 0.06
24104 H 154.594000868583 60.98076281686713 125.93620861307181 H 0.0 **** 0.06
24105 H 154.54754245436538 60.996632486770494 127.71583158749252 H 0.0 **** 0.06
24106 C 8.651343950513663 117.23652791203871 72.19307897613078 C 0.0 **** -0.24
24107 H 8.454926183870747 117.21739855678636 73.26478032438223 H 0.0 **** 0.06
24108 H 8.182551214052722 116.37213958069579 71.72187744597647 H 0.0 **** 0.06
24109 H 9.727058918015913 117.2064504172261 72.01966523594876 H 0.0 **** 0.06
24110 H 8.239916706313608 118.15167270742329 71.7646710295727 H 0.0 **** 0.06
24111 C 91.46966742628922 77.01188974093684 4.1055292716056755 C 0.0 **** -0.24
24112 H 92.09432380971333 77.61891520095266 3.449598489245428 H 0.0 **** 0.06
24113 H 90.83287620146507 76.36430865998746 3.5036029300802625 H 0.0 **** 0.06
24114 H 90.84855020260466 77.66333582897666 4.719861464031652 H 0.0 **** 0.06
24115 H 92.10472087593308 76.40223646042006 4.748580340469317 H 0.0 **** 0.06
24116 C 24.71399018830752 16.767001562462205 72.76698777272445 C 0.0 **** -0.24
24117 H 23.962913356302884 16.536460446620254 73.52168441116694 H 0.0 **** 0.06
24118 H 25.69569328002052 16.827151381138442 73.23829314633905 H 0.0 **** 0.06
24119 H 24.47668005696704 17.72142553684747 72.29784555036684 H 0.0 **** 0.06
24120 H 24.721457616804734 15.981803222038153 72.01029331006943 H 0.0 **** 0.06
24121 C 110.69336965064126 142.9542460761075 104.22738824172882 C 0.0 **** -0.24
24122 H 111.3248696614756 143.4574699548932 104.9596061993065 H 0.0 **** 0.06
24123 H 110.25953143276796 142.06033826105778 104.67558227560903 H 0.0 **** 0.06
24124 H 111.29260701151343 142.67311387043972 103.36183875549568 H 0.0 **** 0.06
24125 H 109.895518003144 143.62783173537153 103.91350641330115 H 0.0 **** 0.06
24126 C 82.04549498592063 147.81403528388736 31.56057857704971 C 0.0 **** -0.24
24127 H 81.92373558804722 148.79904885940158 32.01163798569605 H 0.0 **** 0.06
24128 H 82.83056901869178 147.26904841778835 32.08397682287024 H 0.0 **** 0.06
24129 H 82.3179126577912 147.9264495828845 30.511867338897865 H 0.0 **** 0.06
24130 H 81.10772803243543 147.2620163302543 31.635658142119865 H 0.0 **** 0.06
24131 C 93.81030393168322 14.841224355731896 82.69176876508206 C 0.0 **** -0.24
24132 H 93.82769449183564 15.756812672855602 83.28278337280092 H 0.0 **** 0.06
24133 H 93.78795905915479 13.979048321357226 83.35852049798908 H 0.0 **** 0.06
24134 H 94.701547794276 14.795796590094852 82.0668181039694 H 0.0 **** 0.06
24135 H 92.92196663896132 14.835631096340933 82.05925135162677 H 0.0 **** 0.06
24136 C 51.357908560197814 63.62816078299201 73.07493162192182 C 0.0 **** -0.24
24137 H 51.9622111753778 62.76476633644825 73.35500675764841 H 0.0 **** 0.06
24138 H 50.30278864431813 63.35146850780896 73.08620458183815 H 0.0 **** 0.06
24139 H 51.63680688346466 63.95780063351663 72.07440128957789 H 0.0 **** 0.06
24140 H 51.52881764177499 64.4365403116069 73.78495433484858 H 0.0 **** 0.06
24141 C 39.597314530448 2.383041720865492 60.91002794492039 C 0.0 **** -0.24
24142 H 39.578569040069 1.6358291805403269 61.703212468245454 H 0.0 **** 0.06
24143 H 39.16486241686384 1.9619251927702521 60.003070023059735 H 0.0 **** 0.06
24144 H 40.62852985845855 2.6811218663155216 60.717497726453644 H 0.0 **** 0.06
24145 H 39.01917804758041 3.2544010481773284 61.21838782717043 H 0.0 **** 0.06
24146 C 8.106052707129756 50.671162008687304 3.776635156648858 C 0.0 **** -0.24
24147 H 7.051937142725933 50.65520456198965 3.4999486851158323 H 0.0 **** 0.06
24148 H 8.537431647016803 49.68162227796074 3.620542066759178 H 0.0 **** 0.06
24149 H 8.202818101952161 50.94858152422819 4.825898953344229 H 0.0 **** 0.06
24150 H 8.633201460446777 51.39807060476272 3.158349000580884 H 0.0 **** 0.06
24151 C 37.515404669380516 123.2788001250094 122.47565879000103 C 0.0 **** -0.24
24152 H 38.578816297148464 123.4951109347784 122.37437696659578 H 0.0 **** 0.06
24153 H 37.00484258693241 124.14966830500664 122.88773119832393 H 0.0 **** 0.06
24154 H 37.38025989272181 122.42803358650418 123.14338317293004 H 0.0 **** 0.06
24155 H 37.09811867004768 123.04154432545148 121.49680703075074 H 0.0 **** 0.06
24156 C 56.92894113370659 82.08632865920653 56.66577172002104 C 0.0 **** -0.24
24157 H 56.30401898477885 82.80809849954463 57.19061573362694 H 0.0 **** 0.06
24158 H 56.90886080665683 82.29780102877137 55.59635509850958 H 0.0 **** 0.06
24159 H 56.55043796577934 81.08036827034334 56.844983031298 H 0.0 **** 0.06
24160 H 57.953410711553886 82.15917595090826 57.03136581227679 H 0.0 **** 0.06
24161 C 61.1661632625823 66.6815143859191 18.692034003633296 C 0.0 **** -0.24
24162 H 60.62599823873188 65.73609249044428 18.729314312819355 H 0.0 **** 0.06
24163 H 61.77390638732203 66.71755069484678 17.78764782235291 H 0.0 **** 0.06
24164 H 61.80974054872331 66.7676123454695 19.56707861011347 H 0.0 **** 0.06
24165 H 60.45387542094477 67.50662361991833 18.683463242950893 H 0.0 **** 0.06
24166 C 96.33954314162912 55.161694625279964 46.21903162254459 C 0.0 **** -0.24
24167 H 96.84485971164816 54.767298194694305 45.33766945104952 H 0.0 **** 0.06
24168 H 97.0244966588811 55.802227714057466 46.77554554565181 H 0.0 **** 0.06
24169 H 96.01694144192294 54.33648684574668 46.85365034630367 H 0.0 **** 0.06
24170 H 95.47009596729222 55.74244978484401 45.90924982544277 H 0.0 **** 0.06
24171 C 5.616560875263758 63.9441267494515 138.89318170469338 C 0.0 **** -0.24
24172 H 4.530198529356028 63.87175496951346 138.94846155742948 H 0.0 **** 0.06
24173 H 5.897719211811818 64.9450997121802 138.5655602825542 H 0.0 **** 0.06
24174 H 5.993104857824221 63.20862499966002 138.1813449814882 H 0.0 **** 0.06
24175 H 6.042919086353493 63.749693161243925 139.8763998229859 H 0.0 **** 0.06
24176 C 139.52442081154854 83.91614905608276 31.24048127132781 C 0.0 **** -0.24
24177 H 139.28299481329364 83.08677908176378 31.905220770263327 H 0.0 **** 0.06
24178 H 138.9740004623145 83.80529518296544 30.306234768574683 H 0.0 **** 0.06
24179 H 140.59430219985097 83.9175888853236 31.03440269203392 H 0.0 **** 0.06
24180 H 139.24494304122226 84.85599955065368 31.71740151635973 H 0.0 **** 0.06
24181 C 105.84593729941433 30.804692106050155 21.61693013319109 C 0.0 **** -0.24
24182 H 104.90730827167677 30.835882357368284 22.170343534577 H 0.0 **** 0.06
24183 H 106.59453112126685 30.267929702797616 22.199703746496084 H 0.0 **** 0.06
24184 H 106.1910269058777 31.82146702954553 21.430450707520322 H 0.0 **** 0.06
24185 H 105.69061526052035 30.294188321273296 20.66655935508993 H 0.0 **** 0.06
24186 C 31.555601029420927 16.385491099630165 139.19688887861838 C 0.0 **** -0.24
24187 H 30.53478161514022 16.739407442193716 139.05249144275982 H 0.0 **** 0.06
24188 H 31.66273791120284 15.988362629264458 140.20602876969747 H 0.0 **** 0.06
24189 H 32.24917844706192 17.214278417658463 139.05624178184917 H 0.0 **** 0.06
24190 H 31.773254503948465 15.601409368426992 138.47113237662012 H 0.0 **** 0.06
24191 C 88.9696103391031 34.56725391278293 147.71513620939754 C 0.0 **** -0.24
24192 H 89.78156124311988 33.91786786222488 148.043299546707 H 0.0 **** 0.06
24193 H 88.01636912350028 34.058269948846544 147.8601679371662 H 0.0 **** 0.06
24194 H 89.09796386547325 34.80345784411338 146.65885701212352 H 0.0 **** 0.06
24195 H 88.98265700334633 35.4883643493031 148.2972856748819 H 0.0 **** 0.06
24196 C 82.2552193624505 24.443824523429512 110.80814877938163 C 0.0 **** -0.24
24197 H 83.08366109055457 24.942077352121323 111.31276361159205 H 0.0 **** 0.06
24198 H 82.42857639093536 23.367882166495107 110.80240035077368 H 0.0 **** 0.06
24199 H 82.18428321830879 24.806120887232353 109.78206198323367 H 0.0 **** 0.06
24200 H 81.32570869122834 24.660103396909193 111.33474637816475 H 0.0 **** 0.06
24201 C 134.9020352290343 145.79647001795408 34.62140929192233 C 0.0 **** -0.24
24202 H 134.82355100637747 145.32729782336446 33.641055107931265 H 0.0 **** 0.06
24203 H 134.38869818752232 145.1817136328456 35.36129736791099 H 0.0 **** 0.06
24204 H 134.44366034805526 146.7846703345752 34.58982988578842 H 0.0 **** 0.06
24205 H 135.95276965936057 145.89181086986312 34.89470389642861 H 0.0 **** 0.06
24206 C 22.77067662599668 44.194546722472865 81.42455403944712 C 0.0 **** -0.24
24207 H 22.145760172014022 43.60573966435737 80.75262296815743 H 0.0 **** 0.06
24208 H 22.26393473879756 45.12881436391504 81.66807884824165 H 0.0 **** 0.06
24209 H 23.722291928459185 44.41230692618433 80.93930205075121 H 0.0 **** 0.06
24210 H 22.95043450882541 43.62974727650092 82.3397700726636 H 0.0 **** 0.06
24211 C 4.573606783213052 96.92123154028236 32.299350110536864 C 0.0 **** -0.24
24212 H 4.664902251739875 97.99817477347055 32.44116367082489 H 0.0 **** 0.06
24213 H 5.566092591523841 96.47061672080243 32.28244199193287 H 0.0 **** 0.06
24214 H 4.068508132082798 96.72210328397834 31.354110476265305 H 0.0 **** 0.06
24215 H 3.994294788645334 96.49506840957491 33.11844795037652 H 0.0 **** 0.06
24216 C 22.239080524808827 49.56228887205583 17.994478800218843 C 0.0 **** -0.24
24217 H 21.358849878161777 49.72043410307384 18.617505093100817 H 0.0 **** 0.06
24218 H 21.978434512026638 49.72691964824112 16.949704190306647 H 0.0 **** 0.06
24219 H 22.596395989964492 48.54048828537634 18.124139532424664 H 0.0 **** 0.06
24220 H 23.021803959254783 50.26169608101685 18.288836175440395 H 0.0 **** 0.06
24221 C 3.031312866625541 61.143956927330194 151.73837547860586 C 0.0 **** -0.24
24222 H 2.6287901730073884 61.30948659642516 152.73797594773208 H 0.0 **** 0.06
24223 H 4.120355271835535 61.11185026675754 151.78578340816472 H 0.0 **** 0.06
24224 H 2.7202821216830273 61.95736283070153 151.08225170366416 H 0.0 **** 0.06
24225 H 2.65625189118947 60.19878002171676 151.3471945502556 H 0.0 **** 0.06
24226 C 83.9572534558861 52.454267748650324 51.930634377440015 C 0.0 **** -0.24
24227 H 83.80983619867 52.08234902066002 50.91714720232332 H 0.0 **** 0.06
24228 H 82.99627129157474 52.755321510816216 52.35009670856988 H 0.0 **** 0.06
24229 H 84.63048816182734 53.31162317253643 51.90981612658385 H 0.0 **** 0.06
24230 H 84.39163277012563 51.6663873146328 52.54704312687949 H 0.0 **** 0.06
24231 C 123.14278593479928 70.93864445552262 100.1774810598037 C 0.0 **** -0.24
24232 H 123.62278864778746 70.47271233137738 101.03791194816036 H 0.0 **** 0.06
24233 H 123.90539394658502 71.25477342857994 99.46452999603144 H 0.0 **** 0.06
24234 H 122.57162301029568 71.80621358124306 100.50703132524488 H 0.0 **** 0.06
24235 H 122.47455797307295 70.22238325340462 99.70162090786447 H 0.0 **** 0.06
24236 C 12.891393490482699 130.2901494193066 66.19141666724595 C 0.0 **** -0.24
24237 H 12.092090727646074 131.00829439558385 66.00786404766143 H 0.0 **** 0.06
24238 H 13.552902963896244 130.6742304263633 66.96806245126591 H 0.0 **** 0.06
24239 H 13.458955861521972 130.13713490562725 65.2733098127251 H 0.0 **** 0.06
24240 H 12.461153595743632 129.3425064954871 66.51412422217396 H 0.0 **** 0.06
24241 C 6.275939716674458 118.34564363859413 61.28058594794646 C 0.0 **** -0.24
24242 H 5.9034927032396 119.00006512817133 62.0688672530664 H 0.0 **** 0.06
24243 H 7.290449379083697 118.0280345229829 61.52148274482869 H 0.0 **** 0.06
24244 H 6.278103183938882 118.88380654982977 60.33309998652946 H 0.0 **** 0.06
24245 H 5.62985634338888 117.47100776468402 61.20045444554408 H 0.0 **** 0.06
24246 C 36.1155188523675 109.71450807891124 143.5576420782396 C 0.0 **** -0.24
24247 H 35.73491420069652 110.57926613416434 144.1021623356972 H 0.0 **** 0.06
24248 H 37.17998905511487 109.8495052638876 143.36182668191807 H 0.0 **** 0.06
24249 H 35.5804732505938 109.61686117412047 142.61292467948888 H 0.0 **** 0.06
24250 H 35.96726432603228 108.81496626581786 144.15510152734555 H 0.0 **** 0.06
24251 C 72.03731514177184 85.81453727016138 42.27051538912423 C 0.0 **** -0.24
24252 H 72.4082353677902 84.99009443483419 41.662381492575435 H 0.0 **** 0.06
24253 H 71.50912023588853 86.52531346353496 41.6345145758217 H 0.0 **** 0.06
24254 H 72.87494715742015 86.31400057288707 42.756537673417085 H 0.0 **** 0.06
24255 H 71.35475169722466 85.42892609907246 43.02831342567407 H 0.0 **** 0.06
24256 C 78.0122381448374 103.39836628133624 40.19939717182636 C 0.0 **** -0.24
24257 H 77.58255978068242 103.06093147506475 39.25640092911385 H 0.0 **** 0.06
24258 H 77.32412617019328 103.17077275258713 41.01462280027005 H 0.0 **** 0.06
24259 H 78.18247934944806 104.47395179341642 40.156707640760104 H 0.0 **** 0.06
24260 H 78.95952339610274 102.88687595023556 40.37010149309826 H 0.0 **** 0.06
24261 C 74.83720154737736 124.13153539550922 154.38999781004125 C 0.0 **** -0.24
24262 H 75.00160556581352 124.10581678263497 155.46763159359892 H 0.0 **** 0.06
24263 H 74.60448258570915 123.12755240866619 154.03471943108366 H 0.0 **** 0.06
24264 H 75.7381247537819 124.49285784542707 153.89369231085422 H 0.0 **** 0.06
24265 H 74.00572541685816 124.79864854135366 154.1662097114366 H 0.0 **** 0.06
24266 C 57.555135657854095 85.10458795142999 134.02935633140714 C 0.0 **** -0.24
24267 H 58.01641462713796 84.55609938479036 133.2081823725524 H 0.0 **** 0.06
24268 H 58.244914833409226 85.87065581712086 134.38555491612448 H 0.0 **** 0.06
24269 H 57.32522064570756 84.41629359356054 134.84251475787664 H 0.0 **** 0.06
24270 H 56.63638175777059 85.57586741515918 133.67976854599186 H 0.0 **** 0.06
24271 C 57.861155579605 137.7341329685588 22.06372539164704 C 0.0 **** -0.24
24272 H 57.593480235904224 137.75680332714202 23.120193868405863 H 0.0 **** 0.06
24273 H 58.13851702487398 138.73797265120487 21.73792441234349 H 0.0 **** 0.06
24274 H 57.00890221425698 137.3857918153281 21.480449036618552 H 0.0 **** 0.06
24275 H 58.702735346369366 137.0591179885652 21.91661366286769 H 0.0 **** 0.06
24276 C 117.82433533468283 99.73816793807607 8.618972573516203 C 0.0 **** -0.24
24277 H 116.76949603516739 99.70351747045954 8.890039067793964 H 0.0 **** 0.06
24278 H 118.43391109087405 99.60205812071162 9.512145668991906 H 0.0 **** 0.06
24279 H 118.05196408060245 100.70392555047009 8.167108569497401 H 0.0 **** 0.06
24280 H 118.04170386173199 98.94303299755536 7.905214877861965 H 0.0 **** 0.06
24281 C 5.3447481523866145 34.49112833014044 50.88794961459358 C 0.0 **** -0.24
24282 H 5.144896758231823 33.42278885959478 50.81220113592565 H 0.0 **** 0.06
24283 H 5.199582390866908 34.957523543011725 49.91241891373359 H 0.0 **** 0.06
24284 H 6.371524300432441 34.64605221905667 51.21699816843524 H 0.0 **** 0.06
24285 H 4.660281294612787 34.93784944935193 51.60892397294509 H 0.0 **** 0.06
24286 C 57.45877357724274 94.31673577983865 27.442883637559476 C 0.0 **** -0.24
24287 H 56.38631559933883 94.51334278988206 27.456008776900205 H 0.0 **** 0.06
24288 H 57.6467982146751 93.35887884758812 26.95862288166947 H 0.0 **** 0.06
24289 H 57.834235048106976 94.28755926353226 28.465890037540532 H 0.0 **** 0.06
24290 H 57.965726228447096 95.10882128531621 26.892793466197958 H 0.0 **** 0.06
24291 C 63.00607051232792 62.47224609893624 62.94416663612036 C 0.0 **** -0.24
24292 H 63.66473458202212 61.88602499998217 62.30321410715659 H 0.0 **** 0.06
24293 H 62.17930785765313 61.84809787763251 63.28338659997294 H 0.0 **** 0.06
24294 H 62.614579266693625 63.32038807146273 62.382463448753185 H 0.0 **** 0.06
24295 H 63.56603245238348 62.83429633777854 63.80624952788696 H 0.0 **** 0.06
24296 C 65.91878500193295 66.83505636955178 64.2367269930943 C 0.0 **** -0.24
24297 H 66.48550783503292 66.95909842896256 65.16000403617737 H 0.0 **** 0.06
24298 H 65.34043125098107 65.91153121298467 64.28719435671347 H 0.0 **** 0.06
24299 H 66.6055021157758 66.78802028078648 63.39197326556547 H 0.0 **** 0.06
24300 H 65.24265762357513 67.6807592956946 64.10979783145642 H 0.0 **** 0.06
24301 C 119.69938378159391 44.567820029412474 0.29974763352077716 C 0.0 **** -0.24
24302 H 120.42586521930455 45.10994181844089 0.904396565179578 H 0.0 **** 0.06
24303 H 120.15161962476738 43.64769840294932 -0.07209594684132625 H 0.0 **** 0.06
24304 H 119.39270684030028 45.18806512995661 -0.54178721544681 H 0.0 **** 0.06
24305 H 118.82924184003723 44.3241441146713 0.9090683300684859 H 0.0 **** 0.06
24306 C 89.9696257486149 129.91447220452073 78.6516942738159 C 0.0 **** -0.24
24307 H 90.06162822939496 128.84219923090274 78.48108694730644 H 0.0 **** 0.06
24308 H 90.31001545596087 130.4536849438385 77.76693940244297 H 0.0 **** 0.06
24309 H 90.5820805419513 130.19835105099367 79.50824937369595 H 0.0 **** 0.06
24310 H 88.92771237295966 130.16321057505553 78.85094632753845 H 0.0 **** 0.06
24311 C 18.352524273063523 5.502806436762228 143.88849040147358 C 0.0 **** -0.24
24312 H 18.642225316736415 6.413432917239504 143.36455111523696 H 0.0 **** 0.06
24313 H 18.79221177642347 4.639511689554752 143.38914208115972 H 0.0 **** 0.06
24314 H 17.265448321457654 5.411445512537057 143.88351111998674 H 0.0 **** 0.06
24315 H 18.707468381361934 5.548108578548522 144.9181190089309 H 0.0 **** 0.06
24316 C 38.09403141955113 31.235979769090903 77.66873078733691 C 0.0 **** -0.24
24317 H 38.11414783922882 32.288484316826604 77.95249864493613 H 0.0 **** 0.06
24318 H 39.09998905507331 30.821174801269905 77.74168820953402 H 0.0 **** 0.06
24319 H 37.73517324872691 31.142211376560077 76.64374397032041 H 0.0 **** 0.06
24320 H 37.42717630831774 30.69206772244594 78.33792479917949 H 0.0 **** 0.06
24321 C 35.81541276260606 17.709194687789704 3.4174364907269137 C 0.0 **** -0.24
24322 H 34.81091062123039 18.01507035415659 3.1243491177267515 H 0.0 **** 0.06
24323 H 36.51836610263172 18.511211200896213 3.1907124128169926 H 0.0 **** 0.06
24324 H 36.09717713681482 16.811943699647998 2.8663746309138673 H 0.0 **** 0.06
24325 H 35.834015409636606 17.499225864211553 4.486534560586847 H 0.0 **** 0.06
24326 C 105.30795255855048 53.732662441029944 155.8311698621518 C 0.0 **** -0.24
24327 H 105.84644774483479 52.79963330433716 155.66796690663688 H 0.0 **** 0.06
24328 H 104.47691411111305 53.80027057994087 155.12861101642073 H 0.0 **** 0.06
24329 H 105.98438180492332 54.574206356922545 155.67695562814913 H 0.0 **** 0.06
24330 H 104.92478764652992 53.757232386120975 156.8511510524665 H 0.0 **** 0.06
24331 C 29.900719224152226 90.02395521708098 71.69868394052853 C 0.0 **** -0.24
24332 H 30.405901783083635 89.33862479057885 72.37933250030464 H 0.0 **** 0.06
24333 H 28.83904280627786 90.05989294968036 71.94247755623523 H 0.0 **** 0.06
24334 H 30.02697004864521 89.67549256724797 70.67386045980592 H 0.0 **** 0.06
24335 H 30.33172441972505 91.01950924819494 71.80083254981261 H 0.0 **** 0.06
24336 C 110.31960625448716 15.054614412695692 76.75105481635177 C 0.0 **** -0.24
24337 H 109.48279387601303 14.439219683907957 76.4201831597693 H 0.0 **** 0.06
24338 H 110.02558199839496 15.626273118070308 77.6303543543022 H 0.0 **** 0.06
24339 H 110.60491665240073 15.738217512078165 75.951224545895 H 0.0 **** 0.06
24340 H 111.16597621824582 14.413420204791379 76.9990620175086 H 0.0 **** 0.06
24341 C 105.8893053635644 134.78700604240967 56.23164422787386 C 0.0 **** -0.24
24342 H 106.8899992498616 134.89751148322395 55.81205393352741 H 0.0 **** 0.06
24343 H 105.91912538494296 134.08072064178046 57.061103906332846 H 0.0 **** 0.06
24344 H 105.21282838959928 134.41532906965023 55.461929471161284 H 0.0 **** 0.06
24345 H 105.53749235648581 135.7539400070946 56.58870014209123 H 0.0 **** 0.06
24346 C 29.69446627785834 76.0503952181499 142.72280815746814 C 0.0 **** -0.24
24347 H 30.619774527470156 76.61607174967799 142.6127927857472 H 0.0 **** 0.06
24348 H 29.922848956000735 75.04561456379923 143.08041675587563 H 0.0 **** 0.06
24349 H 29.19116015201189 75.98722111009772 141.75801976224597 H 0.0 **** 0.06
24350 H 29.04439727118256 76.551910593786 143.4388551141959 H 0.0 **** 0.06
24351 C 144.64467850170053 51.656877028908255 39.77843636263361 C 0.0 **** -0.24
24352 H 144.0479107041707 52.455597649395884 40.21779749597161 H 0.0 **** 0.06
24353 H 144.18217337230993 51.32767633625586 38.848384453560215 H 0.0 **** 0.06
24354 H 144.69834759683948 50.81896848838862 40.473957460192366 H 0.0 **** 0.06
24355 H 145.65016250252825 52.024746802083115 39.57445249143228 H 0.0 **** 0.06
24356 C 98.25790074842338 109.46155226605845 81.36777002957808 C 0.0 **** -0.24
24357 H 97.20170512290342 109.40800332785903 81.10723035087099 H 0.0 **** 0.06
24358 H 98.8209249669948 108.76275548539871 80.74747290388743 H 0.0 **** 0.06
24359 H 98.38708751615303 109.19949353974278 82.41839065985023 H 0.0 **** 0.06
24360 H 98.62346380322069 110.47415284838382 81.19849105851515 H 0.0 **** 0.06
24361 C 155.2106896855496 134.11604404943074 94.12126653660687 C 0.0 **** -0.24
24362 H 154.31271494515516 134.0363984612385 93.50776702649426 H 0.0 **** 0.06
24363 H 155.67363543263068 133.13344224333434 94.21571026532877 H 0.0 **** 0.06
24364 H 154.94234870708303 134.48799271784696 95.10975829569492 H 0.0 **** 0.06
24365 H 155.91169052043202 134.80575696153215 93.65162030219926 H 0.0 **** 0.06
24366 C 15.038093133398718 153.7928208432532 127.55788789868605 C 0.0 **** -0.24
24367 H 14.842307659276798 154.8442198252593 127.76683736147764 H 0.0 **** 0.06
24368 H 15.325498503532344 153.67760834298997 126.5129042163244 H 0.0 **** 0.06
24369 H 14.13868870443605 153.20975537869444 127.75477871580058 H 0.0 **** 0.06
24370 H 15.84750540022236 153.44119640373873 128.19808530921296 H 0.0 **** 0.06
24371 C 10.035937279711192 0.027573075616341924 126.35759836855352 C 0.0 **** -0.24
24372 H 9.39222619863341 -0.30676533695479336 125.54340332299678 H 0.0 **** 0.06
24373 H 10.65284239760281 -0.8046475190483662 126.6974537005846 H 0.0 **** 0.06
24374 H 9.420527441420084 0.3854536057974265 127.18260558471356 H 0.0 **** 0.06
24375 H 10.677554814606573 0.835356238829938 126.00497110752313 H 0.0 **** 0.06
24376 C 20.890800683789962 45.20215886695746 17.393978412890775 C 0.0 **** -0.24
24377 H 21.832491701157608 45.07718579256078 16.85905837794008 H 0.0 **** 0.06
24378 H 20.656440160044724 44.28630415733096 17.936876173283835 H 0.0 **** 0.06
24379 H 20.09374849998403 45.41616233776358 16.6812799970115 H 0.0 **** 0.06
24380 H 20.98020182020815 46.0297206241176 18.098104583131224 H 0.0 **** 0.06
24381 C 46.65839303843504 51.32911078647848 123.99591939806197 C 0.0 **** -0.24
24382 H 45.800634621592565 50.83248933039039 124.45150183681397 H 0.0 **** 0.06
24383 H 47.282320797760036 50.589456798323695 123.49536094797952 H 0.0 **** 0.06
24384 H 47.239016675812806 51.83159633092909 124.76894534234685 H 0.0 **** 0.06
24385 H 46.30897251807592 52.06236987804162 123.26921652356873 H 0.0 **** 0.06
24386 C 25.32453438235322 54.85949309436181 142.01833076355857 C 0.0 **** -0.24
24387 H 25.436401283895826 55.49395433330194 142.8971210562211 H 0.0 **** 0.06
24388 H 24.271746612256926 54.609860289290935 141.88247761327725 H 0.0 **** 0.06
24389 H 25.90008012670996 53.94407257537199 142.15602623939213 H 0.0 **** 0.06
24390 H 25.689595132316533 55.389873794034344 141.1386236276956 H 0.0 **** 0.06
24391 C 56.62517980731592 111.39543349324266 81.49693714485961 C 0.0 **** -0.24
24392 H 57.41427805788372 111.81258478675501 80.87231615630591 H 0.0 **** 0.06
24393 H 56.193197688113884 110.52411404646399 81.00263500266925 H 0.0 **** 0.06
24394 H 55.85010120582237 112.14601547972099 81.65302854948438 H 0.0 **** 0.06
24395 H 57.04219374939777 111.09799191581682 82.45955886746444 H 0.0 **** 0.06
24396 C 104.52580930133745 114.49756649962906 39.855415213825935 C 0.0 **** -0.24
24397 H 105.32244017595 115.01993794045119 39.32605806994039 H 0.0 **** 0.06
24398 H 104.50756276820356 113.4536393767783 39.54522843191195 H 0.0 **** 0.06
24399 H 103.56876842751838 114.96453539906447 39.621330814483784 H 0.0 **** 0.06
24400 H 104.70451068640598 114.55589265311666 40.929168235568994 H 0.0 **** 0.06
24401 C 31.697370910073033 94.79070051356233 69.23407474067852 C 0.0 **** -0.24
24402 H 32.56144431579244 94.23838940844574 68.86572539653561 H 0.0 **** 0.06
24403 H 31.933276015180127 95.23118132097457 70.20354787489372 H 0.0 **** 0.06
24404 H 30.850689965276473 94.11178665233484 69.33837256578482 H 0.0 **** 0.06
24405 H 31.444166266507295 95.58120069389717 68.52726319566041 H 0.0 **** 0.06
24406 C 107.98650040033363 115.69666359233342 87.9946314338893 C 0.0 **** -0.24
24407 H 107.5990347467781 115.5761479757579 89.00672384729232 H 0.0 **** 0.06
24408 H 108.15375598083358 116.75623003510093 87.79363319669646 H 0.0 **** 0.06
24409 H 107.26549052250914 115.30114666830055 87.27926943625809 H 0.0 **** 0.06
24410 H 108.92795154032689 115.15599092795755 87.89977112851767 H 0.0 **** 0.06
24411 C 155.746203662975 62.58079891760775 156.99962898261285 C 0.0 **** -0.24
24412 H 155.4748462741658 63.07491970218638 157.93281840932133 H 0.0 **** 0.06
24413 H 155.59091613325478 61.50625808094412 157.0991250247885 H 0.0 **** 0.06
24414 H 156.79462457383804 62.777609177886376 156.77592609556623 H 0.0 **** 0.06
24415 H 155.12442767064127 62.96440870941416 156.19064640077528 H 0.0 **** 0.06
24416 C 149.56566843163924 86.8460155175678 30.644891305598094 C 0.0 **** -0.24
24417 H 148.73740181634912 87.49273339946139 30.354210917773855 H 0.0 **** 0.06
24418 H 150.42661665778905 87.05134117814707 30.00769648565887 H 0.0 **** 0.06
24419 H 149.26889189534842 85.80369998735202 30.5323583618366 H 0.0 **** 0.06
24420 H 149.82900804515128 87.03994115790667 31.685015234833315 H 0.0 **** 0.06
24421 C 112.13219714048262 132.11337879406213 112.02073253620965 C 0.0 **** -0.24
24422 H 112.04064911387684 132.96370719173711 112.69713794278194 H 0.0 **** 0.06
24423 H 112.28030614995811 131.20283149881848 112.60100058102533 H 0.0 **** 0.06
24424 H 112.98481085678003 132.2669053338049 111.35945792323919 H 0.0 **** 0.06
24425 H 111.22340573408138 132.02299059692527 111.42590834575152 H 0.0 **** 0.06
24426 C 76.69003670142834 148.46362287061555 24.991762394519014 C 0.0 **** -0.24
24427 H 76.81481469106548 148.66769504934774 26.05601881444028 H 0.0 **** 0.06
24428 H 75.87806982536361 147.74901590289048 24.85284017755373 H 0.0 **** 0.06
24429 H 77.61423629765864 148.046609893522 24.590788607537718 H 0.0 **** 0.06
24430 H 76.45279055749336 149.39059122158181 24.470160439942447 H 0.0 **** 0.06
24431 C 50.29680451375768 156.18520942874858 93.06234892773921 C 0.0 **** -0.24
24432 H 49.727600357039535 157.00531256588232 92.62312325862786 H 0.0 **** 0.06
24433 H 49.610619324829116 155.4129685702638 93.41047336473477 H 0.0 **** 0.06
24434 H 50.8823651535082 156.55817321318443 93.90277824084737 H 0.0 **** 0.06
24435 H 50.96596794440819 155.76593809798186 92.31124872610656 H 0.0 **** 0.06
24436 C 110.26617706683992 34.093712681134946 66.36537728394514 C 0.0 **** -0.24
24437 H 110.15499976637504 34.49901135572043 67.37144949124605 H 0.0 **** 0.06
24438 H 109.78261650469408 34.759834094351675 65.65110555369775 H 0.0 **** 0.06
24439 H 109.80034815825549 33.1091401529813 66.31723109840785 H 0.0 **** 0.06
24440 H 111.3252067784861 34.00725935839603 66.12358906330124 H 0.0 **** 0.06
24441 C 5.557435648228136 120.76660702513863 123.9262717979304 C 0.0 **** -0.24
24442 H 6.111309270175212 121.02781394182176 123.02444718368754 H 0.0 **** 0.06
24443 H 4.901717399957846 121.59386347891581 124.20124646794874 H 0.0 **** 0.06
24444 H 6.2564118281029835 120.57109131021195 124.73849992129324 H 0.0 **** 0.06
24445 H 4.958174185266614 119.87521067054757 123.73887934241127 H 0.0 **** 0.06
24446 C 82.57807275266592 50.01862558123105 156.35133037118786 C 0.0 **** -0.24
24447 H 83.29233239641306 49.53637634745053 157.01939738846693 H 0.0 **** 0.06
24448 H 81.81372682070257 49.29919593216722 156.0577508353877 H 0.0 **** 0.06
24449 H 83.09712364856587 50.38104747053919 155.46499964538162 H 0.0 **** 0.06
24450 H 82.10950921011711 50.85760643394647 156.86688351426042 H 0.0 **** 0.06
24451 C 57.89526479034254 129.7761620356564 63.509681548808615 C 0.0 **** -0.24
24452 H 58.30436854736176 128.97903959136522 64.13059829246694 H 0.0 **** 0.06
24453 H 58.51042131930558 130.66996102161883 63.6129747437665 H 0.0 **** 0.06
24454 H 56.87638743469425 129.99721419254175 63.82718515316951 H 0.0 **** 0.06
24455 H 57.88995165340181 129.4578524691117 62.46715698560179 H 0.0 **** 0.06
24456 C 14.757814678418725 9.908001306597498 42.11374316411627 C 0.0 **** -0.24
24457 H 15.733029289037944 10.036747588079663 41.64431635901184 H 0.0 **** 0.06
24458 H 14.817337280742208 9.11897217229074 42.86412559414521 H 0.0 **** 0.06
24459 H 14.0235206710081 9.634803769373434 41.35564086114377 H 0.0 **** 0.06
24460 H 14.457975257795596 10.842230608165835 42.59116298657477 H 0.0 **** 0.06
24461 C 38.12017616147972 10.464286317588495 54.772478401339754 C 0.0 **** -0.24
24462 H 38.240328129225475 10.196307825672122 55.82199814475398 H 0.0 **** 0.06
24463 H 39.09426927274936 10.45328275529566 54.28078511366729 H 0.0 **** 0.06
24464 H 37.687661820645474 11.462618762912335 54.69923649289042 H 0.0 **** 0.06
24465 H 37.45967358505604 9.746445738977933 54.28640648045646 H 0.0 **** 0.06
24466 C 52.76939004596095 136.01235437666247 101.73188803044377 C 0.0 **** -0.24
24467 H 53.44321825262578 136.6428601166877 101.1504778652776 H 0.0 **** 0.06
24468 H 52.761290040403054 136.34911671755117 102.76795084110114 H 0.0 **** 0.06
24469 H 53.11072096816238 134.9789161449138 101.6870634615907 H 0.0 **** 0.06
24470 H 51.76254223204282 136.08076656980427 101.31860609393891 H 0.0 **** 0.06
24471 C 144.6905985297638 45.581335051217465 67.09463835329673 C 0.0 **** -0.24
24472 H 144.67443724694175 46.089330353171874 66.13035143572901 H 0.0 **** 0.06
24473 H 144.01217446574594 46.08663819845745 67.78207139841847 H 0.0 **** 0.06
24474 H 145.7021236996911 45.60398186535207 67.4994699314054 H 0.0 **** 0.06
24475 H 144.37395359583684 44.54643222852795 66.96470449819081 H 0.0 **** 0.06
24476 C 97.31352315883407 90.77898291433164 94.16728628928844 C 0.0 **** -0.24
24477 H 96.69372104287454 91.33547434263707 93.46376704982534 H 0.0 **** 0.06
24478 H 96.6957954095708 90.05798759770663 94.70430948062595 H 0.0 **** 0.06
24479 H 97.76618901059896 91.47035323482368 94.8780249022207 H 0.0 **** 0.06
24480 H 98.09619089586815 90.25229014204795 93.62266113480442 H 0.0 **** 0.06
24481 C 26.458134575538907 101.93985935927708 1.7370438241143908 C 0.0 **** -0.24
24482 H 26.27369777321519 102.11373552673552 0.6772335608594382 H 0.0 **** 0.06
24483 H 26.40845560052378 100.87091152471629 1.9440950104621457 H 0.0 **** 0.06
24484 H 25.70402456824013 102.46079072269481 2.326695645784241 H 0.0 **** 0.06
24485 H 27.447763723936475 102.31550280298478 1.9988201640552887 H 0.0 **** 0.06
24486 C 60.08846571670871 113.69632296818124 87.42621603639475 C 0.0 **** -0.24
24487 H 59.859534766158234 113.39680081364075 86.40291461068762 H 0.0 **** 0.06
24488 H 60.36279520931129 114.7514764151969 87.44262423403262 H 0.0 **** 0.06
24489 H 60.91881812375448 113.09863206131446 87.80228136637248 H 0.0 **** 0.06
24490 H 59.211982527280824 113.53722123072244 88.05437646772452 H 0.0 **** 0.06
24491 C 53.92621738582882 91.24008282796939 108.65043452636367 C 0.0 **** -0.24
24492 H 54.907097471155026 90.81491220056786 108.8609216697419 H 0.0 **** 0.06
24493 H 53.262108362290974 91.0584428872408 109.49645985865492 H 0.0 **** 0.06
24494 H 53.51253934771019 90.77412432544274 107.75631718929993 H 0.0 **** 0.06
24495 H 54.022971857120666 92.31410720690513 108.48867264002787 H 0.0 **** 0.06
24496 C 122.13404230910355 127.05951907360755 94.05301012950042 C 0.0 **** -0.24
24497 H 121.62340564695741 127.87045647413193 93.53490457995407 H 0.0 **** 0.06
24498 H 122.21288367228591 126.19718683629186 93.39090981496891 H 0.0 **** 0.06
24499 H 121.56794134485592 126.78365243437112 94.94309944549363 H 0.0 **** 0.06
24500 H 123.13227509773226 127.3869177207874 94.34482020419168 H 0.0 **** 0.06
24501 C 77.58245423338818 49.34317878418349 49.857119342151506 C 0.0 **** -0.24
24502 H 77.69233079108979 49.84882828469951 48.89774069026359 H 0.0 **** 0.06
24503 H 78.45877603695327 48.72102113659281 50.041742368533804 H 0.0 **** 0.06
24504 H 76.68995190216529 48.71885865537844 49.838718523363895 H 0.0 **** 0.06
24505 H 77.49113097355239 50.08572465237849 50.64962761121784 H 0.0 **** 0.06
24506 C 128.9768098830163 101.4222738144552 3.6353095609642168 C 0.0 **** -0.24
24507 H 128.80909930840986 101.46279890292658 4.711708446716727 H 0.0 **** 0.06
24508 H 130.028830557678 101.61456020551458 3.4233729373548627 H 0.0 **** 0.06
24509 H 128.36215395192085 102.17640058321035 3.1436932704227836 H 0.0 **** 0.06
24510 H 128.70573251828097 100.43361888729851 3.2622971856748784 H 0.0 **** 0.06
24511 C 47.432719803218475 6.5654688131066905 62.98849541539337 C 0.0 **** -0.24
24512 H 47.45560875976224 5.726466167014422 63.68527255814075 H 0.0 **** 0.06
24513 H 46.63026316540993 7.247443887761932 63.269103687125096 H 0.0 **** 0.06
24514 H 47.25877934495642 6.194239066264203 61.97899859413346 H 0.0 **** 0.06
24515 H 48.38682841965067 7.091206344502808 63.0226781646366 H 0.0 **** 0.06
24516 C 29.6448535009238 132.9073543122381 9.732271782760733 C 0.0 **** -0.24
24517 H 28.9044987040092 132.3229399826855 9.185574104390241 H 0.0 **** 0.06
24518 H 29.481725270704004 132.7880696529309 10.804283482782267 H 0.0 **** 0.06
24519 H 29.547104378935416 133.95925829753406 9.46453726107353 H 0.0 **** 0.06
24520 H 30.645419080657916 132.5586372145171 9.475829605364765 H 0.0 **** 0.06
24521 C 82.47835566176275 2.673615123509343 10.383498813017866 C 0.0 **** -0.24
24522 H 82.36203524750599 2.7134832344524646 11.466599810205167 H 0.0 **** 0.06
24523 H 81.51518026130653 2.858445070742043 9.907369917885546 H 0.0 **** 0.06
24524 H 82.84365194054003 1.6878275813484258 10.093855490366195 H 0.0 **** 0.06
24525 H 83.19359051461713 3.4330821420547615 10.066713959136507 H 0.0 **** 0.06
24526 C 91.51130903560596 114.1028044900259 74.77037577390442 C 0.0 **** -0.24
24527 H 91.51682494431533 113.6263142130071 73.79025728677232 H 0.0 **** 0.06
24528 H 91.72502050148456 113.35708582262032 75.53746300330783 H 0.0 **** 0.06
24529 H 90.53198815402651 114.54358785765857 74.95381587101178 H 0.0 **** 0.06
24530 H 92.27213407837857 114.88196201978712 74.79940035411087 H 0.0 **** 0.06
24531 C 114.92922546400825 35.21984701398134 31.625433151965787 C 0.0 **** -0.24
24532 H 114.20566942274007 35.986807883464564 31.900193635548156 H 0.0 **** 0.06
24533 H 115.63786172201048 35.629529025270585 30.9063198487588 H 0.0 **** 0.06
24534 H 114.40766004311564 34.3721150446483 31.1798944598181 H 0.0 **** 0.06
24535 H 115.46403776516019 34.88971373185933 32.516165715575546 H 0.0 **** 0.06
24536 C 35.084098395675824 107.75290143580985 123.49393225090557 C 0.0 **** -0.24
24537 H 36.06083343437223 107.29098076990267 123.35225087381565 H 0.0 **** 0.06
24538 H 34.38808167564497 107.36548984553978 122.75025917816203 H 0.0 **** 0.06
24539 H 35.17441320513751 108.83376347951297 123.38084739460646 H 0.0 **** 0.06
24540 H 34.71528352510896 107.52217901009756 124.49302554143839 H 0.0 **** 0.06
24541 C 102.28540907359464 121.12640872895827 37.96029404984522 C 0.0 **** -0.24
24542 H 102.80670386521753 120.51957469056231 38.70156047004309 H 0.0 **** 0.06
24543 H 101.90507411536275 120.48203988883614 37.16678422964053 H 0.0 **** 0.06
24544 H 102.97586586626032 121.85583134817728 37.53728965426383 H 0.0 **** 0.06
24545 H 101.4544260391824 121.64639630908977 38.436806148575556 H 0.0 **** 0.06
24546 C 15.451100385490463 142.92179111957012 124.52724493154051 C 0.0 **** -0.24
24547 H 14.602059304135196 143.50283862493086 124.16693712358591 H 0.0 **** 0.06
24548 H 15.785145879895936 143.32166203003447 125.48433088065343 H 0.0 **** 0.06
24549 H 16.26438492855408 142.98212474314835 123.80400100407036 H 0.0 **** 0.06
24550 H 15.151910864535182 141.88060334453792 124.65166498673483 H 0.0 **** 0.06
24551 C 87.29743445308978 26.9974190584538 99.1710343129025 C 0.0 **** -0.24
24552 H 88.17767547316329 26.386507874708443 98.9727418043305 H 0.0 **** 0.06
24553 H 86.47701213610202 26.356496149904963 99.49504780461048 H 0.0 **** 0.06
24554 H 87.00922057151742 27.52581242087542 98.2632431325608 H 0.0 **** 0.06
24555 H 87.52617642234013 27.718838151710813 99.95551138506512 H 0.0 **** 0.06
24556 C 154.1468849262231 21.78352170023885 137.90016614248134 C 0.0 **** -0.24
24557 H 153.91741851091695 20.780961867537997 138.25907917966714 H 0.0 **** 0.06
24558 H 154.29608475627714 22.44900709580793 138.7514876610156 H 0.0 **** 0.06
24559 H 153.31836274542724 22.150322961962246 137.29387535666248 H 0.0 **** 0.06
24560 H 155.0544642612242 21.755258985539456 137.29776958105475 H 0.0 **** 0.06
24561 C 5.01063295587732 11.087304673929992 86.75936170215022 C 0.0 **** -0.24
24562 H 5.9256782394166265 10.511288153914052 86.89465673605983 H 0.0 **** 0.06
24563 H 4.154357311972049 10.411275014804602 86.75038036630987 H 0.0 **** 0.06
24564 H 5.058086879793109 11.626982332568502 85.8136424975301 H 0.0 **** 0.06
24565 H 4.90435252879967 11.798260117101506 87.57876056829667 H 0.0 **** 0.06
24566 C 46.247691305280554 77.27220817644502 48.84813824740081 C 0.0 **** -0.24
24567 H 45.943273064802725 76.8802586307529 47.8777400017388 H 0.0 **** 0.06
24568 H 46.20677893248164 76.47511896691873 49.590579925590305 H 0.0 **** 0.06
24569 H 45.574889744637346 78.07753181025947 49.141464939163825 H 0.0 **** 0.06
24570 H 47.2665504194356 77.65470356432175 48.781040705741816 H 0.0 **** 0.06
24571 C 36.33201483891236 144.06313748077457 70.93203991537598 C 0.0 **** -0.24
24572 H 37.13024295179491 144.00242952073611 71.67176627878104 H 0.0 **** 0.06
24573 H 36.69091902627213 143.67342461047951 69.9792065880672 H 0.0 **** 0.06
24574 H 36.027779262237516 145.10196682749148 70.80859787920792 H 0.0 **** 0.06
24575 H 35.47976500135036 143.47270097030852 71.26927370829554 H 0.0 **** 0.06
24576 C 57.82729423423996 88.1313059358581 37.25321241984636 C 0.0 **** -0.24
24577 H 56.90457625990766 88.13691494774382 36.672455353628266 H 0.0 **** 0.06
24578 H 57.61221929120018 87.81194271282251 38.27354109795749 H 0.0 **** 0.06
24579 H 58.25299137800039 89.13433805470699 37.26821783084955 H 0.0 **** 0.06
24580 H 58.53800452160607 87.44174616643186 36.798667753247685 H 0.0 **** 0.06
24581 C 83.9628385412543 152.10831939425063 104.14208723537928 C 0.0 **** -0.24
24582 H 83.60826640356814 152.30348199886006 103.1296575580738 H 0.0 **** 0.06
24583 H 83.33950599496775 151.34237649579703 104.60349885687992 H 0.0 **** 0.06
24584 H 83.90792419999742 153.02551944797142 104.72931136656177 H 0.0 **** 0.06
24585 H 84.9959557215651 151.76278440880432 104.10384930358367 H 0.0 **** 0.06
24586 C 19.59261464354134 46.33872629616744 63.26698291722202 C 0.0 **** -0.24
24587 H 18.563037512883653 45.98300125006968 63.21164446353606 H 0.0 **** 0.06
24588 H 19.596384733665644 47.422057186825185 63.382912227150086 H 0.0 **** 0.06
24589 H 20.118703914032864 46.068357847325686 62.35116761478311 H 0.0 **** 0.06
24590 H 20.09063838366376 45.87891967309426 64.12061685280086 H 0.0 **** 0.06
24591 C 33.60975981353718 137.09697084117363 126.69302002635165 C 0.0 **** -0.24
24592 H 34.45435682633993 136.50684560117452 127.05059631486235 H 0.0 **** 0.06
24593 H 32.69338533278955 136.73976125913396 127.16272928985582 H 0.0 **** 0.06
24594 H 33.52678344043333 136.9940027486703 125.61106246476795 H 0.0 **** 0.06
24595 H 33.76501511123893 138.14455939816696 126.94830934031872 H 0.0 **** 0.06
24596 C 152.5219380409815 155.33456559901552 22.03513780746929 C 0.0 **** -0.24
24597 H 152.4432619221161 156.27393112757986 22.58255917033224 H 0.0 **** 0.06
24598 H 152.95003855843163 155.52329162829307 21.051076286710483 H 0.0 **** 0.06
24599 H 151.53048349152945 154.89638947316763 21.922829243135475 H 0.0 **** 0.06
24600 H 153.16437038565633 154.64648521202167 22.585299382838166 H 0.0 **** 0.06
24601 C 112.66046872395066 149.41068623557885 153.05988396505916 C 0.0 **** -0.24
24602 H 112.74642768859826 150.44192033066008 153.40335301961642 H 0.0 **** 0.06
24603 H 111.91146111484079 149.35271606091572 152.27042673659412 H 0.0 **** 0.06
24604 H 112.3614088659989 148.7751476186282 153.893563488278 H 0.0 **** 0.06
24605 H 113.6229182583001 149.07571723611613 152.67370483628403 H 0.0 **** 0.06
24606 C 118.42321851454021 66.26518053500149 147.1406155148004 C 0.0 **** -0.24
24607 H 117.54365784583881 65.91851192655423 147.6840689268679 H 0.0 **** 0.06
24608 H 118.48178842241894 65.75291588391892 146.1802311298474 H 0.0 **** 0.06
24609 H 119.31833406561485 66.04934215458954 147.7231698771264 H 0.0 **** 0.06
24610 H 118.34720473919621 67.34041091441924 146.9760973204398 H 0.0 **** 0.06
24611 C 10.677239231456788 135.40225913748617 104.15309187075735 C 0.0 **** -0.24
24612 H 11.038168355572964 136.41458953632556 104.33530330817081 H 0.0 **** 0.06
24613 H 9.620985252028063 135.434783100594 103.88500716394975 H 0.0 **** 0.06
24614 H 10.804203192646327 134.80383119708043 105.05610287546648 H 0.0 **** 0.06
24615 H 11.246009285102133 134.95446508518927 103.33859278425393 H 0.0 **** 0.06
24616 C 17.377852166049536 59.696998567021595 127.51638054551313 C 0.0 **** -0.24
24617 H 17.01322615311841 58.67566752441516 127.63062360359243 H 0.0 **** 0.06
24618 H 16.55325214901694 60.34548053406618 127.21916573244806 H 0.0 **** 0.06
24619 H 18.154138348401204 59.72191891285283 126.75217809676514 H 0.0 **** 0.06
24620 H 17.789032793811003 60.043675939191814 128.4641373404599 H 0.0 **** 0.06
24621 C 41.267591935129644 66.59450140878519 49.28905375170348 C 0.0 **** -0.24
24622 H 40.318598728053814 66.47387218092592 48.76626778735067 H 0.0 **** 0.06
24623 H 41.93563461130597 65.77641579114828 49.02184870238716 H 0.0 **** 0.06
24624 H 41.092524108095816 66.58625968615584 50.365345549574215 H 0.0 **** 0.06
24625 H 41.72120850545656 67.54324435709964 49.00255158462818 H 0.0 **** 0.06
24626 C 11.517186390389128 105.88379173147615 59.907526211739 C 0.0 **** -0.24
24627 H 10.910788044041112 105.12481727144814 60.402261999195616 H 0.0 **** 0.06
24628 H 11.57786751631349 105.66243496658473 58.84215132855415 H 0.0 **** 0.06
24629 H 12.519695286796463 105.88361624204884 60.336819342857595 H 0.0 **** 0.06
24630 H 11.060927489395652 106.86343144674657 60.05086331325002 H 0.0 **** 0.06
24631 C 11.464347371768383 14.676312938047964 123.32522247823874 C 0.0 **** -0.24
24632 H 11.422788759195328 15.621762966874734 122.7855552151824 H 0.0 **** 0.06
24633 H 12.417085444784448 14.185071298694623 123.12416892579529 H 0.0 **** 0.06
24634 H 10.647388595979862 14.033506269355499 122.99764102140267 H 0.0 **** 0.06
24635 H 11.371183963286967 14.864682827520781 124.39548183206614 H 0.0 **** 0.06
24636 C 77.84819225675608 107.31071417850171 28.596672888607998 C 0.0 **** -0.24
24637 H 76.92422565739551 106.81351858964979 28.3000418602642 H 0.0 **** 0.06
24638 H 78.58625106234713 107.20975988280463 27.80032740275061 H 0.0 **** 0.06
24639 H 78.23054618140141 106.8525300144658 29.508070373751366 H 0.0 **** 0.06
24640 H 77.65001839932302 108.36722504577745 28.775805698329663 H 0.0 **** 0.06
24641 C 3.194574744608609 56.30477297729206 140.08527459147527 C 0.0 **** -0.24
24642 H 4.269564257705547 56.12331436016976 140.0862755995443 H 0.0 **** 0.06
24643 H 2.6654710027890403 55.35208310442157 140.07558473682874 H 0.0 **** 0.06
24644 H 2.9241894915796216 56.87929701699889 139.1989345686711 H 0.0 **** 0.06
24645 H 2.9191016741822473 56.86489694299664 140.97943757199943 H 0.0 **** 0.06
24646 C 17.259946704071183 102.53549482606805 151.4026475665779 C 0.0 **** -0.24
24647 H 16.25935888035505 102.44291558732134 150.98043345063195 H 0.0 **** 0.06
24648 H 17.86158994402473 101.67725847524495 151.10154877067228 H 0.0 **** 0.06
24649 H 17.19390717589917 102.56966184724804 152.48947783011556 H 0.0 **** 0.06
24650 H 17.725867790155746 103.45077226153144 151.038015672771 H 0.0 **** 0.06
24651 C 126.22055239528918 148.33776184620453 22.934651910999946 C 0.0 **** -0.24
24652 H 126.55349443830674 148.4538322159353 23.966763331497987 H 0.0 **** 0.06
24653 H 125.28464073096906 148.8800724342953 22.792552217987065 H 0.0 **** 0.06
24654 H 126.06428832375151 147.28108513336866 22.72044524580832 H 0.0 **** 0.06
24655 H 126.97836579134947 148.73795934875028 22.261370041917758 H 0.0 **** 0.06
24656 C 25.022700872149017 59.99929836210089 88.56430201469684 C 0.0 **** -0.24
24657 H 25.81031335779545 59.34459818003228 88.93813076562904 H 0.0 **** 0.06
24658 H 25.136112267902092 60.99034217035586 89.00376384270137 H 0.0 **** 0.06
24659 H 24.04993283020349 59.58957401572775 88.83715359306547 H 0.0 **** 0.06
24660 H 25.094796509916193 60.070598670980814 87.4794042640192 H 0.0 **** 0.06
24661 C 103.0470220745651 43.95324970752222 139.1432119174091 C 0.0 **** -0.24
24662 H 102.76496929083125 43.02247023707919 139.63667166056615 H 0.0 **** 0.06
24663 H 104.08155469299597 44.195016990014636 139.39041339277622 H 0.0 **** 0.06
24664 H 102.39460075756442 44.756152336237676 139.4847092478942 H 0.0 **** 0.06
24665 H 102.94751789456164 43.83674817448694 138.06477836375862 H 0.0 **** 0.06
24666 C 76.9419537137676 105.92320991327158 95.77614177595893 C 0.0 **** -0.24
24667 H 77.24281054995124 105.89315065774726 94.72934033950605 H 0.0 **** 0.06
24668 H 76.01980539640299 106.496536114114 95.87230947322519 H 0.0 **** 0.06
24669 H 77.72757445483744 106.39599858106796 96.36675386951214 H 0.0 **** 0.06
24670 H 76.77812842603214 104.90750077454483 96.13695462328394 H 0.0 **** 0.06
24671 C 9.22931359305511 61.882150023992324 12.924652892434551 C 0.0 **** -0.24
24672 H 8.190411090048343 61.55363145953555 12.963931835475734 H 0.0 **** 0.06
24673 H 9.264957976728226 62.945260172443284 12.688841679832649 H 0.0 **** 0.06
24674 H 9.758446057141896 61.320222803227296 12.154740353044872 H 0.0 **** 0.06
24675 H 9.701874713334405 61.70790100000977 13.892118130672088 H 0.0 **** 0.06
24676 C 139.70333397501804 152.89401174012292 39.106870468517116 C 0.0 **** -0.24
24677 H 139.37671239551935 152.50351456317492 40.071110582062346 H 0.0 **** 0.06
24678 H 138.92940731749093 152.71255513857787 38.36066491946946 H 0.0 **** 0.06
24679 H 140.62362960528498 152.39361700236108 38.80563512907207 H 0.0 **** 0.06
24680 H 139.88365754797155 153.9660189860598 39.19176788603701 H 0.0 **** 0.06
24681 C 57.47216354483598 36.17729259020615 78.24986354885817 C 0.0 **** -0.24
24682 H 58.072529320635965 35.82068737741963 79.08571537088929 H 0.0 **** 0.06
24683 H 56.48161900415492 35.72487225238302 78.29522891020528 H 0.0 **** 0.06
24684 H 57.95516265680554 35.90284617039106 77.31232172312308 H 0.0 **** 0.06
24685 H 57.379314046874654 37.26217081294766 78.30604098473557 H 0.0 **** 0.06
24686 C 8.986253555498251 84.58790255743924 135.18715524187968 C 0.0 **** -0.24
24687 H 8.991588701005135 84.45209833225718 136.26833256191833 H 0.0 **** 0.06
24688 H 9.897681142776278 85.10235644079722 134.88124569069984 H 0.0 **** 0.06
24689 H 8.119699382309129 85.18261029364115 134.89988148304286 H 0.0 **** 0.06
24690 H 8.936934234982786 83.61456407010769 134.69870414441394 H 0.0 **** 0.06
24691 C 30.80523410585471 2.3800699523998183 67.09774660420673 C 0.0 **** -0.24
24692 H 30.468014105036332 3.393057980080009 67.31803189010675 H 0.0 **** 0.06
24693 H 30.021654217858483 1.669995934450423 67.36317858659808 H 0.0 **** 0.06
24694 H 31.70329393818082 2.1635078509351864 67.67661280435932 H 0.0 **** 0.06
24695 H 31.029310415189883 2.29493579113187 66.03481592609346 H 0.0 **** 0.06
24696 C 114.88792529869409 51.244515125210015 32.57628920544158 C 0.0 **** -0.24
24697 H 115.23122436419573 52.080713613377156 31.96806023868153 H 0.0 **** 0.06
24698 H 115.63061433871144 50.4467827517699 32.54799180567668 H 0.0 **** 0.06
24699 H 113.9409652621319 50.874343931246486 32.18323621637677 H 0.0 **** 0.06
24700 H 114.74854451776923 51.575891568441946 33.60499241880894 H 0.0 **** 0.06
24701 C 66.91418676575037 148.14857814607973 40.77751076543899 C 0.0 **** -0.24
24702 H 67.66035595286377 147.61541526057528 40.18720101778155 H 0.0 **** 0.06
24703 H 67.22138650609566 149.18756531314713 40.89787548391229 H 0.0 **** 0.06
24704 H 66.82393464771172 147.6794351089695 41.757225538380055 H 0.0 **** 0.06
24705 H 65.95267417864713 148.11061960595688 40.26533367625086 H 0.0 **** 0.06
24706 C 111.11331672251431 16.893593260538978 6.87164395136697 C 0.0 **** -0.24
24707 H 111.3848164957319 17.78552722615376 6.306194241716085 H 0.0 **** 0.06
24708 H 112.01756371110703 16.364992571762542 7.17341765470389 H 0.0 **** 0.06
24709 H 110.50185641185264 16.241032399300764 6.247693382610493 H 0.0 **** 0.06
24710 H 110.54843598332452 17.18369684861986 7.75706153694631 H 0.0 **** 0.06
24711 C 118.46621673159969 69.56696202181263 123.67289057433105 C 0.0 **** -0.24
24712 H 117.44120209411695 69.93749999986983 123.65617904905945 H 0.0 **** 0.06
24713 H 118.89881173359545 69.65294471808093 122.67678156035645 H 0.0 **** 0.06
24714 H 118.46922834067153 68.52246086184937 123.98277102355623 H 0.0 **** 0.06
24715 H 119.05375203763667 70.15664190053604 124.37709764577342 H 0.0 **** 0.06
24716 C 59.60486205058379 153.98872690980144 56.41523577672274 C 0.0 **** -0.24
24717 H 60.37790214452997 153.87235212025064 57.17489003758192 H 0.0 **** 0.06
24718 H 58.810141345918 154.6287432816013 56.800019812486426 H 0.0 **** 0.06
24719 H 59.19452013166972 153.01148722987736 56.16262984080018 H 0.0 **** 0.06
24720 H 60.037363397978936 154.44308469502724 55.52384346252694 H 0.0 **** 0.06
24721 C 131.97836470086327 35.78111361954974 130.35536771140653 C 0.0 **** -0.24
24722 H 131.78444571084978 36.82384425344425 130.10092917016578 H 0.0 **** 0.06
24723 H 132.99284877091017 35.51734815380722 130.05455953554684 H 0.0 **** 0.06
24724 H 131.26662896652397 35.14142099429755 129.83335117299407 H 0.0 **** 0.06
24725 H 131.8711775476837 35.64355816640038 131.43079927385514 H 0.0 **** 0.06
24726 C 48.507869385271064 115.27886692388414 57.6819242333716 C 0.0 **** -0.24
24727 H 47.77170218519379 115.83644088137395 58.26103114022847 H 0.0 **** 0.06
24728 H 49.39176754267787 115.89748625902753 57.52489603984945 H 0.0 **** 0.06
24729 H 48.07978918854168 115.00444212700937 56.7175886796372 H 0.0 **** 0.06
24730 H 48.78778535081172 114.37515112959794 58.22432401573515 H 0.0 **** 0.06
24731 C 72.97307629490307 107.85602872969774 101.07847317072127 C 0.0 **** -0.24
24732 H 73.91177004028009 108.13890064486957 100.60152535321485 H 0.0 **** 0.06
24733 H 73.169429384776 107.5258904572977 102.0990092488566 H 0.0 **** 0.06
24734 H 72.51055710325666 107.045029012397 100.51615998534164 H 0.0 **** 0.06
24735 H 72.30251387635367 108.71525639605888 101.09673614917408 H 0.0 **** 0.06
24736 C 146.5675869438221 41.56099846917226 23.91705400666639 C 0.0 **** -0.24
24737 H 145.5922026063394 41.59425357368548 24.40271867634265 H 0.0 **** 0.06
24738 H 146.478838912842 41.05106016370465 22.958449634959358 H 0.0 **** 0.06
24739 H 147.2711545716532 41.022244805753076 24.552085319387473 H 0.0 **** 0.06
24740 H 146.92794386197139 42.57695670574003 23.757346756718164 H 0.0 **** 0.06
24741 C 146.61465908731415 68.58716014462445 140.89596101161936 C 0.0 **** -0.24
24742 H 146.46884566242662 69.00548579738307 139.90006404739955 H 0.0 **** 0.06
24743 H 147.31031090849936 67.74972547537166 140.83886983866603 H 0.0 **** 0.06
24744 H 145.65888701592655 68.23972336328274 141.28819193868154 H 0.0 **** 0.06
24745 H 147.02136082533957 69.35340485236844 141.5555695315272 H 0.0 **** 0.06
24746 C 10.146681575592304 10.226648178258223 31.24743962892441 C 0.0 **** -0.24
24747 H 10.649928005488661 10.412341729362787 32.19611269931866 H 0.0 **** 0.06
24748 H 9.25434990843764 9.624824726749047 31.42248371523118 H 0.0 **** 0.06
24749 H 10.820018390564286 9.692377873995419 30.57706253288012 H 0.0 **** 0.06
24750 H 9.86263133425365 11.176484422579584 30.795380769848606 H 0.0 **** 0.06
24751 C 151.96886194130914 80.05795626125204 29.709748768475094 C 0.0 **** -0.24
24752 H 152.36431385215275 81.02796934140014 30.014153338750702 H 0.0 **** 0.06
24753 H 152.42362265825554 79.274006288001 30.315724689417202 H 0.0 **** 0.06
24754 H 152.19899732628167 79.88611019386815 28.658064729047204 H 0.0 **** 0.06
24755 H 150.88771064838124 80.04678783886497 29.852082381071597 H 0.0 **** 0.06
24756 C 3.651279589339822 96.85265986965628 39.94732375684009 C 0.0 **** -0.24
24757 H 3.2442263437039287 95.98846777567834 40.473042671261 H 0.0 **** 0.06
24758 H 2.835672257598958 97.43464625651013 39.520693792460406 H 0.0 **** 0.06
24759 H 4.31345032632214 96.51399772611582 39.14982668898722 H 0.0 **** 0.06
24760 H 4.212466802515451 97.47127402988968 40.64758520775513 H 0.0 **** 0.06
24761 C 146.52265861220127 143.94560248724625 89.89982206949243 C 0.0 **** -0.24
24762 H 147.41782993005847 144.56482666849024 89.86210822639504 H 0.0 **** 0.06
24763 H 145.6386644373695 144.58219924397687 89.85100023800351 H 0.0 **** 0.06
24764 H 146.5113365257414 143.3787311251694 90.83121047830099 H 0.0 **** 0.06
24765 H 146.5215562680537 143.25623135916643 89.05548570001086 H 0.0 **** 0.06
24766 C 15.863682473070128 132.43422039990193 114.21365306506728 C 0.0 **** -0.24
24767 H 15.912425838035858 133.4904543509693 113.94858212839175 H 0.0 **** 0.06
24768 H 15.236899042076146 132.30977891624224 115.095639719359 H 0.0 **** 0.06
24769 H 16.86808054852102 132.06737736821398 114.42573412466605 H 0.0 **** 0.06
24770 H 15.438684381525178 131.87101059476566 113.38262537629699 H 0.0 **** 0.06
24771 C 4.16694674560442 55.03308101435728 45.99197747189919 C 0.0 **** -0.24
24772 H 4.245901205501745 53.957066062694025 45.837939563244504 H 0.0 **** 0.06
24773 H 4.630949423577334 55.554641537014575 45.15406706503899 H 0.0 **** 0.06
24774 H 4.676257455802187 55.30543116181198 46.91685621911955 H 0.0 **** 0.06
24775 H 3.1165648716164895 55.31398660852858 46.05896695846866 H 0.0 **** 0.06
24776 C 156.74815122114592 17.24012535904106 45.67043011793089 C 0.0 **** -0.24
24777 H 155.87459526317343 17.344977409594065 46.314432237980725 H 0.0 **** 0.06
24778 H 157.07271037404254 16.200173230179814 45.664993495489284 H 0.0 **** 0.06
24779 H 157.55364337137266 17.87170169852581 46.04596229344865 H 0.0 **** 0.06
24780 H 156.49054653922832 17.545828793767782 44.6561964558164 H 0.0 **** 0.06
24781 C 133.54121503562718 98.72145725213723 89.22792707173011 C 0.0 **** -0.24
24782 H 132.91396705555127 99.46978624011408 89.71203383509288 H 0.0 **** 0.06
24783 H 134.57513101834712 98.8533167714398 89.5480559571921 H 0.0 **** 0.06
24784 H 133.477782543218 98.83870426835438 88.14591545407058 H 0.0 **** 0.06
24785 H 133.19925050066095 97.72484907905232 89.50653982656598 H 0.0 **** 0.06
24786 C 117.28311061724132 130.60648888764547 31.746843527903266 C 0.0 **** -0.24
24787 H 117.15235726806337 129.65022153173834 32.25391353790941 H 0.0 **** 0.06
24788 H 117.81824619958364 131.29474327451953 32.401711839120985 H 0.0 **** 0.06
24789 H 116.30587961737918 131.02346921896685 31.501448583329726 H 0.0 **** 0.06
24790 H 117.85428285221501 130.45710208039327 30.830415930998768 H 0.0 **** 0.06
24791 C 58.93539681343749 87.73408449812621 98.53104029942179 C 0.0 **** -0.24
24792 H 59.850008700798426 87.32161587422911 98.10597045137351 H 0.0 **** 0.06
24793 H 58.11409091908912 87.5997286090942 97.82706743321762 H 0.0 **** 0.06
24794 H 59.074172949531956 88.79797929325991 98.72773492544957 H 0.0 **** 0.06
24795 H 58.703541662012924 87.21982267772123 99.46363594339704 H 0.0 **** 0.06
24796 C 68.35588227118706 101.82292277995487 125.70238819297589 C 0.0 **** -0.24
24797 H 68.79075902909739 102.38270803752965 124.87352608920935 H 0.0 **** 0.06
24798 H 67.39132993778247 102.25605243465344 125.96672540331286 H 0.0 **** 0.06
24799 H 69.02382719373063 101.87169652909154 126.56284063159666 H 0.0 **** 0.06
24800 H 68.21989251332135 100.78317817736973 125.40630443835244 H 0.0 **** 0.06
24801 C 21.813942671815518 128.6729784128722 109.26252830803354 C 0.0 **** -0.24
24802 H 22.475617914853096 128.57417446686466 110.12299987661929 H 0.0 **** 0.06
24803 H 22.275058074864837 128.20093153317174 108.39456400992465 H 0.0 **** 0.06
24804 H 21.643665056807237 129.72948951219567 109.05398689404494 H 0.0 **** 0.06
24805 H 20.86228663390414 128.1868501518938 109.47753940920084 H 0.0 **** 0.06
24806 C 114.65590191619386 146.23426432910392 155.309513114703 C 0.0 **** -0.24
24807 H 114.01772024968322 146.42946690841507 154.44733111227455 H 0.0 **** 0.06
24808 H 114.3963972760247 146.92096874317284 156.11573088071026 H 0.0 **** 0.06
24809 H 115.69936980597852 146.3804924792146 155.03032721997715 H 0.0 **** 0.06
24810 H 114.50916791843825 145.20777239064415 155.64584347731363 H 0.0 **** 0.06
24811 C 117.39984082907705 152.3672143892535 124.42910772615465 C 0.0 **** -0.24
24812 H 116.99468396617914 151.88394323410319 125.31799330312708 H 0.0 **** 0.06
24813 H 117.25613725348978 151.71816997154525 123.56532633318159 H 0.0 **** 0.06
24814 H 118.46505944985427 152.55273918543452 124.5710850093875 H 0.0 **** 0.06
24815 H 116.88469755978326 153.31401011087166 124.26415326556355 H 0.0 **** 0.06
24816 C 147.17668859705822 14.72868154412447 131.229393115539 C 0.0 **** -0.24
24817 H 148.15283249969514 15.054254016822277 130.86988884952046 H 0.0 **** 0.06
24818 H 146.42346774328388 15.46706798227708 130.9543595037186 H 0.0 **** 0.06
24819 H 147.2059575966878 14.62614090240207 132.31462140752612 H 0.0 **** 0.06
24820 H 146.92642723362047 13.767459279500741 130.77981364702595 H 0.0 **** 0.06
24821 C 120.85073187005554 154.46397155859626 59.96220897795766 C 0.0 **** -0.24
24822 H 121.8241415392684 154.91411955671066 60.158736555901356 H 0.0 **** 0.06
24823 H 120.97728471068962 153.58970784128203 59.32427012769185 H 0.0 **** 0.06
24824 H 120.2099062679743 155.19025547868753 59.46162641075014 H 0.0 **** 0.06
24825 H 120.39311540458368 154.1641924178606 60.90519324151313 H 0.0 **** 0.06
24826 C 21.114650945186725 11.628852119070217 133.4038621041268 C 0.0 **** -0.24
24827 H 20.47864660314076 10.8836344820038 133.88247661297177 H 0.0 **** 0.06
24828 H 20.601836686422388 12.590826205233554 133.39327545808007 H 0.0 **** 0.06
24829 H 21.32785298331254 11.31929273536349 132.38094591258914 H 0.0 **** 0.06
24830 H 22.04805207334155 11.719476846392155 133.95816086662532 H 0.0 **** 0.06
24831 C 69.46756934149877 15.038044677826576 102.49133969205764 C 0.0 **** -0.24
24832 H 68.66705550953498 15.734103558620461 102.74014540301744 H 0.0 **** 0.06
24833 H 69.03777986702403 14.11206709311216 102.10819583005946 H 0.0 **** 0.06
24834 H 70.05308002986524 14.823744614241718 103.3859895797724 H 0.0 **** 0.06
24835 H 70.11241531712518 15.481231244574815 101.73199324273145 H 0.0 **** 0.06
24836 C 151.4619927764263 51.25278103006707 10.885458078296999 C 0.0 **** -0.24
24837 H 151.5377213778222 52.320867566214815 11.091989037204542 H 0.0 **** 0.06
24838 H 151.70332547702577 51.06723397591941 9.838252497402934 H 0.0 **** 0.06
24839 H 150.4468247410897 50.91487897420899 11.090691339401538 H 0.0 **** 0.06
24840 H 152.16105044292203 50.70998476957817 11.521739676004167 H 0.0 **** 0.06
24841 C 58.936602198278266 50.616977015286665 83.29349683183018 C 0.0 **** -0.24
24842 H 59.22186525692125 50.30825683493825 84.29921026517167 H 0.0 **** 0.06
24843 H 57.93702453367739 50.24357972266277 83.06854648050657 H 0.0 **** 0.06
24844 H 59.647399478526225 50.209767591934465 82.5738834572884 H 0.0 **** 0.06
24845 H 58.94107534568556 51.70486111920599 83.23227746369531 H 0.0 **** 0.06
24846 C 72.53619065201312 29.047705916366823 11.795076696389657 C 0.0 **** -0.24
24847 H 71.99049347673633 29.13458338683583 10.855140745267207 H 0.0 **** 0.06
24848 H 71.82730346914943 28.959934523903144 12.618930957558781 H 0.0 **** 0.06
24849 H 73.15428353139163 29.933368003847193 11.939452953398309 H 0.0 **** 0.06
24850 H 73.17047927031689 28.161422878926658 11.765093078044089 H 0.0 **** 0.06
24851 C 26.00577373256283 150.04831840431785 4.200919412827936 C 0.0 **** -0.24
24852 H 25.981560655518877 149.05234086452782 3.7592961327732297 H 0.0 **** 0.06
24853 H 25.174017730967364 150.15690433588222 4.8984893297818175 H 0.0 **** 0.06
24854 H 25.920822916748477 150.79762520609037 3.4141517641177543 H 0.0 **** 0.06
24855 H 26.94730227928386 150.18680019756576 4.733855160237113 H 0.0 **** 0.06
24856 C 54.89675234746788 93.27905266839082 123.26715077739857 C 0.0 **** -0.24
24857 H 54.02902816631796 93.53317150295226 122.65894274322079 H 0.0 **** 0.06
24858 H 54.75686525469004 92.29039964329218 123.70560431597687 H 0.0 **** 0.06
24859 H 55.01119470411112 94.01600313585581 124.06252908357101 H 0.0 **** 0.06
24860 H 55.78973458031055 93.27804363670856 122.64251939182867 H 0.0 **** 0.06
24861 C 32.97122172886611 68.2496507925014 128.29299345636872 C 0.0 **** -0.24
24862 H 33.34472499626747 67.37174741998852 127.76522014293948 H 0.0 **** 0.06
24863 H 33.27022878959798 68.19722312500036 129.3408001426742 H 0.0 **** 0.06
24864 H 31.883940931150335 68.27710700083175 128.2268249678139 H 0.0 **** 0.06
24865 H 33.386873375910454 69.14911387188272 127.840387114142 H 0.0 **** 0.06
24866 C 51.96738619895325 12.230531637623471 60.46091390727902 C 0.0 **** -0.24
24867 H 51.6270429001558 11.250556150938088 60.79665366022955 H 0.0 **** 0.06
24868 H 51.10721898552089 12.88444961233413 60.32131347039662 H 0.0 **** 0.06
24869 H 52.500251989260676 12.123993334880694 59.5160021059222 H 0.0 **** 0.06
24870 H 52.63392949226753 12.659445243213021 61.20819349461331 H 0.0 **** 0.06
24871 C 42.8514802878621 123.8246849596249 144.73947494767083 C 0.0 **** -0.24
24872 H 42.13925789047582 124.64761036220682 144.78302552660156 H 0.0 **** 0.06
24873 H 43.24886531827153 123.74142216736806 143.72795474844344 H 0.0 **** 0.06
24874 H 42.349039553697025 122.89519570697547 145.00968736698297 H 0.0 **** 0.06
24875 H 43.66738488303733 124.01312770023839 145.43678669651212 H 0.0 **** 0.06
24876 C 95.37295565700362 13.73631484964875 156.72566414888553 C 0.0 **** -0.24
24877 H 94.85619994101873 13.063571319810336 157.4102460283371 H 0.0 **** 0.06
24878 H 96.0649989399772 14.364373483595614 157.28589632385695 H 0.0 **** 0.06
24879 H 94.64304670312289 14.364299236862713 156.21436656985708 H 0.0 **** 0.06
24880 H 95.92590456130601 13.151126210229876 155.99086932226606 H 0.0 **** 0.06
24881 C 5.020465794104133 91.25949091078098 10.822949005178529 C 0.0 **** -0.24
24882 H 4.65530557134403 92.19295611121565 11.252592393476014 H 0.0 **** 0.06
24883 H 4.363587641295361 90.9546138889836 10.007313169134477 H 0.0 **** 0.06
24884 H 5.030838291197043 90.48632331193 11.591090229869799 H 0.0 **** 0.06
24885 H 6.0303896236908585 91.40737752254208 10.440632283505124 H 0.0 **** 0.06
24886 C 14.883926837042992 14.196478931957131 88.5268032199497 C 0.0 **** -0.24
24887 H 14.047498468985822 14.123015712251828 89.22219622185634 H 0.0 **** 0.06
24888 H 15.144895572833946 13.201565612047261 88.16608522070877 H 0.0 **** 0.06
24889 H 15.741856388813204 14.636361294351246 89.03549671238022 H 0.0 **** 0.06
24890 H 14.600547192349353 14.826053573269121 87.68350587628731 H 0.0 **** 0.06
24891 C 83.79365097583937 136.81239969675107 66.33205055041063 C 0.0 **** -0.24
24892 H 84.49377507837403 137.24499701231997 67.04703480769973 H 0.0 **** 0.06
24893 H 83.11897537876052 136.13167284838158 66.8509883696259 H 0.0 **** 0.06
24894 H 84.34672217818343 136.26474934745497 65.5685899882659 H 0.0 **** 0.06
24895 H 83.21677396090757 137.60868031281115 65.86181469793911 H 0.0 **** 0.06
24896 C 54.81852568827274 10.58659004021132 25.378182646291037 C 0.0 **** -0.24
24897 H 55.33482556451135 11.147006021179322 24.60034850100675 H 0.0 **** 0.06
24898 H 55.33648225605198 9.642570899487907 25.549881667569963 H 0.0 **** 0.06
24899 H 53.794456530647594 10.386957272600029 25.06438533116733 H 0.0 **** 0.06
24900 H 54.8093228771247 11.168516118431484 26.299935881675424 H 0.0 **** 0.06
24901 C 129.54038903887738 86.74517011600331 29.074263426746185 C 0.0 **** -0.24
24902 H 130.03909443701752 87.1172779856506 28.180241460353486 H 0.0 **** 0.06
24903 H 128.54097260934293 87.17516868737104 29.138065388439408 H 0.0 **** 0.06
24904 H 130.1154703788731 87.02775618984911 29.956104817293756 H 0.0 **** 0.06
24905 H 129.46650432260873 85.65841600328716 29.023359102344763 H 0.0 **** 0.06
24906 C 143.77662180816213 97.93434498004547 105.66222384746857 C 0.0 **** -0.24
24907 H 144.74791057091235 98.17016816383381 105.22808306780172 H 0.0 **** 0.06
24908 H 143.91924426483706 97.47551394844112 106.64161225579471 H 0.0 **** 0.06
24909 H 143.245210063368 97.24225168252269 105.00999991866928 H 0.0 **** 0.06
24910 H 143.19552849013294 98.85068258865002 105.77174852114842 H 0.0 **** 0.06
24911 C 135.5375996298285 69.02272902340843 41.939787180975955 C 0.0 **** -0.24
24912 H 134.51895658001325 68.70526011110078 42.163513598592644 H 0.0 **** 0.06
24913 H 136.2243047362881 68.197058475674 42.12616559219887 H 0.0 **** 0.06
24914 H 135.80333767617168 69.86741939677361 42.575479825963114 H 0.0 **** 0.06
24915 H 135.60324679261112 69.32109733011856 40.89269046715326 H 0.0 **** 0.06
24916 C 107.80356988584431 52.35434270042816 64.36722252649207 C 0.0 **** -0.24
24917 H 108.18404605633155 52.60156450239839 65.35831835283749 H 0.0 **** 0.06
24918 H 107.77469238024311 51.27121301230942 64.24945652128731 H 0.0 **** 0.06
24919 H 108.45825235746555 52.78465908718408 63.60976142449394 H 0.0 **** 0.06
24920 H 106.79892079642293 52.76042481818929 64.25280152233326 H 0.0 **** 0.06
24921 C 66.531451575611 14.439061980503709 16.495443734702405 C 0.0 **** -0.24
24922 H 66.26487998274686 13.604837000656119 15.846516974739416 H 0.0 **** 0.06
24923 H 66.5051550345337 15.367145065040404 15.922440222698015 H 0.0 **** 0.06
24924 H 67.53526261879813 14.284575483425613 16.891409628474463 H 0.0 **** 0.06
24925 H 65.8212895875062 14.49976660636932 17.319314189934317 H 0.0 **** 0.06
24926 C 51.56933901638391 47.097493131275996 47.225084063039674 C 0.0 **** -0.24
24927 H 50.99202009827161 47.54825926390902 46.41800697646994 H 0.0 **** 0.06
24928 H 51.29541332864477 46.04693791482819 47.32466891464257 H 0.0 **** 0.06
24929 H 51.35603576839111 47.618303313818956 48.158757540101675 H 0.0 **** 0.06
24930 H 52.632173014184275 47.176482046378 46.998652431582414 H 0.0 **** 0.06
24931 C 88.7547253226123 152.42589062309114 154.95948510075976 C 0.0 **** -0.24
24932 H 88.07168584230374 153.2553415467247 154.78294947718513 H 0.0 **** 0.06
24933 H 89.77491335197988 152.80487489801976 155.03656329770033 H 0.0 **** 0.06
24934 H 88.69053327750288 151.7191871188587 154.13182621889268 H 0.0 **** 0.06
24935 H 88.48396356895938 151.9231813905989 155.888398012507 H 0.0 **** 0.06
24936 C 80.42114267412 74.25869267414771 0.8183375982955283 C 0.0 **** -0.24
24937 H 79.96981389351639 75.22550085660018 1.0378458949540459 H 0.0 **** 0.06
24938 H 80.5540462377383 74.15543469314741 -0.25868334376266944 H 0.0 **** 0.06
24939 H 79.77027815576501 73.46320998133417 1.1822391774582286 H 0.0 **** 0.06
24940 H 81.3905994760657 74.18995088649866 1.3135353384795394 H 0.0 **** 0.06
24941 C 151.9444343794505 65.38381770816352 141.9766553745685 C 0.0 **** -0.24
24942 H 151.65046867079886 66.06981848652356 142.77128722435856 H 0.0 **** 0.06
24943 H 151.28542652013172 65.51883158203213 141.11832932728794 H 0.0 **** 0.06
24944 H 151.8681814190567 64.3581363731571 142.33601997992002 H 0.0 **** 0.06
24945 H 152.97303794068404 65.58960005568485 141.6815909941272 H 0.0 **** 0.06
24946 C 149.24941010291602 111.460837280315 143.7857829100006 C 0.0 **** -0.24
24947 H 149.63316649775368 112.43804621905598 144.0773414145556 H 0.0 **** 0.06
24948 H 149.18347934793306 110.8190728808914 144.66568991559424 H 0.0 **** 0.06
24949 H 149.92132615624757 111.00946185032392 143.05653351906776 H 0.0 **** 0.06
24950 H 148.25937671935026 111.57561501182077 143.3451746685334 H 0.0 **** 0.06
24951 C 101.90030032865134 73.3378054679666 113.67614839025767 C 0.0 **** -0.24
24952 H 101.46624295151385 73.69363822193215 112.74075009158521 H 0.0 **** 0.06
24953 H 102.98165123253021 73.46775292259014 113.6455294160027 H 0.0 **** 0.06
24954 H 101.66333650483348 72.28173133871891 113.80690872499171 H 0.0 **** 0.06
24955 H 101.48762479432277 73.90955783691066 114.50761445523874 H 0.0 **** 0.06
24956 C 67.19695137862078 151.1881654374764 90.15302878922991 C 0.0 **** -0.24
24957 H 66.69164622739017 150.2563898334822 89.90140892057212 H 0.0 **** 0.06
24958 H 68.04705873835438 150.97638891189905 90.80225593078498 H 0.0 **** 0.06
24959 H 66.50233834797693 151.85032041569954 90.66923434018467 H 0.0 **** 0.06
24960 H 67.54806960058903 151.66972932741345 89.23972877044235 H 0.0 **** 0.06
24961 C 30.575040868840517 62.72322758341697 104.02103002185918 C 0.0 **** -0.24
24962 H 30.907440847522665 63.4973139567912 103.3293471374917 H 0.0 **** 0.06
24963 H 29.67213014631413 62.252129033663394 103.63102092805083 H 0.0 **** 0.06
24964 H 30.360933333380302 63.17044251649487 104.99193962176487 H 0.0 **** 0.06
24965 H 31.358196242308566 61.97276054610447 104.13092349073015 H 0.0 **** 0.06
24966 C 22.246200845956785 54.765849912585836 117.54758565402216 C 0.0 **** -0.24
24967 H 23.301688471112563 55.038507253541965 117.5548334060511 H 0.0 **** 0.06
24968 H 21.65138933694918 55.60974518627182 117.89418721411568 H 0.0 **** 0.06
24969 H 22.088054819879638 53.91306923879954 118.20768536151547 H 0.0 **** 0.06
24970 H 21.946970335582414 54.50038645173842 116.53413862010188 H 0.0 **** 0.06
24971 C 128.2001181022265 24.730991620094017 124.83859718694207 C 0.0 **** -0.24
24972 H 128.75766019997525 23.81781334793402 125.04589868518472 H 0.0 **** 0.06
24973 H 128.68241359002036 25.573051674203583 125.33746959386856 H 0.0 **** 0.06
24974 H 127.17966905367922 24.626185852884703 125.20834871339095 H 0.0 **** 0.06
24975 H 128.18043398902074 24.908492210096654 123.76332524582641 H 0.0 **** 0.06
24976 C 30.306904033832097 52.167630697494474 66.16844265991406 C 0.0 **** -0.24
24977 H 30.072613337564007 52.01349000319094 67.22196636733092 H 0.0 **** 0.06
24978 H 29.905298505221594 51.33980774589703 65.58213736074553 H 0.0 **** 0.06
24979 H 31.389132665642876 52.211828422758344 66.04011701679842 H 0.0 **** 0.06
24980 H 29.862863601419463 53.102439326176736 65.82950826800325 H 0.0 **** 0.06
24981 C 89.26098301531547 110.52617740581597 113.84127178606678 C 0.0 **** -0.24
24982 H 89.16588384649191 109.45819655698013 114.04049970898836 H 0.0 **** 0.06
24983 H 88.41029587723887 110.8613833634323 113.24644064428657 H 0.0 **** 0.06
24984 H 90.18396926548942 110.71153999680864 113.29236310022884 H 0.0 **** 0.06
24985 H 89.28280109593737 111.07102786344991 114.78421110977769 H 0.0 **** 0.06
24986 C 131.96536301956016 136.79218089087163 51.77922181489534 C 0.0 **** -0.24
24987 H 132.2827227100106 135.99071174092072 52.446656990669595 H 0.0 **** 0.06
24988 H 132.65106364904258 137.63396705158553 51.871169351459145 H 0.0 **** 0.06
24989 H 130.958379670016 137.11124804558747 52.04921139894007 H 0.0 **** 0.06
24990 H 131.96818276886032 136.43097435780197 50.75052915934995 H 0.0 **** 0.06
24991 C 16.349666270380254 29.24549528851807 111.77400346438303 C 0.0 **** -0.24
24992 H 17.430334173180512 29.385077779585657 111.75676201619858 H 0.0 **** 0.06
24993 H 16.11829148936326 28.18892561490162 111.63596023382031 H 0.0 **** 0.06
24994 H 15.896197096302075 29.825566867593096 110.97024955706341 H 0.0 **** 0.06
24995 H 15.955128386410081 29.5819766811141 112.73264510450578 H 0.0 **** 0.06
24996 C 13.869898318602338 3.8217939494070094 76.5508408766548 C 0.0 **** -0.24
24997 H 13.016828449052696 3.2705301113199994 76.15681091617195 H 0.0 **** 0.06
24998 H 13.867574746792997 4.833785962915215 76.14523582926974 H 0.0 **** 0.06
24999 H 14.792768401179728 3.3168099855877244 76.26317141014734 H 0.0 **** 0.06
25000 H 13.804022543388612 3.865414495294033 77.63796152329668 H 0.0 **** 0.06
25001 C 73.82993058196907 25.598613659778486 40.282891850204706 C 0.0 **** -0.24
25002 H 73.35157247013744 24.63694171154502 40.47132031361731 H 0.0 **** 0.06
25003 H 74.85866338286792 25.4346929654197 39.96066284721691 H 0.0 **** 0.06
25004 H 73.82440278447237 26.192587344554624 41.19591557523057 H 0.0 **** 0.06
25005 H 73.28410250146764 26.127652602424597 39.50157553776312 H 0.0 **** 0.06
25006 C 22.472223160640908 127.71395389727128 119.00851761295462 C 0.0 **** -0.24
25007 H 21.82304624805434 127.45886272197528 119.84608223537703 H 0.0 **** 0.06
25008 H 23.492142443948808 127.84907471240486 119.367609064198 H 0.0 **** 0.06
25009 H 22.12277189621733 128.63791783799286 118.5470123104592 H 0.0 **** 0.06
25010 H 22.448578026939657 126.90970882107378 118.27399572987093 H 0.0 **** 0.06
25011 C 140.4885530295562 13.951132878447709 42.511431073791115 C 0.0 **** -0.24
25012 H 141.1539539314479 14.571194969639151 41.9111134094733 H 0.0 **** 0.06
25013 H 141.01392299649888 13.047375440401254 42.81959426237414 H 0.0 **** 0.06
25014 H 139.6144348903308 13.678727976334784 41.919707549235355 H 0.0 **** 0.06
25015 H 140.17160827176878 14.50708696327382 43.393096944263036 H 0.0 **** 0.06
25016 C 126.6120459964763 62.052312320712645 135.86557605989054 C 0.0 **** -0.24
25017 H 125.74225780575478 61.46058259160134 135.58148966713566 H 0.0 **** 0.06
25018 H 127.12046088895141 62.4046321595568 134.9668159285836 H 0.0 **** 0.06
25019 H 127.2944791013312 61.43710134420985 136.4520640691341 H 0.0 **** 0.06
25020 H 126.29132274306482 62.908274244150164 136.46017717273187 H 0.0 **** 0.06
25021 C 48.81430806925346 37.3221080839442 106.75387911138635 C 0.0 **** -0.24
25022 H 49.64093446072502 37.50187784038546 107.44002578673248 H 0.0 **** 0.06
25023 H 49.20765825678649 37.081838093742306 105.76565562281827 H 0.0 **** 0.06
25024 H 48.194124668543736 38.217021998936076 106.69070989075969 H 0.0 **** 0.06
25025 H 48.2128091695771 36.489398064413265 107.11955901926969 H 0.0 **** 0.06
25026 C 58.188403522520034 34.18388770300737 102.27656944640808 C 0.0 **** -0.24
25027 H 59.037283364218396 33.87704150643978 101.66659972980841 H 0.0 **** 0.06
25028 H 58.51977450792529 34.90806847293942 103.02071603827648 H 0.0 **** 0.06
25029 H 57.76784557227347 33.312581920590276 102.779041265219 H 0.0 **** 0.06
25030 H 57.42871064566306 34.63785891205998 101.63992075232841 H 0.0 **** 0.06
25031 C 107.84807527965978 122.86580060717161 133.80314136973482 C 0.0 **** -0.24
25032 H 106.82310713913768 122.4951521083748 133.81624375994815 H 0.0 **** 0.06
25033 H 108.40553006139129 122.42061349404428 134.6269285112107 H 0.0 **** 0.06
25034 H 107.84428023395958 123.95043449828391 133.9104660474023 H 0.0 **** 0.06
25035 H 108.31870930548911 122.59644018530277 132.8571301241445 H 0.0 **** 0.06
25036 C 23.801168103999032 65.23411091995536 80.3722761523017 C 0.0 **** -0.24
25037 H 24.39823755773503 64.61389726398997 81.04007457038537 H 0.0 **** 0.06
25038 H 24.42399461188512 65.58505210309227 79.54885394559992 H 0.0 **** 0.06
25039 H 23.41223623712662 66.09061585406667 80.92270050056914 H 0.0 **** 0.06
25040 H 22.971839211823863 64.64838887016955 79.9772636200158 H 0.0 **** 0.06
25041 C 99.55351902010942 145.88029764337654 85.69649011633044 C 0.0 **** -0.24
25042 H 99.56118872897018 145.73985453985046 86.77729563791797 H 0.0 **** 0.06
25043 H 99.3959599659893 144.91853241537953 85.20622638196028 H 0.0 **** 0.06
25044 H 100.50818059825461 146.29933443334397 85.37708106836999 H 0.0 **** 0.06
25045 H 98.74828747581094 146.56272432447227 85.4248733848516 H 0.0 **** 0.06
25046 C 76.22692430694416 9.459063290676 149.54871594725518 C 0.0 **** -0.24
25047 H 76.33582418432373 10.29719574060556 148.86057244733524 H 0.0 **** 0.06
25048 H 75.58165639521945 9.751168269945452 150.3770459933616 H 0.0 **** 0.06
25049 H 77.20592096469127 9.17483766221983 149.93286951640505 H 0.0 **** 0.06
25050 H 75.78314632060393 8.613946586613423 149.02300546811017 H 0.0 **** 0.06
25051 C 55.944251564024924 44.45029933867772 24.91273453846469 C 0.0 **** -0.24
25052 H 56.53463752780492 45.133301375248735 25.523322202233082 H 0.0 **** 0.06
25053 H 54.90394478386236 44.77682469182953 24.903211120865294 H 0.0 **** 0.06
25054 H 56.00639964821113 43.44448759099363 25.329792159191527 H 0.0 **** 0.06
25055 H 56.33290992998974 44.44565756056991 23.894014348990027 H 0.0 **** 0.06
25056 C 69.83097850768615 129.14282575260216 84.35764891806431 C 0.0 **** -0.24
25057 H 70.00933706002559 130.2087230234224 84.49588014427765 H 0.0 **** 0.06
25058 H 68.8549846666142 128.99557533488712 83.89307807106982 H 0.0 **** 0.06
25059 H 69.85303819764724 128.64167740317038 85.32509470789411 H 0.0 **** 0.06
25060 H 70.60590638703906 128.7261546122727 83.71516578601636 H 0.0 **** 0.06
25061 C 150.01716949882078 59.06471557486452 51.31344914857797 C 0.0 **** -0.24
25062 H 150.0788453483134 60.094956542645264 51.66148399056206 H 0.0 **** 0.06
25063 H 149.0842247180171 58.619153758424886 51.66166810555697 H 0.0 **** 0.06
25064 H 150.86057563429074 58.49660928786312 51.70608130827712 H 0.0 **** 0.06
25065 H 150.0436054757281 59.047328209584236 50.22401467045681 H 0.0 **** 0.06
25066 C 91.47288652389366 85.97495428545854 122.43852547032883 C 0.0 **** -0.24
25067 H 90.53576175100665 86.52934616077329 122.48618541850333 H 0.0 **** 0.06
25068 H 92.30910702869605 86.67319578329264 122.44147626831013 H 0.0 **** 0.06
25069 H 91.49781825985099 85.38156215702648 121.52408963965213 H 0.0 **** 0.06
25070 H 91.54722869867055 85.31349193266344 123.30171112212328 H 0.0 **** 0.06
25071 C 112.74127443004284 3.73313472557831 138.4836786977111 C 0.0 **** -0.24
25072 H 112.48953347039298 2.7925887448910487 138.97261160154397 H 0.0 **** 0.06
25073 H 113.58825943506059 4.192291450835285 138.99367495317156 H 0.0 **** 0.06
25074 H 111.88333194969852 4.404899899300375 138.52470250333184 H 0.0 **** 0.06
25075 H 113.00384391812634 3.542123038479616 137.44246905629842 H 0.0 **** 0.06
25076 C 98.79708315255726 55.86690809379638 65.49210984517704 C 0.0 **** -0.24
25077 H 99.65254480738037 55.34215193650823 65.06810870552427 H 0.0 **** 0.06
25078 H 99.07122974205163 56.90166069570978 65.69822481193668 H 0.0 **** 0.06
25079 H 98.49644951415098 55.379558478895945 66.41978190534346 H 0.0 **** 0.06
25080 H 97.96912349959919 55.843137281038764 64.78491371186728 H 0.0 **** 0.06
25081 C 42.2219392784869 59.71938581568966 40.233112940773964 C 0.0 **** -0.24
25082 H 42.36157711517228 60.63202402142825 40.81283137534223 H 0.0 **** 0.06
25083 H 42.79232338001739 58.90893418278759 40.68854443602481 H 0.0 **** 0.06
25084 H 42.57137824157752 59.88159050051895 39.212952288560075 H 0.0 **** 0.06
25085 H 41.164618606656234 59.45712634303035 40.217188122696825 H 0.0 **** 0.06
25086 C 26.397025308267473 4.076029710085777 77.00583584765943 C 0.0 **** -0.24
25087 H 27.117366347769547 4.073555958144198 77.82331202952156 H 0.0 **** 0.06
25088 H 25.611587880315284 4.803129983511951 77.2164396701906 H 0.0 **** 0.06
25089 H 25.957418796547955 3.0839164513363926 76.9064525214963 H 0.0 **** 0.06
25090 H 26.901452725444358 4.345503005399962 76.07812803695555 H 0.0 **** 0.06
25091 C 92.75334643038246 70.66689121467472 50.80615423232926 C 0.0 **** -0.24
25092 H 91.820584371179 70.65216057249498 50.24322387318041 H 0.0 **** 0.06
25093 H 93.14464740755255 69.65216713047741 50.88539614346584 H 0.0 **** 0.06
25094 H 92.56930093797729 71.06506006026824 51.80407031243125 H 0.0 **** 0.06
25095 H 93.47813980087763 71.29641377301098 50.29075093156597 H 0.0 **** 0.06
25096 C 91.96410249295008 57.95867990955432 6.4322324028435105 C 0.0 **** -0.24
25097 H 92.55687702670622 57.79874378769017 5.531361449801636 H 0.0 **** 0.06
25098 H 91.23684409683082 58.75073512738712 6.251687525671741 H 0.0 **** 0.06
25099 H 92.62146014242568 58.24741180442767 7.251938119461784 H 0.0 **** 0.06
25100 H 91.44250511316224 57.03789455706408 6.692107676201545 H 0.0 **** 0.06
25101 C 140.3805452514551 140.9479147704801 138.43045858015924 C 0.0 **** -0.24
25102 H 141.0587882076796 140.46571913415733 137.72722355687637 H 0.0 **** 0.06
25103 H 140.15260398152668 141.95562542632155 138.08322425060308 H 0.0 **** 0.06
25104 H 140.85144035016972 141.00007886884794 139.41220416326726 H 0.0 **** 0.06
25105 H 139.45834664614077 140.37025370962724 138.50018039554132 H 0.0 **** 0.06
25106 C 119.58243770111623 148.18454178830672 116.44449959667155 C 0.0 **** -0.24
25107 H 119.79809040506326 147.33281578861153 117.08932313224012 H 0.0 **** 0.06
25108 H 118.90893711100786 147.87429620307415 115.64528728501911 H 0.0 **** 0.06
25109 H 120.5115734473578 148.55741505358455 116.0133465287007 H 0.0 **** 0.06
25110 H 119.11218494024554 148.97300208581385 117.03127497022352 H 0.0 **** 0.06
25111 C 20.039183881917893 52.03876583164299 42.036408017664314 C 0.0 **** -0.24
25112 H 19.12023764726466 52.52350368416171 42.36377731134036 H 0.0 **** 0.06
25113 H 20.182300762103175 51.114705998973534 42.59733910519202 H 0.0 **** 0.06
25114 H 20.884250224754155 52.70505717909572 42.212823502908435 H 0.0 **** 0.06
25115 H 19.971645588960072 51.81187042552716 40.97202239551194 H 0.0 **** 0.06
25116 C 53.75438699491808 7.77667478577461 66.17794057452525 C 0.0 **** -0.24
25117 H 52.83486694157945 7.223714573863255 66.37070353155319 H 0.0 **** 0.06
25118 H 53.5101269149832 8.761382459601322 65.77882969045807 H 0.0 **** 0.06
25119 H 54.35998800050879 7.231084413826913 65.45393556384701 H 0.0 **** 0.06
25120 H 54.31227861883404 7.88819870666471 67.10755878355737 H 0.0 **** 0.06
25121 C 63.93217830837577 138.78556307311203 3.931846026925143 C 0.0 **** -0.24
25122 H 64.77310851286015 138.17965346816504 4.269990419337745 H 0.0 **** 0.06
25123 H 63.12410004553931 138.72368495912832 4.660972423618887 H 0.0 **** 0.06
25124 H 63.58126867855694 138.41472627098423 2.9686481350574354 H 0.0 **** 0.06
25125 H 64.25043267344526 139.82211879342321 3.82859868671855 H 0.0 **** 0.06
25126 C 60.65326653594944 10.10022878269394 125.12905590359826 C 0.0 **** -0.24
25127 H 59.70400977130345 10.241680086275437 124.6125137577991 H 0.0 **** 0.06
25128 H 61.40521401085299 9.75384191380148 124.41986847325127 H 0.0 **** 0.06
25129 H 60.52902597215375 9.35852615596265 125.9191003452696 H 0.0 **** 0.06
25130 H 60.973973662307074 11.045958499995407 125.56660239437802 H 0.0 **** 0.06
25131 C 119.52061762086117 129.70980519621457 95.81951431409533 C 0.0 **** -0.24
25132 H 118.97230647203111 130.47191389879765 96.3727754302925 H 0.0 **** 0.06
25133 H 120.46564547041748 130.12458236855218 95.4691917148781 H 0.0 **** 0.06
25134 H 118.92717400254838 129.38445372429578 94.9650327374643 H 0.0 **** 0.06
25135 H 119.71734453844743 128.858270793213 96.47105737374639 H 0.0 **** 0.06
25136 C 18.64593082294607 9.933263103142153 112.15878453098837 C 0.0 **** -0.24
25137 H 17.98072901815266 9.190603462359071 111.71876194813969 H 0.0 **** 0.06
25138 H 18.893530165681113 10.687174409076093 111.41040893472397 H 0.0 **** 0.06
25139 H 19.55976705944977 9.446350862187025 112.50048396141635 H 0.0 **** 0.06
25140 H 18.15028905077878 10.410338965378564 113.00385642369757 H 0.0 **** 0.06
25141 C 108.76855399267039 34.974286777704606 26.10571789054334 C 0.0 **** -0.24
25142 H 108.22000962556812 34.07284435277222 25.830979230153375 H 0.0 **** 0.06
25143 H 109.80029721317219 34.88921913054901 25.76582957677592 H 0.0 **** 0.06
25144 H 108.75063196242537 35.09275953874078 27.18876712875643 H 0.0 **** 0.06
25145 H 108.30068559837683 35.84025526874609 25.63723158865968 H 0.0 **** 0.06
25146 C 6.401096067205799 99.70471821986742 156.68825621455397 C 0.0 **** -0.24
25147 H 6.7637883543928865 99.82022875478556 155.66692360998252 H 0.0 **** 0.06
25148 H 6.351377237527629 98.64490812341988 156.93782036184058 H 0.0 **** 0.06
25149 H 5.408028819588196 100.14601878068312 156.7733674952047 H 0.0 **** 0.06
25150 H 7.082785674784816 100.20842387410472 157.37393659151678 H 0.0 **** 0.06
25151 C 39.23752860381539 154.0512911985889 29.850377610190833 C 0.0 **** -0.24
25152 H 40.32593475950513 154.03405546175534 29.800551732448923 H 0.0 **** 0.06
25153 H 38.87354192978512 153.076985979526 30.17824762993547 H 0.0 **** 0.06
25154 H 38.83153659557075 154.27860339870958 28.86496231408222 H 0.0 **** 0.06
25155 H 38.91863235952701 154.81579664247795 30.559054046892953 H 0.0 **** 0.06
25156 C 70.41916910786348 61.208587421384465 33.629160929669894 C 0.0 **** -0.24
25157 H 70.5769745223173 60.43137050884181 32.88119635602516 H 0.0 **** 0.06
25158 H 71.38327122088131 61.5440921084127 34.012770663473944 H 0.0 **** 0.06
25159 H 69.82140822042776 60.80868502951604 34.44825840335699 H 0.0 **** 0.06
25160 H 69.89592079750541 62.050029169591156 33.17482221733451 H 0.0 **** 0.06
25161 C 72.91315973401743 146.36854348308236 36.156261142562016 C 0.0 **** -0.24
25162 H 72.72337783230932 146.53783005438106 37.21665285805756 H 0.0 **** 0.06
25163 H 72.45738520479853 147.16897941637777 35.57371538810651 H 0.0 **** 0.06
25164 H 72.48405099885656 145.4124463321524 35.859450520257724 H 0.0 **** 0.06
25165 H 73.98784598011298 146.355289169818 35.978029755511216 H 0.0 **** 0.06
25166 C 134.51307577288605 51.31074198109815 45.9670595292115 C 0.0 **** -0.24
25167 H 134.69002536714345 52.37464487880044 46.12653414689731 H 0.0 **** 0.06
25168 H 133.45127484147 51.09694029121988 46.09340953073695 H 0.0 **** 0.06
25169 H 135.088333231943 50.73448642837832 46.690325040491075 H 0.0 **** 0.06
25170 H 134.82094176932054 51.03942257461409 44.95717389991512 H 0.0 **** 0.06
25171 C 102.51438056932959 1.4255136863484843 140.5864626507335 C 0.0 **** -0.24
25172 H 101.80234610272639 1.827169266247413 141.30725206284524 H 0.0 **** 0.06
25173 H 102.90770167148868 2.2369954963159415 139.9737984125812 H 0.0 **** 0.06
25174 H 102.01278326130479 0.6982516010122062 139.94849192113656 H 0.0 **** 0.06
25175 H 103.3338142902705 0.9394149926752746 141.11739499908683 H 0.0 **** 0.06
25176 C 28.646098105940666 100.28400889685544 30.002520007126805 C 0.0 **** -0.24
25177 H 27.60048566356525 100.26070078194671 30.309840734479735 H 0.0 **** 0.06
25178 H 29.051787621335933 99.2722560443237 30.019749844913292 H 0.0 **** 0.06
25179 H 29.212343496027003 100.91388511297909 30.689546806710382 H 0.0 **** 0.06
25180 H 28.71922799080113 100.6893000191473 28.99389036277944 H 0.0 **** 0.06
25181 C 19.075408690513996 94.54218749718105 65.23410066540987 C 0.0 **** -0.24
25182 H 19.482207870885986 95.52456398311688 65.47268716399236 H 0.0 **** 0.06
25183 H 19.694528938486883 93.77185899261988 65.69237104404891 H 0.0 **** 0.06
25184 H 19.065234050886005 94.40577760862924 64.1526648172237 H 0.0 **** 0.06
25185 H 18.057883538506218 94.46788024341816 65.61843604512677 H 0.0 **** 0.06
25186 C 42.759230406079126 40.02387632479994 141.40936796816243 C 0.0 **** -0.24
25187 H 41.905929713551586 39.37788619127831 141.19971494964472 H 0.0 **** 0.06
25188 H 42.658534813217116 40.95248160606164 140.8468225687688 H 0.0 **** 0.06
25189 H 43.677898165362876 39.51811171611351 141.11532491328927 H 0.0 **** 0.06
25190 H 42.79170313897286 40.24611101947772 142.47569855183974 H 0.0 **** 0.06
25191 C 89.96018184484745 89.44941482622703 29.008250106655282 C 0.0 **** -0.24
25192 H 90.9861102533545 89.0818838907549 29.041889427483696 H 0.0 **** 0.06
25193 H 89.91765802702136 90.35338508712536 28.400316575674196 H 0.0 **** 0.06
25194 H 89.62219047030977 89.6753875413913 30.02013244654941 H 0.0 **** 0.06
25195 H 89.31596539444163 88.68680786295235 28.571898849812243 H 0.0 **** 0.06
25196 C 151.5030878882827 43.708347162818214 148.200602397308 C 0.0 **** -0.24
25197 H 150.572283916179 43.615546212667596 147.64045898537898 H 0.0 **** 0.06
25198 H 151.90533752665223 42.71607526144503 148.40311499204608 H 0.0 **** 0.06
25199 H 151.31008566117993 44.22258528517911 149.14255462167185 H 0.0 **** 0.06
25200 H 152.22303477090287 44.28058270708799 147.61507814003073 H 0.0 **** 0.06
25201 C 34.77922566589439 29.13043428001646 69.55162574684937 C 0.0 **** -0.24
25202 H 35.7191327393156 28.83364840117511 70.0175147050902 H 0.0 **** 0.06
25203 H 34.7425616151678 30.21679672040179 69.46770863424723 H 0.0 **** 0.06
25204 H 33.94510181694638 28.784428898949244 70.16370614825627 H 0.0 **** 0.06
25205 H 34.709195941271716 28.685900945905047 68.55937497704019 H 0.0 **** 0.06
25206 C 114.0736226216011 16.27571942985199 20.51268206301117 C 0.0 **** -0.24
25207 H 115.07700358613896 16.69497563085494 20.452056260928337 H 0.0 **** 0.06
25208 H 113.89776732015021 15.898520845209866 21.520737544294064 H 0.0 **** 0.06
25209 H 113.97749476085939 15.458706412501762 19.796868631517683 H 0.0 **** 0.06
25210 H 113.3419998976823 17.04928915692055 20.281237230503898 H 0.0 **** 0.06
25211 C 95.58511913905326 77.9634866587603 120.94561457482921 C 0.0 **** -0.24
25212 H 95.68378526782143 78.93483658253196 121.43099588478209 H 0.0 **** 0.06
25213 H 94.86855284331001 78.0388321364641 120.12650009037053 H 0.0 **** 0.06
25214 H 95.23375274768773 77.22904693648479 121.6701769367014 H 0.0 **** 0.06
25215 H 96.55412205306028 77.65399495759263 120.5532717023567 H 0.0 **** 0.06
25216 C 65.74875358097768 104.58392258439842 61.863432502428665 C 0.0 **** -0.24
25217 H 66.76318514470375 104.24392572666132 62.07095695492029 H 0.0 **** 0.06
25218 H 65.74817500992631 105.66736711996798 61.73479600119748 H 0.0 **** 0.06
25219 H 65.0981503927082 104.31584650158725 62.69614156987099 H 0.0 **** 0.06
25220 H 65.38705515489548 104.10928892963953 60.9516146509456 H 0.0 **** 0.06
25221 C 139.73532007376835 47.23531968058029 64.39180115209692 C 0.0 **** -0.24
25222 H 139.0072365594196 47.78058353681399 64.99291879093232 H 0.0 **** 0.06
25223 H 139.35617190303986 46.23452898201185 64.18250866036254 H 0.0 **** 0.06
25224 H 140.67460061693114 47.16109908553909 64.93957850310821 H 0.0 **** 0.06
25225 H 139.90259436657485 47.764830638455805 63.45431669918679 H 0.0 **** 0.06
25226 C 95.28002748738359 8.483731075950772 37.92147088695202 C 0.0 **** -0.24
25227 H 96.14019186615707 8.183022019008774 37.323383959452514 H 0.0 **** 0.06
25228 H 95.21855471521488 7.857394631658565 38.81101425512571 H 0.0 **** 0.06
25229 H 94.36962941330447 8.37002433868706 37.332652742403525 H 0.0 **** 0.06
25230 H 95.39128070089636 9.526746060663342 38.218011167846214 H 0.0 **** 0.06
25231 C 69.31538816063176 103.83055733718628 22.373922659949102 C 0.0 **** -0.24
25232 H 68.35376156596352 104.34502100260131 22.358106503688077 H 0.0 **** 0.06
25233 H 69.27529382776446 102.96557790031976 21.71252137362194 H 0.0 **** 0.06
25234 H 69.5341948839466 103.50261824034224 23.389766749114102 H 0.0 **** 0.06
25235 H 70.0969635850459 104.5114166608097 22.035949101117325 H 0.0 **** 0.06
25236 C 104.41311205501944 92.34703733022636 50.241112872251705 C 0.0 **** -0.24
25237 H 105.17172151755483 92.60878335587924 50.9783213584208 H 0.0 **** 0.06
25238 H 104.36004625188309 91.26138633201433 50.14534918502898 H 0.0 **** 0.06
25239 H 104.67679243774046 92.7837072082487 49.27820492151318 H 0.0 **** 0.06
25240 H 103.44605194000951 92.73139090399525 50.562454860221266 H 0.0 **** 0.06
25241 C 139.46558894285994 136.2846957582203 95.50349809473349 C 0.0 **** -0.24
25242 H 138.3900225372704 136.43927029654478 95.41924085967423 H 0.0 **** 0.06
25243 H 139.9893789887047 137.09188645940304 94.98957213343127 H 0.0 **** 0.06
25244 H 139.73198839268684 135.3309714901202 95.04771631478553 H 0.0 **** 0.06
25245 H 139.74988033585294 136.27793813526583 96.55568125594232 H 0.0 **** 0.06
25246 C 102.30009241280543 84.65207008651335 43.69754231830143 C 0.0 **** -0.24
25247 H 103.31292339411085 84.44804506185024 44.04342789291832 H 0.0 **** 0.06
25248 H 101.75249911384294 85.18649625637109 44.47411680484049 H 0.0 **** 0.06
25249 H 101.7941275014047 83.71185997298844 43.47823175856195 H 0.0 **** 0.06
25250 H 102.34059402963474 85.26200805468949 42.79578296912882 H 0.0 **** 0.06
25251 C 107.71622554964932 24.153878019132833 83.27813342830504 C 0.0 **** -0.24
25252 H 107.44314567284312 23.30539084092186 83.9055045785939 H 0.0 **** 0.06
25253 H 108.72175859526436 24.48791303334724 83.53579329295168 H 0.0 **** 0.06
25254 H 107.01052817938717 24.96826518168723 83.44020878934671 H 0.0 **** 0.06
25255 H 107.69034430912035 23.853622035419875 82.22996301196085 H 0.0 **** 0.06
25256 C 138.68910360273125 137.26940575415512 16.999740500672203 C 0.0 **** -0.24
25257 H 138.80970019598385 138.29543655023315 17.347500392100017 H 0.0 **** 0.06
25258 H 137.72785644335056 136.8817585194624 17.339213970717566 H 0.0 **** 0.06
25259 H 139.4932928816658 136.653313189986 17.401657430091035 H 0.0 **** 0.06
25260 H 138.72470847463566 137.2491556807574 15.91027186159414 H 0.0 **** 0.06
25261 C 84.68817241794147 131.85272510388825 152.20436500446579 C 0.0 **** -0.24
25262 H 84.64735430034546 131.8910198147689 151.11544669135077 H 0.0 **** 0.06
25263 H 84.34697648158988 130.87574034453596 152.54666572528578 H 0.0 **** 0.06
25264 H 84.04489966602151 132.628980887698 152.61879328113713 H 0.0 **** 0.06
25265 H 85.71439875107936 132.01614816919434 152.53451968078684 H 0.0 **** 0.06
25266 C 132.1501195606256 94.83098696028141 150.32740267137166 C 0.0 **** -0.24
25267 H 133.16587629028635 94.63284862672087 150.66858461105912 H 0.0 **** 0.06
25268 H 131.58477506036735 93.8995743892937 150.31234060347094 H 0.0 **** 0.06
25269 H 132.1801375112036 95.25562732905189 149.3238932514928 H 0.0 **** 0.06
25270 H 131.67011342465804 95.5364990395414 151.00665191360878 H 0.0 **** 0.06
25271 C 144.76905763001642 74.14914200382381 95.42793117215285 C 0.0 **** -0.24
25272 H 144.3337408182146 73.18000562322028 95.67180536805229 H 0.0 **** 0.06
25273 H 145.60353130856322 74.35120853807723 96.09963235199025 H 0.0 **** 0.06
25274 H 144.0124967729437 74.92591671466035 95.5439545566629 H 0.0 **** 0.06
25275 H 145.12531113774534 74.13952458871445 94.3984931843822 H 0.0 **** 0.06
25276 C 34.645907429263616 154.75749125238292 146.0569074788432 C 0.0 **** -0.24
25277 H 35.24156554293688 154.9291024101723 145.15989983195493 H 0.0 **** 0.06
25278 H 33.77275088368299 155.41133050767093 146.04332031540625 H 0.0 **** 0.06
25279 H 35.24773318433222 154.97243968281222 146.9394716851707 H 0.0 **** 0.06
25280 H 34.320904368512686 153.71726696952732 146.08281368409382 H 0.0 **** 0.06
25281 C 31.077528834038418 150.1848799347196 74.09345530893023 C 0.0 **** -0.24
25282 H 31.586851231047916 151.07250567470493 74.46824978799583 H 0.0 **** 0.06
25283 H 30.11491823799679 150.4711701079349 73.66746644581255 H 0.0 **** 0.06
25284 H 30.918612727359474 149.48292783944157 74.91213693338608 H 0.0 **** 0.06
25285 H 31.689768231828495 149.71323709642317 73.32426635225332 H 0.0 **** 0.06
25286 C 156.4185713112555 64.64005968010838 154.122989566267 C 0.0 **** -0.24
25287 H 157.22844052381748 63.913505536646284 154.19593227235217 H 0.0 **** 0.06
25288 H 156.54930440176722 65.2393000369097 153.2208567670429 H 0.0 **** 0.06
25289 H 156.43527860845265 65.29100102911522 154.99654544023178 H 0.0 **** 0.06
25290 H 155.46388967678388 64.11737043403213 154.07713594007532 H 0.0 **** 0.06
25291 C 144.81772499014454 116.06490176079224 97.97270475302821 C 0.0 **** -0.24
25292 H 145.36506955504103 116.05784816085692 98.91507879348879 H 0.0 **** 0.06
25293 H 144.02666490097022 115.31578455476505 98.00728826831177 H 0.0 **** 0.06
25294 H 145.50084112682654 115.8344197674018 97.15482940511956 H 0.0 **** 0.06
25295 H 144.38030121673145 117.05051713808284 97.81349595207838 H 0.0 **** 0.06
25296 C 124.29634135128181 74.88581513024525 50.6429216805534 C 0.0 **** -0.24
25297 H 123.45187846050048 75.57445693956583 50.67223991637695 H 0.0 **** 0.06
25298 H 124.9589995338019 75.08846240836135 51.48492282004696 H 0.0 **** 0.06
25299 H 124.84265224656612 75.02121933813413 49.70965978464298 H 0.0 **** 0.06
25300 H 123.93113501852112 73.86066430366122 50.70522570325858 H 0.0 **** 0.06
25301 C 65.2020196313168 60.740645343058915 10.189766546159774 C 0.0 **** -0.24
25302 H 65.10145690158069 61.52658156319784 10.938964182962877 H 0.0 **** 0.06
25303 H 64.28230042394532 60.67385054865251 9.607918858361586 H 0.0 **** 0.06
25304 H 65.38932672330245 59.78851698192149 10.68689362240633 H 0.0 **** 0.06
25305 H 66.03612246016192 60.97526364789866 9.527540427266786 H 0.0 **** 0.06
25306 C 77.06945779972767 129.04296500810636 41.54580721939715 C 0.0 **** -0.24
25307 H 76.63102025573038 128.90090573883197 40.55834110078021 H 0.0 **** 0.06
25308 H 77.23857281578772 130.10579395952323 41.71808430829623 H 0.0 **** 0.06
25309 H 78.0186833826768 128.50950989763652 41.601243016081355 H 0.0 **** 0.06
25310 H 76.3905431181283 128.6545996084651 42.30385193221559 H 0.0 **** 0.06
25311 C 104.04446425527402 73.19566728256619 48.801469423157926 C 0.0 **** -0.24
25312 H 104.819682251612 73.57827892741861 49.4652540674268 H 0.0 **** 0.06
25313 H 104.49908211239875 72.85538670586985 47.87071949664504 H 0.0 **** 0.06
25314 H 103.32637387070002 73.98625682395637 48.58859157237332 H 0.0 **** 0.06
25315 H 103.53425847449023 72.36014452899873 49.28223912648993 H 0.0 **** 0.06
25316 C 64.6395775796824 79.41093556680836 137.5365605941231 C 0.0 **** -0.24
25317 H 64.54414363954581 78.79546861190025 138.43109145510144 H 0.0 **** 0.06
25318 H 65.27424443069283 78.90138266572762 136.81142508562746 H 0.0 **** 0.06
25319 H 65.08636907410606 80.3695585153682 137.80148151742372 H 0.0 **** 0.06
25320 H 63.65345403107969 79.57834566735964 137.10322598804063 H 0.0 **** 0.06
25321 C 111.49161207714418 6.9997038323774134 114.84640545764182 C 0.0 **** -0.24
25322 H 112.30361262009815 7.648228105822433 114.51688600542298 H 0.0 **** 0.06
25323 H 111.82729475402878 6.3948352135588635 115.68884879140421 H 0.0 **** 0.06
25324 H 111.1925984890906 6.346799922282237 114.02641641593891 H 0.0 **** 0.06
25325 H 110.64203853661895 7.610006863008309 115.152435970037 H 0.0 **** 0.06
25326 C 141.56730339606753 2.330132222034507 148.17474218478245 C 0.0 **** -0.24
25327 H 141.23946897345616 3.3655162964839747 148.08912653642298 H 0.0 **** 0.06
25328 H 140.74825929842996 1.721280304678146 148.55899576662372 H 0.0 **** 0.06
25329 H 142.4148059706507 2.2724351921462187 148.85766392673787 H 0.0 **** 0.06
25330 H 141.86536722349098 1.9607708910672557 147.19322150188643 H 0.0 **** 0.06
25331 C 131.33811258362738 33.72125156629269 62.70364444469385 C 0.0 **** -0.24
25332 H 131.7493921097747 32.71647475830787 62.79286519638674 H 0.0 **** 0.06
25333 H 130.34564835928586 33.74945648303478 63.15397646962947 H 0.0 **** 0.06
25334 H 131.26647959694225 33.99152173099557 61.64988192860119 H 0.0 **** 0.06
25335 H 131.99041408410113 34.42790615631628 63.21658567869065 H 0.0 **** 0.06
25336 C 104.71352366626462 57.0584566807032 66.18434083244642 C 0.0 **** -0.24
25337 H 103.99728836885106 57.17372246287542 66.99760306281883 H 0.0 **** 0.06
25338 H 105.66852561277318 56.72205446958701 66.58717142330886 H 0.0 **** 0.06
25339 H 104.84738407073553 58.01512822289172 65.67994653662055 H 0.0 **** 0.06
25340 H 104.33962469558418 56.32177174021622 65.47288770837258 H 0.0 **** 0.06
25341 C 83.38450114021506 14.919343115135007 34.80942122975199 C 0.0 **** -0.24
25342 H 82.97948165216877 15.531730655931995 35.61454752961663 H 0.0 **** 0.06
25343 H 84.30384368064679 15.370553036102649 34.437256555007934 H 0.0 **** 0.06
25344 H 82.65686159800903 14.85644350317375 33.99992198570624 H 0.0 **** 0.06
25345 H 83.59649522403437 13.918212318317899 35.185706134706834 H 0.0 **** 0.06
25346 C 99.8400803254608 79.1397769348653 103.23337096845545 C 0.0 **** -0.24
25347 H 100.80823300865455 78.75468487308598 103.55523148652794 H 0.0 **** 0.06
25348 H 99.86953880196648 80.229350057782 103.21928965492945 H 0.0 **** 0.06
25349 H 99.06780174689959 78.80584472290943 103.92664346943225 H 0.0 **** 0.06
25350 H 99.61497092438356 78.76844791318939 102.23384949794315 H 0.0 **** 0.06
25351 C 100.39792329986534 23.7340701747284 18.558532529430522 C 0.0 **** -0.24
25352 H 100.42208653579627 24.71340977109805 19.0369693382259 H 0.0 **** 0.06
25353 H 100.90412015365393 23.006422460726952 19.192908775682724 H 0.0 **** 0.06
25354 H 100.90367202121143 23.78962296285355 17.593580794152132 H 0.0 **** 0.06
25355 H 99.36228001811742 23.428759411836168 18.408212834315123 H 0.0 **** 0.06
25356 C 87.16062887906816 68.11851075855259 139.57371153125723 C 0.0 **** -0.24
25357 H 86.66474599453184 68.13825260647745 140.54370641026645 H 0.0 **** 0.06
25358 H 88.11499786390294 67.59758987204324 139.6646401745056 H 0.0 **** 0.06
25359 H 87.33494421387036 69.13871315639369 139.2337823348534 H 0.0 **** 0.06
25360 H 86.52976408496505 67.59762105006217 138.85359266104572 H 0.0 **** 0.06
25361 C 17.983669573152497 66.04624520668254 5.523842610990343 C 0.0 **** -0.24
25362 H 18.81735128027543 65.67215512588375 4.930233253807131 H 0.0 **** 0.06
25363 H 18.36044828765307 66.46042204020726 6.459580851505606 H 0.0 **** 0.06
25364 H 17.296140596097644 65.22864011386854 5.740068149029007 H 0.0 **** 0.06
25365 H 17.45991318551995 66.82285081603511 4.966707406251153 H 0.0 **** 0.06
25366 C 130.26962396487366 73.8813749502666 148.71304158913574 C 0.0 **** -0.24
25367 H 130.41140686860777 72.80862584181408 148.58270885208694 H 0.0 **** 0.06
25368 H 131.21748250155588 74.39566137473001 148.55383937610338 H 0.0 **** 0.06
25369 H 129.91207811319717 74.08045467405132 149.72354290744173 H 0.0 **** 0.06
25370 H 129.5361620030508 74.24080534819299 147.9903057755152 H 0.0 **** 0.06
25371 C 149.39979047666841 118.01405746250425 37.00197401368794 C 0.0 **** -0.24
25372 H 149.37128402399864 119.08196393752011 37.21741727584853 H 0.0 **** 0.06
25373 H 149.71674912005213 117.85978927207826 35.969945789614826 H 0.0 **** 0.06
25374 H 148.40623406734932 117.5883227928971 37.14499620888185 H 0.0 **** 0.06
25375 H 150.10390137610167 117.52626375217012 37.6755011357552 H 0.0 **** 0.06
25376 C 81.99171440634325 62.582501421588105 45.46743416099707 C 0.0 **** -0.24
25377 H 81.49601121377967 63.552723151919594 45.42523423542754 H 0.0 **** 0.06
25378 H 82.25437338963872 62.26496785618687 44.45868873173907 H 0.0 **** 0.06
25379 H 81.32000716310208 61.851552753121226 45.91660569412761 H 0.0 **** 0.06
25380 H 82.89661193531686 62.664395787269314 46.070087848182354 H 0.0 **** 0.06
25381 C 67.59280366090674 65.99619403742368 68.5582588449352 C 0.0 **** -0.24
25382 H 67.43472075260395 66.18715961106031 67.49700788397254 H 0.0 **** 0.06
25383 H 67.40806892798068 66.9108729343348 69.12325382394408 H 0.0 **** 0.06
25384 H 68.62002175973689 65.67036915988369 68.7195684029607 H 0.0 **** 0.06
25385 H 66.90750000875535 65.21746131344023 68.89326022729047 H 0.0 **** 0.06
25386 C 81.28595494179466 89.11982142243664 98.05079371765231 C 0.0 **** -0.24
25387 H 80.6512808213189 88.64097357056679 97.30460259411723 H 0.0 **** 0.06
25388 H 81.72927823915985 88.35817328765341 98.69317155242771 H 0.0 **** 0.06
25389 H 80.68587218115255 89.8011972536132 98.65497611615518 H 0.0 **** 0.06
25390 H 82.07649189237885 89.67792953354288 97.55001002347481 H 0.0 **** 0.06
25391 C 143.82772989774472 89.12900711460757 22.66975988360639 C 0.0 **** -0.24
25392 H 143.22503853069327 89.11426015830895 21.761899046132164 H 0.0 **** 0.06
25393 H 144.630245161863 88.39564739321149 22.585276336795857 H 0.0 **** 0.06
25394 H 143.19953514322546 88.88478350523607 23.525888858538693 H 0.0 **** 0.06
25395 H 144.25620529661802 90.12280369126505 22.805059234240545 H 0.0 **** 0.06
25396 C 56.99391274682375 110.68421841778174 26.967048932894045 C 0.0 **** -0.24
25397 H 56.858790750042374 111.29289547303195 27.86151077245296 H 0.0 **** 0.06
25398 H 56.12804502215681 110.80023615136976 26.315308466855242 H 0.0 **** 0.06
25399 H 57.096474959221666 109.6374565331928 27.253384792305326 H 0.0 **** 0.06
25400 H 57.89239569806722 111.00757717488615 26.440877676852296 H 0.0 **** 0.06
25401 C 115.79990551722348 47.58330287757241 93.39606825714857 C 0.0 **** -0.24
25402 H 114.80947976823971 48.03577745547477 93.42373067062381 H 0.0 **** 0.06
25403 H 115.78392809977773 46.710496098259966 92.74209442577148 H 0.0 **** 0.06
25404 H 116.08813131345495 47.277759506859866 94.40263164752298 H 0.0 **** 0.06
25405 H 116.52051526187346 48.30923028406488 93.01757160819916 H 0.0 **** 0.06
25406 C 96.24227172174673 15.719143559925612 42.78620759661624 C 0.0 **** -0.24
25407 H 96.34259841114547 16.014368231074513 41.74168874825648 H 0.0 **** 0.06
25408 H 96.27619395075692 16.6061054632778 43.41818584597752 H 0.0 **** 0.06
25409 H 97.05928675242416 15.049241335022941 43.05366434163926 H 0.0 **** 0.06
25410 H 95.29072176117614 15.205866466918309 42.92830264088673 H 0.0 **** 0.06
25411 C 83.58183543345638 15.663811876010612 88.02163378949314 C 0.0 **** -0.24
25412 H 82.71967258586938 15.22981461443522 87.51597555671503 H 0.0 **** 0.06
25413 H 83.86752857755653 15.028512510861127 88.8608666903292 H 0.0 **** 0.06
25414 H 83.3249167871561 16.657696622873473 88.38997416921347 H 0.0 **** 0.06
25415 H 84.41392540659592 15.738752176371698 87.32218695792307 H 0.0 **** 0.06
25416 C 13.946246746017835 14.44593340016877 83.26616862420667 C 0.0 **** -0.24
25417 H 14.768199377881444 15.052926455356634 82.88868760203368 H 0.0 **** 0.06
25418 H 13.943600125494356 13.481250804186764 82.75795195627484 H 0.0 **** 0.06
25419 H 13.001242364154962 14.957318801673544 83.08100819584456 H 0.0 **** 0.06
25420 H 14.071608805970186 14.291187962071248 84.33791294107607 H 0.0 **** 0.06
25421 C 81.96822112239511 110.0585761929143 93.28587563543516 C 0.0 **** -0.24
25422 H 81.23640078683763 110.09160098136311 94.09197983297148 H 0.0 **** 0.06
25423 H 82.9297446945593 110.41739794855465 93.65205730493182 H 0.0 **** 0.06
25424 H 81.63284110991526 110.69206543708606 92.4648383105042 H 0.0 **** 0.06
25425 H 82.07347298717264 109.03229724798331 92.93240671017841 H 0.0 **** 0.06
25426 C 70.1301362775867 39.38788064161753 78.28381658936401 C 0.0 **** -0.24
25427 H 69.28524952259313 39.61772250710317 77.63414992134653 H 0.0 **** 0.06
25428 H 69.93553863504631 38.45821486761071 78.81770229551292 H 0.0 **** 0.06
25429 H 70.26683748220972 40.1976360810886 79.00069425435277 H 0.0 **** 0.06
25430 H 71.0322733025393 39.27972990941771 77.6815318687652 H 0.0 **** 0.06
25431 C 156.48008617297205 153.79169910877835 106.30783504473261 C 0.0 **** -0.24
25432 H 156.57448953727254 153.09979100309357 105.47001173531227 H 0.0 **** 0.06
25433 H 156.01561493357735 154.71618704313266 105.96490182203941 H 0.0 **** 0.06
25434 H 157.4687074593768 154.00886175663828 106.7114325984795 H 0.0 **** 0.06
25435 H 155.86118830293174 153.33977716514977 107.08322440965436 H 0.0 **** 0.06
25436 C 143.34421862416963 89.89312428457599 143.31536322161506 C 0.0 **** -0.24
25437 H 142.91870420496969 90.087395855985 144.3005955554969 H 0.0 **** 0.06
25438 H 143.2723694793625 90.7931040650646 142.70487754861324 H 0.0 **** 0.06
25439 H 142.79553012713598 89.08280976241264 142.83656583143838 H 0.0 **** 0.06
25440 H 144.39156053901786 89.60902949971413 143.42277724549854 H 0.0 **** 0.06
25441 C 155.26568908742493 140.33730854529074 80.4577128174288 C 0.0 **** -0.24
25442 H 155.57117178998877 140.68584612212192 81.44490154675933 H 0.0 **** 0.06
25443 H 154.1839288118128 140.4265111130992 80.35915688560839 H 0.0 **** 0.06
25444 H 155.55720981623477 139.2933788308876 80.33609811972562 H 0.0 **** 0.06
25445 H 155.75237810393762 140.94248631175873 79.69298454073589 H 0.0 **** 0.06
25446 C 47.61403827300799 8.872460565372194 74.15294753958227 C 0.0 **** -0.24
25447 H 47.077583719821405 9.820158782197836 74.19571740771948 H 0.0 **** 0.06
25448 H 48.51008419823985 8.934336249137289 74.76984359580933 H 0.0 **** 0.06
25449 H 47.89722704050115 8.662298110481856 73.12116095161599 H 0.0 **** 0.06
25450 H 46.97151253110249 8.074181595428314 74.52315693573729 H 0.0 **** 0.06
25451 C 151.14006319044375 5.7952416008606065 127.38786507756726 C 0.0 **** -0.24
25452 H 151.22334187638995 6.713105477177862 127.9701839328232 H 0.0 **** 0.06
25453 H 151.47378460676214 5.98256075070185 126.36631611353954 H 0.0 **** 0.06
25454 H 150.10146982789905 5.465343823124442 127.37664280631168 H 0.0 **** 0.06
25455 H 151.76292521424244 5.023163387824354 127.8379925672088 H 0.0 **** 0.06
25456 C 39.74137166211604 61.56530132556502 59.17127479971606 C 0.0 **** -0.24
25457 H 40.11819282559418 61.44816438079533 58.154803725413416 H 0.0 **** 0.06
25458 H 38.874400939430885 60.921197659053604 59.3141448993523 H 0.0 **** 0.06
25459 H 39.45258798803482 62.60419712749696 59.334085147552614 H 0.0 **** 0.06
25460 H 40.52080439044339 61.2892970325134 59.88190687222894 H 0.0 **** 0.06
25461 C 17.34504562901634 89.51293717064146 45.52682845711803 C 0.0 **** -0.24
25462 H 17.233697921082694 88.50233674087798 45.9182375674456 H 0.0 **** 0.06
25463 H 18.11270039626578 90.03973833744953 46.09393635737297 H 0.0 **** 0.06
25464 H 16.39696517614857 90.04340602339943 45.617525394755745 H 0.0 **** 0.06
25465 H 17.63555722217842 89.46682549593442 44.47730361402492 H 0.0 **** 0.06
25466 C 8.028407678415874 36.267979667814984 75.38493385356227 C 0.0 **** -0.24
25467 H 7.637324533459605 36.3571968321466 76.39816330638934 H 0.0 **** 0.06
25468 H 9.101411832483848 36.46105545965878 75.3918990047791 H 0.0 **** 0.06
25469 H 7.532674181379377 36.99339233708099 74.73923000774649 H 0.0 **** 0.06
25470 H 7.842564793567703 35.261637069128085 75.01059624636973 H 0.0 **** 0.06
25471 C 110.94507526737264 83.66680285383903 136.0410110600061 C 0.0 **** -0.24
25472 H 110.90329150792353 83.78230289772691 134.95726359082602 H 0.0 **** 0.06
25473 H 110.6015136809781 84.58555881632888 136.51693606113054 H 0.0 **** 0.06
25474 H 111.97229098990086 83.46087978600035 136.344245733136 H 0.0 **** 0.06
25475 H 110.30446282693462 82.83837518206117 136.34306727787197 H 0.0 **** 0.06
25476 C 150.9291820837855 59.90010487866198 68.96501203389833 C 0.0 **** -0.24
25477 H 151.2873488063779 59.594730023008026 69.94796038205305 H 0.0 **** 0.06
25478 H 151.41577566241654 59.296826923209494 68.19844235231392 H 0.0 **** 0.06
25479 H 151.1634115218945 60.951659169401296 68.80319493619565 H 0.0 **** 0.06
25480 H 149.85012186418783 59.75506547769049 68.91110199218319 H 0.0 **** 0.06
25481 C 143.24126886437247 92.3732877941274 30.443395344088657 C 0.0 **** -0.24
25482 H 143.3011971813354 91.56629195769881 29.712591667238257 H 0.0 **** 0.06
25483 H 142.2207283004891 92.75650334801941 30.477491002598384 H 0.0 **** 0.06
25484 H 143.92052663314013 93.17493547617374 30.155099459035455 H 0.0 **** 0.06
25485 H 143.52094014388703 91.9949039630672 31.42597016663879 H 0.0 **** 0.06
25486 C 18.918669296494706 154.05301507121587 41.912527454992 C 0.0 **** -0.24
25487 H 19.107809144455665 154.68899693135006 42.777747014962216 H 0.0 **** 0.06
25488 H 19.843163597080604 153.92143820495306 41.34946216731008 H 0.0 **** 0.06
25489 H 18.168849921336452 154.52203192553964 41.27536046836596 H 0.0 **** 0.06
25490 H 18.554165522222355 153.0819283420829 42.24780978395383 H 0.0 **** 0.06
25491 C 122.70933495785745 135.61405490235828 84.3653973612406 C 0.0 **** -0.24
25492 H 121.86476612657212 135.0731326661342 84.79258619982211 H 0.0 **** 0.06
25493 H 122.39307301276953 136.11994666276476 83.45211556315594 H 0.0 **** 0.06
25494 H 123.51130107044783 134.91299314216081 84.13411736958143 H 0.0 **** 0.06
25495 H 123.0686120922512 136.35226458524826 85.08393069252351 H 0.0 **** 0.06
25496 C 94.79802881246866 145.5867574498793 35.47850123446872 C 0.0 **** -0.24
25497 H 95.64163549357528 146.2553956273094 35.6498588333169 H 0.0 **** 0.06
25498 H 95.10414432374466 144.55867320415385 35.67225043262101 H 0.0 **** 0.06
25499 H 94.4650935942376 145.67962804500883 34.44417686416659 H 0.0 **** 0.06
25500 H 93.98026114612554 145.85432225067424 36.14796281344067 H 0.0 **** 0.06
25501 C 27.017145831330275 32.59004454563572 109.52552308619914 C 0.0 **** -0.24
25502 H 26.8556980637862 32.09412691256631 110.48232451283462 H 0.0 **** 0.06
25503 H 27.448925844356715 31.882256731313774 108.81739659654352 H 0.0 **** 0.06
25504 H 27.697766907230196 33.43016783531765 109.66121560438154 H 0.0 **** 0.06
25505 H 26.06400030550821 32.954022200157425 109.1401367997143 H 0.0 **** 0.06
25506 C 27.735773898602133 104.77301873297345 60.95215994621 C 0.0 **** -0.24
25507 H 27.917584058504843 103.78103099310188 61.36403737500693 H 0.0 **** 0.06
25508 H 28.603865534423903 105.09089182628718 60.37448678002339 H 0.0 **** 0.06
25509 H 27.56241112147123 105.47848446216729 61.76487153581745 H 0.0 **** 0.06
25510 H 26.85931353008789 104.74328793859421 60.304636987922876 H 0.0 **** 0.06
25511 C 132.23421670106924 153.87382984809543 15.55551456071646 C 0.0 **** -0.24
25512 H 132.66755318250574 153.73138125522024 14.565496092819615 H 0.0 **** 0.06
25513 H 132.86991647203368 154.54141094204203 16.137560065834805 H 0.0 **** 0.06
25514 H 132.1598009519516 152.91071893503153 16.06005724757722 H 0.0 **** 0.06
25515 H 131.24082747761062 154.3108529683792 15.458188883333719 H 0.0 **** 0.06
25516 C 14.32185639229823 104.79219829768522 102.59343620888194 C 0.0 **** -0.24
25517 H 14.793299863377399 103.83496784253418 102.81806614866724 H 0.0 **** 0.06
25518 H 13.356108131035569 104.84828688781818 103.09480534154955 H 0.0 **** 0.06
25519 H 14.179628897040516 104.8827034676691 101.51665033514325 H 0.0 **** 0.06
25520 H 14.961370932397585 105.60252609637399 102.9441179713711 H 0.0 **** 0.06
25521 C 147.2531006722843 51.666059767068575 57.01588719025074 C 0.0 **** -0.24
25522 H 147.98098468707207 52.223082390116176 56.42533291363364 H 0.0 **** 0.06
25523 H 146.3375587344037 51.53960527498883 56.437834510442 H 0.0 **** 0.06
25524 H 147.0316270213113 52.215090938621856 57.93142631286443 H 0.0 **** 0.06
25525 H 147.66206970536493 50.687840495579266 57.26792100644795 H 0.0 **** 0.06
25526 C 88.17315398756217 150.4718971122716 117.1839275262414 C 0.0 **** -0.24
25527 H 89.13989374790091 150.15724920436384 116.7907359651528 H 0.0 **** 0.06
25528 H 87.95002253494022 149.9098726015046 118.09125795195905 H 0.0 **** 0.06
25529 H 87.3997770712958 150.28187117906205 116.43982944487084 H 0.0 **** 0.06
25530 H 88.20344593300287 151.5369557423264 117.41369302032206 H 0.0 **** 0.06
25531 C 44.583468800038546 37.92104706496298 79.54151061602178 C 0.0 **** -0.24
25532 H 43.63738699787423 37.38354907845894 79.4758385883272 H 0.0 **** 0.06
25533 H 45.15330352802488 37.76499401886883 78.62420664293153 H 0.0 **** 0.06
25534 H 45.15529662441091 37.54786494423007 80.39137985832883 H 0.0 **** 0.06
25535 H 44.389527567963256 38.985408203222846 79.67245266944202 H 0.0 **** 0.06
25536 C 40.87990515351902 76.79513137521718 153.93074139514223 C 0.0 **** -0.24
25537 H 41.01013132840288 75.75800647870815 153.61991218275938 H 0.0 **** 0.06
25538 H 41.576356099986555 77.4286829274331 153.3816164762005 H 0.0 **** 0.06
25539 H 41.07484882378429 76.88001647292384 154.99942850116926 H 0.0 **** 0.06
25540 H 39.85798897125247 77.11009020960569 153.72207686541145 H 0.0 **** 0.06
25541 C 31.952474716709986 30.94749917926255 113.2997662803358 C 0.0 **** -0.24
25542 H 32.72495548806097 30.785900010047357 112.54863925868358 H 0.0 **** 0.06
25543 H 31.550520991479488 29.985805065284552 113.62022117248648 H 0.0 **** 0.06
25544 H 31.151822589978025 31.552386299931356 112.87435658618392 H 0.0 **** 0.06
25545 H 32.382382448225144 31.46589614108106 114.15724550866094 H 0.0 **** 0.06
25546 C 156.63963851942108 8.135188259703625 129.17166170319285 C 0.0 **** -0.24
25547 H 155.84562628250166 8.877669333388326 129.0961496365212 H 0.0 **** 0.06
25548 H 157.53579874645683 8.601734113414068 129.58055225125145 H 0.0 **** 0.06
25549 H 156.8574881044575 7.7344583014551915 128.182127620286 H 0.0 **** 0.06
25550 H 156.31803746222369 7.325767143180997 129.82889679568416 H 0.0 **** 0.06
25551 C 24.52937129734775 6.172994144941413 50.772356589073 C 0.0 **** -0.24
25552 H 25.554530477586496 5.962187166478202 51.07636602091186 H 0.0 **** 0.06
25553 H 24.524247007383877 6.553625074891045 49.751319133442834 H 0.0 **** 0.06
25554 H 24.09916168282041 6.919950988635605 51.440050273556054 H 0.0 **** 0.06
25555 H 23.93997376841122 5.257592086721274 50.82339864024448 H 0.0 **** 0.06
25556 C 39.38266159057734 14.358508323961246 45.822712084436205 C 0.0 **** -0.24
25557 H 40.16340344587286 14.295573437786565 46.579972270525104 H 0.0 **** 0.06
25558 H 38.57190233468367 13.675702424775125 46.07786541513548 H 0.0 **** 0.06
25559 H 39.795285934969314 14.086773280283275 44.8518362726893 H 0.0 **** 0.06
25560 H 38.999584458154885 15.378771392932094 45.78107202407239 H 0.0 **** 0.06
25561 C 130.28792464957843 66.94088606519097 125.4884868215223 C 0.0 **** -0.24
25562 H 130.34939999011306 67.15244376074463 124.42084184084139 H 0.0 **** 0.06
25563 H 130.07946013046595 67.8638980316324 126.02998118174274 H 0.0 **** 0.06
25564 H 131.2335367240274 66.52371202065206 125.8318353722219 H 0.0 **** 0.06
25565 H 129.48599818679492 66.22470491087887 125.67050662018305 H 0.0 **** 0.06
25566 C 37.32742779400209 60.05071577069049 105.50584271941261 C 0.0 **** -0.24
25567 H 36.2952284807301 60.2384567100988 105.80128574957467 H 0.0 **** 0.06
25568 H 37.38250961916556 59.95173600051373 104.42072349061124 H 0.0 **** 0.06
25569 H 37.67789495756142 59.131098300591304 105.97360774783101 H 0.0 **** 0.06
25570 H 37.95402996924388 60.88377858241381 105.82669125762521 H 0.0 **** 0.06
25571 C 48.98913351571332 139.8660832530952 86.11276099034967 C 0.0 **** -0.24
25572 H 48.49554371569536 140.83432050536612 86.19334875391172 H 0.0 **** 0.06
25573 H 49.220877189048906 139.49267122787512 87.10999515772744 H 0.0 **** 0.06
25574 H 49.91057882178444 139.97446083551245 85.54149442585543 H 0.0 **** 0.06
25575 H 48.32709265250929 139.16272383026558 85.60632330014647 H 0.0 **** 0.06
25576 C 51.14033677592289 100.47913412214025 53.55681138386012 C 0.0 **** -0.24
25577 H 50.81586386668266 100.9150183380478 52.611497690748024 H 0.0 **** 0.06
25578 H 50.332095353948375 99.87955948388974 53.97634535055465 H 0.0 **** 0.06
25579 H 51.40242576803661 101.27542717915442 54.25314922156974 H 0.0 **** 0.06
25580 H 52.011301024235536 99.84610787898656 53.38408397333842 H 0.0 **** 0.06
25581 C 122.65957235002695 85.10270693032263 65.99976509830793 C 0.0 **** -0.24
25582 H 122.79077095069421 84.0867411950199 65.62689617545102 H 0.0 **** 0.06
25583 H 121.71454133313127 85.50388215307873 65.63453713318859 H 0.0 **** 0.06
25584 H 123.48079012430354 85.72669446501783 65.64686766119371 H 0.0 **** 0.06
25585 H 122.65373047302008 85.09214671162323 67.08943294055398 H 0.0 **** 0.06
25586 C 24.160710302840698 40.61184592506977 151.242414775051 C 0.0 **** -0.24
25587 H 24.400961686701862 39.57670040486589 151.48885291475332 H 0.0 **** 0.06
25588 H 24.123179049150167 41.2034890257672 152.1567486836691 H 0.0 **** 0.06
25589 H 23.191801771855694 40.64960108512335 150.74415932908312 H 0.0 **** 0.06
25590 H 24.926424701322105 41.01395547278047 150.57916140220343 H 0.0 **** 0.06
25591 C 32.764464352662145 62.50249575680695 20.20025745937275 C 0.0 **** -0.24
25592 H 31.720368460054786 62.23569774523827 20.364629801114695 H 0.0 **** 0.06
25593 H 33.09947132735654 63.166387496121246 20.997639287072353 H 0.0 **** 0.06
25594 H 32.86275031919155 63.00859570753937 19.239296265112806 H 0.0 **** 0.06
25595 H 33.37353206908322 61.598561459580594 20.198264231616193 H 0.0 **** 0.06
25596 C 132.44707932664275 66.51956975504703 155.64976233454666 C 0.0 **** -0.24
25597 H 132.88536129571798 65.8481369495587 154.91144629665496 H 0.0 **** 0.06
25598 H 133.1841354208527 67.26847644095244 155.94130786052665 H 0.0 **** 0.06
25599 H 132.14439001110148 65.94673770579308 156.52555640246197 H 0.0 **** 0.06
25600 H 131.57628516364227 67.01373363753862 155.2196737006812 H 0.0 **** 0.06
25601 C 116.51805482619545 39.821773880545976 73.02356040895484 C 0.0 **** -0.24
25602 H 115.75310500651398 39.337146789438336 72.41705482848691 H 0.0 **** 0.06
25603 H 116.78109108861781 40.78109610091984 72.57715196943403 H 0.0 **** 0.06
25604 H 117.40282884036787 39.18612078375439 73.06788624361342 H 0.0 **** 0.06
25605 H 116.13541935064598 39.98239751088238 74.03123337049861 H 0.0 **** 0.06
25606 C 71.28182943603846 113.03695671628954 10.209688608127749 C 0.0 **** -0.24
25607 H 70.32570395452885 112.70454991586566 9.80474605480154 H 0.0 **** 0.06
25608 H 71.99115213214387 112.20937423092211 10.188212424115193 H 0.0 **** 0.06
25609 H 71.14446885682148 113.37071025739355 11.238424400708908 H 0.0 **** 0.06
25610 H 71.66499584079122 113.86036336501299 9.607422346525766 H 0.0 **** 0.06
25611 C 86.6628846437763 128.76407550853065 12.526302608423848 C 0.0 **** -0.24
25612 H 87.3617328340905 128.94396056174975 13.343214626501286 H 0.0 **** 0.06
25613 H 86.7249116197767 129.58232974535656 11.808463944079612 H 0.0 **** 0.06
25614 H 85.64918297958909 128.70393299843613 12.922496359039094 H 0.0 **** 0.06
25615 H 86.91643939466655 127.8261350776097 12.031718515699772 H 0.0 **** 0.06
25616 C 137.0799607886454 20.85562128463325 67.51070885336759 C 0.0 **** -0.24
25617 H 136.23537072340122 20.20833301508476 67.74526836354528 H 0.0 **** 0.06
25618 H 137.53155516104206 21.213572533810392 68.43580403196566 H 0.0 **** 0.06
25619 H 136.7346505185132 21.70459041518172 66.92120916370959 H 0.0 **** 0.06
25620 H 137.81932404437242 20.293785003736772 66.93831239902312 H 0.0 **** 0.06
25621 C 135.5434066916617 123.5002456565332 85.00570330019653 C 0.0 **** -0.24
25622 H 135.04191680703923 124.11684923354994 84.25922314488798 H 0.0 **** 0.06
25623 H 135.98142910100916 122.62666186643952 84.52083067039092 H 0.0 **** 0.06
25624 H 134.8211110663874 123.17784523646412 85.75484656404194 H 0.0 **** 0.06
25625 H 136.3304302602097 124.08206253532694 85.486697823311 H 0.0 **** 0.06
25626 C 8.222341344169337 21.17231238105171 145.3764334458436 C 0.0 **** -0.24
25627 H 7.676949725985821 20.304479650211988 145.74636179481547 H 0.0 **** 0.06
25628 H 8.547496174094022 21.783345249074955 146.21965933930866 H 0.0 **** 0.06
25629 H 7.572437217098297 21.761365035299747 144.72951903170903 H 0.0 **** 0.06
25630 H 9.093372605374839 20.840211672823102 144.81128183627885 H 0.0 **** 0.06
25631 C 26.77038421023311 123.99727689974976 78.77892631475544 C 0.0 **** -0.24
25632 H 26.5273497884937 124.05720960776831 77.7187079568414 H 0.0 **** 0.06
25633 H 26.410206280620976 123.05042219030453 79.18081893572577 H 0.0 **** 0.06
25634 H 26.29330899350566 124.82247654145372 79.3085983762335 H 0.0 **** 0.06
25635 H 27.85067177831209 124.05899925947215 78.9075799902208 H 0.0 **** 0.06
25636 C 96.94020927855172 28.540731969067707 56.9746681488748 C 0.0 **** -0.24
25637 H 96.80704470546473 28.231044468383004 58.01113161313123 H 0.0 **** 0.06
25638 H 97.33641043763886 29.555152409121746 56.94632309781349 H 0.0 **** 0.06
25639 H 95.97914310832243 28.511174896514945 56.46040080988257 H 0.0 **** 0.06
25640 H 97.63677093112767 27.86383294139341 56.47988107861494 H 0.0 **** 0.06
25641 C 9.667904308477965 55.18393068256661 118.9279486424591 C 0.0 **** -0.24
25642 H 10.157606744415155 55.62388540070906 119.79717304840766 H 0.0 **** 0.06
25643 H 9.31165921480006 54.18479888489914 119.17888838941452 H 0.0 **** 0.06
25644 H 10.380446608489684 55.11946074995646 118.10455516031972 H 0.0 **** 0.06
25645 H 8.824725559171405 55.80754400214603 118.6313821483124 H 0.0 **** 0.06
25646 C 34.95989433872509 95.71768372133619 29.336044859159237 C 0.0 **** -0.24
25647 H 34.84669153327414 96.40446304561408 28.49661708456047 H 0.0 **** 0.06
25648 H 34.435513464958575 96.11696773803828 30.2041627324952 H 0.0 **** 0.06
25649 H 36.01800219390731 95.60311154089175 29.571218520197014 H 0.0 **** 0.06
25650 H 34.53995992687297 94.74778070534592 29.070411870599457 H 0.0 **** 0.06
25651 C 120.96762700752775 135.55677205486438 59.76797359735633 C 0.0 **** -0.24
25652 H 121.00967534862112 134.77938699638676 60.53046166860764 H 0.0 **** 0.06
25653 H 121.98034486373224 135.87029901806548 59.513340373437245 H 0.0 **** 0.06
25654 H 120.40899635041747 136.41139154968923 60.1509475023762 H 0.0 **** 0.06
25655 H 120.47189020010158 135.16843627145857 58.87854400865166 H 0.0 **** 0.06
25656 C 138.84318298616571 126.3575758018431 104.9574580518921 C 0.0 **** -0.24
25657 H 138.5585958077655 125.38135912921285 104.5650503394051 H 0.0 **** 0.06
25658 H 139.7702766889651 126.26433000298653 105.52393769906524 H 0.0 **** 0.06
25659 H 138.05412247199234 126.72962970799955 105.61117899876064 H 0.0 **** 0.06
25660 H 138.9904735477258 127.05246421312762 104.13111657604827 H 0.0 **** 0.06
25661 C 6.11477489127946 25.392269826289883 80.19590095501174 C 0.0 **** -0.24
25662 H 6.733853875477088 26.288919536307887 80.21875196884378 H 0.0 **** 0.06
25663 H 6.7298902586912135 24.533188657516284 79.92895473101645 H 0.0 **** 0.06
25664 H 5.322940781016371 25.5169680820157 79.45647361103669 H 0.0 **** 0.06
25665 H 5.671580014589786 25.23149334660996 81.17913639267981 H 0.0 **** 0.06
25666 C 40.18220941070851 117.00833632447369 14.988927388057846 C 0.0 **** -0.24
25667 H 40.41944951328712 117.83660336097684 14.321103663262022 H 0.0 **** 0.06
25668 H 39.27331462676615 117.24000310737144 15.545873080706997 H 0.0 **** 0.06
25669 H 41.00630527394058 116.85543140801222 15.6851326285842 H 0.0 **** 0.06
25670 H 40.02782265020758 116.10239810614787 14.402587595777732 H 0.0 **** 0.06
25671 C 0.7425559065546672 122.95162106244878 92.52602844390537 C 0.0 **** -0.24
25672 H 0.4338507206819209 123.11408508101856 91.49332605498421 H 0.0 **** 0.06
25673 H -0.11336019958695687 123.09385180506966 93.18710465952057 H 0.0 **** 0.06
25674 H 1.5260037555358572 123.66256925552686 92.78618756308896 H 0.0 **** 0.06
25675 H 1.1218614809864178 121.93583448271973 92.63591732379376 H 0.0 **** 0.06
25676 C 53.589522437268045 84.61585285269265 115.27388175357139 C 0.0 **** -0.24
25677 H 53.33944162194746 85.1459301579938 116.19310442517475 H 0.0 **** 0.06
25678 H 54.07327158344941 83.67082529311281 115.51947964382244 H 0.0 **** 0.06
25679 H 54.26599906472245 85.22644761270907 114.6755865986289 H 0.0 **** 0.06
25680 H 52.678894137191435 84.42229386764583 114.70800221579329 H 0.0 **** 0.06
25681 C 73.89348676348033 107.99756501293284 42.662138353042366 C 0.0 **** -0.24
25682 H 73.6133711938977 106.94721812175827 42.576936389293564 H 0.0 **** 0.06
25683 H 73.38373955938661 108.57270091351198 41.88917253570742 H 0.0 **** 0.06
25684 H 74.97208230961445 108.0966589871086 42.539587520287114 H 0.0 **** 0.06
25685 H 73.6031401865149 108.37095896954328 43.64458352514322 H 0.0 **** 0.06
25686 C 13.995702981443856 88.54770479073105 17.429025334442855 C 0.0 **** -0.24
25687 H 13.818450107972978 89.15044149184695 18.31941431658896 H 0.0 **** 0.06
25688 H 14.356325416252702 89.18841316662092 16.622735069780504 H 0.0 **** 0.06
25689 H 13.065423993822776 88.0685577389399 17.12298155114766 H 0.0 **** 0.06
25690 H 14.742335328965737 87.78502682502926 17.64866846738562 H 0.0 **** 0.06
25691 C 124.02067995105268 5.666547062576569 116.06116886157196 C 0.0 **** -0.24
25692 H 123.67879334064683 4.674299429990043 116.35235572843447 H 0.0 **** 0.06
25693 H 124.92129305091963 5.919223714797852 116.62262793635244 H 0.0 **** 0.06
25694 H 123.24079671378162 6.397077518683972 116.2763317365571 H 0.0 **** 0.06
25695 H 124.24292638420609 5.676412396887969 114.99372382967096 H 0.0 **** 0.06
25696 C 123.77250815605561 96.20030131895055 61.034604927012964 C 0.0 **** -0.24
25697 H 122.7604661570611 96.54557331058311 60.8226216160393 H 0.0 **** 0.06
25698 H 124.23002369371994 96.85236785321626 61.780013878708345 H 0.0 **** 0.06
25699 H 124.3638554964192 96.22492512284367 60.119091587881826 H 0.0 **** 0.06
25700 H 123.73615420452848 95.1805042168366 61.41638614449751 H 0.0 **** 0.06
25701 C 123.62295700470072 74.98105038287645 151.80772421772642 C 0.0 **** -0.24
25702 H 122.53716782995933 75.0053044816778 151.9080951624629 H 0.0 **** 0.06
25703 H 123.8967920610899 74.30590263131916 150.99641750834792 H 0.0 **** 0.06
25704 H 124.06571631461098 74.62786260745293 152.73872703279523 H 0.0 **** 0.06
25705 H 123.9900914630203 75.98297123536662 151.58736193347275 H 0.0 **** 0.06
25706 C 120.29332833124828 105.73067536519413 42.023557994254276 C 0.0 **** -0.24
25707 H 120.57159492346001 105.99286586161612 43.044324627507905 H 0.0 **** 0.06
25708 H 119.78464478046418 106.57443255304186 41.55652528977939 H 0.0 **** 0.06
25709 H 119.62708716147519 104.86847790230483 42.039864160351826 H 0.0 **** 0.06
25710 H 121.18983943805087 105.48637931066996 41.454342813552145 H 0.0 **** 0.06
25711 C 96.81871202331787 56.56123911007319 3.200887669046274 C 0.0 **** -0.24
25712 H 96.04749022780939 56.985441760537014 3.844930967881858 H 0.0 **** 0.06
25713 H 97.79433239085753 56.687256555777935 3.671399311045306 H 0.0 **** 0.06
25714 H 96.81003782100139 57.074600985493134 2.2388652957557404 H 0.0 **** 0.06
25715 H 96.62138110887881 55.500982732013085 3.0489550160195584 H 0.0 **** 0.06
25716 C 67.46614485797767 69.53422071573002 7.063476710985128 C 0.0 **** -0.24
25717 H 68.25248730179659 69.1859890717993 7.733166156681989 H 0.0 **** 0.06
25718 H 67.86345433697245 69.62115503585058 6.051695951213958 H 0.0 **** 0.06
25719 H 67.10930541993163 70.507473510165 7.399143593743446 H 0.0 **** 0.06
25720 H 66.64105121695457 68.82223367876053 7.069689772018478 H 0.0 **** 0.06
25721 C 45.201781993206836 45.61050552930864 22.09915829381935 C 0.0 **** -0.24
25722 H 44.29240909436781 45.91312462579083 21.57969001416909 H 0.0 **** 0.06
25723 H 45.68134854919414 44.799183912117456 21.550923996063702 H 0.0 **** 0.06
25724 H 44.94910406341273 45.27000958378751 23.103536738847097 H 0.0 **** 0.06
25725 H 45.882377820021205 46.45949542681588 22.16402853962432 H 0.0 **** 0.06
25726 C 143.92434100773983 134.14087163150705 84.05976230327974 C 0.0 **** -0.24
25727 H 142.89198700882957 133.9620636698645 83.75902220433096 H 0.0 **** 0.06
25728 H 143.9432527201719 134.534370470665 85.07681182526261 H 0.0 **** 0.06
25729 H 144.38021591060243 134.86202210315426 83.38223761534653 H 0.0 **** 0.06
25730 H 144.48033968560458 133.20407157061567 84.02176507328232 H 0.0 **** 0.06
25731 C 102.93650246563044 107.7236220929477 133.96697646138483 C 0.0 **** -0.24
25732 H 102.93945802489492 108.33875853166715 133.06684474049166 H 0.0 **** 0.06
25733 H 101.97407485974952 107.21967790272346 134.05861185093693 H 0.0 **** 0.06
25734 H 103.10127649870634 108.35525769988512 134.83927320778128 H 0.0 **** 0.06
25735 H 103.73081822170013 106.98061020654406 133.90182694406235 H 0.0 **** 0.06
25736 C 106.85834173755956 156.36047878744637 3.399732651155972 C 0.0 **** -0.24
25737 H 106.9045253252736 157.3573282042521 2.9613618212326855 H 0.0 **** 0.06
25738 H 105.8148660886065 156.06967225041763 3.5310714587301675 H 0.0 **** 0.06
25739 H 107.35890533507683 156.36534448532296 4.367801382834699 H 0.0 **** 0.06
25740 H 107.35341414426722 155.6491455273736 2.738418061172979 H 0.0 **** 0.06
25741 C 26.231131597023648 108.84074369727212 17.26726004036294 C 0.0 **** -0.24
25742 H 27.03379940088098 108.97434778021487 17.991821966375532 H 0.0 **** 0.06
25743 H 26.218268008683538 109.6863335777763 16.578823415326404 H 0.0 **** 0.06
25744 H 25.275133340662023 108.78384824439864 17.79031070576883 H 0.0 **** 0.06
25745 H 26.394716246943062 107.91912988360396 16.709396538112358 H 0.0 **** 0.06
25746 C 106.55560869771625 56.01063294748137 117.99617193891561 C 0.0 **** -0.24
25747 H 107.08320091258463 55.1216848435092 117.64832507258956 H 0.0 **** 0.06
25748 H 106.47184287471237 55.980877255823486 119.0830006233054 H 0.0 **** 0.06
25749 H 105.55869070342783 56.03730946028908 117.55559213252235 H 0.0 **** 0.06
25750 H 107.10880304499403 56.90048759896318 117.69828884853234 H 0.0 **** 0.06
25751 C 76.86546633636851 104.33197294643337 62.861372755440414 C 0.0 **** -0.24
25752 H 76.62178836482727 103.40850887694579 63.38734504816216 H 0.0 **** 0.06
25753 H 77.03576645742783 104.11459897347963 61.806713516346065 H 0.0 **** 0.06
25754 H 77.76553414667885 104.76891840709904 63.29292257354723 H 0.0 **** 0.06
25755 H 76.03698512602571 105.03433763646053 62.95918602252215 H 0.0 **** 0.06
25756 C 85.74992601558915 74.22367768347203 84.21649454223052 C 0.0 **** -0.24
25757 H 86.55332778508182 74.49215092850724 84.90226810200218 H 0.0 **** 0.06
25758 H 86.16071103959075 74.06905178494065 83.21857712113002 H 0.0 **** 0.06
25759 H 85.0141572196959 75.0278273885848 84.18677539602565 H 0.0 **** 0.06
25760 H 85.27107178037744 73.30663953993317 84.55930108415441 H 0.0 **** 0.06
25761 C 43.344259404255354 10.26011145359638 79.6345167724283 C 0.0 **** -0.24
25762 H 43.08472140875578 11.058851703126265 78.9400589277979 H 0.0 **** 0.06
25763 H 43.09430557459845 10.567903382959116 80.65044045152968 H 0.0 **** 0.06
25764 H 44.412646219610025 10.054909382091864 79.56917624321574 H 0.0 **** 0.06
25765 H 42.78495829835674 9.35982915781392 79.37970951820262 H 0.0 **** 0.06
25766 C 114.59715084948033 107.89297777637262 77.20376490150215 C 0.0 **** -0.24
25767 H 113.64831881026834 108.35759431765098 76.93469629215788 H 0.0 **** 0.06
25768 H 114.42453659534658 107.12158343360147 77.95456698781388 H 0.0 **** 0.06
25769 H 115.27072544464068 108.64847816842473 77.60694359482315 H 0.0 **** 0.06
25770 H 115.04556656084975 107.44309676909484 76.31701907827203 H 0.0 **** 0.06
25771 C 107.94144997398796 14.449431639627242 57.02909770948432 C 0.0 **** -0.24
25772 H 107.44591045241624 14.728815549372484 56.09921336665961 H 0.0 **** 0.06
25773 H 107.19351595647346 14.29323292220613 57.80677974807867 H 0.0 **** 0.06
25774 H 108.62087481660446 15.24549464957223 57.331860327079255 H 0.0 **** 0.06
25775 H 108.50545764129693 13.529278893718612 56.87626136608682 H 0.0 **** 0.06
25776 C 143.22513877597697 39.531332705263765 56.62417485260217 C 0.0 **** -0.24
25777 H 142.3309583130795 39.830861513413765 57.1706832778782 H 0.0 **** 0.06
25778 H 143.46554200193745 38.494595507460104 56.86181738859189 H 0.0 **** 0.06
25779 H 144.05783229072938 40.17261149741715 56.913068762990605 H 0.0 **** 0.06
25780 H 143.04719900935535 39.627692553419564 55.55393383600992 H 0.0 **** 0.06
25781 C 17.111616593200836 29.24775811974513 34.90394868480229 C 0.0 **** -0.24
25782 H 17.629908891635296 29.417184444427505 35.84816503192013 H 0.0 **** 0.06
25783 H 17.71553613740133 29.637692835298054 34.0838189301777 H 0.0 **** 0.06
25784 H 16.148929889510498 29.757939599724352 34.92143624680375 H 0.0 **** 0.06
25785 H 16.954313702038917 28.178762454706543 34.76324789134867 H 0.0 **** 0.06
25786 C 8.622698020105162 121.38447049596614 151.44178575878894 C 0.0 **** -0.24
25787 H 8.40444361047139 122.29916227300656 150.88916139411728 H 0.0 **** 0.06
25788 H 8.090665607825969 121.40065054413903 152.3937796865836 H 0.0 **** 0.06
25789 H 9.695291388353752 121.31974797961577 151.62563119517714 H 0.0 **** 0.06
25790 H 8.300995206964927 120.52201205332757 150.85868681287525 H 0.0 **** 0.06
25791 C 85.97334276493052 149.88773878059985 109.48867082467677 C 0.0 **** -0.24
25792 H 86.87728252286138 149.90901509913436 110.09755990323879 H 0.0 **** 0.06
25793 H 85.39730068323004 148.9929283737538 109.72557068582455 H 0.0 **** 0.06
25794 H 86.24639659038249 149.87582473900108 108.43304240236552 H 0.0 **** 0.06
25795 H 85.37375630845622 150.7735439502583 109.6986064285428 H 0.0 **** 0.06
25796 C 48.04923118090048 39.24643299975439 126.82724174891575 C 0.0 **** -0.24
25797 H 49.094737917524085 38.96936482402485 126.69108900357276 H 0.0 **** 0.06
25798 H 47.86350892855465 39.457308106940374 127.8802667230363 H 0.0 **** 0.06
25799 H 47.410848727675685 38.42410986697608 126.50366611470128 H 0.0 **** 0.06
25800 H 47.827638555054534 40.13399347265947 126.23416940726429 H 0.0 **** 0.06
25801 C 136.7195304196337 124.46237610365034 35.3650523897808 C 0.0 **** -0.24
25802 H 137.53997228299698 123.76809352106244 35.18332864932033 H 0.0 **** 0.06
25803 H 137.074107106389 125.48533290798463 35.23406971750673 H 0.0 **** 0.06
25804 H 136.35186029038312 124.33303873236116 36.382660944112416 H 0.0 **** 0.06
25805 H 135.9129246021107 124.26387316350025 34.659282377818215 H 0.0 **** 0.06
25806 C 108.93287515275155 80.31816193454026 63.926650711372375 C 0.0 **** -0.24
25807 H 108.87323575955374 79.88443929086004 62.92805644593817 H 0.0 **** 0.06
25808 H 109.35945332157895 79.58760506555382 64.61420027906482 H 0.0 **** 0.06
25809 H 107.93406353025036 80.59456364314242 64.26232028633524 H 0.0 **** 0.06
25810 H 109.56629534300826 81.20493579172282 63.89896193910141 H 0.0 **** 0.06
25811 C 84.92091953827473 38.17568810965108 33.09040014013331 C 0.0 **** -0.24
25812 H 85.57983777759638 38.56397436221583 33.86666697079784 H 0.0 **** 0.06
25813 H 85.2663073801791 38.52132857500169 32.115252648949394 H 0.0 **** 0.06
25814 H 83.90547799706448 38.53219901540308 33.26419062326687 H 0.0 **** 0.06
25815 H 84.93217942216752 37.08643752691481 33.11473168874403 H 0.0 **** 0.06
25816 C 81.35052196073008 114.02995337858486 97.61173919866286 C 0.0 **** -0.24
25817 H 81.8577046320653 113.27188694113859 98.20822362599682 H 0.0 **** 0.06
25818 H 80.40831351257457 113.62738402008098 97.2387849798927 H 0.0 **** 0.06
25819 H 81.9835413241381 114.31259923537716 96.77076508032701 H 0.0 **** 0.06
25820 H 81.15338099320276 114.90643583868574 98.22915770607278 H 0.0 **** 0.06
25821 C 18.11369152446879 154.15979452615062 99.75348298659998 C 0.0 **** -0.24
25822 H 18.201369523711676 154.95108417783268 100.49743923562892 H 0.0 **** 0.06
25823 H 17.96008315905373 153.20438337356757 100.25688513852657 H 0.0 **** 0.06
25824 H 19.02800473662058 154.11554930999847 99.16189412976024 H 0.0 **** 0.06
25825 H 17.266452201017287 154.36754725294603 99.10022653472055 H 0.0 **** 0.06
25826 C 128.05417000496362 121.61759602022563 2.332333923389289 C 0.0 **** -0.24
25827 H 127.65354129809009 120.68287614306617 1.9395934583896342 H 0.0 **** 0.06
25828 H 129.02254561737507 121.81870825644855 1.8731049555487367 H 0.0 **** 0.06
25829 H 128.1741914858231 121.5361724274665 3.412571725330878 H 0.0 **** 0.06
25830 H 127.36645174492276 122.43232576777329 2.102684736215039 H 0.0 **** 0.06
25831 C 66.67281327302642 124.06734341258199 65.86732157408008 C 0.0 **** -0.24
25832 H 66.4453218011413 123.03143631561694 65.61578273299745 H 0.0 **** 0.06
25833 H 66.13712900152179 124.73143416247733 65.18844490450168 H 0.0 **** 0.06
25834 H 67.74454596778175 124.23745091793317 65.77262158969923 H 0.0 **** 0.06
25835 H 66.36264112472114 124.26768633600152 66.8931620303587 H 0.0 **** 0.06
25836 C 48.639293148362185 85.58113398094949 99.29402794525038 C 0.0 **** -0.24
25837 H 47.928034809400586 85.25946564448189 100.05600812118807 H 0.0 **** 0.06
25838 H 48.10005500144929 85.84368935405814 98.38310170590938 H 0.0 **** 0.06
25839 H 49.33712725341756 84.77057725216807 99.08343585251075 H 0.0 **** 0.06
25840 H 49.189280349961905 86.44994834183312 99.65533023932242 H 0.0 **** 0.06
25841 C 124.67877675478229 23.85955746396769 105.87497900021715 C 0.0 **** -0.24
25842 H 125.67640602329521 23.97310949435598 106.29916109510962 H 0.0 **** 0.06
25843 H 124.30340514339599 24.83391614814809 105.5625386501715 H 0.0 **** 0.06
25844 H 124.01152579468209 23.43734844138089 106.62657821375127 H 0.0 **** 0.06
25845 H 124.72322170387855 23.19331045805552 105.01373616087268 H 0.0 **** 0.06
25846 C 21.943654271991136 47.46906769284472 140.1576335172409 C 0.0 **** -0.24
25847 H 21.208221573320316 47.81237302684859 139.43029807018812 H 0.0 **** 0.06
25848 H 21.485596989074764 47.431483701588746 141.14646801815425 H 0.0 **** 0.06
25849 H 22.78774295994083 48.1573044026441 140.17388573128022 H 0.0 **** 0.06
25850 H 22.29118659567831 46.47397422273424 139.8809858677439 H 0.0 **** 0.06
25851 C 8.52900859074824 32.19560238530627 129.83094093938593 C 0.0 **** -0.24
25852 H 8.132851520670023 32.70361536250812 130.70989431970975 H 0.0 **** 0.06
25853 H 8.46754160349608 32.85968415792226 128.9691823552596 H 0.0 **** 0.06
25854 H 7.944784659482835 31.294871465250623 129.63973708389668 H 0.0 **** 0.06
25855 H 9.569526469290274 31.923345653255637 130.00680303079974 H 0.0 **** 0.06
25856 C 17.517925377402975 123.8312803334382 113.94485423316935 C 0.0 **** -0.24
25857 H 16.992150437917758 124.63444919706961 113.42831559178929 H 0.0 **** 0.06
25858 H 18.47089820449912 123.64342930034906 113.45012758700646 H 0.0 **** 0.06
25859 H 16.91085281173173 122.92553379561036 113.91983769706819 H 0.0 **** 0.06
25860 H 17.695681084199123 124.1212607220657 114.97999186869076 H 0.0 **** 0.06
25861 C 3.3734990380534953 130.26371559345267 124.52762499055069 C 0.0 **** -0.24
25862 H 2.6470906213984904 129.6414212448014 125.05175977938222 H 0.0 **** 0.06
25863 H 3.1988473659419014 131.31137628475898 124.77329458919428 H 0.0 **** 0.06
25864 H 3.2658396335876603 130.11876144899844 123.45224949796466 H 0.0 **** 0.06
25865 H 4.380168543051155 129.98052015943495 124.83342311377015 H 0.0 **** 0.06
25866 C 68.13080097048939 16.47711734281728 35.31395090731933 C 0.0 **** -0.24
25867 H 69.01607727464857 16.917125383430857 34.85626278407375 H 0.0 **** 0.06
25868 H 67.74420954590698 15.686963576331266 34.668989031581354 H 0.0 **** 0.06
25869 H 67.36927364744841 17.24571294357861 35.44335564929391 H 0.0 **** 0.06
25870 H 68.39454489323704 16.05830370185282 36.28494778610339 H 0.0 **** 0.06
25871 C 139.03326916897242 39.704163991348864 55.840439151837074 C 0.0 **** -0.24
25872 H 138.43536205886812 38.96513978548853 56.37592309787128 H 0.0 **** 0.06
25873 H 138.56608810068298 39.92007819322042 54.879467463498074 H 0.0 **** 0.06
25874 H 140.0361256293449 39.309855540979015 55.677367306173466 H 0.0 **** 0.06
25875 H 139.093359928238 40.61903509380892 56.430387162312044 H 0.0 **** 0.06
25876 C 129.84698922775937 75.98785094462696 144.91808443479692 C 0.0 **** -0.24
25877 H 129.7071046622257 74.95915763422755 144.5849927463821 H 0.0 **** 0.06
25878 H 130.27884386826258 75.98972294290542 145.91914325077198 H 0.0 **** 0.06
25879 H 128.88412421109965 76.49825057610332 144.9353714494977 H 0.0 **** 0.06
25880 H 130.51897047902864 76.50273627161255 144.2302886642329 H 0.0 **** 0.06
25881 C 141.59020392981694 94.0743994697408 77.2338514722746 C 0.0 **** -0.24
25882 H 142.35154679810262 94.12094206821405 78.01208181949248 H 0.0 **** 0.06
25883 H 140.6113962378305 94.27560408403741 77.67075525992996 H 0.0 **** 0.06
25884 H 141.5900352629593 93.08143867168155 76.78473959071809 H 0.0 **** 0.06
25885 H 141.8070196286892 94.81920709886163 76.46823720044819 H 0.0 **** 0.06
25886 C 134.51204103439352 154.7508482262174 49.979760729863756 C 0.0 **** -0.24
25887 H 135.119505837294 154.19083339021145 50.690161702297644 H 0.0 **** 0.06
25888 H 135.09693972955745 155.57520853514927 49.57234539602598 H 0.0 **** 0.06
25889 H 133.63063858748512 155.14494726085454 50.4867946404504 H 0.0 **** 0.06
25890 H 134.19998320554214 154.09130132556933 49.1705040081992 H 0.0 **** 0.06
25891 C 57.786229853031955 109.3525563425182 58.38437038025805 C 0.0 **** -0.24
25892 H 56.75583314541403 109.25477206381731 58.04357644160875 H 0.0 **** 0.06
25893 H 58.134137358891934 110.3689126866085 58.20076807053603 H 0.0 **** 0.06
25894 H 58.41614748547089 108.64863694216956 57.84133272457717 H 0.0 **** 0.06
25895 H 57.83745545561797 109.13831351384874 59.45194736750908 H 0.0 **** 0.06
25896 C 120.41020315000897 38.89166545434415 34.18511263378113 C 0.0 **** -0.24
25897 H 119.7979953344976 38.453458960016036 33.396689942065706 H 0.0 **** 0.06
25898 H 121.4316008021385 38.52082772916799 34.09940446937311 H 0.0 **** 0.06
25899 H 120.00334066452884 38.61357826361848 35.15785213412914 H 0.0 **** 0.06
25900 H 120.40714913008564 39.976727290492136 34.08693870595144 H 0.0 **** 0.06
25901 C 79.16227412772827 126.93467012488118 39.36115468707969 C 0.0 **** -0.24
25902 H 79.48931331500063 127.92881133283011 39.66591738381891 H 0.0 **** 0.06
25903 H 78.11869430923377 126.9769840255339 39.047673586487875 H 0.0 **** 0.06
25904 H 79.2628365692396 126.2463043812621 40.19967268684219 H 0.0 **** 0.06
25905 H 79.77751417415942 126.58963658283936 38.531012430769636 H 0.0 **** 0.06
25906 C 150.7389151451248 89.67951270544965 48.56845263597404 C 0.0 **** -0.24
25907 H 149.96814629352122 89.7148491485862 49.33802808207622 H 0.0 **** 0.06
25908 H 151.36012567680035 88.79555783549176 48.71633761946714 H 0.0 **** 0.06
25909 H 151.3590035697548 90.57417529476814 48.63424705562005 H 0.0 **** 0.06
25910 H 150.2703763566809 89.63415227826587 47.58595099874145 H 0.0 **** 0.06
25911 C 109.67274566432916 18.756152758414657 14.85891025917222 C 0.0 **** -0.24
25912 H 109.59464452351746 18.232667393620403 13.906359506834079 H 0.0 **** 0.06
25913 H 108.71523199987827 19.22145310274044 15.096870137203489 H 0.0 **** 0.06
25914 H 110.44264744670086 19.524491387690773 14.790370801994037 H 0.0 **** 0.06
25915 H 109.9356974259478 18.045754928261687 15.64260277614062 H 0.0 **** 0.06
25916 C 90.54479578077995 89.88607013263692 73.90372340160098 C 0.0 **** -0.24
25917 H 91.2786942913515 89.40633971645045 73.25705862238956 H 0.0 **** 0.06
25918 H 90.91018836202862 90.87014390133788 74.20086784277764 H 0.0 **** 0.06
25919 H 90.38658231690802 89.2736593878941 74.79093319748586 H 0.0 **** 0.06
25920 H 89.60346968509047 89.99625576569962 73.36536201942718 H 0.0 **** 0.06
25921 C 67.25185907450893 10.872956094175827 13.447193533612243 C 0.0 **** -0.24
25922 H 67.27701420792619 10.584056494900814 12.39591671461443 H 0.0 **** 0.06
25923 H 66.2325238498031 11.14023691955584 13.726206684904398 H 0.0 **** 0.06
25924 H 67.90933932513327 11.728026698172265 13.604275210574237 H 0.0 **** 0.06
25925 H 67.58956025099586 10.036802167633773 14.060733464843594 H 0.0 **** 0.06
25926 C 86.87356714538596 57.7573467662875 35.86854806161415 C 0.0 **** -0.24
25927 H 85.9024907302688 58.20694966085793 35.66547061833634 H 0.0 **** 0.06
25928 H 87.66245423125383 58.42144854816526 35.51479295760106 H 0.0 **** 0.06
25929 H 86.94625533542991 56.79991637099161 35.35207332282871 H 0.0 **** 0.06
25930 H 86.98429997670684 57.60136922021209 36.94122689886548 H 0.0 **** 0.06
25931 C 132.1652346559118 4.45138944574245 31.626321977486413 C 0.0 **** -0.24
25932 H 131.81620274208706 5.3612249159488385 32.113580406793176 H 0.0 **** 0.06
25933 H 131.89567371742825 4.479160104390161 30.570167922503927 H 0.0 **** 0.06
25934 H 131.70175508335416 3.585290092532773 32.09833813768702 H 0.0 **** 0.06
25935 H 133.249069218952 4.38114994722784 31.722663818111243 H 0.0 **** 0.06
25936 C 91.64339321162527 48.874629066822635 137.38914554633783 C 0.0 **** -0.24
25937 H 91.40814606441938 48.93350660544645 138.45140439282133 H 0.0 **** 0.06
25938 H 91.63549916948404 47.83208303168102 137.07151823072763 H 0.0 **** 0.06
25939 H 92.63094329073783 49.30139016064497 137.21148151358648 H 0.0 **** 0.06
25940 H 90.89926549706507 49.43293709538099 136.82045777194656 H 0.0 **** 0.06
25941 C 113.77434179195427 126.5479649389769 108.25727147126493 C 0.0 **** -0.24
25942 H 113.4054008081078 126.7650238408656 107.25454983815287 H 0.0 **** 0.06
25943 H 113.52512102661552 127.37503257147155 108.92190957260185 H 0.0 **** 0.06
25944 H 114.85555817728255 126.41829025728832 108.22634844214902 H 0.0 **** 0.06
25945 H 113.30885589115076 125.63335728354274 108.62484104292325 H 0.0 **** 0.06
25946 C 17.241997105529123 102.70893988407897 122.78560639133701 C 0.0 **** -0.24
25947 H 17.131896852625573 102.7006162870918 123.87000545231575 H 0.0 **** 0.06
25948 H 18.07801442979232 102.071072084955 122.50136648156933 H 0.0 **** 0.06
25949 H 17.43038166743858 103.72782203226848 122.4478267544983 H 0.0 **** 0.06
25950 H 16.326331007928474 102.33671743067248 122.32493541323578 H 0.0 **** 0.06
25951 C 8.27148722007297 73.31593451824543 97.89036041001526 C 0.0 **** -0.24
25952 H 7.652756283075348 72.53787140576108 97.44467055048224 H 0.0 **** 0.06
25953 H 8.856959578351791 73.80575470849281 97.11209954153578 H 0.0 **** 0.06
25954 H 8.94225849007762 72.87056297569158 98.62513844881406 H 0.0 **** 0.06
25955 H 7.6322800397358606 74.05077000875953 98.38081294231961 H 0.0 **** 0.06
25956 C 88.61693771653071 86.8843780719377 60.11870715759984 C 0.0 **** -0.24
25957 H 89.08729105381985 86.54638779782695 59.19591197524862 H 0.0 **** 0.06
25958 H 89.3863536162242 87.11857785845291 60.85481198970044 H 0.0 **** 0.06
25959 H 87.9695243185111 86.09782262695497 60.505977199033254 H 0.0 **** 0.06
25960 H 88.02246798134567 87.77652856074788 59.91760279512306 H 0.0 **** 0.06
25961 C 60.92673729518235 23.145177604094386 55.3532382459353 C 0.0 **** -0.24
25962 H 61.105250680976425 23.203496396507035 56.42694563673098 H 0.0 **** 0.06
25963 H 60.15203917052931 23.859506263126264 55.073894255276855 H 0.0 **** 0.06
25964 H 60.60337768703927 22.13733235852783 55.093201344016734 H 0.0 **** 0.06
25965 H 61.84764284071122 23.380333417457848 54.81929311536868 H 0.0 **** 0.06
25966 C 38.160514412045714 99.81133557505247 37.45906781167571 C 0.0 **** -0.24
25967 H 38.711482307920775 98.9564633463209 37.066624783342505 H 0.0 **** 0.06
25968 H 38.75035443414397 100.29738872170678 38.23646588936218 H 0.0 **** 0.06
25969 H 37.21478297187028 99.47105293153382 37.880271350023335 H 0.0 **** 0.06
25970 H 37.96568641487238 100.5180017632462 36.65299052736245 H 0.0 **** 0.06
25971 C 44.810414249604875 76.53358121121732 40.3326370751588 C 0.0 **** -0.24
25972 H 44.69985358922105 77.53537292541569 40.74781218924886 H 0.0 **** 0.06
25973 H 43.84174887139693 76.17919567290193 39.97911483870524 H 0.0 **** 0.06
25974 H 45.1863545532797 75.86006353592649 41.102612718289095 H 0.0 **** 0.06
25975 H 45.51362511664985 76.56199511824266 39.50017578235634 H 0.0 **** 0.06
25976 C 86.92920227549995 130.542177239755 91.81354022134023 C 0.0 **** -0.24
25977 H 87.43465014281978 131.0503966917608 92.63401147323525 H 0.0 **** 0.06
25978 H 87.45031100389265 130.7520735267334 90.87939466661433 H 0.0 **** 0.06
25979 H 85.90088004013946 130.89656196435993 91.74503835198307 H 0.0 **** 0.06
25980 H 86.9316217996508 129.46745720685323 91.99652022337492 H 0.0 **** 0.06
25981 C 116.90016956025539 24.156739528092146 154.46617325346722 C 0.0 **** -0.24
25982 H 117.15353569678155 24.99556576576262 155.11506526327594 H 0.0 **** 0.06
25983 H 115.82001368915354 24.11419265720869 154.33138570283495 H 0.0 **** 0.06
25984 H 117.24737534512383 23.22913082249019 154.92060243851267 H 0.0 **** 0.06
25985 H 117.38282975231022 24.289294850332027 153.49745506735422 H 0.0 **** 0.06
25986 C 2.699855863460904 139.4241968360468 36.16507984146358 C 0.0 **** -0.24
25987 H 2.1394697758305696 140.35672947738908 36.21926403958223 H 0.0 **** 0.06
25988 H 2.184699718501772 138.7291299577721 35.501959297105415 H 0.0 **** 0.06
25989 H 2.7749024201337633 138.98775104461453 37.16201505410474 H 0.0 **** 0.06
25990 H 3.699197091768177 139.62326830131195 35.77966150803165 H 0.0 **** 0.06
25991 C 124.4177242997353 85.08357286371789 154.34957991228927 C 0.0 **** -0.24
25992 H 123.61273469869205 85.66258379356495 154.8023345491117 H 0.0 **** 0.06
25993 H 124.47876691123905 85.31665074955714 153.28642602983834 H 0.0 **** 0.06
25994 H 124.21514022299719 84.01999115929026 154.4780413538507 H 0.0 **** 0.06
25995 H 125.36119834596441 85.33515192808348 154.83232240740327 H 0.0 **** 0.06
25996 C 14.06449149657334 24.674901788002217 30.25310694769511 C 0.0 **** -0.24
25997 H 14.04153696284419 23.858857762581962 29.53134944977854 H 0.0 **** 0.06
25998 H 13.048814704114221 24.899662532308987 30.580867499111505 H 0.0 **** 0.06
25999 H 14.499268516837276 25.559328398925004 29.786979071356768 H 0.0 **** 0.06
26000 H 14.66754243278507 24.38283510119698 31.11278961440047 H 0.0 **** 0.06
26001 C 104.4696605398808 108.85260421752821 26.613456146069097 C 0.0 **** -0.24
26002 H 104.46172479797059 109.23569493401152 27.63404480387544 H 0.0 **** 0.06
26003 H 105.02737576377325 109.536935430509 25.972982697320873 H 0.0 **** 0.06
26004 H 103.44600199317631 108.76665239172894 26.249457350304 H 0.0 **** 0.06
26005 H 104.94397153949774 107.8712954867442 26.59822710169027 H 0.0 **** 0.06
26006 C 31.1712619041769 17.106156292878218 2.8398105827299958 C 0.0 **** -0.24
26007 H 31.34087390410184 18.175098591844197 2.7062484652819023 H 0.0 **** 0.06
26008 H 31.83276589821523 16.547639989866745 2.177551059093247 H 0.0 **** 0.06
26009 H 30.13443979438472 16.870171459516968 2.6016536606592524 H 0.0 **** 0.06
26010 H 31.377098296573763 16.832321945092573 3.8745732608993535 H 0.0 **** 0.06
26011 C 128.09677308731403 22.666155517333813 103.65280299082606 C 0.0 **** -0.24
26012 H 128.34678482241435 21.789206399016727 104.24951316435947 H 0.0 **** 0.06
26013 H 127.15747612186163 23.090119344559113 104.00848342179695 H 0.0 **** 0.06
26014 H 127.99403162557752 22.37693603393752 102.60774945334846 H 0.0 **** 0.06
26015 H 128.8893610414066 23.407834904091438 103.74898861820007 H 0.0 **** 0.06
26016 C 87.81139287188414 13.499564804018902 89.50794298077204 C 0.0 **** -0.24
26017 H 88.7745451560629 14.008711629843859 89.52706968576285 H 0.0 **** 0.06
26018 H 87.09465875781149 14.09830069601692 88.94656682570812 H 0.0 **** 0.06
26019 H 87.45206906591997 13.363516793600233 90.52866628208841 H 0.0 **** 0.06
26020 H 87.92585244156056 12.526164678003482 89.03053446964304 H 0.0 **** 0.06
26021 C 72.31831691707322 147.48447049123268 109.40592767443366 C 0.0 **** -0.24
26022 H 71.49735408498138 147.74805710528048 108.73778483497944 H 0.0 **** 0.06
26023 H 72.1450789171073 147.92903618725722 110.38582950645247 H 0.0 **** 0.06
26024 H 73.25540283873929 147.86038838679553 108.9960394443803 H 0.0 **** 0.06
26025 H 72.37277519705493 146.3996328783065 109.5028934284199 H 0.0 **** 0.06
26026 C 29.431266964226836 149.5087816765278 115.74962553642878 C 0.0 **** -0.24
26027 H 29.282720108439293 149.54013437598815 114.66991514265514 H 0.0 **** 0.06
26028 H 30.392363469903117 149.04170858871905 115.97054405540497 H 0.0 **** 0.06
26029 H 28.630794611596883 148.92832637044634 116.20916698846231 H 0.0 **** 0.06
26030 H 29.419758521304132 150.5226405555654 116.14832011165952 H 0.0 **** 0.06
26031 C 2.2092268996946984 7.33722086504784 18.83877427499641 C 0.0 **** -0.24
26032 H 1.4667006326478145 7.537814976670447 19.61046293186513 H 0.0 **** 0.06
26033 H 3.1863563739788106 7.684990696469995 19.175092323544874 H 0.0 **** 0.06
26034 H 1.931909345746874 7.860795440325383 17.92386591392821 H 0.0 **** 0.06
26035 H 2.2519412464053232 6.26528234672552 18.645675930647315 H 0.0 **** 0.06
26036 C 74.38775477230055 115.78058083810457 24.02191091212211 C 0.0 **** -0.24
26037 H 75.27930276905455 116.34022598524119 24.305375477708935 H 0.0 **** 0.06
26038 H 74.55833668630231 115.28643023998664 23.06568256411714 H 0.0 **** 0.06
26039 H 73.54400203227479 116.46431711517424 23.93232482715291 H 0.0 **** 0.06
26040 H 74.17106531668816 115.0331103706326 24.784490889312053 H 0.0 **** 0.06
26041 C 47.475945056934904 52.69704455415342 47.7850871352003 C 0.0 **** -0.24
26042 H 48.10205269097028 53.19202852890892 47.042995662433356 H 0.0 **** 0.06
26043 H 46.567768958867134 53.280120194848024 47.939410362997066 H 0.0 **** 0.06
26044 H 48.020438166770575 52.61748864866907 48.72538535662768 H 0.0 **** 0.06
26045 H 47.212435792391815 51.70040417568259 47.43139449231323 H 0.0 **** 0.06
26046 C 29.378739979835785 1.918240233957203 135.7840473700591 C 0.0 **** -0.24
26047 H 29.292772328661606 3.001527734698886 135.69350203746285 H 0.0 **** 0.06
26048 H 29.365009442678577 1.6396347502654187 136.83855160559676 H 0.0 **** 0.06
26049 H 30.31563798182959 1.589936123405792 135.3335018889095 H 0.0 **** 0.06
26050 H 28.542747143343952 1.4436497338131602 135.27122432728265 H 0.0 **** 0.06
26051 C 17.56597588888541 150.41656776112325 65.53883007815637 C 0.0 **** -0.24
26052 H 16.6821099055539 151.05004330031738 65.60107379201361 H 0.0 **** 0.06
26053 H 18.102344233831637 150.44630468068658 66.48763638516405 H 0.0 **** 0.06
26054 H 18.2170595127999 150.77767253610318 64.7425203787127 H 0.0 **** 0.06
26055 H 17.26404904020253 149.3919456347058 65.32369681522826 H 0.0 **** 0.06
26056 C 82.90271360417123 106.10017330385705 42.09330579810421 C 0.0 **** -0.24
26057 H 83.21395917212774 107.13832478204341 41.97990228848391 H 0.0 **** 0.06
26058 H 83.78129435239966 105.45404505764446 42.07851126328035 H 0.0 **** 0.06
26059 H 82.23755692305686 105.82808623178192 41.27321865924728 H 0.0 **** 0.06
26060 H 82.37908969346782 105.97936315811768 43.04121325875988 H 0.0 **** 0.06
26061 C 38.27726755365502 6.450262622574613 46.47110004633531 C 0.0 **** -0.24
26062 H 37.766942819994114 7.286293605409774 45.99187821533479 H 0.0 **** 0.06
26063 H 38.36899369209405 5.626867088419715 45.76180967843777 H 0.0 **** 0.06
26064 H 37.70299468438945 6.12194861811755 47.33728319616445 H 0.0 **** 0.06
26065 H 39.26978432798171 6.7668711300758915 46.7914267099695 H 0.0 **** 0.06
26066 C 110.6216461146127 68.959888587578 149.35001580070107 C 0.0 **** -0.24
26067 H 110.49789973544932 68.02272503717899 149.89268327133442 H 0.0 **** 0.06
26068 H 111.4801527491781 69.5010020236632 149.74964353441263 H 0.0 **** 0.06
26069 H 109.72391871305467 69.56795229952166 149.4640409025711 H 0.0 **** 0.06
26070 H 110.78600221182711 68.74878587397416 148.29320437036995 H 0.0 **** 0.06
26071 C 84.56423316106066 54.35010064959779 138.1579734646122 C 0.0 **** -0.24
26072 H 84.44079853341486 54.95453397021974 139.0559333110453 H 0.0 **** 0.06
26073 H 85.00866993128773 54.95774413034076 137.36948057256762 H 0.0 **** 0.06
26074 H 83.59140308664757 53.98468064202825 137.82981874558936 H 0.0 **** 0.06
26075 H 85.21536067783552 53.503694653211554 138.3759929838146 H 0.0 **** 0.06
26076 C 123.4404753601758 27.886840156535868 119.58575151730663 C 0.0 **** -0.24
26077 H 123.08390215995546 27.89409061658023 120.61584358153435 H 0.0 **** 0.06
26078 H 122.68742195128438 28.335417240625475 118.93787357157031 H 0.0 **** 0.06
26079 H 123.62552299065707 26.86001607792707 119.27282132362267 H 0.0 **** 0.06
26080 H 124.36569225563234 28.459468112938197 119.51785744406176 H 0.0 **** 0.06
26081 C 138.77641107932834 65.43142369448988 154.58402023631157 C 0.0 **** -0.24
26082 H 138.41884255494801 65.28359536344409 153.56510110333272 H 0.0 **** 0.06
26083 H 137.93573019343387 65.36449606848953 155.27665585863187 H 0.0 **** 0.06
26084 H 139.23834318978916 66.4144127023914 154.667512502309 H 0.0 **** 0.06
26085 H 139.5094359306568 64.66212081054911 154.82693650391332 H 0.0 **** 0.06
26086 C 36.78446588617095 55.44773359121257 116.34440250581333 C 0.0 **** -0.24
26087 H 36.75010216844019 55.56907047830737 117.42729547408133 H 0.0 **** 0.06
26088 H 35.77619768717916 55.28705155552598 115.96401301937102 H 0.0 **** 0.06
26089 H 37.40865140522733 54.58979959967678 116.09530541190522 H 0.0 **** 0.06
26090 H 37.204188924452325 56.34690224633573 115.89189061055636 H 0.0 **** 0.06
26091 C 74.46687769639999 101.16509265156037 110.43004303296469 C 0.0 **** -0.24
26092 H 75.25179150645897 101.85969122765039 110.12989670598965 H 0.0 **** 0.06
26093 H 74.21099541431272 101.3370571019264 111.475575031172 H 0.0 **** 0.06
26094 H 74.82030929300728 100.14188306435898 110.30523158715091 H 0.0 **** 0.06
26095 H 73.58546463411506 101.32383605317614 109.80876111916818 H 0.0 **** 0.06
26096 C 72.4914188646323 139.40919556814367 131.3000505390675 C 0.0 **** -0.24
26097 H 71.63282635594581 139.80458187671692 131.84268875897845 H 0.0 **** 0.06
26098 H 73.33791954661007 139.31154048060932 131.9794971806936 H 0.0 **** 0.06
26099 H 72.75221097094555 140.0892052830418 130.48868998020072 H 0.0 **** 0.06
26100 H 72.24103969867394 138.4311364373756 130.887883927343 H 0.0 **** 0.06
26101 C 101.64932337203095 78.76076070450908 124.14065837396947 C 0.0 **** -0.24
26102 H 102.60400624949722 78.75679331514337 124.66766555529802 H 0.0 **** 0.06
26103 H 101.80009951215055 78.42864870679618 123.11363459718018 H 0.0 **** 0.06
26104 H 101.23933430645252 79.77117478711192 124.14043707306672 H 0.0 **** 0.06
26105 H 100.95517469593108 78.08696662810263 124.6433380363627 H 0.0 **** 0.06
26106 C 88.31925340749784 46.6764752140693 153.96111318524416 C 0.0 **** -0.24
26107 H 87.99161339594467 46.274508281727506 154.91966535787753 H 0.0 **** 0.06
26108 H 89.32280521842421 46.31310848228816 153.7384361259411 H 0.0 **** 0.06
26109 H 88.32923364369636 47.76576784836756 154.00845923865148 H 0.0 **** 0.06
26110 H 87.63270735777704 46.35381919449179 153.17882726333062 H 0.0 **** 0.06
26111 C 110.65956237680753 60.691295562908635 144.80899528882998 C 0.0 **** -0.24
26112 H 110.142652635927 60.95592814660773 145.7320904228659 H 0.0 **** 0.06
26113 H 110.56828435775945 61.50994672048 144.09452814106413 H 0.0 **** 0.06
26114 H 110.21259293670049 59.79072649433337 144.3884559577342 H 0.0 **** 0.06
26115 H 111.71332564720588 60.50940910916495 145.0215158226118 H 0.0 **** 0.06
26116 C 38.8137059178633 63.29680541195549 138.10414611684558 C 0.0 **** -0.24
26117 H 38.684303717087516 63.69512137811124 139.11041055935576 H 0.0 **** 0.06
26118 H 38.51829120970321 64.05136457236816 137.3743109756485 H 0.0 **** 0.06
26119 H 38.19222800837389 62.410252728560735 137.9824818937346 H 0.0 **** 0.06
26120 H 39.85985138307956 63.0311431404637 137.9501171768909 H 0.0 **** 0.06
26121 C 80.87837379009548 89.98173926050791 54.87376602731362 C 0.0 **** -0.24
26122 H 80.6680929774144 90.46280575873203 53.91841180867857 H 0.0 **** 0.06
26123 H 80.44386332060509 90.57146707664144 55.68062004709108 H 0.0 **** 0.06
26124 H 81.95683510340857 89.91119037262595 55.01526062205741 H 0.0 **** 0.06
26125 H 80.44529933522998 88.98166902947308 54.87998764928068 H 0.0 **** 0.06
26126 C 47.513252623323154 111.76656843059351 15.433295402773666 C 0.0 **** -0.24
26127 H 47.105792396977165 110.75861849247815 15.358090733315606 H 0.0 **** 0.06
26128 H 47.39502953197098 112.13093029767225 16.454130563606952 H 0.0 **** 0.06
26129 H 46.980713355173165 112.42551625558139 14.747793141240237 H 0.0 **** 0.06
26130 H 48.57256573744547 111.75051287124984 15.173738721738687 H 0.0 **** 0.06
26131 C 93.26641958898023 115.0637905168117 124.9176215127813 C 0.0 **** -0.24
26132 H 92.29172327563171 115.37475869082554 125.2926022294925 H 0.0 **** 0.06
26133 H 94.05095067921323 115.572715215884 125.47861645590848 H 0.0 **** 0.06
26134 H 93.34835281689936 115.32385733445484 123.86179297519857 H 0.0 **** 0.06
26135 H 93.3742974971334 113.98587262312385 125.0366342417559 H 0.0 **** 0.06
26136 C 154.32776548604465 142.7114606208919 26.484558642869146 C 0.0 **** -0.24
26137 H 153.701677820788 143.60330394835182 26.49722225779555 H 0.0 **** 0.06
26138 H 154.43134771146475 142.32664742902944 27.499890240576576 H 0.0 **** 0.06
26139 H 155.3116798797168 142.96407482478241 26.08984458444798 H 0.0 **** 0.06
26140 H 153.86645203348883 141.95270322533798 25.852762179739585 H 0.0 **** 0.06
26141 C 58.64624765161963 100.03879942918122 138.35403246380292 C 0.0 **** -0.24
26142 H 58.88213502326167 100.89483054834814 137.72126191637156 H 0.0 **** 0.06
26143 H 59.122190195826875 99.1464313597638 137.94771905170958 H 0.0 **** 0.06
26144 H 57.5657424037243 99.89468791460835 138.38035696546908 H 0.0 **** 0.06
26145 H 59.01373861819968 100.22079884670707 139.36302464014148 H 0.0 **** 0.06
26146 C 57.71705826907305 122.75108090770317 59.02049475780575 C 0.0 **** -0.24
26147 H 58.6910431489768 122.3455166111035 58.749270348511075 H 0.0 **** 0.06
26148 H 57.08749321617631 121.95254368999764 59.414914426814306 H 0.0 **** 0.06
26149 H 57.24535331052155 123.18285531835221 58.136946224918105 H 0.0 **** 0.06
26150 H 57.84352837105192 123.52357126514335 59.77877216061793 H 0.0 **** 0.06
26151 C 78.6726627954784 74.95902484434282 75.24474110179412 C 0.0 **** -0.24
26152 H 79.05477727439492 73.93874531194206 75.25498018274232 H 0.0 **** 0.06
26153 H 77.61084917265129 74.94603435783921 74.99506769718087 H 0.0 **** 0.06
26154 H 79.21409607047656 75.542416122394 74.49895135366268 H 0.0 **** 0.06
26155 H 78.80948624980915 75.40870754618453 76.22734195003414 H 0.0 **** 0.06
26156 C 4.811452823701046 111.15552567077366 134.8662516129691 C 0.0 **** -0.24
26157 H 5.210558441855426 111.33917287087313 135.8642782228241 H 0.0 **** 0.06
26158 H 5.495531362239092 110.50969236086097 134.3154997909948 H 0.0 **** 0.06
26159 H 4.702765886806674 112.10363410192677 134.33901139902292 H 0.0 **** 0.06
26160 H 3.8383966197283996 110.67126597087777 134.9472937742031 H 0.0 **** 0.06
26161 C 59.23428086990721 116.2395225965555 14.501264281028739 C 0.0 **** -0.24
26162 H 58.2636624230569 116.28038278140781 14.007524542929957 H 0.0 **** 0.06
26163 H 59.12067101395198 115.78748078553036 15.486804075738576 H 0.0 **** 0.06
26164 H 59.62978680062713 117.24980836684506 14.60802291122235 H 0.0 **** 0.06
26165 H 59.9207126241532 115.64204431566827 13.903037104509451 H 0.0 **** 0.06
26166 C 3.546029028632887 34.084911867024175 28.98537121617977 C 0.0 **** -0.24
26167 H 3.8396434183608505 34.51069532519813 29.94575643292559 H 0.0 **** 0.06
26168 H 4.181358558534157 33.22815932426926 28.75920498674023 H 0.0 **** 0.06
26169 H 3.658822598022141 34.83736710180477 28.20508255783676 H 0.0 **** 0.06
26170 H 2.5056003475675652 33.763648139554846 29.033240251720855 H 0.0 **** 0.06
26171 C 80.93360947849936 138.83012120921032 18.82520815163121 C 0.0 **** -0.24
26172 H 79.92791060627187 138.84099141417678 19.247174189345635 H 0.0 **** 0.06
26173 H 81.66145727256901 138.6955450342383 19.62613920604594 H 0.0 **** 0.06
26174 H 81.1237691294956 139.77585990541678 18.31734762963862 H 0.0 **** 0.06
26175 H 81.01915716338732 138.01024603051582 18.112955447720864 H 0.0 **** 0.06
26176 C 55.25590634864142 49.249517194781646 91.6157330128953 C 0.0 **** -0.24
26177 H 54.3651694293099 49.68168452154124 92.06966445320394 H 0.0 **** 0.06
26178 H 54.99185763536798 48.32086984525995 91.10928255677517 H 0.0 **** 0.06
26179 H 55.99511277422988 49.04428930731078 92.39050721806316 H 0.0 **** 0.06
26180 H 55.672435958996346 49.952262126316086 90.89362406106635 H 0.0 **** 0.06
26181 C 88.47089690090849 10.883645086755344 3.5114161835367668 C 0.0 **** -0.24
26182 H 89.06087353094267 10.1610353479226 4.075397937917899 H 0.0 **** 0.06
26183 H 89.08998071080197 11.330643226468325 2.7328099868848312 H 0.0 **** 0.06
26184 H 88.11307762538581 11.664089643357663 4.183693182384616 H 0.0 **** 0.06
26185 H 87.61891828105377 10.37998931899093 3.0540290491265694 H 0.0 **** 0.06
26186 C 68.41352519735005 146.5808945808028 132.52464347815769 C 0.0 **** -0.24
26187 H 67.98949837967234 147.58179911078173 132.43917373357854 H 0.0 **** 0.06
26188 H 69.40337542183465 146.56589919250024 132.06642147506662 H 0.0 **** 0.06
26189 H 67.76592952027778 145.86741894751304 132.01539695666014 H 0.0 **** 0.06
26190 H 68.49597641299658 146.30999605967838 133.57715402671136 H 0.0 **** 0.06
26191 C 30.582858229399818 90.35497848044744 44.95849623928467 C 0.0 **** -0.24
26192 H 30.956015452196482 90.40347745906323 45.9821164077797 H 0.0 **** 0.06
26193 H 31.33724383847121 89.89556051219076 44.31908230139186 H 0.0 **** 0.06
26194 H 30.36880409488245 91.36209354474322 44.601883397633 H 0.0 **** 0.06
26195 H 29.671024622013505 89.75844890422883 44.93267757544382 H 0.0 **** 0.06
26196 C 147.92792220238084 50.24321007581871 34.82142759095839 C 0.0 **** -0.24
26197 H 147.6729551256008 49.30912025643134 34.32120098334799 H 0.0 **** 0.06
26198 H 147.46883170006157 50.26298736130127 35.810187654621345 H 0.0 **** 0.06
26199 H 147.5600849500479 51.082481144228396 34.231716238660184 H 0.0 **** 0.06
26200 H 149.01113883893424 50.31666646798139 34.92174494289941 H 0.0 **** 0.06
26201 C 4.15591901855754 148.54961978012307 38.92276334191325 C 0.0 **** -0.24
26202 H 4.605278427144697 148.2242840914129 39.86163155401189 H 0.0 **** 0.06
26203 H 4.913941037651341 148.5536221488381 38.13967569539136 H 0.0 **** 0.06
26204 H 3.752151260664533 149.5546177889832 39.04345408349471 H 0.0 **** 0.06
26205 H 3.3529926847617446 147.86549551300845 38.64934435887986 H 0.0 **** 0.06
26206 C 147.99439610118594 33.84754530285642 87.99097915891628 C 0.0 **** -0.24
26207 H 146.91269515188893 33.74245646097734 87.90929652554625 H 0.0 **** 0.06
26208 H 148.3153311443358 34.73298139618589 87.44192332807795 H 0.0 **** 0.06
26209 H 148.47694327421397 32.96462453340638 87.57299856199285 H 0.0 **** 0.06
26210 H 148.27090504980745 33.95058559269728 89.04106164359465 H 0.0 **** 0.06
26211 C 88.57246278647924 51.71846376417125 20.22768308655509 C 0.0 **** -0.24
26212 H 89.5370355296366 52.20391572821029 20.080906151246268 H 0.0 **** 0.06
26213 H 88.72486002737517 50.65555173516728 20.4153310932698 H 0.0 **** 0.06
26214 H 87.96248927073503 51.84615007869546 19.33255335521602 H 0.0 **** 0.06
26215 H 88.06527767284615 52.17009670148988 21.080358069629426 H 0.0 **** 0.06
26216 C 10.270886950231159 67.23616661610919 73.05742133043611 C 0.0 **** -0.24
26217 H 10.30325200416803 66.58687501948287 72.18188456229745 H 0.0 **** 0.06
26218 H 10.68902210468221 66.71020993965647 73.91488514478186 H 0.0 **** 0.06
26219 H 9.236810204398324 67.51066371880535 73.26727917513932 H 0.0 **** 0.06
26220 H 10.853791325594898 68.13601717754386 72.86251594922683 H 0.0 **** 0.06
26221 C 89.09075934990105 120.6553855727056 54.942991165183 C 0.0 **** -0.24
26222 H 89.78084951925669 120.90674331669732 55.74827528074614 H 0.0 **** 0.06
26223 H 88.10434154811173 121.05920563480646 55.170686012301786 H 0.0 **** 0.06
26224 H 89.02631481980923 119.57158301979581 54.84469767100943 H 0.0 **** 0.06
26225 H 89.45243184534516 121.08439270197857 54.00809781006396 H 0.0 **** 0.06
26226 C 139.21155127874545 68.93479699837053 3.376533945598709 C 0.0 **** -0.24
26227 H 138.3373064931739 69.24760036391393 2.805554276430229 H 0.0 **** 0.06
26228 H 139.8658252875344 68.33838444091464 2.7415715714298585 H 0.0 **** 0.06
26229 H 138.89184373789723 68.33841526739297 4.231074518682874 H 0.0 **** 0.06
26230 H 139.7491545345352 69.81507510502172 3.729204998122725 H 0.0 **** 0.06
26231 C 117.44426441536928 148.1189513017526 95.33981569396579 C 0.0 **** -0.24
26232 H 117.68937765844191 147.84585399822458 94.31404915546914 H 0.0 **** 0.06
26233 H 116.37309822847942 147.999398887847 95.50182460135166 H 0.0 **** 0.06
26234 H 117.72479516409066 149.1579277919796 95.51551160548982 H 0.0 **** 0.06
26235 H 117.99098533421949 147.47449284665834 96.02760794540225 H 0.0 **** 0.06
26236 C 16.10724399213842 147.75330915206658 136.7638557355204 C 0.0 **** -0.24
26237 H 16.378499775972813 148.73776110550915 137.14620289271102 H 0.0 **** 0.06
26238 H 15.13642666131301 147.80973797110644 136.27186167309785 H 0.0 **** 0.06
26239 H 16.055737749213222 147.04495664710186 137.58967983989422 H 0.0 **** 0.06
26240 H 16.859398231963866 147.42288389980922 136.0470483390227 H 0.0 **** 0.06
26241 C 77.73302613859659 41.1827670571746 16.088311441332053 C 0.0 **** -0.24
26242 H 78.54046471323329 41.91171670310297 16.16952161381377 H 0.0 **** 0.06
26243 H 77.04246943250149 41.31234558053973 16.922025141411865 H 0.0 **** 0.06
26244 H 78.14874682104815 40.17619060802231 16.113625278248463 H 0.0 **** 0.06
26245 H 77.2017621877651 41.333267014391154 15.148518353196806 H 0.0 **** 0.06
26246 C 80.03355125145885 150.0905761071781 20.71190113200339 C 0.0 **** -0.24
26247 H 81.08968653008935 149.99167559831773 20.461394387764187 H 0.0 **** 0.06
26248 H 79.46939748801901 150.34230194980324 19.812613427370934 H 0.0 **** 0.06
26249 H 79.90848019272465 150.87994311909117 21.452720005985668 H 0.0 **** 0.06
26250 H 79.6666879085324 149.14832372429743 21.11842836640443 H 0.0 **** 0.06
26251 C 75.8382334285049 12.257148820420042 31.467614365799477 C 0.0 **** -0.24
26252 H 75.24957645431857 12.083973982664105 32.36810372726879 H 0.0 **** 0.06
26253 H 76.17004005935576 13.29540269661345 31.443993689135326 H 0.0 **** 0.06
26254 H 75.22705383681625 12.050346043156395 30.58900649296197 H 0.0 **** 0.06
26255 H 76.70590731212997 11.597414843102428 31.4702186484476 H 0.0 **** 0.06
26256 C 71.30005062186501 60.037910317252454 148.80421816110072 C 0.0 **** -0.24
26257 H 70.70569815311588 59.14134488186377 148.62952924416462 H 0.0 **** 0.06
26258 H 71.57179303664707 60.09465880240356 149.8582140511589 H 0.0 **** 0.06
26259 H 70.71759269500286 60.91833559096 148.53009260762857 H 0.0 **** 0.06
26260 H 72.20376019277259 59.99764179007724 148.19657919768514 H 0.0 **** 0.06
26261 C 90.23447332567376 38.28251348524351 91.5603732156867 C 0.0 **** -0.24
26262 H 90.3397937738354 37.22114948523483 91.78486760290605 H 0.0 **** 0.06
26263 H 89.77972386527313 38.790417240969816 92.41121538293523 H 0.0 **** 0.06
26264 H 89.60138525931625 38.406843979346334 90.6819643748405 H 0.0 **** 0.06
26265 H 91.21713006530038 38.71077664667271 91.36392461717003 H 0.0 **** 0.06
26266 C 105.78635674793905 123.03054185956891 103.10240220153678 C 0.0 **** -0.24
26267 H 106.51754360354421 122.52988866780872 102.46810588345575 H 0.0 **** 0.06
26268 H 105.82108774923846 124.1049768425347 102.91913209519147 H 0.0 **** 0.06
26269 H 106.01735210345272 122.8323946071972 104.14879909840555 H 0.0 **** 0.06
26270 H 104.78852425330835 122.65506788405774 102.87211253846844 H 0.0 **** 0.06
26271 C 89.79131098800553 147.51578432716707 9.030193930538985 C 0.0 **** -0.24
26272 H 90.01994370092899 147.20703730228462 10.050328251984126 H 0.0 **** 0.06
26273 H 90.61953382540877 148.10372337214022 8.634185984518155 H 0.0 **** 0.06
26274 H 88.88362006169278 148.11854730533906 9.027823874436166 H 0.0 **** 0.06
26275 H 89.64248769833827 146.63293529695346 8.408147386676774 H 0.0 **** 0.06
26276 C 80.10237556848043 31.841036587705283 75.02523136008807 C 0.0 **** -0.24
26277 H 79.39945424614069 32.665181624059336 74.9045738397383 H 0.0 **** 0.06
26278 H 80.92080495439993 32.15421151361947 75.67333819702122 H 0.0 **** 0.06
26279 H 80.4984641872083 31.556084633647764 74.05074593271956 H 0.0 **** 0.06
26280 H 79.59018882255577 30.989251561497973 75.47341290616629 H 0.0 **** 0.06
26281 C 109.47811962715663 86.04246341476394 24.681575513948758 C 0.0 **** -0.24
26282 H 108.98414955863102 86.92301182750484 25.09135680797931 H 0.0 **** 0.06
26283 H 110.0282029574477 86.32004622973828 23.782141359231048 H 0.0 **** 0.06
26284 H 108.73141472026911 85.28937467013114 24.43302422490683 H 0.0 **** 0.06
26285 H 110.1716117711547 85.63818731404 25.41977209400281 H 0.0 **** 0.06
26286 C 85.85940136909556 22.401129196510283 141.8208724293361 C 0.0 **** -0.24
26287 H 85.54172957101704 21.359537497857048 141.76326108411203 H 0.0 **** 0.06
26288 H 84.99303593955506 23.051341175712366 141.69861040531998 H 0.0 **** 0.06
26289 H 86.581042294638 22.604385340485123 141.02956971227542 H 0.0 **** 0.06
26290 H 86.32059749762067 22.586764147594067 142.79021366138554 H 0.0 **** 0.06
26291 C 78.74558044740155 41.89210577187268 86.90410297696508 C 0.0 **** -0.24
26292 H 78.3379419259334 42.30250470220409 85.97972899628371 H 0.0 **** 0.06
26293 H 79.04840819673281 42.70779480001397 87.56028924581057 H 0.0 **** 0.06
26294 H 79.61048879927297 41.2696576865406 86.67530047027094 H 0.0 **** 0.06
26295 H 77.98428273969381 41.28937167684518 87.39977433649682 H 0.0 **** 0.06
26296 C 25.14479597188752 98.34360684227812 58.095082793626545 C 0.0 **** -0.24
26297 H 24.394117134746928 97.55283900327487 58.07310055460633 H 0.0 **** 0.06
26298 H 25.233018317642248 98.73220855244082 59.10960642470815 H 0.0 **** 0.06
26299 H 24.84488657538259 99.14605131953815 57.42259426523458 H 0.0 **** 0.06
26300 H 26.105324613511847 97.94015774027798 57.77427408368882 H 0.0 **** 0.06
26301 C 73.38713312823268 68.64327930936012 127.2236444432819 C 0.0 **** -0.24
26302 H 73.37652513634299 69.71185579286555 127.00876903358062 H 0.0 **** 0.06
26303 H 72.60432525473925 68.4106105626367 127.94565605157919 H 0.0 **** 0.06
26304 H 74.35698938050496 68.36576931432566 127.63664653402049 H 0.0 **** 0.06
26305 H 73.21147673859912 68.08598879510916 126.30390547921951 H 0.0 **** 0.06
26306 C 111.77775395684172 83.27011656649833 3.854476247862891 C 0.0 **** -0.24
26307 H 112.07097032699589 84.24260952610759 3.45853144426502 H 0.0 **** 0.06
26308 H 111.58054867197636 82.58636376811421 3.0285992172405543 H 0.0 **** 0.06
26309 H 110.87601107424014 83.38152485002519 4.457491732057036 H 0.0 **** 0.06
26310 H 112.58178334232859 82.8724131025662 4.472930240524249 H 0.0 **** 0.06
26311 C 133.68318606537105 133.42783613180495 49.17070520930611 C 0.0 **** -0.24
26312 H 133.0714153521967 132.86910919671678 49.878225839749746 H 0.0 **** 0.06
26313 H 134.63821590989102 133.6769155290562 49.63383061074893 H 0.0 **** 0.06
26314 H 133.16498507624385 134.34511656770712 48.88825864757456 H 0.0 **** 0.06
26315 H 133.8571957699182 132.8209088333387 48.281709947311015 H 0.0 **** 0.06
26316 C 122.68810598761125 107.67398485538052 45.91121789429394 C 0.0 **** -0.24
26317 H 123.43133526786967 106.87752647321088 45.91343356319021 H 0.0 **** 0.06
26318 H 121.78601803205667 107.33033222819392 46.418193129167946 H 0.0 **** 0.06
26319 H 122.44800678258737 107.9443147315094 44.88325058964887 H 0.0 **** 0.06
26320 H 123.0879392302024 108.54496794106387 46.43166438915898 H 0.0 **** 0.06
26321 C 89.86613084271676 58.128859515048305 56.59807177501989 C 0.0 **** -0.24
26322 H 89.27812596554658 58.6152755710544 55.819881984329385 H 0.0 **** 0.06
26323 H 89.19733767335806 57.65337348353199 57.31584849301652 H 0.0 **** 0.06
26324 H 90.47788627212901 58.872615400101424 57.10830910994501 H 0.0 **** 0.06
26325 H 90.51134731373651 57.375305659345756 56.14741787791583 H 0.0 **** 0.06
26326 C 31.590280093477872 69.7150959500799 81.56142708462438 C 0.0 **** -0.24
26327 H 30.655657331985083 69.731780819481 81.00075732316759 H 0.0 **** 0.06
26328 H 32.37137641911488 69.2588767448512 80.95307172319188 H 0.0 **** 0.06
26329 H 31.455906906500786 69.13428940390918 82.47434673979929 H 0.0 **** 0.06
26330 H 31.877999273656314 70.7343595884904 81.81843091295734 H 0.0 **** 0.06
26331 C 134.74767693708966 101.39967394339466 78.15118543514276 C 0.0 **** -0.24
26332 H 134.3192716981819 100.90929218320424 77.27599721991388 H 0.0 **** 0.06
26333 H 135.70587065059232 100.93809283838367 78.39172522992226 H 0.0 **** 0.06
26334 H 134.06925019892722 101.29128725344422 78.99655938243531 H 0.0 **** 0.06
26335 H 134.89773275894186 102.45773395779447 77.9373375558212 H 0.0 **** 0.06
26336 C 70.3768707053947 4.928293414609982 138.94237271076904 C 0.0 **** -0.24
26337 H 71.16232943745023 4.679258536218157 139.65592781122075 H 0.0 **** 0.06
26338 H 70.44765905743176 4.263832184599721 138.07988965077274 H 0.0 **** 0.06
26339 H 70.49733688464981 5.960901949435339 138.61607199476092 H 0.0 **** 0.06
26340 H 69.40377588979729 4.8067636812204455 139.41585090667255 H 0.0 **** 0.06
26341 C 120.92887192147573 139.83697485684453 12.571913981907201 C 0.0 **** -0.24
26342 H 120.55664964628976 140.83703884945743 12.346467080799307 H 0.0 **** 0.06
26343 H 120.90817049813732 139.6767572285861 13.64985527540125 H 0.0 **** 0.06
26344 H 121.95306086561924 139.74095346847557 12.209289352182068 H 0.0 **** 0.06
26345 H 120.29866209975604 139.0957793408279 12.081058159606812 H 0.0 **** 0.06
26346 C 120.10859828484979 72.68223983578761 122.71829805513671 C 0.0 **** -0.24
26347 H 119.6471752734488 73.65451425014908 122.54848961897802 H 0.0 **** 0.06
26348 H 120.66339621581022 72.38254256330796 121.82893340125666 H 0.0 **** 0.06
26349 H 119.33307400498973 71.94441011769872 122.92855059967597 H 0.0 **** 0.06
26350 H 120.78859388846183 72.7464666054764 123.5677747017164 H 0.0 **** 0.06
26351 C 112.45951798471607 66.47331233857807 16.074551820349654 C 0.0 **** -0.24
26352 H 112.28752123503729 65.61790177269083 15.422031690334165 H 0.0 **** 0.06
26353 H 113.52942624568006 66.67058443995236 16.140276221579143 H 0.0 **** 0.06
26354 H 112.0670982265021 66.25790587425348 17.068488672526428 H 0.0 **** 0.06
26355 H 111.95339527542443 67.34829094438092 15.66552743916867 H 0.0 **** 0.06
26356 C 99.95620658228948 100.86932177636167 65.74508222011372 C 0.0 **** -0.24
26357 H 99.12017214937829 100.1771553462517 65.83730304556025 H 0.0 **** 0.06
26358 H 100.33418974586938 101.11663519627173 66.73736468473498 H 0.0 **** 0.06
26359 H 99.6197497277321 101.77954279318958 65.24733208115771 H 0.0 **** 0.06
26360 H 100.74937805295131 100.40599965633724 65.15816203171761 H 0.0 **** 0.06
26361 C 116.29180383160688 138.06121449834316 101.30008464583857 C 0.0 **** -0.24
26362 H 116.32424094633858 137.7900594092838 100.24457981840378 H 0.0 **** 0.06
26363 H 116.86545800462274 137.33782069600403 101.87877881405241 H 0.0 **** 0.06
26364 H 115.25739802162947 138.0644348424726 101.64289932177137 H 0.0 **** 0.06
26365 H 116.72064847077165 139.05456047018527 101.43192441321118 H 0.0 **** 0.06
26366 C 60.206992372418995 47.379398531969514 60.842603803233374 C 0.0 **** -0.24
26367 H 59.9005327335278 46.369456815082856 61.11583795937497 H 0.0 **** 0.06
26368 H 59.76819779964816 48.09278426341706 61.54044963392835 H 0.0 **** 0.06
26369 H 59.86526403784845 47.601696610229055 59.83173191256731 H 0.0 **** 0.06
26370 H 61.29405760114098 47.452908711917644 60.88359325985607 H 0.0 **** 0.06
26371 C 153.20651135856386 53.23019981521145 47.944618901775414 C 0.0 **** -0.24
26372 H 152.669404530603 53.67575943487543 47.10787609743505 H 0.0 **** 0.06
26373 H 152.55059063171845 52.533712165023076 48.468083957604506 H 0.0 **** 0.06
26374 H 153.52474754137225 54.01526522436467 48.631001248988866 H 0.0 **** 0.06
26375 H 154.0811318039256 52.696891096890624 47.57204734972095 H 0.0 **** 0.06
26376 C 154.0304362096736 55.08718656241116 89.68694193184244 C 0.0 **** -0.24
26377 H 153.33686678803753 54.54762059423523 90.3317664739298 H 0.0 **** 0.06
26378 H 153.5706017886239 56.02036814906994 89.35964368125443 H 0.0 **** 0.06
26379 H 154.26904467397128 54.474992570073724 88.81721945393924 H 0.0 **** 0.06
26380 H 154.94465543850703 55.30654208815545 90.23888490059129 H 0.0 **** 0.06
26381 C 64.87736459726898 97.24233281322458 51.28650933457476 C 0.0 **** -0.24
26382 H 65.93132469886945 96.96653907310264 51.317599209909574 H 0.0 **** 0.06
26383 H 64.34334151697789 96.7280559764709 52.08502629090455 H 0.0 **** 0.06
26384 H 64.45641845316197 96.95567548504687 50.3226361056887 H 0.0 **** 0.06
26385 H 64.78084793528234 98.319447263847 51.41884462665021 H 0.0 **** 0.06
26386 C 3.5976314808445977 152.64680802266622 26.894392720571155 C 0.0 **** -0.24
26387 H 3.20769951549363 152.4999833700362 27.90113361238712 H 0.0 **** 0.06
26388 H 4.2935227176062085 153.48641770565996 26.892757483104575 H 0.0 **** 0.06
26389 H 2.7736049282454474 152.85593350353008 26.213045225782615 H 0.0 **** 0.06
26390 H 4.116866860283324 151.7442423045464 26.571088780676654 H 0.0 **** 0.06
26391 C 74.59943278470574 137.9129556179062 80.5265545706386 C 0.0 **** -0.24
26392 H 73.9526315890091 138.20855537468236 79.69912436694972 H 0.0 **** 0.06
26393 H 73.9923940653464 137.73049280316624 81.4133076287506 H 0.0 **** 0.06
26394 H 75.31294003794352 138.7110208102502 80.7313227659952 H 0.0 **** 0.06
26395 H 75.13753948111078 137.00401139530834 80.25982771629313 H 0.0 **** 0.06
26396 C 81.38801299839359 96.22581407139324 78.27318973859312 C 0.0 **** -0.24
26397 H 80.72279819915241 95.75899829264131 78.99878875473091 H 0.0 **** 0.06
26398 H 81.1542157554721 97.28814943152264 78.19790940678377 H 0.0 **** 0.06
26399 H 81.25192321667286 95.75463643788683 77.29982296506267 H 0.0 **** 0.06
26400 H 82.42222528779425 96.10329833771533 78.59486893575313 H 0.0 **** 0.06
26401 C 150.9524934830817 19.239324933629973 85.29057146903607 C 0.0 **** -0.24
26402 H 151.94505840965775 19.491533670856853 84.91702723086794 H 0.0 **** 0.06
26403 H 150.9844237520134 18.26242164887799 85.7728173558253 H 0.0 **** 0.06
26404 H 150.24845306491267 19.211044818492127 84.45875177383512 H 0.0 **** 0.06
26405 H 150.63344362535761 19.991117563032304 86.0115379444125 H 0.0 **** 0.06
26406 C 16.307305183775952 147.65950226394335 118.43131257705568 C 0.0 **** -0.24
26407 H 16.19326278336831 148.27731454950484 117.5400151998881 H 0.0 **** 0.06
26408 H 15.32297511298512 147.3898839402861 118.81381085930389 H 0.0 **** 0.06
26409 H 16.852608329321242 148.21761068406 119.19252814969093 H 0.0 **** 0.06
26410 H 16.859199552829693 146.75511916171195 118.1779286090935 H 0.0 **** 0.06
26411 C 152.72522608520404 102.96876386669463 127.6511364697122 C 0.0 **** -0.24
26412 H 152.8786376333678 103.61104303153984 126.78429275717265 H 0.0 **** 0.06
26413 H 152.1803229895471 102.07448634548048 127.34714463803805 H 0.0 **** 0.06
26414 H 152.15025509549898 103.5070771076851 128.4044822602654 H 0.0 **** 0.06
26415 H 153.6910269081964 102.6823700398508 128.0664917292445 H 0.0 **** 0.06
26416 C 116.40530073774664 53.02428718013404 24.74152150411726 C 0.0 **** -0.24
26417 H 115.9387242424877 53.95616114062871 25.060784661942307 H 0.0 **** 0.06
26418 H 117.26709687534799 53.24776117138252 24.1114718932688 H 0.0 **** 0.06
26419 H 115.68511721461954 52.43276894742385 24.1761034734088 H 0.0 **** 0.06
26420 H 116.72987240889336 52.46196125158015 25.616118210332047 H 0.0 **** 0.06
26421 C 99.9532957193788 134.9574401985086 3.8601826321287263 C 0.0 **** -0.24
26422 H 99.66119092269749 134.45599622751445 4.7825780928342 H 0.0 **** 0.06
26423 H 99.06511945751592 135.33986556587314 3.357244827113732 H 0.0 **** 0.06
26424 H 100.46446395874894 134.24968283376091 3.2084102949071394 H 0.0 **** 0.06
26425 H 100.62399050987621 135.7852024218676 4.094086295453849 H 0.0 **** 0.06
26426 C 147.8389827476131 114.94911041108561 103.94578162933068 C 0.0 **** -0.24
26427 H 148.80857117367214 114.67683835079124 104.36250080737814 H 0.0 **** 0.06
26428 H 147.21306444119364 114.05975060597883 103.87189600965955 H 0.0 **** 0.06
26429 H 147.97853368625186 115.37852575299699 102.95328341900755 H 0.0 **** 0.06
26430 H 147.3565535648969 115.6806610736882 104.59346392784757 H 0.0 **** 0.06
26431 C 99.40441108553412 88.76668757652544 21.460534193574233 C 0.0 **** -0.24
26432 H 98.45334754510071 89.1172426650288 21.058659873092324 H 0.0 **** 0.06
26433 H 99.2245292667661 88.18374413608817 22.36362784121718 H 0.0 **** 0.06
26434 H 100.03523473700336 89.62272597766487 21.699524652791126 H 0.0 **** 0.06
26435 H 99.90426645538018 88.14405492840798 20.718948159832735 H 0.0 **** 0.06
26436 C 71.14874792562028 85.62403154814615 99.95141080169985 C 0.0 **** -0.24
26437 H 70.36616747815864 85.13823538691274 100.53493597771838 H 0.0 **** 0.06
26438 H 71.51620652379715 86.4962110472573 100.4922109254101 H 0.0 **** 0.06
26439 H 70.74368954204762 85.93725421293178 98.98913644328026 H 0.0 **** 0.06
26440 H 71.96866587924406 84.9236101135613 99.79048518056025 H 0.0 **** 0.06
26441 C 4.182323890349714 141.20010825725672 31.774324054106984 C 0.0 **** -0.24
26442 H 4.829954493283019 140.61869187400117 32.429978870400674 H 0.0 **** 0.06
26443 H 4.054194695913111 140.67313501925616 30.82923317943 H 0.0 **** 0.06
26444 H 4.635258089543498 142.17470985624323 31.58918614969047 H 0.0 **** 0.06
26445 H 3.2113590731668964 141.33631791422232 32.250622203302015 H 0.0 **** 0.06
26446 C 116.33049674538437 148.0081655823888 118.74470933015856 C 0.0 **** -0.24
26447 H 117.23625721039933 148.4102625812181 118.29158944335892 H 0.0 **** 0.06
26448 H 115.51979685088422 148.7300624623773 118.63951764722366 H 0.0 **** 0.06
26449 H 116.509630144284 147.81488215410934 119.80327934445422 H 0.0 **** 0.06
26450 H 116.05669315401708 147.07874129375114 118.2462379377216 H 0.0 **** 0.06
26451 C 97.68632744295257 125.48243663189852 148.55773531461867 C 0.0 **** -0.24
26452 H 98.76287428520992 125.46137824095406 148.38618317897095 H 0.0 **** 0.06
26453 H 97.48208294727748 125.29487225051913 149.61131560185888 H 0.0 **** 0.06
26454 H 97.20665067020133 124.71416150286176 147.95048559418785 H 0.0 **** 0.06
26455 H 97.29453415085808 126.46120377507656 148.279824201246 H 0.0 **** 0.06
26456 C 40.6485724853503 64.84594018890084 156.62372958105342 C 0.0 **** -0.24
26457 H 41.09289104181471 65.15021652618663 155.6758621781315 H 0.0 **** 0.06
26458 H 39.61301529288221 65.18222295668238 156.66366500835935 H 0.0 **** 0.06
26459 H 41.207681413615845 65.29330949072198 157.44620245054023 H 0.0 **** 0.06
26460 H 40.683296037043576 63.76029763235266 156.708971311118 H 0.0 **** 0.06
26461 C 134.66057015369066 107.3996039624506 122.55700272955919 C 0.0 **** -0.24
26462 H 135.32603803153847 107.23169324349858 123.40425369017059 H 0.0 **** 0.06
26463 H 133.6261974063667 107.38932205224283 122.89995601829297 H 0.0 **** 0.06
26464 H 134.80658959400327 106.61135038803688 121.81877357696014 H 0.0 **** 0.06
26465 H 134.88412135579114 108.3664990226592 122.10619182318273 H 0.0 **** 0.06
26466 C 22.47920098593503 67.78280615926899 2.604435484811834 C 0.0 **** -0.24
26467 H 22.86706506932233 68.7828368790111 2.410330652618633 H 0.0 **** 0.06
26468 H 22.657679898977506 67.52056603860454 3.647455657789237 H 0.0 **** 0.06
26469 H 22.98409040695705 67.06550765324671 1.9570266402258092 H 0.0 **** 0.06
26470 H 21.408408852259264 67.76413829263299 2.4017130482712936 H 0.0 **** 0.06
26471 C 45.462305655346256 119.06409495694783 40.26963841825358 C 0.0 **** -0.24
26472 H 45.34992753376906 118.97808244932787 41.350625324872155 H 0.0 **** 0.06
26473 H 46.434666495724315 119.49995986432504 40.040326735367614 H 0.0 **** 0.06
26474 H 44.67410762589739 119.70272832030179 39.87189108775432 H 0.0 **** 0.06
26475 H 45.391084369084126 118.07459040513595 39.817619663383624 H 0.0 **** 0.06
26476 C 99.9108033075679 64.20963298440819 42.15528865412492 C 0.0 **** -0.24
26477 H 100.39486902103721 65.07031967804585 42.617612670019014 H 0.0 **** 0.06
26478 H 99.89306991968209 64.3411680118262 41.07287201914913 H 0.0 **** 0.06
26479 H 98.89027590072664 64.12394060286582 42.527455650898645 H 0.0 **** 0.06
26480 H 100.46436435744636 63.304985810245626 42.402978505356685 H 0.0 **** 0.06
26481 C 16.56013359829325 11.58611840684182 21.24146358083795 C 0.0 **** -0.24
26482 H 17.439522900551935 12.177108238610735 21.49970026150997 H 0.0 **** 0.06
26483 H 15.663160223176476 12.096503890874338 21.593672504277087 H 0.0 **** 0.06
26484 H 16.6301177126779 10.606445515347133 21.7139780406779 H 0.0 **** 0.06
26485 H 16.50923029122808 11.464763410067071 20.160128091542234 H 0.0 **** 0.06
26486 C 137.88362590225307 44.33676642387002 92.22271563966889 C 0.0 **** -0.24
26487 H 137.44892616457872 44.542355611147855 91.24521379778304 H 0.0 **** 0.06
26488 H 137.1306847692859 43.88172143663883 92.86628256158335 H 0.0 **** 0.06
26489 H 138.23051303265925 45.268195932446986 92.66932960729491 H 0.0 **** 0.06
26490 H 138.72551878904767 43.652981684278814 92.1093864576446 H 0.0 **** 0.06
26491 C 113.7769578759362 90.29219839782358 97.35063215074221 C 0.0 **** -0.24
26492 H 113.41269273752943 89.73046320917447 98.21117045860939 H 0.0 **** 0.06
26493 H 114.72496159007358 90.7679238848363 97.60185693310794 H 0.0 **** 0.06
26494 H 113.04766108086574 91.05513569940872 97.08024262502532 H 0.0 **** 0.06
26495 H 113.92194797824556 89.61365009465672 96.50948366791516 H 0.0 **** 0.06
26496 C 42.81062654776366 147.31800287784128 139.58479909490313 C 0.0 **** -0.24
26497 H 43.45974799867889 146.77816706393565 140.27436802768483 H 0.0 **** 0.06
26498 H 41.93518074364192 147.68354300951492 140.12205857208068 H 0.0 **** 0.06
26499 H 42.49392145835532 146.64819034661113 138.78515808835675 H 0.0 **** 0.06
26500 H 43.35430689664514 148.16059736167824 139.15912334833024 H 0.0 **** 0.06
26501 C 136.05081413995373 116.56721711900117 71.32613143298599 C 0.0 **** -0.24
26502 H 136.55050248669914 117.43016784038734 70.88549179137179 H 0.0 **** 0.06
26503 H 135.06858434310408 116.44489329225034 70.86891572801652 H 0.0 **** 0.06
26504 H 135.93568769624233 116.72249077861501 72.39874956457643 H 0.0 **** 0.06
26505 H 136.64768786911674 115.67252803188727 71.15041904409682 H 0.0 **** 0.06
26506 C 101.29324602166214 6.993970949476193 96.87691076063334 C 0.0 **** -0.24
26507 H 100.85787216243499 6.951982815796441 95.87836467739976 H 0.0 **** 0.06
26508 H 100.51519315210332 6.816871399627985 97.62012417887246 H 0.0 **** 0.06
26509 H 101.73481639855247 7.97656921937056 97.04035764469751 H 0.0 **** 0.06
26510 H 102.06435193604888 6.229127631170172 96.96960941718191 H 0.0 **** 0.06
26511 C 103.08904728928957 35.158330533608684 54.093396115309616 C 0.0 **** -0.24
26512 H 102.42470763613431 35.53999334541372 53.317784092324246 H 0.0 **** 0.06
26513 H 103.36803772137085 35.97178310646174 54.76398015783967 H 0.0 **** 0.06
26514 H 103.98457916650818 34.74426689242859 53.631523205216325 H 0.0 **** 0.06
26515 H 102.57727125299124 34.38042044154333 54.659035410922414 H 0.0 **** 0.06
26516 C 70.44857634030637 84.24778513779307 145.76532697716456 C 0.0 **** -0.24
26517 H 71.2718560400317 84.65054340956107 145.17698700912732 H 0.0 **** 0.06
26518 H 70.47482426941161 84.67539775925079 146.7683674614116 H 0.0 **** 0.06
26519 H 70.54482745166715 83.16302463931038 145.82944499303113 H 0.0 **** 0.06
26520 H 69.50240740841326 84.50101593002319 145.28721905602512 H 0.0 **** 0.06
26521 C 63.57069778231734 3.9225709994530007 49.65762198665084 C 0.0 **** -0.24
26522 H 64.25680812333603 3.7518157301357746 48.82768649012287 H 0.0 **** 0.06
26523 H 64.07684972365539 3.703944653917233 50.598002979090666 H 0.0 **** 0.06
26524 H 62.70294509606467 3.2721424273328807 49.55128951307769 H 0.0 **** 0.06
26525 H 63.246983871635905 4.963842853348922 49.65171157458987 H 0.0 **** 0.06
26526 C 98.15189434221207 98.97497770896456 28.740517520680754 C 0.0 **** -0.24
26527 H 98.43942628411645 99.40079756895643 29.701915204348822 H 0.0 **** 0.06
26528 H 97.15524946331449 99.32444531978028 28.471066146289047 H 0.0 **** 0.06
26529 H 98.14802112394636 97.8861937263418 28.812650675117055 H 0.0 **** 0.06
26530 H 98.86448940028465 99.28574636174528 27.97762385670896 H 0.0 **** 0.06
26531 C 43.057775916572496 90.94124596598456 120.01916281557162 C 0.0 **** -0.24
26532 H 43.25863841192168 91.55314283020277 119.13975838243125 H 0.0 **** 0.06
26533 H 42.54027219883221 90.03074458216437 119.71684211315586 H 0.0 **** 0.06
26534 H 42.4327655439201 91.50034528961842 120.71545776024202 H 0.0 **** 0.06
26535 H 43.99845513297416 90.68164307112184 120.50408404387495 H 0.0 **** 0.06
26536 C 22.733429708001665 124.9357179119957 108.21586583690936 C 0.0 **** -0.24
26537 H 23.161671816338128 124.28672218648227 107.45265755439294 H 0.0 **** 0.06
26538 H 21.894939710502342 124.42901911858756 108.69404000973242 H 0.0 **** 0.06
26539 H 22.38304819821093 125.85881874528418 107.75202816819376 H 0.0 **** 0.06
26540 H 23.492344322379267 125.1687796784443 108.96212213453947 H 0.0 **** 0.06
26541 C 73.98886554188667 85.2431069011453 5.681310887081224 C 0.0 **** -0.24
26542 H 74.48105908661091 86.1949217034876 5.480047906103721 H 0.0 **** 0.06
26543 H 73.6947812123576 85.2009532097792 6.729769816095001 H 0.0 **** 0.06
26544 H 74.67524297433197 84.42569961214227 5.462105527404702 H 0.0 **** 0.06
26545 H 73.10314622743194 85.15254102667596 5.051168169846221 H 0.0 **** 0.06
26546 C 115.9372350330462 118.29376735599438 113.35898385808751 C 0.0 **** -0.24
26547 H 115.31293380577672 119.18549410664203 113.42065290514329 H 0.0 **** 0.06
26548 H 116.88979593618346 118.48324463287942 113.85296131902324 H 0.0 **** 0.06
26549 H 116.11229439896634 118.04567983420212 112.31228692959657 H 0.0 **** 0.06
26550 H 115.43089834785248 117.46247066006715 113.84877627373264 H 0.0 **** 0.06
26551 C 2.4721010043640774 87.92280365818698 7.999398531472536 C 0.0 **** -0.24
26552 H 2.4150608901580313 87.53795387164712 9.016994078792322 H 0.0 **** 0.06
26553 H 1.4712824203080288 88.17963002985095 7.651147080790963 H 0.0 **** 0.06
26554 H 2.8988473940769666 87.16110420692485 7.3458725733419215 H 0.0 **** 0.06
26555 H 3.1025179468836086 88.81122596851017 7.9816245770342675 H 0.0 **** 0.06
26556 C 3.2959645926624432 81.56111420581264 103.10368305662992 C 0.0 **** -0.24
26557 H 3.3769176250006296 82.45949810067924 102.492217900911 H 0.0 **** 0.06
26558 H 3.896646929578651 80.7659895769069 102.66085774190351 H 0.0 **** 0.06
26559 H 2.2538826626748687 81.24620445331064 103.1493967354822 H 0.0 **** 0.06
26560 H 3.6565802157503526 81.77326153585692 104.10986720120529 H 0.0 **** 0.06
26561 C 14.360629379336565 65.51204548775904 4.721258948549725 C 0.0 **** -0.24
26562 H 13.530314031514386 66.21544246955412 4.780897599604593 H 0.0 **** 0.06
26563 H 14.09853326025889 64.59541244738642 5.25048970522468 H 0.0 **** 0.06
26564 H 15.245087818252728 65.95521387917393 5.17836583077888 H 0.0 **** 0.06
26565 H 14.568261706885195 65.28253619157046 3.676593481356875 H 0.0 **** 0.06
26566 C 98.62552170726553 9.281824812634909 5.634219233516831 C 0.0 **** -0.24
26567 H 99.68088390740115 9.485455644792864 5.4550412281219 H 0.0 **** 0.06
26568 H 98.21836654788206 10.038626687986948 6.305093502521771 H 0.0 **** 0.06
26569 H 98.51803644348607 8.29716856637441 6.088513901917224 H 0.0 **** 0.06
26570 H 98.08529688944904 9.306233181316372 4.686917220047263 H 0.0 **** 0.06
26571 C 78.26055051289663 100.15920467165074 92.25648775145493 C 0.0 **** -0.24
26572 H 77.8854548501766 101.18040124847266 92.3210900245075 H 0.0 **** 0.06
26573 H 78.81172773398531 99.91763145851053 93.16545075034645 H 0.0 **** 0.06
26574 H 78.92205895392672 100.06954943225236 91.39436176455342 H 0.0 **** 0.06
26575 H 77.42343983588458 99.47122639463737 92.14414795509083 H 0.0 **** 0.06
26576 C 10.426181764238784 54.28402086557844 93.58532947033473 C 0.0 **** -0.24
26577 H 10.90675716684381 53.32620593813357 93.38538566330254 H 0.0 **** 0.06
26578 H 10.661138541816236 54.603441482981054 94.60016710328875 H 0.0 **** 0.06
26579 H 9.34691157247508 54.17770326333266 93.4776629516843 H 0.0 **** 0.06
26580 H 10.791009222990517 55.02791655113435 92.87632817277861 H 0.0 **** 0.06
26581 C 47.234596716646934 113.52270238018916 81.94616575228596 C 0.0 **** -0.24
26582 H 46.98978494757915 114.5577578976375 81.70565176576842 H 0.0 **** 0.06
26583 H 48.31680644057687 113.41040668963744 82.00357158150972 H 0.0 **** 0.06
26584 H 46.8412521982583 112.86654347776404 81.16900663553743 H 0.0 **** 0.06
26585 H 46.78922183149069 113.25776452794751 82.90456534741207 H 0.0 **** 0.06
26586 C 141.32540501737967 102.88229563321563 151.66012075036804 C 0.0 **** -0.24
26587 H 142.2920009310675 102.46815151123734 151.37220813004583 H 0.0 **** 0.06
26588 H 140.53164601890995 102.34322763229751 151.1431913489624 H 0.0 **** 0.06
26589 H 141.28634054087715 103.93731806859775 151.3874720281769 H 0.0 **** 0.06
26590 H 141.1932010959504 102.78051768584477 152.7368774618145 H 0.0 **** 0.06
26591 C 151.24689331294832 9.566227970608281 36.55222805389198 C 0.0 **** -0.24
26592 H 151.79762587000425 9.085493243799284 35.743575191672946 H 0.0 **** 0.06
26593 H 150.23994548131327 9.80967894323409 36.210166029909885 H 0.0 **** 0.06
26594 H 151.7612534154315 10.479748005886606 36.84858503873794 H 0.0 **** 0.06
26595 H 151.18738514669303 8.889781604106453 37.40456175961414 H 0.0 **** 0.06
26596 C 83.02891419444778 96.15926437457483 74.98072306345834 C 0.0 **** -0.24
26597 H 82.7665849833696 97.05998930059411 74.42476829936966 H 0.0 **** 0.06
26598 H 83.3022736805874 96.42932766282331 76.0007132990537 H 0.0 **** 0.06
26599 H 83.87122604765142 95.66593817876662 74.49594922974768 H 0.0 **** 0.06
26600 H 82.17384596168728 95.48378316274423 75.00001323323103 H 0.0 **** 0.06
26601 C 42.892624984068675 31.44272461627824 129.82600443529222 C 0.0 **** -0.24
26602 H 42.265265016642914 30.556075227157443 129.74615496404238 H 0.0 **** 0.06
26603 H 43.37674127416598 31.632806048027668 128.8678905848625 H 0.0 **** 0.06
26604 H 43.652518738530986 31.283362554643155 130.59123505178195 H 0.0 **** 0.06
26605 H 42.2767186618546 32.29959344363705 130.09948915949508 H 0.0 **** 0.06
26606 C 71.48407548409567 90.11413614870895 36.748003579186346 C 0.0 **** -0.24
26607 H 72.15894360270532 90.19279708505921 37.599915621252705 H 0.0 **** 0.06
26608 H 70.68302037181581 90.84641271054139 36.85036287138642 H 0.0 **** 0.06
26609 H 71.0577849715273 89.11153837058536 36.71419878410667 H 0.0 **** 0.06
26610 H 72.03647920957444 90.30444453335271 35.827945697072835 H 0.0 **** 0.06
26611 C 86.88171383606448 32.838695735587635 7.8273519121879644 C 0.0 **** -0.24
26612 H 87.0216706185368 33.70532815429968 7.1805365981437035 H 0.0 **** 0.06
26613 H 86.13012403649435 32.17961541284404 7.392924048038765 H 0.0 **** 0.06
26614 H 86.55087170295701 33.169662650857504 8.810909230797108 H 0.0 **** 0.06
26615 H 87.82502871183257 32.30098971097945 7.922462082715924 H 0.0 **** 0.06
26616 C 1.2870359602845483 92.97756363694026 129.84392460936252 C 0.0 **** -0.24
26617 H 1.019133183350963 93.5048033045374 130.75919128383703 H 0.0 **** 0.06
26618 H 1.437181312506155 93.6982384667229 129.04009015327 H 0.0 **** 0.06
26619 H 0.48448872880042515 92.29128783863786 129.572161537338 H 0.0 **** 0.06
26620 H 2.2071155969558767 92.41554656459604 130.0059306637492 H 0.0 **** 0.06
26621 C 46.31964803717855 138.29486283662789 7.8006243778031035 C 0.0 **** -0.24
26622 H 45.264876321912794 138.3384960084722 7.529203217006938 H 0.0 **** 0.06
26623 H 46.60741627620834 137.25705096139257 7.97191553104301 H 0.0 **** 0.06
26624 H 46.484596208839605 138.87285860791565 8.709691287704743 H 0.0 **** 0.06
26625 H 46.92077870332692 138.71070744689166 6.9918624459211856 H 0.0 **** 0.06
26626 C 46.528057306133334 53.95015743991013 98.99839952667674 C 0.0 **** -0.24
26627 H 46.57559014545126 54.870082873287345 98.41644637766768 H 0.0 **** 0.06
26628 H 46.09551650913765 53.15712211355208 98.38888243766473 H 0.0 **** 0.06
26629 H 45.90785764253788 54.10977734750736 99.88001764685441 H 0.0 **** 0.06
26630 H 47.53326492740682 53.66364742529356 99.30825164452006 H 0.0 **** 0.06
26631 C 16.65427108114818 134.19474309039026 85.28739479639898 C 0.0 **** -0.24
26632 H 16.365649855853064 134.07833797657543 86.3318622673466 H 0.0 **** 0.06
26633 H 15.764804152647798 134.15974400256528 84.65894249682128 H 0.0 **** 0.06
26634 H 17.33016211085078 133.38789429934005 85.00551363526796 H 0.0 **** 0.06
26635 H 17.15732291838117 135.15270467457276 85.15434918481384 H 0.0 **** 0.06
26636 C 117.18614419720939 75.17529133503946 24.140688498869686 C 0.0 **** -0.24
26637 H 117.32934081773158 76.2112219304562 24.450351618242557 H 0.0 **** 0.06
26638 H 116.60900458116294 75.1490571226862 23.216969783019813 H 0.0 **** 0.06
26639 H 116.64928386721647 74.63436873664992 24.92066505926715 H 0.0 **** 0.06
26640 H 118.15774521365023 74.70769289306321 23.977409986780323 H 0.0 **** 0.06
26641 C 68.12200511072007 97.56019007301794 74.86867977253719 C 0.0 **** -0.24
26642 H 69.18838173664489 97.4423048556116 75.05782415365753 H 0.0 **** 0.06
26643 H 67.95958846386037 97.74117205444509 73.80591778489234 H 0.0 **** 0.06
26644 H 67.74215519008945 98.40476781610407 75.44289412212791 H 0.0 **** 0.06
26645 H 67.59668337388706 96.65240244091139 75.16736254123887 H 0.0 **** 0.06
26646 C 54.45237319624499 36.95339656708387 85.92052608196002 C 0.0 **** -0.24
26647 H 53.84809343950917 37.654478474670185 85.3439718022075 H 0.0 **** 0.06
26648 H 54.69426162491581 36.08930706655764 85.30115864967385 H 0.0 **** 0.06
26649 H 53.89380806851375 36.62738259635023 86.79735247730147 H 0.0 **** 0.06
26650 H 55.37341684712956 37.442378535930516 86.23615856457798 H 0.0 **** 0.06
26651 C 61.82086994388936 56.829202849883856 36.98577449053056 C 0.0 **** -0.24
26652 H 61.83374384762135 55.819457627309845 37.39532241071535 H 0.0 **** 0.06
26653 H 62.60187503106059 57.423181022871645 37.461116131126914 H 0.0 **** 0.06
26654 H 60.85057660278477 57.286845103993 37.17565612042745 H 0.0 **** 0.06
26655 H 61.99898641418821 56.78715358558834 35.91127272148958 H 0.0 **** 0.06
26656 C 53.73326972482079 118.77274184663331 3.7556896902738757 C 0.0 **** -0.24
26657 H 52.679211350862545 119.03309226811574 3.8570174036544174 H 0.0 **** 0.06
26658 H 53.845991369748546 117.6892088442058 3.80210908926135 H 0.0 **** 0.06
26659 H 54.300057748881216 119.23309537003946 4.565157818393814 H 0.0 **** 0.06
26660 H 54.10682671789186 119.13569949139496 2.798476770493867 H 0.0 **** 0.06
26661 C 85.00837019915949 152.89136995226255 89.07416007867532 C 0.0 **** -0.24
26662 H 84.36831356767522 153.05813389597242 89.9414074571163 H 0.0 **** 0.06
26663 H 85.10950347843074 153.8218893631302 88.51501754096594 H 0.0 **** 0.06
26664 H 84.56269313824971 152.12999759423155 88.43517517075406 H 0.0 **** 0.06
26665 H 85.99117067677511 152.55800095814044 89.40711352753223 H 0.0 **** 0.06
26666 C 23.27778316132583 138.30365429616126 3.6849275215003274 C 0.0 **** -0.24
26667 H 23.617030842340455 137.2867240709893 3.8830779998300358 H 0.0 **** 0.06
26668 H 24.135742444731534 138.97675562516065 3.670708485684905 H 0.0 **** 0.06
26669 H 22.584872176705005 138.61432684692699 4.467160618881415 H 0.0 **** 0.06
26670 H 22.773564464571734 138.33583549676598 2.718970713392281 H 0.0 **** 0.06
26671 C 122.22346974153116 44.76451438682976 82.49924836316336 C 0.0 **** -0.24
26672 H 122.78613351321489 45.08546509945259 83.37501359490213 H 0.0 **** 0.06
26673 H 122.05200674755743 45.61801949066232 81.84378506824777 H 0.0 **** 0.06
26674 H 121.26577806578969 44.35057789572217 82.8153921886254 H 0.0 **** 0.06
26675 H 122.78922539573337 44.002030029044604 81.96357605209204 H 0.0 **** 0.06
26676 C 115.82884532194952 76.7757614456697 154.87024887348377 C 0.0 **** -0.24
26677 H 115.90121504410438 77.75341326794194 154.39393783789765 H 0.0 **** 0.06
26678 H 116.82594180443219 76.34496657068493 154.96887999087292 H 0.0 **** 0.06
26679 H 115.20710735413947 76.11979845528873 154.26156989343704 H 0.0 **** 0.06
26680 H 115.381261335053 76.88612283639583 155.8584526177987 H 0.0 **** 0.06
26681 C 119.64047002884116 146.62339589532036 13.042471769606657 C 0.0 **** -0.24
26682 H 119.29122947794549 147.52939238529626 12.548827144247959 H 0.0 **** 0.06
26683 H 119.97279052167401 145.9052629615161 12.292853967169918 H 0.0 **** 0.06
26684 H 118.82766105822533 146.19028557057572 13.624998745786549 H 0.0 **** 0.06
26685 H 120.47175508404943 146.8684686004164 13.705091014905982 H 0.0 **** 0.06
26686 C 30.01942410141288 25.299683379349005 36.8906787097939 C 0.0 **** -0.24
26687 H 29.661583062868317 24.85904984576632 37.821067629803906 H 0.0 **** 0.06
26688 H 31.09942733318104 25.436933233291143 36.94649247521751 H 0.0 **** 0.06
26689 H 29.53824068611908 26.265495730204975 36.73749357702111 H 0.0 **** 0.06
26690 H 29.779393251297392 24.637259757396862 36.05871066771583 H 0.0 **** 0.06
26691 C 40.32479874984659 58.5987734510536 108.1225402113228 C 0.0 **** -0.24
26692 H 41.01432202230217 58.08640582736783 108.79347742640083 H 0.0 **** 0.06
26693 H 40.25020461563827 58.04556024682114 107.18627073068701 H 0.0 **** 0.06
26694 H 40.694667573303036 59.605385453171124 107.92215540456148 H 0.0 **** 0.06
26695 H 39.342061121502525 58.65980658622016 108.58947956789119 H 0.0 **** 0.06
26696 C 97.69471823056313 148.35885742980255 155.21861436226595 C 0.0 **** -0.24
26697 H 97.93215513190385 149.0470381245403 156.03053107926684 H 0.0 **** 0.06
26698 H 97.44779520213567 147.3813898963007 155.63346243495027 H 0.0 **** 0.06
26699 H 98.55603007930873 148.26747677883546 154.55773910181188 H 0.0 **** 0.06
26700 H 96.84325063071643 148.7407541156379 154.65664419255523 H 0.0 **** 0.06
26701 C 152.0710752260873 58.38246819204369 155.71532495435724 C 0.0 **** -0.24
26702 H 152.2968358783666 59.30675170647494 156.2468564904463 H 0.0 **** 0.06
26703 H 152.8424402276145 58.19519661962272 154.96843469621527 H 0.0 **** 0.06
26704 H 151.10287393674844 58.47399017159883 155.22407590393976 H 0.0 **** 0.06
26705 H 152.04186744534596 57.55434108956494 156.42325720353404 H 0.0 **** 0.06
26706 C 35.45087358031947 96.18144225955115 140.75809937689746 C 0.0 **** -0.24
26707 H 34.804323889032105 95.31402783731107 140.88543099319585 H 0.0 **** 0.06
26708 H 35.01347389367254 96.85579542695262 140.0223052684538 H 0.0 **** 0.06
26709 H 36.4331711742193 95.85578994655577 140.4147894549898 H 0.0 **** 0.06
26710 H 35.554041086817335 96.7008572024721 141.7113586739818 H 0.0 **** 0.06
26711 C 1.7291571508460706 4.757672685059418 83.13847876222957 C 0.0 **** -0.24
26712 H 0.8912323970423728 5.294110937933567 83.58353917873734 H 0.0 **** 0.06
26713 H 1.563182871941791 3.6838713087920496 83.23081969239783 H 0.0 **** 0.06
26714 H 2.6496336560710105 5.028903924084261 83.65359159157703 H 0.0 **** 0.06
26715 H 1.8115082579042578 5.023217640237391 82.08384143578832 H 0.0 **** 0.06
26716 C 144.9783405612102 104.74862119434665 63.88733678167796 C 0.0 **** -0.24
26717 H 145.62700799637005 104.95506245367038 63.036703958997975 H 0.0 **** 0.06
26718 H 144.3347744749154 103.89952157258516 63.65631035551809 H 0.0 **** 0.06
26719 H 144.36449187849604 105.62558257520173 64.0956184172914 H 0.0 **** 0.06
26720 H 145.58763943389954 104.51657787348593 64.76148235789745 H 0.0 **** 0.06
26721 C 134.58512553508479 90.75433581155784 147.7142659487364 C 0.0 **** -0.24
26722 H 135.46186036439025 90.20077552615288 148.0498843459435 H 0.0 **** 0.06
26723 H 134.4564157657212 91.64199705126185 148.33442401124492 H 0.0 **** 0.06
26724 H 133.70180639947267 90.12175088058314 147.79702616625192 H 0.0 **** 0.06
26725 H 134.72075111564203 91.05474978244217 146.67464973937842 H 0.0 **** 0.06
26726 C 91.34506311804105 110.59899715641205 101.75880055850511 C 0.0 **** -0.24
26727 H 90.26404768239671 110.47075300959256 101.82397552602568 H 0.0 **** 0.06
26728 H 91.83343812191718 109.6321385338349 101.88782377923299 H 0.0 **** 0.06
26729 H 91.6775543435626 111.28210716531606 102.54100449741084 H 0.0 **** 0.06
26730 H 91.60403475312408 111.01033178354152 100.78282299198374 H 0.0 **** 0.06
26731 C 97.46277454117703 70.7550221769456 138.92640252043117 C 0.0 **** -0.24
26732 H 97.2342585192817 71.2620915515148 137.98893692067185 H 0.0 **** 0.06
26733 H 96.64517678650782 70.08239918177435 139.18434217773432 H 0.0 **** 0.06
26734 H 97.58792623823132 71.49505666392156 139.71768864167424 H 0.0 **** 0.06
26735 H 98.38355738125793 70.18336400315758 138.8146190996353 H 0.0 **** 0.06
26736 C 52.67564206757726 153.53141406052652 122.78541527737536 C 0.0 **** -0.24
26737 H 51.9427384129028 153.5208830282574 123.59266680435098 H 0.0 **** 0.06
26738 H 52.73582560742483 154.5348795616997 122.3634927534145 H 0.0 **** 0.06
26739 H 52.37154948474398 152.82825999928278 122.01073682587679 H 0.0 **** 0.06
26740 H 53.651062186249334 153.24253685587158 123.17763618996997 H 0.0 **** 0.06
26741 C 83.11177685765134 3.753738279219057 131.27784424812825 C 0.0 **** -0.24
26742 H 82.54004506263075 2.8403607785889307 131.11614100038696 H 0.0 **** 0.06
26743 H 83.88102579062698 3.572260129460851 132.02966503147644 H 0.0 **** 0.06
26744 H 82.44417568260634 4.543545603165242 131.62393783536007 H 0.0 **** 0.06
26745 H 83.58216616386922 4.05805826305739 130.34280632301832 H 0.0 **** 0.06
26746 C 15.543588704590185 10.806636119538723 84.9193985254353 C 0.0 **** -0.24
26747 H 14.63515005713301 10.271802390325206 84.64231229986966 H 0.0 **** 0.06
26748 H 15.720167799168465 11.615120500127631 84.20989341287101 H 0.0 **** 0.06
26749 H 16.38872871958366 10.119283747248488 84.90502132108155 H 0.0 **** 0.06
26750 H 15.429342393029714 11.220910177330552 85.9212270856199 H 0.0 **** 0.06
26751 C 95.7520828919248 114.65165242551666 3.0701551576092925 C 0.0 **** -0.24
26752 H 96.7057984337171 114.77102661958588 2.5564430535279143 H 0.0 **** 0.06
26753 H 94.9977630914727 115.27052083493925 2.584813851264613 H 0.0 **** 0.06
26754 H 95.85986584181434 114.95805061903701 4.110975832198392 H 0.0 **** 0.06
26755 H 95.44668900796242 113.6060899550593 3.0297897409328414 H 0.0 **** 0.06
26756 C 7.532022107842636 70.65376490478961 145.4884108474463 C 0.0 **** -0.24
26757 H 8.49034206696723 70.99416352616194 145.87879816580045 H 0.0 **** 0.06
26758 H 7.614381360887705 70.4894068437574 144.41334987266805 H 0.0 **** 0.06
26759 H 6.771521435796615 71.41032602094153 145.68288884507677 H 0.0 **** 0.06
26760 H 7.250674225174635 69.72147522265368 145.97787482144827 H 0.0 **** 0.06
26761 C 4.9852992772507605 27.714125899781948 36.1247284566476 C 0.0 **** -0.24
26762 H 4.749678275988629 26.7033425831454 36.45797087062488 H 0.0 **** 0.06
26763 H 5.004931534520097 27.741427024183622 35.03429828400428 H 0.0 **** 0.06
26764 H 5.961019157446117 28.006093813146038 36.51251075291043 H 0.0 **** 0.06
26765 H 4.226242894027507 28.404500972851963 36.492331953094066 H 0.0 **** 0.06
26766 C 65.0705868140667 64.68129507069783 101.08436123780506 C 0.0 **** -0.24
26767 H 65.9597336390147 64.91214043023066 101.6701359205778 H 0.0 **** 0.06
26768 H 64.89502074999692 65.47711802476282 100.36082890300882 H 0.0 **** 0.06
26769 H 64.20964162696052 64.59622636618668 101.7479073120768 H 0.0 **** 0.06
26770 H 65.21675724195609 63.73757143053791 100.55832170748091 H 0.0 **** 0.06
26771 C 125.63239031877488 153.66059607101266 14.356129321777473 C 0.0 **** -0.24
26772 H 126.64961059731404 153.27885331720256 14.447387572818172 H 0.0 **** 0.06
26773 H 125.64898919504391 154.62167713787426 13.842872750521167 H 0.0 **** 0.06
26774 H 125.20254316526682 153.7868616417831 15.35014749238951 H 0.0 **** 0.06
26775 H 125.02950091825055 152.95412212880814 13.786768656767094 H 0.0 **** 0.06
26776 C 21.32747795881007 22.381009192811433 45.842652182682855 C 0.0 **** -0.24
26777 H 22.227376032486383 22.926283676556352 45.556109161965765 H 0.0 **** 0.06
26778 H 20.688236367729537 23.02670302290295 46.44533647740087 H 0.0 **** 0.06
26779 H 21.606297877276383 21.50193592682575 46.423507853826834 H 0.0 **** 0.06
26780 H 20.789848185587495 22.06985062239204 44.94667882405835 H 0.0 **** 0.06
26781 C 104.81845376599904 2.4059095420590317 10.872727975215469 C 0.0 **** -0.24
26782 H 105.38258157679729 1.8820710355370807 10.101853365482384 H 0.0 **** 0.06
26783 H 103.78974068961708 2.0442724414734172 10.877279454679865 H 0.0 **** 0.06
26784 H 104.82692466788518 3.4755738901855437 10.665880053663727 H 0.0 **** 0.06
26785 H 105.2731327424425 2.219804980772725 11.845379901394324 H 0.0 **** 0.06
26786 C 50.14010253195349 0.5775826624930573 86.40536663624036 C 0.0 **** -0.24
26787 H 49.79878234258089 -0.45756119579837673 86.37448912879066 H 0.0 **** 0.06
26788 H 50.79949426131719 0.716429520246578 87.26174023884106 H 0.0 **** 0.06
26789 H 49.28016428602052 1.2409437598088573 86.49718131136467 H 0.0 **** 0.06
26790 H 50.68122283094783 0.8077913524365385 85.48798207709636 H 0.0 **** 0.06
26791 C 117.20234209837322 34.10795351622804 109.27034836768075 C 0.0 **** -0.24
26792 H 117.82366408277115 34.424362437999946 110.1083859973412 H 0.0 **** 0.06
26793 H 116.15089858189016 34.20831765018386 109.53903077012438 H 0.0 **** 0.06
26794 H 117.4198184005309 33.0670290699949 109.03128765993705 H 0.0 **** 0.06
26795 H 117.41778582814597 34.73245631942922 108.4029015712726 H 0.0 **** 0.06
26796 C 130.77402499209956 23.86035247202321 80.46199483134383 C 0.0 **** -0.24
26797 H 130.80566879511264 22.87419269065424 79.99959759836437 H 0.0 **** 0.06
26798 H 130.15315076319166 24.523458127041636 79.85938072522649 H 0.0 **** 0.06
26799 H 131.78456095969415 24.264405102062398 80.5232010745301 H 0.0 **** 0.06
26800 H 130.3525963901676 23.77904632764603 81.46358850777025 H 0.0 **** 0.06
26801 C 90.74626576145266 154.85935062305296 61.86795763458181 C 0.0 **** -0.24
26802 H 90.05015912805567 154.64539912020518 62.67879483802767 H 0.0 **** 0.06
26803 H 90.27077272145641 155.52652138177342 61.1482255627478 H 0.0 **** 0.06
26804 H 91.02436677726267 153.92966316846073 61.37270043375207 H 0.0 **** 0.06
26805 H 91.63865952777383 155.3370737605937 62.271657551719585 H 0.0 **** 0.06
26806 C 13.27771349836874 105.05883049115567 142.43869359601575 C 0.0 **** -0.24
26807 H 13.27365484269842 104.09507829733747 142.94752155861653 H 0.0 **** 0.06
26808 H 12.743622970698851 104.97260211049553 141.4926737068488 H 0.0 **** 0.06
26809 H 14.307083030851345 105.36407705310074 142.24803000083097 H 0.0 **** 0.06
26810 H 12.78942715852537 105.80404184007614 143.06614410868644 H 0.0 **** 0.06
26811 C 68.18969015459443 117.00734749572267 146.6528120666274 C 0.0 **** -0.24
26812 H 68.22715390043493 117.27726435116203 145.59695314502193 H 0.0 **** 0.06
26813 H 67.15151189709421 116.97744462239821 146.98304135627083 H 0.0 **** 0.06
26814 H 68.7354403551636 117.74874574917978 147.23639155451502 H 0.0 **** 0.06
26815 H 68.64405563763138 116.02742821480315 146.79301486485843 H 0.0 **** 0.06
26816 C 114.1854542229229 120.98579685181038 97.47382734528549 C 0.0 **** -0.24
26817 H 113.6275959388109 120.33035348651323 96.80508464558022 H 0.0 **** 0.06
26818 H 113.75118797349414 121.9855486642439 97.44794625869895 H 0.0 **** 0.06
26819 H 115.22599453542058 121.03339297565843 97.1511461233041 H 0.0 **** 0.06
26820 H 114.13816260364455 120.59471744228343 98.48938434430977 H 0.0 **** 0.06
26821 C 27.43140247421435 10.13252469849158 70.26698322965878 C 0.0 **** -0.24
26822 H 28.286726776592005 9.607810211360345 69.84139338775942 H 0.0 **** 0.06
26823 H 26.659525242462905 10.246806491673794 69.50540072810645 H 0.0 **** 0.06
26824 H 27.74623697640628 11.116888467446131 70.61557601032624 H 0.0 **** 0.06
26825 H 27.034369405172647 9.56017495995161 71.10416966337486 H 0.0 **** 0.06
26826 C 92.03702100568854 74.90655793462798 8.985013690966241 C 0.0 **** -0.24
26827 H 91.71864968671095 75.94790030594228 9.019034291697352 H 0.0 **** 0.06
26828 H 92.88415738841316 74.76335943969005 9.656686118441911 H 0.0 **** 0.06
26829 H 92.3319835671816 74.65050336401823 7.967196011397249 H 0.0 **** 0.06
26830 H 91.21329338044853 74.26446862886151 9.297138342328594 H 0.0 **** 0.06
26831 C 103.63388646355035 132.37444756403056 27.214283116237624 C 0.0 **** -0.24
26832 H 103.6743171710137 131.3010661117778 27.024724841804357 H 0.0 **** 0.06
26833 H 104.4922136667751 132.66911786410142 27.817285161929647 H 0.0 **** 0.06
26834 H 102.7139969043797 132.61463285773425 27.747674064892095 H 0.0 **** 0.06
26835 H 103.65460598792895 132.9108408418789 26.26515001013479 H 0.0 **** 0.06
26836 C 19.92479526572282 73.2522825500393 9.258371736813615 C 0.0 **** -0.24
26837 H 19.339548807345977 72.38090014504877 9.551854195283966 H 0.0 **** 0.06
26838 H 20.158075533836268 73.84749276196578 10.141423719060526 H 0.0 **** 0.06
26839 H 19.349730556549957 73.85550239364903 8.555248632808286 H 0.0 **** 0.06
26840 H 20.850624282851072 72.92597393188458 8.784863574782264 H 0.0 **** 0.06
26841 C 113.60908680222006 50.56057403831706 92.39868768963666 C 0.0 **** -0.24
26842 H 113.20060605523877 51.55777582868049 92.23584196682431 H 0.0 **** 0.06
26843 H 114.2788382389843 50.579846557872685 93.2587954004719 H 0.0 **** 0.06
26844 H 114.16226021675517 50.24499611024682 91.51411637292341 H 0.0 **** 0.06
26845 H 112.79469276262729 49.8610416192862 92.58706341253288 H 0.0 **** 0.06
26846 C 3.3309112727556247 4.755528742908844 51.255054452640834 C 0.0 **** -0.24
26847 H 2.246105136940642 4.86280215304469 51.2705382788334 H 0.0 **** 0.06
26848 H 3.66173671866477 4.55518822073897 50.236171310350414 H 0.0 **** 0.06
26849 H 3.623836777643554 3.9295804187315824 51.90248989734286 H 0.0 **** 0.06
26850 H 3.7911248366244976 5.677888392306521 51.612071099012056 H 0.0 **** 0.06
26851 C 153.6287465149548 20.63835711006334 98.13021777506505 C 0.0 **** -0.24
26852 H 154.22573619404426 21.51493482570004 98.38154723548942 H 0.0 **** 0.06
26853 H 152.85335986517325 20.919064871692854 97.4180560395995 H 0.0 **** 0.06
26854 H 153.1671938112941 20.24297086689546 99.03513406723582 H 0.0 **** 0.06
26855 H 154.2710046999487 19.876619967827196 97.6880428932885 H 0.0 **** 0.06
26856 C 107.79467278765726 65.38551886987915 10.257472127806523 C 0.0 **** -0.24
26857 H 108.14305886935897 66.01222605362295 11.078944551347234 H 0.0 **** 0.06
26858 H 107.55091751908462 64.39306413075218 10.637822836672086 H 0.0 **** 0.06
26859 H 108.57804049671968 65.30409881544375 9.504620585390313 H 0.0 **** 0.06
26860 H 106.90672805868228 65.83242224213862 9.811316127488169 H 0.0 **** 0.06
26861 C 0.7948800426057261 151.90231408311584 14.403802557346069 C 0.0 **** -0.24
26862 H 0.17841796673834764 152.75769003455608 14.12697017270466 H 0.0 **** 0.06
26863 H 1.072950017167571 151.3496729837823 13.506459495299907 H 0.0 **** 0.06
26864 H 0.23335622025810565 151.2511773991967 15.073548537978468 H 0.0 **** 0.06
26865 H 1.6957231000202597 152.25255119504808 14.909110847968122 H 0.0 **** 0.06
26866 C 80.34157890598844 113.62826387191858 147.38162257627545 C 0.0 **** -0.24
26867 H 79.62534429025618 114.08131139365621 146.69521480273718 H 0.0 **** 0.06
26868 H 79.80668277361139 113.04282125133223 148.1292024881298 H 0.0 **** 0.06
26869 H 80.91566404189835 114.41222203288184 147.87527885527098 H 0.0 **** 0.06
26870 H 81.01694158044312 112.97892961872678 146.82500516780118 H 0.0 **** 0.06
26871 C 51.520468572016284 48.1014053112512 86.26111860445916 C 0.0 **** -0.24
26872 H 51.61876882353533 48.36810707607788 87.31385643084141 H 0.0 **** 0.06
26873 H 50.51916594737281 47.71010791945912 86.07938501610768 H 0.0 **** 0.06
26874 H 52.259420883156906 47.34189104380326 86.00854547640984 H 0.0 **** 0.06
26875 H 51.683157788312684 48.98615944280559 85.6461129160895 H 0.0 **** 0.06
26876 C 102.94688386326662 47.92163594468714 90.39944774409594 C 0.0 **** -0.24
26877 H 102.05141446402273 47.68938847908244 89.82285833565174 H 0.0 **** 0.06
26878 H 103.112036928335 47.14100488832149 91.14273390945166 H 0.0 **** 0.06
26879 H 102.81709029314659 48.87982971910726 90.90193353536421 H 0.0 **** 0.06
26880 H 103.80597442557676 47.974980178403484 89.73134412815506 H 0.0 **** 0.06
26881 C 45.270558521798534 150.73510050199388 16.728400493189817 C 0.0 **** -0.24
26882 H 44.1824224917799 150.74965593806314 16.65167463829674 H 0.0 **** 0.06
26883 H 45.629593752353586 151.73095489956205 16.991138849651584 H 0.0 **** 0.06
26884 H 45.696809118251196 150.43593804490445 15.770623933611773 H 0.0 **** 0.06
26885 H 45.57110770432955 150.02463919459703 17.49840736794549 H 0.0 **** 0.06
26886 C 0.1916447926047944 99.20455087932909 39.714962845892316 C 0.0 **** -0.24
26887 H -0.5149285106706358 98.7569207818328 40.4139765356168 H 0.0 **** 0.06
26888 H 0.47723778377595494 98.46657479352427 38.96454719434476 H 0.0 **** 0.06
26889 H 1.0783591695509465 99.5342249272973 40.256379788872536 H 0.0 **** 0.06
26890 H -0.27371801157486075 100.05919876015874 39.22448643110904 H 0.0 **** 0.06
26891 C 78.94306173001223 101.11738244798143 37.72983353640956 C 0.0 **** -0.24
26892 H 78.49301541945843 100.25494192431192 38.220989637408465 H 0.0 **** 0.06
26893 H 79.62104735333601 101.6169223212146 38.42203805012177 H 0.0 **** 0.06
26894 H 78.1596156606246 101.80992221830515 37.423143834970446 H 0.0 **** 0.06
26895 H 79.4981099123303 100.78564880150016 36.85197819785138 H 0.0 **** 0.06
26896 C 80.87400752276824 148.06909629045714 95.14577028974975 C 0.0 **** -0.24
26897 H 81.17625887991642 147.8010562514843 94.13359080326171 H 0.0 **** 0.06
26898 H 79.78618978140159 148.08735865128807 95.20741198490194 H 0.0 **** 0.06
26899 H 81.26926002888854 149.05451680844442 95.3941682743702 H 0.0 **** 0.06
26900 H 81.2655984134285 147.3333906674789 95.8485145485256 H 0.0 **** 0.06
26901 C 133.60769148622353 9.093085197429758 4.380892613645756 C 0.0 **** -0.24
26902 H 134.1926304784538 8.195488505759926 4.178864785546715 H 0.0 **** 0.06
26903 H 132.82692380473551 8.862339827715857 5.106370461265222 H 0.0 **** 0.06
26904 H 133.1521454740416 9.444917652568279 3.4555675859445465 H 0.0 **** 0.06
26905 H 134.25974730277886 9.867906894185182 4.784066546960176 H 0.0 **** 0.06
26906 C 19.346024991452538 156.4571761169447 39.00629214634597 C 0.0 **** -0.24
26907 H 18.377528813338472 156.2557278652638 38.54880179871451 H 0.0 **** 0.06
26908 H 19.381822462761278 157.4952987136357 39.33837605747317 H 0.0 **** 0.06
26909 H 20.1363321834541 156.28163113780298 38.2757819107041 H 0.0 **** 0.06
26910 H 19.488416410286618 155.79611825926617 39.86121136216778 H 0.0 **** 0.06
26911 C 91.79581650314583 153.7088406830241 80.38699783836155 C 0.0 **** -0.24
26912 H 91.29330285094181 153.8877049815935 81.33733422535732 H 0.0 **** 0.06
26913 H 92.32444679839023 154.61171348212554 80.08024156531884 H 0.0 **** 0.06
26914 H 91.0574202394157 153.44424873539677 79.62986063626288 H 0.0 **** 0.06
26915 H 92.50802679689605 152.8911462704842 80.50138771521708 H 0.0 **** 0.06
26916 C 156.48589119350274 108.29179221444457 27.45988605277779 C 0.0 **** -0.24
26917 H 157.5319648992004 108.5977176473155 27.422294285474663 H 0.0 **** 0.06
26918 H 155.92027856917943 109.00684014647999 28.057828780923586 H 0.0 **** 0.06
26919 H 156.41372631314061 107.30261737870973 27.911509823598806 H 0.0 **** 0.06
26920 H 156.07995338607816 108.26034178815462 26.449732611046556 H 0.0 **** 0.06
26921 C 88.55291907641436 155.61028935117892 42.29817221875173 C 0.0 **** -0.24
26922 H 89.12901270435867 156.46303992486935 41.94175926060781 H 0.0 **** 0.06
26923 H 88.29652449761679 154.96728735889874 41.45627321940816 H 0.0 **** 0.06
26924 H 87.63977009673462 155.96317868750012 42.77756321894866 H 0.0 **** 0.06
26925 H 89.14632892383696 155.0466711967095 43.018111799810214 H 0.0 **** 0.06
26926 C 56.10288081569297 53.10755431132122 62.809426620742386 C 0.0 **** -0.24
26927 H 56.19523980689357 53.359483376274255 63.86525718996157 H 0.0 **** 0.06
26928 H 56.291293947839875 53.995920341735555 62.20567087963673 H 0.0 **** 0.06
26929 H 55.09564555365563 52.74049001270322 62.61111975157249 H 0.0 **** 0.06
26930 H 56.82800068034339 52.33456662360723 62.55528909725555 H 0.0 **** 0.06
26931 C 108.71268475889785 62.85498807313054 60.97017818488932 C 0.0 **** -0.24
26932 H 108.65072821010718 62.064062556298225 60.22307721021535 H 0.0 **** 0.06
26933 H 108.39427995442479 62.465603933373075 61.93798709879029 H 0.0 **** 0.06
26934 H 108.06452093768787 63.68190792579924 60.67996293656698 H 0.0 **** 0.06
26935 H 109.742075279816 63.208493967722944 61.04118142049916 H 0.0 **** 0.06
26936 C 94.48418748742016 109.29025309483643 10.46404744282097 C 0.0 **** -0.24
26937 H 95.18721048634067 109.83151502311483 11.097588187046142 H 0.0 **** 0.06
26938 H 95.03051424966748 108.59263026639246 9.829077257050528 H 0.0 **** 0.06
26939 H 93.93824254726626 109.99899710249736 9.839850529480714 H 0.0 **** 0.06
26940 H 93.78115704302287 108.74017728257616 11.088941386520844 H 0.0 **** 0.06
26941 C 83.46859504301287 28.737269242578265 58.341717166807044 C 0.0 **** -0.24
26942 H 82.53632103769047 29.051178254845837 58.81088981321709 H 0.0 **** 0.06
26943 H 83.35211149936586 27.729221528114493 57.942062185043625 H 0.0 **** 0.06
26944 H 84.2681918528039 28.743714603365305 59.082397979970764 H 0.0 **** 0.06
26945 H 83.71726869976804 29.423306795191266 57.531373046197075 H 0.0 **** 0.06
26946 C 141.9649746876655 47.57015431629398 105.30776099571192 C 0.0 **** -0.24
26947 H 142.35482103868145 48.5792955662418 105.17602862225068 H 0.0 **** 0.06
26948 H 142.7454066855196 46.93014489867011 105.7196912348892 H 0.0 **** 0.06
26949 H 141.64302290370694 47.176633700552145 104.34355808760644 H 0.0 **** 0.06
26950 H 141.11607450602364 47.595311209797785 105.99205064887424 H 0.0 **** 0.06
26951 C 145.5286705967116 87.54139796865812 87.43123099858279 C 0.0 **** -0.24
26952 H 145.19088442806998 86.91036920929864 86.60973489433397 H 0.0 **** 0.06
26953 H 144.7225263556123 88.2114787406655 87.72934319399856 H 0.0 **** 0.06
26954 H 146.38947649289543 88.1271740198574 87.10953505216862 H 0.0 **** 0.06
26955 H 145.8122580958952 86.91471620169862 88.27747257317174 H 0.0 **** 0.06
26956 C 146.6808058660474 0.9035312961166255 14.65904949497832 C 0.0 **** -0.24
26957 H 146.51856497619994 0.5086365314514296 13.656502406028324 H 0.0 **** 0.06
26958 H 145.75336614944678 1.3383265870706964 15.03320365207398 H 0.0 **** 0.06
26959 H 147.45405607187064 1.6718625116253065 14.62670799917666 H 0.0 **** 0.06
26960 H 146.99774737872656 0.0973201238645629 15.321070879695924 H 0.0 **** 0.06
26961 C 72.89207835407714 97.94638302271564 50.45459494586083 C 0.0 **** -0.24
26962 H 73.95508573871166 98.14431608660045 50.587926996249934 H 0.0 **** 0.06
26963 H 72.63070390925478 98.05942471942215 49.40193275837561 H 0.0 **** 0.06
26964 H 72.31305928014314 98.65232543033926 51.05068799868796 H 0.0 **** 0.06
26965 H 72.66765709337074 96.92943916427697 50.776515681272286 H 0.0 **** 0.06
26966 C 60.45870559861649 107.31988144083566 53.631633751142544 C 0.0 **** -0.24
26967 H 60.60014118506679 108.09056585117752 52.873735872633006 H 0.0 **** 0.06
26968 H 61.02101894993842 106.4287289127084 53.35267221299088 H 0.0 **** 0.06
26969 H 59.3986349513785 107.07325862743095 53.70412608179433 H 0.0 **** 0.06
26970 H 60.81260976684031 107.68831155907411 54.59446382775383 H 0.0 **** 0.06
26971 C 127.53649796582972 24.605296581348007 50.491487818424716 C 0.0 **** -0.24
26972 H 128.1226858441521 23.91912087616275 49.87948833059576 H 0.0 **** 0.06
26973 H 128.20697849483992 25.296931352661822 51.00389093231995 H 0.0 **** 0.06
26974 H 126.96677889513408 24.039309006014946 51.22713776985347 H 0.0 **** 0.06
26975 H 126.85308512285683 25.166391600319507 49.854351312057446 H 0.0 **** 0.06
26976 C 89.67463207193455 24.245763966425443 37.04285146508164 C 0.0 **** -0.24
26977 H 90.0672288211617 24.221441152600505 38.05960702948694 H 0.0 **** 0.06
26978 H 89.29961944769252 25.24525334958787 36.821674636088815 H 0.0 **** 0.06
26979 H 88.86301385614505 23.52369426361986 36.95031009203849 H 0.0 **** 0.06
26980 H 90.46926031540676 23.991181280164255 36.34166869637065 H 0.0 **** 0.06
26981 C 108.0878141958558 115.24018358825366 121.81297363292758 C 0.0 **** -0.24
26982 H 108.10801479388635 114.8624827986816 120.79137406565447 H 0.0 **** 0.06
26983 H 107.09484399714472 115.63376362096203 122.0345964556348 H 0.0 **** 0.06
26984 H 108.82634041617621 116.03359814367822 121.92214778435421 H 0.0 **** 0.06
26985 H 108.32007319230706 114.43021250564387 122.50455318782132 H 0.0 **** 0.06
26986 C 14.937182675716315 118.52797259248378 146.52210759685582 C 0.0 **** -0.24
26987 H 15.100652790372436 119.20205167937446 147.36368624334557 H 0.0 **** 0.06
26988 H 13.868497177321217 118.35067585680643 146.4013895621968 H 0.0 **** 0.06
26989 H 15.444174632478735 117.58155463026141 146.71175434091083 H 0.0 **** 0.06
26990 H 15.336327288933376 118.97822357095897 145.613542636795 H 0.0 **** 0.06
26991 C 96.39504909297702 6.360766338244389 81.32742847152085 C 0.0 **** -0.24
26992 H 95.7083418636323 6.729946609607396 82.08893537767764 H 0.0 **** 0.06
26993 H 95.98889169408649 5.452757673569465 80.88164365190474 H 0.0 **** 0.06
26994 H 97.36000869352061 6.142396240543945 81.7829315809123 H 0.0 **** 0.06
26995 H 96.52163501044583 7.120172882568511 80.55436349998024 H 0.0 **** 0.06
26996 C 74.89777019009748 133.2933998997582 10.757859236244997 C 0.0 **** -0.24
26997 H 74.16132972267312 133.9545765484511 11.214359555387148 H 0.0 **** 0.06
26998 H 75.84821766576434 133.8198687580092 10.662172980319895 H 0.0 **** 0.06
26999 H 74.55001330765 132.9894434629031 9.771465173238596 H 0.0 **** 0.06
27000 H 75.03176123428368 132.41202226683131 11.384213374643195 H 0.0 **** 0.06
27001 C 98.65721585315205 113.81727361370606 115.41535071662149 C 0.0 **** -0.24
27002 H 98.44404826555284 114.37927280802124 116.32524147461781 H 0.0 **** 0.06
27003 H 97.85415716470479 113.97437666111632 114.695611853973 H 0.0 **** 0.06
27004 H 98.73176676176668 112.75632393130097 115.65185139743856 H 0.0 **** 0.06
27005 H 99.60025107787779 114.16203607979322 114.98950670279832 H 0.0 **** 0.06
27006 C 85.48261690675764 24.07836321178098 64.83145138427082 C 0.0 **** -0.24
27007 H 84.4316988993541 24.362942728994028 64.89541666272582 H 0.0 **** 0.06
27008 H 85.58747597982216 23.02080069267808 65.07253590526498 H 0.0 **** 0.06
27009 H 86.06189849319162 24.671977660087407 65.53877408734246 H 0.0 **** 0.06
27010 H 85.84672241298921 24.259864550793907 63.820599718387925 H 0.0 **** 0.06
27011 C 148.54620867002404 39.89057288163076 144.32800570754966 C 0.0 **** -0.24
27012 H 149.48062119683763 39.79312492670317 143.7751831309251 H 0.0 **** 0.06
27013 H 148.20197466847287 40.924303783577216 144.27852750470805 H 0.0 **** 0.06
27014 H 148.70965056559675 39.611430986772575 145.36888909169033 H 0.0 **** 0.06
27015 H 147.79511584856863 39.235186661957414 143.88869363059104 H 0.0 **** 0.06
27016 C 101.69327305800026 104.60932995327704 53.815213546395185 C 0.0 **** -0.24
27017 H 101.75837709961688 104.3850644923807 52.75003272992258 H 0.0 **** 0.06
27018 H 102.69430742378948 104.7702003168842 54.21424683518656 H 0.0 **** 0.06
27019 H 101.22577352290081 103.77201297624839 54.33363822372304 H 0.0 **** 0.06
27020 H 101.09389458190161 105.50772415910973 53.96027540162237 H 0.0 **** 0.06
27021 C 110.45572508193844 120.56718763397588 97.85618761931372 C 0.0 **** -0.24
27022 H 111.11439408713231 119.89850505373765 97.30014132015043 H 0.0 **** 0.06
27023 H 110.74963735782292 120.57459854042465 98.90634158963915 H 0.0 **** 0.06
27024 H 109.42743147667046 120.21872473810801 97.7679068513672 H 0.0 **** 0.06
27025 H 110.53451151605937 121.57418340112064 97.44834838101879 H 0.0 **** 0.06
27026 C 8.580605349165978 148.52678958276846 135.08144635662666 C 0.0 **** -0.24
27027 H 8.919420441726118 147.641820612634 135.6207810859782 H 0.0 **** 0.06
27028 H 8.72353896032456 149.40886954570297 135.70617799106813 H 0.0 **** 0.06
27029 H 7.523586605764137 148.41999902245323 134.83823695101773 H 0.0 **** 0.06
27030 H 9.156706457578991 148.63490832471044 134.16228449242072 H 0.0 **** 0.06
27031 C 79.83339018618517 39.6570729412136 152.08372116013308 C 0.0 **** -0.24
27032 H 79.67396947094628 39.58714335547336 153.160297028021 H 0.0 **** 0.06
27033 H 80.89518446717437 39.53672139896807 151.86641926170023 H 0.0 **** 0.06
27034 H 79.49720856661358 40.63035821494883 151.72925494797374 H 0.0 **** 0.06
27035 H 79.26890878867295 38.87130577598525 151.58164110012876 H 0.0 **** 0.06
27036 C 19.680254179359096 41.51767208874564 81.41689327539711 C 0.0 **** -0.24
27037 H 20.658730941872605 41.95412737527455 81.61487218011496 H 0.0 **** 0.06
27038 H 19.48009582555619 41.545313981812185 80.3455062073399 H 0.0 **** 0.06
27039 H 18.9156570623407 42.08543368244651 81.94518734677388 H 0.0 **** 0.06
27040 H 19.66810176771093 40.483080108069856 81.76226912741265 H 0.0 **** 0.06
27041 C 48.35644433073428 3.955478211402067 101.62461070948389 C 0.0 **** -0.24
27042 H 47.424223170065034 4.474770175434742 101.40083569595397 H 0.0 **** 0.06
27043 H 48.40232261822469 3.7339016439740647 102.69065135769877 H 0.0 **** 0.06
27044 H 49.19992756063928 4.587938653329729 101.3472544207181 H 0.0 **** 0.06
27045 H 48.398957710681486 3.025196669090178 101.05727873612399 H 0.0 **** 0.06
27046 C 14.665579030469303 69.44100779317151 74.26789853671919 C 0.0 **** -0.24
27047 H 14.063179403939422 70.34718915183944 74.19983441165947 H 0.0 **** 0.06
27048 H 14.159080591784445 68.62868072312483 73.74623892706146 H 0.0 **** 0.06
27049 H 14.800826311500707 69.1725643114528 75.31543274975233 H 0.0 **** 0.06
27050 H 15.638607650713922 69.6173379912253 73.80883029192134 H 0.0 **** 0.06
27051 C 57.45624572501252 61.62106479095934 108.63684266269875 C 0.0 **** -0.24
27052 H 57.583217246040576 60.86643977797556 107.86078275169051 H 0.0 **** 0.06
27053 H 56.82860494759066 61.220195677785284 109.43340258722343 H 0.0 **** 0.06
27054 H 56.98176532337939 62.50457379311894 108.21040058527238 H 0.0 **** 0.06
27055 H 58.43045679689162 61.892043918040144 109.0431119747479 H 0.0 **** 0.06
27056 C 109.98870803588477 114.19983247242213 11.967764094707718 C 0.0 **** -0.24
27057 H 110.68303940100827 113.91320088903161 12.75687430521586 H 0.0 **** 0.06
27058 H 109.92633314804004 113.39951411024204 11.230203539130969 H 0.0 **** 0.06
27059 H 110.3421772741878 115.11116549158085 11.485635179590417 H 0.0 **** 0.06
27060 H 109.00202397552039 114.37606467119626 12.398148230757783 H 0.0 **** 0.06
27061 C 94.83591548587866 123.04616559374419 108.46515502521343 C 0.0 **** -0.24
27062 H 95.73321737926028 122.42892551167198 108.50270028016568 H 0.0 **** 0.06
27063 H 94.15235209103489 122.74168317794029 109.25721511734803 H 0.0 **** 0.06
27064 H 94.34956059195798 122.92301802794522 107.49748655676787 H 0.0 **** 0.06
27065 H 95.10960469677345 124.09293729763833 108.6037008411984 H 0.0 **** 0.06
27066 C 56.49184080495763 125.06721648320784 47.185058466063765 C 0.0 **** -0.24
27067 H 57.245935634036414 125.80148561863915 47.469871603888365 H 0.0 **** 0.06
27068 H 56.57547046694879 124.19286201398434 47.830105747828924 H 0.0 **** 0.06
27069 H 56.647665513786876 124.77107563116876 46.14837390403123 H 0.0 **** 0.06
27070 H 55.49976726934386 125.50620800389812 47.292966903705846 H 0.0 **** 0.06
27071 C 140.5828971742912 115.8435483073355 33.65932792545934 C 0.0 **** -0.24
27072 H 140.19804149228736 115.04007267570823 33.030512597389894 H 0.0 **** 0.06
27073 H 139.75856555678348 116.48518614095569 33.97275732755343 H 0.0 **** 0.06
27074 H 141.3066590434466 116.43132126050916 33.094408113075716 H 0.0 **** 0.06
27075 H 141.06782888079857 115.41772110609249 34.53797695613128 H 0.0 **** 0.06
27076 C 0.5561660029977702 154.81531616986507 100.60291084855919 C 0.0 **** -0.24
27077 H 0.5988341284349872 155.77674674509015 101.11395911080143 H 0.0 **** 0.06
27078 H 0.5466838597384367 154.97746691551586 99.52515164972067 H 0.0 **** 0.06
27079 H -0.34928091928691174 154.2867543942792 100.8991809197849 H 0.0 **** 0.06
27080 H 1.4293945292097874 154.2216335872762 100.87448150951434 H 0.0 **** 0.06
27081 C 9.63203854835649 12.581895232098873 109.83756603189835 C 0.0 **** -0.24
27082 H 9.553390191123867 12.973699410121839 108.82426817841002 H 0.0 **** 0.06
27083 H 10.568311933233645 12.03289606779012 109.94343752806918 H 0.0 **** 0.06
27084 H 8.794014666763246 11.912821995842137 110.03365187770498 H 0.0 **** 0.06
27085 H 9.61210166088324 13.407072436479297 110.54974142194357 H 0.0 **** 0.06
27086 C 103.75176297859333 148.51498531506098 130.48034360345412 C 0.0 **** -0.24
27087 H 103.34557321511285 148.39995756782054 129.4750858325126 H 0.0 **** 0.06
27088 H 103.02299382262409 149.0249189775605 131.11039189372786 H 0.0 **** 0.06
27089 H 104.66877492416619 149.1026086692828 130.43731390368492 H 0.0 **** 0.06
27090 H 103.96956368194007 147.53128608325008 130.89780184972113 H 0.0 **** 0.06
27091 C 125.07147576196468 47.22783910727077 131.9943472155955 C 0.0 **** -0.24
27092 H 124.39611045669335 46.4229895512849 131.70761998806728 H 0.0 **** 0.06
27093 H 124.51304677997194 47.99857163056055 132.52606061262435 H 0.0 **** 0.06
27094 H 125.52476045681817 47.65783657431919 131.1012784447709 H 0.0 **** 0.06
27095 H 125.8530615968445 46.83218785152178 132.64331821120896 H 0.0 **** 0.06
27096 C 104.77796576704276 42.036937172755046 145.6709010818809 C 0.0 **** -0.24
27097 H 105.36155527828544 42.93048003062853 145.44674454803302 H 0.0 **** 0.06
27098 H 103.8277086127647 42.081117967250236 145.1386087985871 H 0.0 **** 0.06
27099 H 104.59222567287185 41.98488642676719 146.74371980367806 H 0.0 **** 0.06
27100 H 105.33158141166791 41.153144376435876 145.35461060374263 H 0.0 **** 0.06
27101 C 82.13121218262486 88.90073952037298 67.50096934829497 C 0.0 **** -0.24
27102 H 81.42191321381102 88.49698981747648 66.77858038323481 H 0.0 **** 0.06
27103 H 82.31746490254572 88.16190174972866 68.28034944868472 H 0.0 **** 0.06
27104 H 81.71866161499052 89.80559576487968 67.94796140476993 H 0.0 **** 0.06
27105 H 83.06682663080754 89.14017621436483 66.99522795465327 H 0.0 **** 0.06
27106 C 137.92211080185345 61.76235557728103 51.79202705569227 C 0.0 **** -0.24
27107 H 138.22121233885522 61.06952859062534 51.00495543514285 H 0.0 **** 0.06
27108 H 137.10677016896824 61.32564296497401 52.369637176097115 H 0.0 **** 0.06
27109 H 137.5897723324004 62.699189017490994 51.343894324245284 H 0.0 **** 0.06
27110 H 138.77133250147853 61.9549754800413 52.448365215621195 H 0.0 **** 0.06
27111 C 22.952610183089284 20.53654306856862 151.8453036526841 C 0.0 **** -0.24
27112 H 22.024635616917813 21.10656523763288 151.87327795247313 H 0.0 **** 0.06
27113 H 23.433205238445815 20.576641322890907 152.82263685210205 H 0.0 **** 0.06
27114 H 23.61840275847578 20.96303662068169 151.09457587956922 H 0.0 **** 0.06
27115 H 22.73450405574423 19.499322987648043 151.5894835674274 H 0.0 **** 0.06
27116 C 33.43865574389119 107.97430922243421 56.593050233831605 C 0.0 **** -0.24
27117 H 34.04624569715081 108.84459584066627 56.343203579435226 H 0.0 **** 0.06
27118 H 32.699937832035715 108.25140698539991 57.34539879732381 H 0.0 **** 0.06
27119 H 34.079968992777424 107.18524805458617 56.98571097878698 H 0.0 **** 0.06
27120 H 32.92955459290863 107.61688822769202 55.69799106236235 H 0.0 **** 0.06
27121 C 58.395416335474465 139.50372395653494 34.726077400018596 C 0.0 **** -0.24
27122 H 58.10020702271731 138.50052192472717 34.41780668765328 H 0.0 **** 0.06
27123 H 59.48392849572372 139.56701999060834 34.76256888260508 H 0.0 **** 0.06
27124 H 57.98545497182704 139.71598603476735 35.712819067618284 H 0.0 **** 0.06
27125 H 58.01291862512477 140.23136378514818 34.009301633834696 H 0.0 **** 0.06
27126 C 61.01608317732229 95.22797914863548 139.88510418405986 C 0.0 **** -0.24
27127 H 61.67227626060179 96.0710319084442 139.6688766371687 H 0.0 **** 0.06
27128 H 60.97365494976117 95.0698301305243 140.96297682102582 H 0.0 **** 0.06
27129 H 61.40495229795411 94.33103079517616 139.40153187577542 H 0.0 **** 0.06
27130 H 60.015527005599665 95.43871140318778 139.50875208220197 H 0.0 **** 0.06
27131 C 60.90645354513265 147.4061855895804 119.61059991321515 C 0.0 **** -0.24
27132 H 60.320622963644155 148.19994259486813 119.1461087436238 H 0.0 **** 0.06
27133 H 61.83678428209981 147.82145059710592 119.99812973873235 H 0.0 **** 0.06
27134 H 61.130599646278256 146.6393115917353 118.8698466252202 H 0.0 **** 0.06
27135 H 60.3358870146335 146.9660230253751 120.42892347377649 H 0.0 **** 0.06
27136 C 124.29664323764287 37.80377861827293 94.15657232615547 C 0.0 **** -0.24
27137 H 124.34869975596781 38.05671537469334 95.21521190812541 H 0.0 **** 0.06
27138 H 124.7017038599718 36.80330157076503 94.00199138472576 H 0.0 **** 0.06
27139 H 124.8778474775598 38.52421532624214 93.58157560346291 H 0.0 **** 0.06
27140 H 123.25743545161889 37.830712652349575 93.8279411878857 H 0.0 **** 0.06
27141 C 86.43540554859732 32.556824936714634 64.38319698842821 C 0.0 **** -0.24
27142 H 85.86422547745798 31.629037022205864 64.36746306072185 H 0.0 **** 0.06
27143 H 87.19581375707435 32.52808939745066 63.60254898330618 H 0.0 **** 0.06
27144 H 86.91639572050923 32.67076319073857 65.3554491413511 H 0.0 **** 0.06
27145 H 85.7650560994999 33.39879785494645 64.20859482936704 H 0.0 **** 0.06
27146 C 88.77023804547746 151.87145038286732 150.4053411136947 C 0.0 **** -0.24
27147 H 88.40771503253742 151.4900666123117 149.45021222723918 H 0.0 **** 0.06
27148 H 88.4583377946922 152.90910310994227 150.52342463338795 H 0.0 **** 0.06
27149 H 89.85832001794458 151.8134087989213 150.42935067757486 H 0.0 **** 0.06
27150 H 88.35547734299067 151.27199639112294 151.21587066277047 H 0.0 **** 0.06
27151 C 66.76976156380597 19.884883285862713 1.6441335463223368 C 0.0 **** -0.24
27152 H 67.68666338564002 19.838597507421824 1.055600298859332 H 0.0 **** 0.06
27153 H 65.91053239773835 19.737194946873743 0.9894686821813252 H 0.0 **** 0.06
27154 H 66.69747230672685 20.859613671682595 2.126809023011816 H 0.0 **** 0.06
27155 H 66.78712750694015 19.103469696486016 2.4045596977308037 H 0.0 **** 0.06
27156 C 57.86141189176354 77.86892047443192 30.646270615889648 C 0.0 **** -0.24
27157 H 56.93341390103478 78.01799236651004 30.093947356350156 H 0.0 **** 0.06
27158 H 57.725389041729045 77.07182019022477 31.37766764581113 H 0.0 **** 0.06
27159 H 58.12954202738473 78.79152209829502 31.161406672181272 H 0.0 **** 0.06
27160 H 58.65697721978529 77.59493932851132 29.95330321797394 H 0.0 **** 0.06
27161 C 9.868513430338112 48.099580035053435 137.5196726517322 C 0.0 **** -0.24
27162 H 10.272004421190303 47.08777429763893 137.5719496038477 H 0.0 **** 0.06
27163 H 8.894053601102911 48.12704088434674 138.0077450114311 H 0.0 **** 0.06
27164 H 9.761372097304871 48.39393612984915 136.47574933619626 H 0.0 **** 0.06
27165 H 10.547488044161241 48.787545204516675 138.02364395702466 H 0.0 **** 0.06
27166 C 48.87243595108558 84.65493414472914 68.237888730768 C 0.0 **** -0.24
27167 H 49.33690642130509 84.59750599989077 67.25374400346779 H 0.0 **** 0.06
27168 H 48.28639750112248 83.75386327976517 68.41593891751714 H 0.0 **** 0.06
27169 H 48.22081142554623 85.52793200610563 68.28152243837309 H 0.0 **** 0.06
27170 H 49.647351862046506 84.74134548062199 68.99990060732198 H 0.0 **** 0.06
27171 C 121.70102792556618 151.92119644617028 17.444211731391306 C 0.0 **** -0.24
27172 H 121.17018654812328 152.38916398386203 18.272924871632483 H 0.0 **** 0.06
27173 H 121.85452985678073 150.86438920876986 17.661817521551995 H 0.0 **** 0.06
27174 H 122.66742541043693 152.4088503264595 17.310857649024 H 0.0 **** 0.06
27175 H 121.11336209464967 152.02397188321785 16.531978345038624 H 0.0 **** 0.06
27176 C 153.2012746683868 103.52916454457527 39.15496069538608 C 0.0 **** -0.24
27177 H 153.22339739834098 102.90305730467033 38.26351078086796 H 0.0 **** 0.06
27178 H 152.19677571571302 103.5186613104266 39.58082955433825 H 0.0 **** 0.06
27179 H 153.4726573687049 104.55126231831265 38.88863705831341 H 0.0 **** 0.06
27180 H 153.91061293832067 103.14351266009909 39.88734824282977 H 0.0 **** 0.06
27181 C 78.51062266939482 35.524946785743424 2.002989399378066 C 0.0 **** -0.24
27182 H 78.89315934786214 35.34262528740558 3.006723028338911 H 0.0 **** 0.06
27183 H 79.2560827232241 36.070829718425955 1.42397572872909 H 0.0 **** 0.06
27184 H 77.59467154944491 36.11348972811089 2.0639767208292596 H 0.0 **** 0.06
27185 H 78.29880565821509 34.573141267664965 1.5163555897596552 H 0.0 **** 0.06
27186 C 89.47591388527681 89.82661061897198 115.81001712227 C 0.0 **** -0.24
27187 H 89.16320286933406 88.91846975068961 116.32459717322531 H 0.0 **** 0.06
27188 H 90.02855132242588 89.56097382789613 114.90907727129131 H 0.0 **** 0.06
27189 H 90.11563548554632 90.4148081685891 116.46852954619463 H 0.0 **** 0.06
27190 H 88.59784198152596 90.41190557331123 115.53942485155416 H 0.0 **** 0.06
27191 C 82.1183592432935 150.70451783223848 61.46570578039196 C 0.0 **** -0.24
27192 H 83.12194351023346 150.4853090028377 61.10218032602269 H 0.0 **** 0.06
27193 H 82.14039477483847 151.61438073783685 62.066479146371236 H 0.0 **** 0.06
27194 H 81.76278845192536 149.87508964467688 62.07643234866485 H 0.0 **** 0.06
27195 H 81.44724714127346 150.8452177422869 60.61813291151749 H 0.0 **** 0.06
27196 C 9.693689913954358 54.07042565141671 47.10672262349131 C 0.0 **** -0.24
27197 H 10.059178421110687 54.64259557538398 46.25311823673769 H 0.0 **** 0.06
27198 H 9.922413529061032 53.0150885097779 46.96086765741828 H 0.0 **** 0.06
27199 H 8.61487732101773 54.20066544414114 47.19504404202347 H 0.0 **** 0.06
27200 H 10.17816355894746 54.425878012188676 48.01624534656908 H 0.0 **** 0.06
27201 C 96.1659020858994 134.05274853009843 80.05938723185493 C 0.0 **** -0.24
27202 H 97.06028627485748 133.77734820151755 80.61800270195081 H 0.0 **** 0.06
27203 H 96.43382663840572 134.2493336610021 79.02112791857502 H 0.0 **** 0.06
27204 H 95.72603273443079 134.94842573447198 80.49676342584385 H 0.0 **** 0.06
27205 H 95.446570232731 133.235336269125 80.10145298852292 H 0.0 **** 0.06
27206 C 100.0871087300842 40.2200246478063 68.2381163969846 C 0.0 **** -0.24
27207 H 100.73027889151695 40.085837002171615 69.108398260289 H 0.0 **** 0.06
27208 H 99.08615841771996 40.50322890529725 68.56672947732818 H 0.0 **** 0.06
27209 H 100.0351547549854 39.28709078455282 67.67752578246268 H 0.0 **** 0.06
27210 H 100.49612174017449 41.004166156280434 67.60214228155286 H 0.0 **** 0.06
27211 C 132.0881835873485 25.404550468436305 107.06467025141536 C 0.0 **** -0.24
27212 H 131.21059802133192 25.807705302922926 106.55965301132493 H 0.0 **** 0.06
27213 H 132.225221925123 24.362020956409367 106.77652202515175 H 0.0 **** 0.06
27214 H 131.9483950254792 25.468699858644 108.1432501736249 H 0.0 **** 0.06
27215 H 132.96834883246743 25.97947273334227 106.77704689208447 H 0.0 **** 0.06
27216 C 153.16421102652598 1.4346234522467398 33.55907711272434 C 0.0 **** -0.24
27217 H 154.12812504136778 1.2739439143220181 33.076190449023755 H 0.0 **** 0.06
27218 H 152.41145012481962 1.657814732115071 32.8016588563863 H 0.0 **** 0.06
27219 H 153.24115358996326 2.27275603036486 34.25191281073546 H 0.0 **** 0.06
27220 H 152.87652420233485 0.5363404586989304 34.104483011626 H 0.0 **** 0.06
27221 C 122.40785730383412 29.29054512242803 115.42758020407608 C 0.0 **** -0.24
27222 H 122.34480925469173 28.87842698285081 114.41997001858668 H 0.0 **** 0.06
27223 H 123.27576801945129 29.946007295397578 115.49728665577216 H 0.0 **** 0.06
27224 H 122.50685341276763 28.477003234599124 116.14692856969673 H 0.0 **** 0.06
27225 H 121.50374077521137 29.858892817871862 115.6437880697615 H 0.0 **** 0.06
27226 C 137.02639722374647 119.56663264411829 106.31856532888987 C 0.0 **** -0.24
27227 H 137.37577649945104 118.53579316740836 106.38002082571673 H 0.0 **** 0.06
27228 H 137.8511766467235 120.24316125451917 106.54192514024747 H 0.0 **** 0.06
27229 H 136.22359219848187 119.7210948656148 107.03925470238404 H 0.0 **** 0.06
27230 H 136.65555453669117 119.7649030419558 105.31355877076315 H 0.0 **** 0.06
27231 C 59.29248362311722 99.68926450539095 6.891956070449908 C 0.0 **** -0.24
27232 H 59.06789209177923 98.85241731524474 6.230737429615715 H 0.0 **** 0.06
27233 H 58.3934720867921 100.29093263886733 7.032876084321572 H 0.0 **** 0.06
27234 H 60.075351273537166 100.30301938194094 6.4489201899099555 H 0.0 **** 0.06
27235 H 59.63042289684894 99.30841989137309 7.856307735914356 H 0.0 **** 0.06
27236 C 13.924378513934755 88.81849949817456 27.180837959840545 C 0.0 **** -0.24
27237 H 13.489589711284623 88.94944051257403 26.190633550138784 H 0.0 **** 0.06
27238 H 14.369568143539112 87.82667229651588 27.25479499773519 H 0.0 **** 0.06
27239 H 13.145484340711874 88.92466791946038 27.936512382631236 H 0.0 **** 0.06
27240 H 14.692237037414372 89.57495841472354 27.34377007982306 H 0.0 **** 0.06
27241 C 151.65847075832926 127.06151569702014 59.6812340308074 C 0.0 **** -0.24
27242 H 151.0929346040138 126.25812245293467 60.15171971244318 H 0.0 **** 0.06
27243 H 151.64976125293487 126.92815484996306 58.59906365246097 H 0.0 **** 0.06
27244 H 152.68734471620365 127.04107166498169 60.04116194849266 H 0.0 **** 0.06
27245 H 151.20515883177814 128.0207686647666 59.93277873700272 H 0.0 **** 0.06
27246 C 44.39824521342936 50.27759599695355 87.07706115988236 C 0.0 **** -0.24
27247 H 45.47297311701766 50.319043399601995 86.90409968835924 H 0.0 **** 0.06
27248 H 44.20696765081918 49.953596299725675 88.09987626959615 H 0.0 **** 0.06
27249 H 43.94563148772261 49.570909914604854 86.38055322078519 H 0.0 **** 0.06
27250 H 43.96669191321304 51.266357320671716 86.9210211996059 H 0.0 **** 0.06
27251 C 135.88368264969074 92.68721154411494 95.53124457030827 C 0.0 **** -0.24
27252 H 135.51160808356238 91.72687503350573 95.17360929445799 H 0.0 **** 0.06
27253 H 136.59477420989484 93.09297636130131 94.81101376885398 H 0.0 **** 0.06
27254 H 136.3787506539909 92.54902628572913 96.49245847840498 H 0.0 **** 0.06
27255 H 135.04989180972362 93.37845361747418 95.64868332184703 H 0.0 **** 0.06
27256 C 82.3811029399047 104.43486958705358 84.90718512600633 C 0.0 **** -0.24
27257 H 83.00780005556557 104.16752220438025 84.05645087311015 H 0.0 **** 0.06
27258 H 81.85935693454651 105.36840582034682 84.69472359446365 H 0.0 **** 0.06
27259 H 83.00582086321859 104.56135590485371 85.7916716519456 H 0.0 **** 0.06
27260 H 81.65402764198578 103.6436261619022 85.08636654897931 H 0.0 **** 0.06
27261 C 99.2232712884657 47.208892589359436 92.07316082989439 C 0.0 **** -0.24
27262 H 98.33016230746665 46.61978179198792 91.86186831269123 H 0.0 **** 0.06
27263 H 99.9100699814025 46.620041169201755 92.68236135434972 H 0.0 **** 0.06
27264 H 98.94200189720007 48.11328618647616 92.61245612456656 H 0.0 **** 0.06
27265 H 99.70970153428408 47.48045007489219 91.13675397909952 H 0.0 **** 0.06
27266 C 7.403963897248616 17.0443198509453 4.842777782126923 C 0.0 **** -0.24
27267 H 7.197507316621227 16.997122192235672 3.774135329482789 H 0.0 **** 0.06
27268 H 6.95122274358323 17.943511604647192 5.261371056919593 H 0.0 **** 0.06
27269 H 8.481617103392523 17.070097486780284 5.004885023244178 H 0.0 **** 0.06
27270 H 6.98438693053248 16.164842601088296 5.3320738419735605 H 0.0 **** 0.06
27271 C 124.154765812572 80.12382720751937 149.0891593272359 C 0.0 **** -0.24
27272 H 123.92479507402193 79.15747586672916 148.63985404936128 H 0.0 **** 0.06
27273 H 123.44993446231196 80.32662104234724 149.8961594101351 H 0.0 **** 0.06
27274 H 124.07655230207921 80.90420176113676 148.33273758838448 H 0.0 **** 0.06
27275 H 125.16903375737637 80.10556287931736 149.48904262281926 H 0.0 **** 0.06
27276 C 85.68990577388183 133.03843927203977 124.07568445745778 C 0.0 **** -0.24
27277 H 85.55787678178001 132.6628342924622 125.09064649307334 H 0.0 **** 0.06
27278 H 84.73772515078392 133.41125564636513 123.6996796066079 H 0.0 **** 0.06
27279 H 86.04455198462284 132.2318453846 123.43314023816231 H 0.0 **** 0.06
27280 H 86.42051857074733 133.846822799232 124.08065025001758 H 0.0 **** 0.06
27281 C 81.93230743447953 49.97142288176346 54.95551130551274 C 0.0 **** -0.24
27282 H 80.93703252007685 50.16192672528959 54.553366036817636 H 0.0 **** 0.06
27283 H 82.04989949533679 48.90359875868732 55.14179185313071 H 0.0 **** 0.06
27284 H 82.05860106519346 50.519666098092 55.888675246123626 H 0.0 **** 0.06
27285 H 82.68318184427807 50.2998486204433 54.23639250523556 H 0.0 **** 0.06
27286 C 127.73343950372576 137.1153052517656 132.0748106095332 C 0.0 **** -0.24
27287 H 126.91542688960028 137.58330107957906 131.52857358361143 H 0.0 **** 0.06
27288 H 127.54014209691685 137.18332537219575 133.14570232651815 H 0.0 **** 0.06
27289 H 128.66659020117334 137.6262920618004 131.840488429607 H 0.0 **** 0.06
27290 H 127.81071221172918 136.0672270944949 131.78471787973567 H 0.0 **** 0.06
27291 C 150.32207381956755 90.64700056231544 121.44716623854369 C 0.0 **** -0.24
27292 H 149.52173208181108 89.90890209665145 121.48888428590091 H 0.0 **** 0.06
27293 H 150.0008264314879 91.49851898020893 120.84658302249589 H 0.0 **** 0.06
27294 H 151.20711454755883 90.19683757846565 120.99677541780356 H 0.0 **** 0.06
27295 H 150.5594100236746 90.98293907068395 122.45727789656071 H 0.0 **** 0.06
27296 C 52.83158895286063 14.61222917082398 9.872046095386139 C 0.0 **** -0.24
27297 H 53.86727599924943 14.398059196550093 9.606534768387974 H 0.0 **** 0.06
27298 H 52.67623403706817 15.69100168390878 9.885439563847257 H 0.0 **** 0.06
27299 H 52.617561351499205 14.20169465640896 10.859184531341612 H 0.0 **** 0.06
27300 H 52.168153811073026 14.157386376009072 9.136617303047899 H 0.0 **** 0.06
27301 C 53.41193615925067 77.35401854307558 118.27264984596229 C 0.0 **** -0.24
27302 H 53.71329550391559 78.39758485976932 118.1823417294658 H 0.0 **** 0.06
27303 H 53.18277474483392 76.95567647920808 117.28304416905979 H 0.0 **** 0.06
27304 H 52.5276969616055 77.28439063353407 118.90638928357055 H 0.0 **** 0.06
27305 H 54.22463806849834 76.77845375293423 118.71646565303786 H 0.0 **** 0.06
27306 C 103.83203382717709 15.722152352767637 86.00674122766861 C 0.0 **** -0.24
27307 H 102.79992671054056 15.550451067691142 86.31052602660014 H 0.0 **** 0.06
27308 H 104.16030541071613 16.696231458494083 86.36905093832121 H 0.0 **** 0.06
27309 H 103.90014531445924 15.696998487914698 84.91953574895842 H 0.0 **** 0.06
27310 H 104.46893307706112 14.943644659007532 86.42925614657548 H 0.0 **** 0.06
27311 C 114.18120940539895 21.02840563517833 127.22237683915677 C 0.0 **** -0.24
27312 H 113.85402865573026 20.0221662744662 126.96086054464087 H 0.0 **** 0.06
27313 H 115.06993151621548 20.969106391744646 127.85057607227287 H 0.0 **** 0.06
27314 H 113.38573247659023 21.538756448638082 127.7643871145828 H 0.0 **** 0.06
27315 H 114.4153955262933 21.58174083420269 126.31297281052014 H 0.0 **** 0.06
27316 C 2.62971836857605 118.72425305283967 58.02390702746408 C 0.0 **** -0.24
27317 H 1.8829775702115512 119.47606535242288 57.7703777680652 H 0.0 **** 0.06
27318 H 2.8365083553106274 118.10887956709662 57.14885216342509 H 0.0 **** 0.06
27319 H 2.253452836515578 118.09600500080141 58.830260084536064 H 0.0 **** 0.06
27320 H 3.5473016436332614 119.21852260955036 58.34585775144717 H 0.0 **** 0.06
27321 C 104.04448085076591 89.4633530165613 0.7082775359990308 C 0.0 **** -0.24
27322 H 103.75697449106066 89.6304354195439 1.7460651914474852 H 0.0 **** 0.06
27323 H 103.97820645308487 90.4013035817858 0.15723298024025212 H 0.0 **** 0.06
27324 H 103.37487982825236 88.72886212410667 0.2598477225210729 H 0.0 **** 0.06
27325 H 105.06842442370377 89.0916730381788 0.671805371438694 H 0.0 **** 0.06
27326 C 55.21148519695275 114.24888886216769 138.96997907810794 C 0.0 **** -0.24
27327 H 55.664385418033675 113.82523731599292 138.07350574694183 H 0.0 **** 0.06
27328 H 55.73671913678717 115.16439603434804 139.24476743987182 H 0.0 **** 0.06
27329 H 55.28275826778014 113.52974970011275 139.78714659332962 H 0.0 **** 0.06
27330 H 54.16334020639873 114.47506752385908 138.7749279224649 H 0.0 **** 0.06
27331 C 6.802441074317358 38.22176390356245 16.326018096224473 C 0.0 **** -0.24
27332 H 7.1387921820102065 38.59871089566022 15.359536535196682 H 0.0 **** 0.06
27333 H 5.739488891231076 38.43205118561055 16.448049301697196 H 0.0 **** 0.06
27334 H 7.363722765659361 38.71072913258682 17.122138396986543 H 0.0 **** 0.06
27335 H 6.968439148791333 37.14520920599902 16.372021477092943 H 0.0 **** 0.06
27336 C 0.4462302593416325 149.5839156315443 72.58632652106834 C 0.0 **** -0.24
27337 H 1.1345446601182516 148.73953312563907 72.54985543620307 H 0.0 **** 0.06
27338 H 0.2100132686047118 149.81433581212644 73.62494470357257 H 0.0 **** 0.06
27339 H -0.46959028218867616 149.3288898070577 72.052910883891 H 0.0 **** 0.06
27340 H 0.9103251517099125 150.45142213219754 72.11630407655352 H 0.0 **** 0.06
27341 C 56.91994595638653 59.03986773394955 49.006272136633385 C 0.0 **** -0.24
27342 H 56.52139566850167 59.38945615627887 49.95881152337519 H 0.0 **** 0.06
27343 H 56.10224929590362 58.90647581018062 48.297570890733766 H 0.0 **** 0.06
27344 H 57.43263027291613 58.08956026498461 49.15347662261017 H 0.0 **** 0.06
27345 H 57.623746410669696 59.77470560868949 48.61587377926254 H 0.0 **** 0.06
27346 C 12.362232097027857 15.751374990297705 33.021131405654046 C 0.0 **** -0.24
27347 H 12.9128969801057 16.51884177361069 33.566714261474516 H 0.0 **** 0.06
27348 H 12.091730578025363 16.13011060065972 32.03496916235582 H 0.0 **** 0.06
27349 H 11.457510982737091 15.493826270329947 33.571906347533215 H 0.0 **** 0.06
27350 H 12.986863976015798 14.865417111369027 32.912866538561445 H 0.0 **** 0.06
27351 C 26.499976034889897 115.32950748814585 17.3046843459676 C 0.0 **** -0.24
27352 H 26.871776378079517 115.58123991148284 16.311979490918468 H 0.0 **** 0.06
27353 H 25.705492392772612 114.58793997345106 17.217891185122106 H 0.0 **** 0.06
27354 H 26.109333777735344 116.22760906977925 17.784351819356914 H 0.0 **** 0.06
27355 H 27.31379927935015 114.92210147592465 17.904405726455472 H 0.0 **** 0.06
27356 C 61.679880267009935 109.31767959186699 30.784737513006178 C 0.0 **** -0.24
27357 H 61.617936707905926 108.50512866444565 31.509014169275957 H 0.0 **** 0.06
27358 H 61.72642763603295 108.90297355928651 29.77742031176315 H 0.0 **** 0.06
27359 H 62.57490585664135 109.90859217052626 30.976912327501964 H 0.0 **** 0.06
27360 H 60.79840110147819 109.95325497239897 30.87659680592104 H 0.0 **** 0.06
27361 C 3.833504657885854 156.97082675802275 103.35895662278402 C 0.0 **** -0.24
27362 H 3.2443568298950716 157.685606730253 102.78383131380461 H 0.0 **** 0.06
27363 H 3.209049533006489 156.11917332903062 103.6275527548549 H 0.0 **** 0.06
27364 H 4.203167624526486 157.45164397736255 104.26470922018702 H 0.0 **** 0.06
27365 H 4.676167481042789 156.62936283911714 102.75862888222979 H 0.0 **** 0.06
27366 C 128.0516424609359 135.59274067430513 70.04199324028019 C 0.0 **** -0.24
27367 H 128.80817668659108 136.34634995539918 70.26000396956039 H 0.0 **** 0.06
27368 H 128.4610674796807 134.6002186681335 70.23044189880045 H 0.0 **** 0.06
27369 H 127.7532086944824 135.67049177652328 68.99587289877181 H 0.0 **** 0.06
27370 H 127.18353764107269 135.75499077386638 70.68096162882 H 0.0 **** 0.06
27371 C 32.15383374379695 100.99567020662171 26.989720310111068 C 0.0 **** -0.24
27372 H 31.625157202137224 100.83229579625414 27.9290400643647 H 0.0 **** 0.06
27373 H 31.43372597475016 101.22560775901785 26.203278797292626 H 0.0 **** 0.06
27374 H 32.7068951768088 100.09454017215474 26.72286563690443 H 0.0 **** 0.06
27375 H 32.84783861285868 101.82821899768301 27.102708828138987 H 0.0 **** 0.06
27376 C 124.70210911552472 94.89465783059003 76.28733454095088 C 0.0 **** -0.24
27377 H 124.20829395628836 95.49349248315912 75.52131668510054 H 0.0 **** 0.06
27378 H 123.97300639396859 94.59738100792401 77.0411305249448 H 0.0 **** 0.06
27379 H 125.49045375482295 95.48294120184858 76.75506097623044 H 0.0 **** 0.06
27380 H 125.13532793387388 94.0055722259628 75.8287323974373 H 0.0 **** 0.06
27381 C 131.29891621296704 68.23224963623979 7.31631046069657 C 0.0 **** -0.24
27382 H 131.38637063294715 67.46891401533847 8.089523321517078 H 0.0 **** 0.06
27383 H 130.49169841800423 68.9184777580922 7.572152331516975 H 0.0 **** 0.06
27384 H 131.08236262409864 67.75602613603452 6.359774831603374 H 0.0 **** 0.06
27385 H 132.23661565320185 68.78303951800369 7.24299651609175 H 0.0 **** 0.06
27386 C 61.19978758857353 7.024871127810002 67.31381287897455 C 0.0 **** -0.24
27387 H 60.85700887715515 7.248876189579519 68.32419754484644 H 0.0 **** 0.06
27388 H 62.28526623678282 6.930773605540125 67.31015226966736 H 0.0 **** 0.06
27389 H 60.90139666099442 7.830721279214863 66.64328170372588 H 0.0 **** 0.06
27390 H 60.75214779333527 6.0888547193194995 66.9789762250735 H 0.0 **** 0.06
27391 C 22.471226291682683 105.41018054722973 132.98359694586838 C 0.0 **** -0.24
27392 H 22.90702329746506 104.48223243561908 132.61456860923175 H 0.0 **** 0.06
27393 H 21.421255201400584 105.45937289303602 132.69291923008248 H 0.0 **** 0.06
27394 H 23.00718707740384 106.25829394988774 132.55598683638496 H 0.0 **** 0.06
27395 H 22.549439590461475 105.44082291037627 134.07091310777423 H 0.0 **** 0.06
27396 C 78.46482561124716 139.2547210473274 151.14617904583753 C 0.0 **** -0.24
27397 H 78.83717974486383 138.3872319319388 150.60046874389036 H 0.0 **** 0.06
27398 H 77.37466652323116 139.26080198728008 151.1194790144441 H 0.0 **** 0.06
27399 H 78.84470917792167 140.16516035493106 150.68253541498393 H 0.0 **** 0.06
27400 H 78.80341268578167 139.20559998651112 152.18098848642467 H 0.0 **** 0.06
27401 C 39.7364740397378 90.18939220297155 123.14661179979866 C 0.0 **** -0.24
27402 H 40.427821524159896 90.5471139831464 122.38307628574667 H 0.0 **** 0.06
27403 H 40.189642526109765 90.30928738901332 124.13093652041876 H 0.0 **** 0.06
27404 H 39.517783281818595 89.13562805496873 122.97223243815081 H 0.0 **** 0.06
27405 H 38.8126119624464 90.76561133792536 123.09772380094482 H 0.0 **** 0.06
27406 C 73.78121378429682 17.99601326020195 100.10274364981775 C 0.0 **** -0.24
27407 H 73.46456596604216 17.44653077316775 99.21659930185172 H 0.0 **** 0.06
27408 H 73.34349401506856 17.53760856161091 100.99013321620372 H 0.0 **** 0.06
27409 H 73.44708500449372 19.031285480338454 100.02719172380314 H 0.0 **** 0.06
27410 H 74.86802217473968 17.969693936388126 100.17846993135713 H 0.0 **** 0.06
27411 C 119.99154803711248 135.33933480429525 53.236254302110794 C 0.0 **** -0.24
27412 H 119.4820212422273 134.42102597009517 52.94214030378028 H 0.0 **** 0.06
27413 H 119.44885121256026 135.80726790844386 54.05806599724238 H 0.0 **** 0.06
27414 H 120.02636376138209 136.02163601875458 52.38697838323988 H 0.0 **** 0.06
27415 H 121.00613486788428 135.10436122345982 53.555895674319416 H 0.0 **** 0.06
27416 C 39.784894281195434 140.9804426531204 9.156549934814507 C 0.0 **** -0.24
27417 H 40.81190940903562 140.97630794875954 8.788905320705567 H 0.0 **** 0.06
27418 H 39.779339254583235 140.7317663487067 10.21821369402187 H 0.0 **** 0.06
27419 H 39.19998112849947 140.2423536545008 8.607250451724099 H 0.0 **** 0.06
27420 H 39.351376724534646 141.96917781607627 9.011460557856935 H 0.0 **** 0.06
27421 C 37.157831847205514 0.5903907639999559 56.9097969158027 C 0.0 **** -0.24
27422 H 37.392085427940685 1.4881295307681128 57.481739248508376 H 0.0 **** 0.06
27423 H 37.27454092239297 -0.287260635025099 57.545223284646056 H 0.0 **** 0.06
27424 H 37.834180044280416 0.5153300172466224 56.05832133110562 H 0.0 **** 0.06
27425 H 36.12922058774686 0.6463999605569093 56.55240841010715 H 0.0 **** 0.06
27426 C 140.97939577371142 98.61268476334484 49.60960740833448 C 0.0 **** -0.24
27427 H 141.35010676655355 99.07662346945209 48.69565177271933 H 0.0 **** 0.06
27428 H 141.1042630627344 97.53187211185242 49.54500990324057 H 0.0 **** 0.06
27429 H 139.92323625422696 98.85101970849314 49.73570735618141 H 0.0 **** 0.06
27430 H 141.54178233626362 98.99345777225 50.46292679984788 H 0.0 **** 0.06
27431 C 49.82728332395915 87.57954326104733 96.02262428329857 C 0.0 **** -0.24
27432 H 49.55632725709458 88.12313481930202 96.92700288577623 H 0.0 **** 0.06
27433 H 49.42543070297877 86.56817140709089 96.07218306854065 H 0.0 **** 0.06
27434 H 50.913609423738464 87.5357071422058 95.93750255424811 H 0.0 **** 0.06
27435 H 49.41549064842492 88.09256102495638 95.15405695314848 H 0.0 **** 0.06
27436 C 148.62123940772216 16.760567755626425 154.73885180031368 C 0.0 **** -0.24
27437 H 147.95018924996782 16.378406014634947 155.50826961200488 H 0.0 **** 0.06
27438 H 148.6759157377724 16.04714951558026 153.91753667622157 H 0.0 **** 0.06
27439 H 149.61460777900695 16.904487872031893 155.1629684425427 H 0.0 **** 0.06
27440 H 148.24285691072578 17.71347744559182 154.36875656614018 H 0.0 **** 0.06
27441 C 54.82412905740587 43.954443761590795 46.85534309556722 C 0.0 **** -0.24
27442 H 55.55490971085787 44.76093753826484 46.79129536982971 H 0.0 **** 0.06
27443 H 53.8688151123781 44.29799011767096 46.45741990237718 H 0.0 **** 0.06
27444 H 54.69875773848325 43.65994407340875 47.89765622603126 H 0.0 **** 0.06
27445 H 55.1739926353834 43.10018980622567 46.27558682511287 H 0.0 **** 0.06
27446 C 27.564841909619012 23.011258721938894 81.44975136944373 C 0.0 **** -0.24
27447 H 26.583227253613444 23.40319067771189 81.71608702339779 H 0.0 **** 0.06
27448 H 27.585657515900387 22.776509290870983 80.38515420974733 H 0.0 **** 0.06
27449 H 27.764163058039422 22.108279201435288 82.02649804220869 H 0.0 **** 0.06
27450 H 28.32604297773419 23.75948929250034 81.67130187532882 H 0.0 **** 0.06
27451 C 27.741889522369036 80.24434812648403 27.218886991353763 C 0.0 **** -0.24
27452 H 27.05375411781796 80.30637462212792 26.37602458271391 H 0.0 **** 0.06
27453 H 28.690332335677226 80.70834656174969 26.94814291612051 H 0.0 **** 0.06
27454 H 27.907697514038205 79.19828822182171 27.476363309482693 H 0.0 **** 0.06
27455 H 27.313154040177096 80.76581960884721 28.075285312838226 H 0.0 **** 0.06
27456 C 10.4788640988221 91.8153931383819 74.98418265315685 C 0.0 **** -0.24
27457 H 10.76564456297183 91.05456152400305 74.2586760230307 H 0.0 **** 0.06
27458 H 9.392643294347948 91.83159628528927 75.08373945309691 H 0.0 **** 0.06
27459 H 10.827133555612335 92.7908372118907 74.64563591631564 H 0.0 **** 0.06
27460 H 10.928284976408378 91.58461297166963 75.95039281830923 H 0.0 **** 0.06
27461 C 9.970984658237931 41.753212632193765 121.33925944585876 C 0.0 **** -0.24
27462 H 10.640400554395484 41.00989475184805 121.77116166596936 H 0.0 **** 0.06
27463 H 8.99967249857567 41.298090501019416 121.14586037266001 H 0.0 **** 0.06
27464 H 10.392412434750362 42.12136197194778 120.40339172412597 H 0.0 **** 0.06
27465 H 9.85271549942324 42.58358400831082 122.03544078513723 H 0.0 **** 0.06
27466 C 11.682811531482685 49.66939640887307 61.7013131471887 C 0.0 **** -0.24
27467 H 11.903412188962989 50.689871509798465 62.01325956040644 H 0.0 **** 0.06
27468 H 11.144188852366142 49.15422300948269 62.49759494238229 H 0.0 **** 0.06
27469 H 12.615021482464783 49.14318690093346 61.493840594973506 H 0.0 **** 0.06
27470 H 11.068401791598205 49.68933809574922 60.80042540885347 H 0.0 **** 0.06
27471 C 49.38389679216323 78.39822423835166 16.721530139334554 C 0.0 **** -0.24
27472 H 48.54434861036944 78.40601532318503 17.415975810164362 H 0.0 **** 0.06
27473 H 49.4384648264421 77.42716315087733 16.228265096604268 H 0.0 **** 0.06
27474 H 50.30949264234471 78.58158909570064 17.268180262591393 H 0.0 **** 0.06
27475 H 49.244557507802085 79.17838921081359 15.97314865097156 H 0.0 **** 0.06
27476 C 87.42930077491077 116.29701996008254 119.66379242213237 C 0.0 **** -0.24
27477 H 86.51724982369502 116.13475714150422 120.23758113611528 H 0.0 **** 0.06
27478 H 87.58809212542167 117.36709456605803 119.52915095193391 H 0.0 **** 0.06
27479 H 87.33604179356121 115.81746254163772 118.69027351586818 H 0.0 **** 0.06
27480 H 88.2769097509824 115.86870779563725 120.20077329157287 H 0.0 **** 0.06
27481 C 72.60627419153418 110.59255699806364 70.99946372348255 C 0.0 **** -0.24
27482 H 72.34948576293063 110.70909248929767 69.94599711618743 H 0.0 **** 0.06
27483 H 73.36649815385643 111.3265497573032 71.27111958122495 H 0.0 **** 0.06
27484 H 72.99320784893892 109.58837578652891 71.16975487858379 H 0.0 **** 0.06
27485 H 71.71642464137388 110.74819097428586 71.60963953688845 H 0.0 **** 0.06
27486 C 119.34604311538472 94.37083222196736 109.3015880164654 C 0.0 **** -0.24
27487 H 119.75242681758745 93.4190785696006 108.96007238428824 H 0.0 **** 0.06
27488 H 118.91286709207934 94.90542736175149 108.4552646194597 H 0.0 **** 0.06
27489 H 120.14428992121454 94.97077446094647 109.73962117413284 H 0.0 **** 0.06
27490 H 118.5753586375646 94.18951749832041 110.04989412698829 H 0.0 **** 0.06
27491 C 133.99399065110939 55.40331026894397 149.91473964654165 C 0.0 **** -0.24
27492 H 133.00085166832037 55.82533059555779 149.76231110103632 H 0.0 **** 0.06
27493 H 134.62527600986746 56.13505071089003 150.42098411552104 H 0.0 **** 0.06
27494 H 134.4335864591899 55.15014488522317 148.94971192580826 H 0.0 **** 0.06
27495 H 133.91755476787506 54.504516121672395 150.52617344414637 H 0.0 **** 0.06
27496 C 57.736739442082026 26.606368349150614 143.3187220794108 C 0.0 **** -0.24
27497 H 58.34107032737775 25.86920829431091 143.84882297107802 H 0.0 **** 0.06
27498 H 57.54933714535274 26.258694540578517 142.30172107438852 H 0.0 **** 0.06
27499 H 58.269458036298616 27.55611719155013 143.28615419979855 H 0.0 **** 0.06
27500 H 56.78797419136383 26.738340881299678 143.83892148673067 H 0.0 **** 0.06
27501 C 153.15564207067808 117.39386583850431 89.60009918260721 C 0.0 **** -0.24
27502 H 152.4114473944281 116.63092209327986 89.83068718825308 H 0.0 **** 0.06
27503 H 152.65607957760508 118.27920050634957 89.20408961088532 H 0.0 **** 0.06
27504 H 153.85407628108553 117.00693806366895 88.85844750927299 H 0.0 **** 0.06
27505 H 153.69799577296487 117.65802052242101 90.50736672953792 H 0.0 **** 0.06
27506 C 134.32300865161585 56.47027086349493 13.424604904008298 C 0.0 **** -0.24
27507 H 133.72202493831733 55.66621789436908 13.000787674219751 H 0.0 **** 0.06
27508 H 134.31496505630793 57.3257756865321 12.749303885516035 H 0.0 **** 0.06
27509 H 135.34749032776605 56.12397992046385 13.56153026028435 H 0.0 **** 0.06
27510 H 133.90787240417464 56.764201119177415 14.389050131841039 H 0.0 **** 0.06
27511 C 49.41477460404603 68.80230512579553 153.37447712750125 C 0.0 **** -0.24
27512 H 49.891948542685185 69.77708704017068 153.27685079531335 H 0.0 **** 0.06
27513 H 49.35014644895679 68.33023601753875 152.3934156231023 H 0.0 **** 0.06
27514 H 48.41203578670242 68.92822035781496 153.7837923054242 H 0.0 **** 0.06
27515 H 50.00419449914422 68.17522816947624 154.04211871798412 H 0.0 **** 0.06
27516 C 149.36639764625272 111.71932140894499 92.74916139948772 C 0.0 **** -0.24
27517 H 150.38525151498814 111.82993929675287 93.12297580677195 H 0.0 **** 0.06
27518 H 148.6853591476189 112.29751862002435 93.37390953305862 H 0.0 **** 0.06
27519 H 149.08246088658296 110.6670614060147 92.7785636855866 H 0.0 **** 0.06
27520 H 149.3157408012716 112.0817150982838 91.7227826465295 H 0.0 **** 0.06
27521 C 121.51173785897423 87.90110369908865 42.27199094050064 C 0.0 **** -0.24
27522 H 121.27920292445556 87.52214504561881 43.267163042473555 H 0.0 **** 0.06
27523 H 121.21565148551706 87.16545345575055 41.524413360862866 H 0.0 **** 0.06
27524 H 122.58398700401183 88.08638429670195 42.1955932954686 H 0.0 **** 0.06
27525 H 120.96957114703876 88.83068677023013 42.10246749301942 H 0.0 **** 0.06
27526 C 45.6632535449732 14.658702875911011 150.547048648667 C 0.0 **** -0.24
27527 H 46.29569550072165 15.345135043272414 149.98342843319176 H 0.0 **** 0.06
27528 H 46.013439368540844 13.637478489716479 150.39817857202786 H 0.0 **** 0.06
27529 H 44.633970466620355 14.744344973667317 150.19954263752172 H 0.0 **** 0.06
27530 H 45.711960311074904 14.908979994522632 151.6063227644613 H 0.0 **** 0.06
27531 C 77.74884295301278 24.894927824259128 60.855336006652095 C 0.0 **** -0.24
27532 H 76.98123683357052 24.66618194505827 61.593786274807655 H 0.0 **** 0.06
27533 H 78.52817504250584 24.13402857585163 60.89383911785764 H 0.0 **** 0.06
27534 H 78.18169992569 25.87105209051296 61.07152548529696 H 0.0 **** 0.06
27535 H 77.30314474627284 24.907226351911362 59.86068907110413 H 0.0 **** 0.06
27536 C 3.1764650370495673 10.421642598920414 47.22413441268185 C 0.0 **** -0.24
27537 H 3.2451754745104964 11.199057313316473 47.98532421936085 H 0.0 **** 0.06
27538 H 2.4554959616974017 9.667547875520313 47.54016671967338 H 0.0 **** 0.06
27539 H 4.153182362052135 9.957639520018404 47.090571510898315 H 0.0 **** 0.06
27540 H 2.8516564390127286 10.8639798862024 46.282247595239284 H 0.0 **** 0.06
27541 C 40.34141595680687 130.28240436636534 18.642138827390433 C 0.0 **** -0.24
27542 H 41.30823035486422 130.19907016487014 19.13938527387166 H 0.0 **** 0.06
27543 H 39.544534564857685 130.18816289607224 19.379183759589978 H 0.0 **** 0.06
27544 H 40.24631861274476 129.489815415698 17.899595267670136 H 0.0 **** 0.06
27545 H 40.26970956771645 131.25232398584419 18.150775650870784 H 0.0 **** 0.06
27546 C 85.76153992056688 54.29942839911999 77.97230352495816 C 0.0 **** -0.24
27547 H 85.0389366901738 54.71269001183083 77.26926081437773 H 0.0 **** 0.06
27548 H 86.32889848292452 53.50536207169711 77.48560994612555 H 0.0 **** 0.06
27549 H 85.23529173912192 53.893299501317614 78.83662514790657 H 0.0 **** 0.06
27550 H 86.44205604683317 55.08506563806719 78.29832277804644 H 0.0 **** 0.06
27551 C 54.23295878136197 63.07695691474453 92.8119103118947 C 0.0 **** -0.24
27552 H 53.775035464806166 62.10654617805696 92.62061497604671 H 0.0 **** 0.06
27553 H 53.735045454345865 63.55244863920183 93.65718814960219 H 0.0 **** 0.06
27554 H 54.131045183371654 63.70665460050466 91.928245724337 H 0.0 **** 0.06
27555 H 55.28978661606729 62.94003797646121 93.04234647164363 H 0.0 **** 0.06
27556 C 101.62458785481624 126.73314812068901 91.39279469819263 C 0.0 **** -0.24
27557 H 100.97101678097005 126.4930407069744 92.23164031229956 H 0.0 **** 0.06
27558 H 102.66342979272628 126.5911695653619 91.69058856421043 H 0.0 **** 0.06
27559 H 101.46889411716018 127.77142833986494 91.09833528516026 H 0.0 **** 0.06
27560 H 101.39244592637112 126.07880062731164 90.55326261775738 H 0.0 **** 0.06
27561 C 113.6372039174124 6.835552874103513 156.02197015567532 C 0.0 **** -0.24
27562 H 114.35166292829557 7.1100027749023695 155.2445897406658 H 0.0 **** 0.06
27563 H 113.00261089044552 6.02666268150989 155.66144695077355 H 0.0 **** 0.06
27564 H 113.0205519795456 7.699893117233728 156.26976447288695 H 0.0 **** 0.06
27565 H 114.1771523165212 6.507193954642133 156.90992894338387 H 0.0 **** 0.06
27566 C 144.724010601175 100.7401319050358 17.06686888976367 C 0.0 **** -0.24
27567 H 145.6189519847929 100.96232722576339 16.484362341038604 H 0.0 **** 0.06
27568 H 144.327908696055 101.66467770108586 17.488808548150587 H 0.0 **** 0.06
27569 H 144.97740917461977 100.05118166036287 17.87287224429093 H 0.0 **** 0.06
27570 H 143.97395248260284 100.28457118323168 16.420303409106623 H 0.0 **** 0.06
27571 C 114.80431785750709 70.85056256476352 19.196480101608813 C 0.0 **** -0.24
27572 H 114.75571325817366 70.64624272652316 20.265512668864034 H 0.0 **** 0.06
27573 H 115.7352478050595 71.37097509115955 18.96822157779718 H 0.0 **** 0.06
27574 H 113.95854428712055 71.47460151979803 18.907275795127646 H 0.0 **** 0.06
27575 H 114.76767046415297 69.91127408686413 18.645439479486953 H 0.0 **** 0.06
27576 C 154.9734724937134 93.34042291672804 113.07925465323996 C 0.0 **** -0.24
27577 H 155.276906964841 94.35718900228734 112.82968718290192 H 0.0 **** 0.06
27578 H 155.79259195169527 92.65408902735759 112.86222283564905 H 0.0 **** 0.06
27579 H 154.1017545916059 93.06563945822907 112.4854477671459 H 0.0 **** 0.06
27580 H 154.7244634340725 93.2859445053371 114.1385238479694 H 0.0 **** 0.06
27581 C 111.77526199266481 97.0948840292981 78.37227834809295 C 0.0 **** -0.24
27582 H 112.36898559912294 96.43861847185428 79.00769351208989 H 0.0 **** 0.06
27583 H 110.71721642592104 96.95165854595632 78.59029140091448 H 0.0 **** 0.06
27584 H 111.96657163967848 96.85733478355706 77.32616811383163 H 0.0 **** 0.06
27585 H 112.04931038498177 98.13206081517569 78.56591324183377 H 0.0 **** 0.06
27586 C 16.82209015119654 70.32908131273427 148.14001668569188 C 0.0 **** -0.24
27587 H 17.559367167742515 71.0367963221882 148.51752787746858 H 0.0 **** 0.06
27588 H 15.983311906021804 70.27276186566827 148.83478059464863 H 0.0 **** 0.06
27589 H 17.27972087322496 69.34421149514274 148.04251662564093 H 0.0 **** 0.06
27590 H 16.464599265626127 70.66217491451373 147.16519946173753 H 0.0 **** 0.06
27591 C 14.087505128252047 78.81084897456492 0.598362896000026 C 0.0 **** -0.24
27592 H 15.086813540973282 78.77196013963405 1.0302309062125516 H 0.0 **** 0.06
27593 H 13.417836190188268 78.17145531451949 1.1737600983151992 H 0.0 **** 0.06
27594 H 14.12497397723476 78.46384982396383 -0.43405481634837884 H 0.0 **** 0.06
27595 H 13.72066635447527 79.83748063085943 0.6231915454946488 H 0.0 **** 0.06
27596 C 115.53827376518056 107.22211449720895 23.428947290301636 C 0.0 **** -0.24
27597 H 116.0789071063078 108.13518446864988 23.681681430963522 H 0.0 **** 0.06
27598 H 116.07174812141564 106.69134695985893 22.640011536267707 H 0.0 **** 0.06
27599 H 114.53733004699062 107.47823574200932 23.08134513419762 H 0.0 **** 0.06
27600 H 115.46603903237407 106.58746458608725 24.311374204172182 H 0.0 **** 0.06
27601 C 57.056283599056584 102.03406541795819 126.58363477579381 C 0.0 **** -0.24
27602 H 56.85459939134881 103.04519455929555 126.22955424584244 H 0.0 **** 0.06
27603 H 57.25649815591218 101.38500426661615 125.7304844602735 H 0.0 **** 0.06
27604 H 56.18817881389373 101.6611429866498 127.12888121006874 H 0.0 **** 0.06
27605 H 57.92270095818685 102.04596040806727 127.24390146191338 H 0.0 **** 0.06
27606 C 146.97539663356662 102.53779997526613 48.28943977066808 C 0.0 **** -0.24
27607 H 147.99063919540583 102.899743185195 48.124275144623766 H 0.0 **** 0.06
27608 H 146.729301418947 101.7909306109234 47.53374670278805 H 0.0 **** 0.06
27609 H 146.27673964750022 103.37138863194286 48.21963267492214 H 0.0 **** 0.06
27610 H 146.90804581617385 102.08875878121307 49.28011808815353 H 0.0 **** 0.06
27611 C 61.920512817704235 143.22922735661416 99.12874911095125 C 0.0 **** -0.24
27612 H 62.95584154333139 143.01341485003647 99.39480192676251 H 0.0 **** 0.06
27613 H 61.89963650822051 143.9279324396435 98.29222830000828 H 0.0 **** 0.06
27614 H 61.41024665581227 143.67038519631288 99.98460064895848 H 0.0 **** 0.06
27615 H 61.41852074315065 142.3047662283909 98.84349615825114 H 0.0 **** 0.06
27616 C 94.32301740280259 10.793477508104615 6.493242435715615 C 0.0 **** -0.24
27617 H 94.69137212963571 11.074236958834518 7.480538052498275 H 0.0 **** 0.06
27618 H 94.89999511184621 11.313780503663821 5.728480250829023 H 0.0 **** 0.06
27619 H 93.2720677452928 11.069364899047855 6.407781159124454 H 0.0 **** 0.06
27620 H 94.42842335728389 9.716984856212207 6.359448497274002 H 0.0 **** 0.06
27621 C 97.16720991604336 16.527307451868808 98.44570189940782 C 0.0 **** -0.24
27622 H 97.25811087274246 16.117684340887763 99.45192782259323 H 0.0 **** 0.06
27623 H 97.20535136436888 15.715891045511455 97.71828981190743 H 0.0 **** 0.06
27624 H 97.98649575749221 17.220939496597197 98.26044823251908 H 0.0 **** 0.06
27625 H 96.21677653625466 17.054174312630806 98.3526673876319 H 0.0 **** 0.06
27626 C 46.735019260368404 150.05242076727657 28.931456243105316 C 0.0 **** -0.24
27627 H 45.82201483007563 150.62756879681172 29.079074881345235 H 0.0 **** 0.06
27628 H 47.57752726216138 150.58862198743648 29.368728702433998 H 0.0 **** 0.06
27629 H 46.90820861732749 149.91256891082872 27.864804214640145 H 0.0 **** 0.06
27630 H 46.63360298514287 149.07946646119592 29.413714860363598 H 0.0 **** 0.06
27631 C 91.24531846187779 99.30504388221189 127.0515406457255 C 0.0 **** -0.24
27632 H 90.79989594351598 98.36317338208215 127.37260672699803 H 0.0 **** 0.06
27633 H 92.31597136512472 99.1658627839561 126.89701006361854 H 0.0 **** 0.06
27634 H 91.08388868414008 100.06334637266995 127.81879515689279 H 0.0 **** 0.06
27635 H 90.78162593853008 99.62682147207003 126.11877266065297 H 0.0 **** 0.06
27636 C 60.77769791751848 33.0775274817064 82.13310948670691 C 0.0 **** -0.24
27637 H 61.66442622433539 32.78281811297995 81.5728212259539 H 0.0 **** 0.06
27638 H 59.93473866876852 33.18658354757915 81.45012399793922 H 0.0 **** 0.06
27639 H 60.964072908982274 34.026645870691766 82.63540054710337 H 0.0 **** 0.06
27640 H 60.54730683495214 32.313476381971356 82.87570328116134 H 0.0 **** 0.06
27641 C 113.47411844607116 136.57837831097584 1.3481583694651889 C 0.0 **** -0.24
27642 H 113.53761972345306 136.15368759531188 0.3459677304396891 H 0.0 **** 0.06
27643 H 112.82610826789674 137.4551230558202 1.3296878606422204 H 0.0 **** 0.06
27644 H 114.47042675738005 136.869212303982 1.6823215537060499 H 0.0 **** 0.06
27645 H 113.06363328298004 135.83558208165837 2.0325912609016292 H 0.0 **** 0.06
27646 C 84.25873989446161 53.43231850515963 82.91711869000513 C 0.0 **** -0.24
27647 H 84.48144581193837 53.7495307044143 83.93650978650007 H 0.0 **** 0.06
27648 H 85.12273349399129 52.913913215534066 82.50119599215945 H 0.0 **** 0.06
27649 H 84.0316366455521 54.3068207805223 82.30659302523476 H 0.0 **** 0.06
27650 H 83.39997860085143 52.76120192074899 82.9248798848124 H 0.0 **** 0.06
27651 C 49.11124070013247 25.914417234162315 155.68647398929315 C 0.0 **** -0.24
27652 H 49.187069380159244 25.725265926320148 156.75671575050822 H 0.0 **** 0.06
27653 H 49.589263366673194 25.102385889637475 155.1392317457043 H 0.0 **** 0.06
27654 H 49.608354373019296 26.85517614109584 155.44756107003815 H 0.0 **** 0.06
27655 H 48.061157224236 25.977633053369885 155.40173355765356 H 0.0 **** 0.06
27656 C 133.23588275985767 60.225850944609704 125.71239644826441 C 0.0 **** -0.24
27657 H 133.06711444101865 60.19151019875238 126.78862766569735 H 0.0 **** 0.06
27658 H 134.07270338649084 60.89064885917149 125.49734376922554 H 0.0 **** 0.06
27659 H 132.3394657570886 60.59716338698907 125.21586417902851 H 0.0 **** 0.06
27660 H 133.46434172196825 59.224039241211074 125.34874485216484 H 0.0 **** 0.06
27661 C 31.32910716201951 134.21043791516877 2.233055192671827 C 0.0 **** -0.24
27662 H 31.507102758362066 135.282103269096 2.3167664652999065 H 0.0 **** 0.06
27663 H 30.595589763758767 134.0249187491737 1.4478141035644398 H 0.0 **** 0.06
27664 H 30.950660635895645 133.82890864117616 3.1818593562122146 H 0.0 **** 0.06
27665 H 32.26267192235625 133.70569577803303 1.9844312096014676 H 0.0 **** 0.06
27666 C 4.963126849325995 37.74940498298258 8.216486775677197 C 0.0 **** -0.24
27667 H 5.045144846064673 38.83430762192371 8.285638760332688 H 0.0 **** 0.06
27668 H 5.79766963799517 37.28814678622291 8.744856807398094 H 0.0 **** 0.06
27669 H 4.986002911667228 37.44975954329591 7.168056991036963 H 0.0 **** 0.06
27670 H 4.024787865131387 37.42700268373886 8.666899201087858 H 0.0 **** 0.06
27671 C 117.24174931473657 47.28640612529597 2.4385169964469675 C 0.0 **** -0.24
27672 H 116.48828663842862 47.98110740189577 2.0692206967282054 H 0.0 **** 0.06
27673 H 117.40800804364021 47.46305147657182 3.501408402788293 H 0.0 **** 0.06
27674 H 118.17412687167284 47.437447337048525 1.8943705831374409 H 0.0 **** 0.06
27675 H 116.89585347205544 46.262435940217244 2.2904735521871906 H 0.0 **** 0.06
27676 C 41.92381339459273 141.52483022294976 18.009171403935532 C 0.0 **** -0.24
27677 H 41.70443138937678 142.03872150317994 17.07303040265871 H 0.0 **** 0.06
27678 H 41.10524468030964 141.68426916209356 18.711076780176754 H 0.0 **** 0.06
27679 H 42.847484171568425 141.91858579363395 18.431637345016696 H 0.0 **** 0.06
27680 H 42.03695979153308 140.4572310147622 17.81908322918072 H 0.0 **** 0.06
27681 C 3.809658697066368 64.28418308514523 29.97828620300848 C 0.0 **** -0.24
27682 H 3.4577473993836065 63.388275645174815 30.489141317385048 H 0.0 **** 0.06
27683 H 3.116979935046686 64.54268817110216 29.17775831230759 H 0.0 **** 0.06
27684 H 4.798193555335445 64.09750167707966 29.55800941818282 H 0.0 **** 0.06
27685 H 3.8674972708896576 65.10847306758086 30.689902272898735 H 0.0 **** 0.06
27686 C 4.427324329095427 11.73705206496436 93.95007698077566 C 0.0 **** -0.24
27687 H 4.7043033137071575 11.221287323722493 94.86912976577639 H 0.0 **** 0.06
27688 H 4.868236641501653 12.735227530393502 93.94694156827624 H 0.0 **** 0.06
27689 H 3.3414354938822726 11.819732872932377 93.89301534854539 H 0.0 **** 0.06
27690 H 4.795533996161112 11.17467400103692 93.09248313767368 H 0.0 **** 0.06
27691 C 142.3234055002826 9.824043956007365 30.568893221181717 C 0.0 **** -0.24
27692 H 141.2863000910756 10.024219378424569 30.302705712431624 H 0.0 **** 0.06
27693 H 142.98276439726953 10.402517656943871 29.92078772323638 H 0.0 **** 0.06
27694 H 142.5318036310856 8.761771150435564 30.443177819507596 H 0.0 **** 0.06
27695 H 142.49389107568828 10.108162706807121 31.607041022209792 H 0.0 **** 0.06
27696 C 153.35403054505912 145.34675148542408 16.917537859388318 C 0.0 **** -0.24
27697 H 152.4630975222545 145.4793950351707 17.53178677207316 H 0.0 **** 0.06
27698 H 153.2920910443055 144.39442772978745 16.390941588596405 H 0.0 **** 0.06
27699 H 154.23804156874684 145.352534395003 17.55580956092311 H 0.0 **** 0.06
27700 H 153.4213308719165 146.15923490730103 16.19417555732565 H 0.0 **** 0.06
27701 C 22.295929512291877 11.20919473008405 118.33714596376484 C 0.0 **** -0.24
27702 H 22.996855231234207 11.310151186080994 119.16574212609777 H 0.0 **** 0.06
27703 H 22.745758055836745 11.61242089326219 117.43005081846536 H 0.0 **** 0.06
27704 H 21.382153927187858 11.758279964682373 118.56517286671658 H 0.0 **** 0.06
27705 H 22.059689269799264 10.15526266442371 118.18750155759494 H 0.0 **** 0.06
27706 C 136.88950177662286 17.243008746159227 71.99306795503745 C 0.0 **** -0.24
27707 H 136.10638936358458 16.80894423569196 71.37190807118617 H 0.0 **** 0.06
27708 H 137.2830302862638 16.48173154593578 72.6677078994548 H 0.0 **** 0.06
27709 H 136.47571577691298 18.06569527926115 72.57669515084078 H 0.0 **** 0.06
27710 H 137.6919129838207 17.616185839711 71.35791227972726 H 0.0 **** 0.06
27711 C 95.34245858557625 34.45065979859484 115.03547946265608 C 0.0 **** -0.24
27712 H 95.33135694721092 34.80345078307451 114.00460414551931 H 0.0 **** 0.06
27713 H 94.96772596291845 35.235853198547375 115.6916908918631 H 0.0 **** 0.06
27714 H 96.36291507848689 34.19388245887902 115.32081020713984 H 0.0 **** 0.06
27715 H 94.708244627332 33.56897116288613 115.12403709639965 H 0.0 **** 0.06
27716 C 47.71438783418884 79.830656891966 69.87413317924982 C 0.0 **** -0.24
27717 H 47.43015989695746 78.78411928194674 69.98390193945187 H 0.0 **** 0.06
27718 H 46.85877167596266 80.40345118829897 69.51662604494342 H 0.0 **** 0.06
27719 H 48.53213921378068 79.91181736431993 69.1585779370571 H 0.0 **** 0.06
27720 H 48.03571038059462 80.22266860807042 70.83968086969706 H 0.0 **** 0.06
27721 C 87.59434400292304 135.04528852026903 72.72341764164793 C 0.0 **** -0.24
27722 H 88.15787536814418 134.58565685345366 71.91168505605908 H 0.0 **** 0.06
27723 H 86.68897905515831 134.46750288582723 72.9099297050089 H 0.0 **** 0.06
27724 H 87.32584048420097 136.0645398556759 72.44776349356498 H 0.0 **** 0.06
27725 H 88.20722863412504 135.06215436938487 73.6259716409159 H 0.0 **** 0.06
27726 C 43.58774813109301 17.18347258746803 111.21768957523722 C 0.0 **** -0.24
27727 H 43.52021510378658 16.788007698438804 112.23134607240115 H 0.0 **** 0.06
27728 H 42.5975727464526 17.498200352175076 110.88500822559814 H 0.0 **** 0.06
27729 H 43.967786005621235 16.41032748113065 110.5505153074887 H 0.0 **** 0.06
27730 H 44.26382761782253 18.03829594083487 111.20645446459531 H 0.0 **** 0.06
27731 C 59.126784828434694 96.80496052371507 93.797110642998 C 0.0 **** -0.24
27732 H 59.54520073324301 96.93554189440829 94.7949364277921 H 0.0 **** 0.06
27733 H 59.752648273524045 96.11607989027237 93.2283829889704 H 0.0 **** 0.06
27734 H 59.09184040524451 97.76809119783826 93.28917578317552 H 0.0 **** 0.06
27735 H 58.11818690704126 96.39945743216303 93.8760228800322 H 0.0 **** 0.06
27736 C 76.04876191180996 20.816742932824916 95.50362441432328 C 0.0 **** -0.24
27737 H 75.99704343932105 21.817998876524726 95.93190051961186 H 0.0 **** 0.06
27738 H 76.40625353051549 20.115830399910934 96.25877941499553 H 0.0 **** 0.06
27739 H 76.73324841193309 20.81867166377358 94.65549755245044 H 0.0 **** 0.06
27740 H 75.05607800987855 20.51423668815452 95.16805868230166 H 0.0 **** 0.06
27741 C 7.736196401288083 139.3788504013123 84.70497667314231 C 0.0 **** -0.24
27742 H 8.293247506035556 138.45355780473233 84.85271751010845 H 0.0 **** 0.06
27743 H 7.785671522661858 139.98148494897035 85.61197859751664 H 0.0 **** 0.06
27744 H 6.695084166210449 139.14377846463265 84.48128446108205 H 0.0 **** 0.06
27745 H 8.169178549152775 139.93476511015942 83.87429026010022 H 0.0 **** 0.06
27746 C 12.581147394930746 124.35543005833505 85.08011768080485 C 0.0 **** -0.24
27747 H 13.525595121057954 124.47107822103074 85.61193782799785 H 0.0 **** 0.06
27748 H 12.109906169532671 125.33149445684843 84.962803220831 H 0.0 **** 0.06
27749 H 11.9225347552497 123.69998387904992 85.64966079315991 H 0.0 **** 0.06
27750 H 12.767587640804273 123.92122881575817 84.09901273551515 H 0.0 **** 0.06
27751 C 107.61906270745327 18.33884192591853 29.089335341345773 C 0.0 **** -0.24
27752 H 108.47529322990492 18.36989849119516 29.763148708540513 H 0.0 **** 0.06
27753 H 107.9709859495046 18.294174116663868 28.057844892807793 H 0.0 **** 0.06
27754 H 107.01515107414424 19.2352329919583 29.228943558853814 H 0.0 **** 0.06
27755 H 107.01676002747031 17.45695002433797 29.306733169438786 H 0.0 **** 0.06
27756 C 44.34671570595587 77.3499548251998 148.91475881751447 C 0.0 **** -0.24
27757 H 44.06770194370024 77.63655807097436 147.90045827348285 H 0.0 **** 0.06
27758 H 45.110985368743 76.57424718118853 148.8754882065329 H 0.0 **** 0.06
27759 H 43.469345042596444 76.97165957350649 149.43811916189009 H 0.0 **** 0.06
27760 H 44.73821221504572 78.22033742257912 149.44279701623867 H 0.0 **** 0.06
27761 C 36.79719802960216 104.3592447141752 14.248908588411894 C 0.0 **** -0.24
27762 H 36.1445701386599 103.90071175910045 14.9910871386395 H 0.0 **** 0.06
27763 H 36.63814981490222 103.88275249387048 13.281136648750476 H 0.0 **** 0.06
27764 H 37.837014880073156 104.23117563876498 14.550252098536475 H 0.0 **** 0.06
27765 H 36.569861031339485 105.42208660310901 14.171645060109029 H 0.0 **** 0.06
27766 C 138.194913401024 109.78990015178753 81.33762954178533 C 0.0 **** -0.24
27767 H 137.26159096641385 110.31786008933581 81.53581945404727 H 0.0 **** 0.06
27768 H 138.2898148465274 109.61114377027185 80.26654572371586 H 0.0 **** 0.06
27769 H 138.19190865239216 108.83653149121226 81.86764736803269 H 0.0 **** 0.06
27770 H 139.0340533614546 110.39380225728102 81.68134600750443 H 0.0 **** 0.06
27771 C 28.6998999762096 89.2300501545769 40.88733062120741 C 0.0 **** -0.24
27772 H 28.438153033022168 88.93720201960156 39.87142259323271 H 0.0 **** 0.06
27773 H 29.779120815192947 89.15063831409839 41.02204827486304 H 0.0 **** 0.06
27774 H 28.195193998894602 88.57344046192492 41.596715771356486 H 0.0 **** 0.06
27775 H 28.387732472737966 90.26063363075917 41.061304398833144 H 0.0 **** 0.06
27776 C 35.714006166108064 36.00669250482639 103.26990867151194 C 0.0 **** -0.24
27777 H 36.40086202628713 36.677924885855646 103.78579994005456 H 0.0 **** 0.06
27778 H 36.02277789037237 34.97389930920252 103.4339755330151 H 0.0 **** 0.06
27779 H 35.72651189123019 36.225027181852454 102.20144936485197 H 0.0 **** 0.06
27780 H 34.70572108626444 36.15131999520469 103.65829477777923 H 0.0 **** 0.06
27781 C 122.30735042740525 116.54446126596281 94.24700231654413 C 0.0 **** -0.24
27782 H 122.90013951461623 117.18849474954061 94.89611449666597 H 0.0 **** 0.06
27783 H 121.28655939911278 116.48995101220606 94.62476807270735 H 0.0 **** 0.06
27784 H 122.74289659780379 115.54615911695959 94.23035976811423 H 0.0 **** 0.06
27785 H 122.30077294960495 116.95455797203806 93.23734045014362 H 0.0 **** 0.06
27786 C 73.12803484836581 136.31013179978487 106.34109932199937 C 0.0 **** -0.24
27787 H 74.10312687817986 136.57578244831294 106.74983633820221 H 0.0 **** 0.06
27788 H 72.6943003373942 137.17889797434103 105.84429309125505 H 0.0 **** 0.06
27789 H 72.47098697295394 135.98753002888753 107.14871547802426 H 0.0 **** 0.06
27790 H 73.24375035178724 135.49973050787125 105.6215791129847 H 0.0 **** 0.06
27791 C 131.68153579233314 20.88759971182344 35.243449793685414 C 0.0 **** -0.24
27792 H 131.68313354619033 20.055167873581752 35.94735558536348 H 0.0 **** 0.06
27793 H 130.72366311414515 21.40475068501894 35.294198745339685 H 0.0 **** 0.06
27794 H 131.83846936667874 20.510597136934848 34.23315747875958 H 0.0 **** 0.06
27795 H 132.48332278772 21.58066189767314 35.500640641273606 H 0.0 **** 0.06
27796 C 154.26448381744342 129.99147693828002 67.95661359590477 C 0.0 **** -0.24
27797 H 155.2558860685744 129.62071157708948 67.69409629710557 H 0.0 **** 0.06
27798 H 153.56656567430642 129.76188905730044 67.15119423034118 H 0.0 **** 0.06
27799 H 154.30697029256504 131.0697700290043 68.10513474402 H 0.0 **** 0.06
27800 H 153.92896354302246 129.5099776379493 68.87567141357171 H 0.0 **** 0.06
27801 C 130.32600025104597 29.48472113963814 53.6322500609287 C 0.0 **** -0.24
27802 H 130.24720790423515 29.067668809390526 52.62825863058441 H 0.0 **** 0.06
27803 H 129.33075175941224 29.72384414964816 54.00545946685969 H 0.0 **** 0.06
27804 H 130.93086061731452 30.390955450133703 53.602333845969724 H 0.0 **** 0.06
27805 H 130.79729910362352 28.75636533961344 54.29171944793393 H 0.0 **** 0.06
27806 C 125.32029505701968 56.19548365950635 117.77316105064331 C 0.0 **** -0.24
27807 H 126.03977007462078 56.580594424066376 117.05217215091095 H 0.0 **** 0.06
27808 H 125.37221732100136 56.7835118337467 118.689178844289 H 0.0 **** 0.06
27809 H 125.55265531907696 55.153683507106095 117.99653038367468 H 0.0 **** 0.06
27810 H 124.31548491373121 56.26133563361299 117.3547404541702 H 0.0 **** 0.06
27811 C 105.77034645818702 73.12239431931006 80.59710425732602 C 0.0 **** -0.24
27812 H 105.69738915291936 72.52554231037526 81.5061661788189 H 0.0 **** 0.06
27813 H 105.34298251154269 74.10919580724617 80.77701972042435 H 0.0 **** 0.06
27814 H 105.22263716339955 72.63009222294198 79.79417349383525 H 0.0 **** 0.06
27815 H 106.81757947414451 73.22635117579372 80.31384882228491 H 0.0 **** 0.06
27816 C 79.38919016150402 80.2719142499987 4.659712003050508 C 0.0 **** -0.24
27817 H 78.71037858175522 80.10424599900506 5.496616960086577 H 0.0 **** 0.06
27818 H 78.81958731645754 80.59417029493125 3.7884328919731374 H 0.0 **** 0.06
27819 H 79.91477840418364 79.34552468008104 4.428296723869465 H 0.0 **** 0.06
27820 H 80.1126342243976 81.04246342870067 4.92724768544025 H 0.0 **** 0.06
27821 C 114.96180052764726 115.85427815313948 8.730832589901233 C 0.0 **** -0.24
27822 H 114.53375802908056 115.4006119026295 7.8369141236332 H 0.0 **** 0.06
27823 H 116.02090570394256 116.05420613822027 8.565718312543424 H 0.0 **** 0.06
27824 H 114.84737825508415 115.17167481658969 9.573262361394761 H 0.0 **** 0.06
27825 H 114.4445235994632 116.78847996803161 8.947563282114778 H 0.0 **** 0.06
27826 C 12.874553843967568 46.573666919158086 92.25690785970339 C 0.0 **** -0.24
27827 H 11.821915782129892 46.32988761136471 92.4021264740416 H 0.0 **** 0.06
27828 H 12.960795034789093 47.58201670484999 91.8511864515623 H 0.0 **** 0.06
27829 H 13.319236555649944 45.86253093695899 91.56270509174618 H 0.0 **** 0.06
27830 H 13.393984389601066 46.5221173537069 93.21367074243359 H 0.0 **** 0.06
27831 C 8.900108714234136 46.939600467557796 94.39972746289902 C 0.0 **** -0.24
27832 H 8.776833685389363 47.90192824012473 94.89779496520578 H 0.0 **** 0.06
27833 H 8.057614798656516 46.29350379722632 94.64770082079843 H 0.0 **** 0.06
27834 H 9.826348348935568 46.47329580242723 94.73465245596492 H 0.0 **** 0.06
27835 H 8.937417018575033 47.092057363543006 93.32128894257443 H 0.0 **** 0.06
27836 C 144.43658008843374 33.04779354301837 6.299807457658915 C 0.0 **** -0.24
27837 H 144.1351045277957 32.10574779103854 5.842928999895435 H 0.0 **** 0.06
27838 H 145.52054225435495 33.14662699821491 6.244920020661425 H 0.0 **** 0.06
27839 H 144.12242792610385 33.06285321542623 7.343584400095267 H 0.0 **** 0.06
27840 H 143.968246541655 33.87508623581738 5.767285969555644 H 0.0 **** 0.06
27841 C 6.688365137039057 4.60154435799609 152.62893622837842 C 0.0 **** -0.24
27842 H 6.665551007043177 3.8474283921962638 151.84171051500644 H 0.0 **** 0.06
27843 H 7.556120053787481 4.432602782263302 153.26778900534094 H 0.0 **** 0.06
27844 H 5.778710505139941 4.532043777741137 153.22540985766963 H 0.0 **** 0.06
27845 H 6.75384261886893 5.592915345185361 152.18092291718892 H 0.0 **** 0.06
27846 C 48.55439931154477 113.93684719399904 2.7648420580921496 C 0.0 **** -0.24
27847 H 49.57190655588779 114.27781860151579 2.953874204646308 H 0.0 **** 0.06
27848 H 48.34260016642999 114.00300440546884 1.6976246391093461 H 0.0 **** 0.06
27849 H 47.85283166745714 114.56378010963356 3.3148335299371148 H 0.0 **** 0.06
27850 H 48.45148750298263 112.90175500841234 3.0923814247060903 H 0.0 **** 0.06
27851 C 25.4357711451471 3.691503554488463 102.61804690333724 C 0.0 **** -0.24
27852 H 24.800521602587082 4.010197253162403 103.44406626983118 H 0.0 **** 0.06
27853 H 25.007373187389902 4.034952672103543 101.67648354279828 H 0.0 **** 0.06
27854 H 25.50563157999315 2.604087654133224 102.61120383897168 H 0.0 **** 0.06
27855 H 26.43120582972452 4.1180973030935775 102.74116973291189 H 0.0 **** 0.06
27856 C 51.21891463924817 153.73963529394987 60.88813227724229 C 0.0 **** -0.24
27857 H 52.26085075748301 154.01794963697165 60.73171646837365 H 0.0 **** 0.06
27858 H 50.975357267199 152.88063087725945 60.26314677311646 H 0.0 **** 0.06
27859 H 50.57501131482036 154.57839829923077 60.62092477836464 H 0.0 **** 0.06
27860 H 51.064901746415444 153.48294563072892 61.93580688720874 H 0.0 **** 0.06
27861 C 126.22621773564903 73.36200246152464 132.36682151546646 C 0.0 **** -0.24
27862 H 126.43153879956675 74.29770217161018 131.84585412999377 H 0.0 **** 0.06
27863 H 125.62058545919065 72.71646073683598 131.72977902184567 H 0.0 **** 0.06
27864 H 125.68732104971018 73.57108935421311 133.29047549665358 H 0.0 **** 0.06
27865 H 127.16715278467699 72.86350486456104 132.5999696531916 H 0.0 **** 0.06
27866 C 29.0287576403843 71.92681967548646 133.76890200802742 C 0.0 **** -0.24
27867 H 28.98983909906883 70.84901554104624 133.92828607728737 H 0.0 **** 0.06
27868 H 29.924672982910238 72.17840394401304 133.20128177624062 H 0.0 **** 0.06
27869 H 29.053358046497124 72.43645462950698 134.7328826889584 H 0.0 **** 0.06
27870 H 28.146212918550418 72.24372431894511 133.2131620203647 H 0.0 **** 0.06
27871 C 103.54592561271171 34.02695782045561 77.39531834181497 C 0.0 **** -0.24
27872 H 103.01438411283051 34.14443341668655 76.45149009566836 H 0.0 **** 0.06
27873 H 103.89002705690244 35.00190529750202 77.74219630540026 H 0.0 **** 0.06
27874 H 104.40321955278505 33.369781984958365 77.24951473323057 H 0.0 **** 0.06
27875 H 102.87735237431657 33.5917141334794 78.13747223434012 H 0.0 **** 0.06
27876 C 63.55937413049185 152.60904169909554 107.57672565340289 C 0.0 **** -0.24
27877 H 64.51045988147592 153.1348514719741 107.49701602396743 H 0.0 **** 0.06
27878 H 62.74190305938629 153.32802414351943 107.51711873608593 H 0.0 **** 0.06
27879 H 63.51325210741757 152.08492088862224 108.53149149696122 H 0.0 **** 0.06
27880 H 63.47242175581198 151.89010018837178 106.76258621057337 H 0.0 **** 0.06
27881 C 22.204362731513157 85.36350510539904 2.707758468737296 C 0.0 **** -0.24
27882 H 21.72983052436598 85.14165246533253 3.664158120561865 H 0.0 **** 0.06
27883 H 23.28473597694841 85.41844059114212 2.8433697909110265 H 0.0 **** 0.06
27884 H 21.836057666346022 86.31861645033527 2.332601986786358 H 0.0 **** 0.06
27885 H 21.967251016831142 84.57574493480229 1.9932771236933888 H 0.0 **** 0.06
27886 C 43.309226850564414 99.7337375326688 104.3925959106491 C 0.0 **** -0.24
27887 H 43.85075337144799 100.67652351576898 104.31518604127592 H 0.0 **** 0.06
27888 H 42.249860892803426 99.9353500857472 104.55581314002421 H 0.0 **** 0.06
27889 H 43.70331938194083 99.15615122599661 105.22910641532525 H 0.0 **** 0.06
27890 H 43.43383877056863 99.16708413850388 103.46980206929823 H 0.0 **** 0.06
27891 C 129.5218528975879 67.4428540070653 58.61658360437821 C 0.0 **** -0.24
27892 H 128.8962514003938 67.83643102490831 57.81612215400578 H 0.0 **** 0.06
27893 H 130.36598451316956 68.11274707509256 58.78079313463671 H 0.0 **** 0.06
27894 H 129.8901460557428 66.4555829938073 58.33674117528882 H 0.0 **** 0.06
27895 H 128.93466931890634 67.36587328948434 59.53155577774389 H 0.0 **** 0.06
27896 C 77.09641768227505 74.82238280544179 4.752664627919671 C 0.0 **** -0.24
27897 H 77.96980987298042 74.47272580746356 5.304257572007998 H 0.0 **** 0.06
27898 H 77.40873459626539 75.55130708326224 4.003709175982294 H 0.0 **** 0.06
27899 H 76.39412703060736 75.28924284208921 5.443698083847295 H 0.0 **** 0.06
27900 H 76.6160147032235 73.97770957375904 4.260664909856985 H 0.0 **** 0.06
27901 C 127.9301406003657 51.529382864562805 139.37920173256563 C 0.0 **** -0.24
27902 H 127.71405760838674 52.56394568615843 139.11360700007012 H 0.0 **** 0.06
27903 H 128.668099880886 51.12311136055186 138.68684252979077 H 0.0 **** 0.06
27904 H 127.01465440359662 50.94136311324982 139.32160453401428 H 0.0 **** 0.06
27905 H 128.3237076474676 51.490330792630544 140.39546775209786 H 0.0 **** 0.06
27906 C 119.53165414893267 139.70639746849417 4.172486585081231 C 0.0 **** -0.24
27907 H 119.30696880096228 139.6925916157234 5.2385140382518784 H 0.0 **** 0.06
27908 H 120.59737246149315 139.53191115543126 4.0230921759414855 H 0.0 **** 0.06
27909 H 119.26148210602908 140.67731747010538 3.7565092915428977 H 0.0 **** 0.06
27910 H 118.96080270401502 138.92493352412146 3.670204366886395 H 0.0 **** 0.06
27911 C 39.2147951447547 51.6662320195652 22.386247403669415 C 0.0 **** -0.24
27912 H 38.92155437236647 52.466823711593605 21.70682155935347 H 0.0 **** 0.06
27913 H 39.74478183826352 52.09026237442367 23.23846451028342 H 0.0 **** 0.06
27914 H 39.86713779285759 50.966934837569354 21.862624244490462 H 0.0 **** 0.06
27915 H 38.32520848597392 51.14161553523384 22.733725124888224 H 0.0 **** 0.06
27916 C 113.21409089742184 44.640342720193416 119.4266249730609 C 0.0 **** -0.24
27917 H 113.78783715934821 45.41551376532334 118.917334493365 H 0.0 **** 0.06
27918 H 112.70771418578687 45.07235062991856 120.2898673881793 H 0.0 **** 0.06
27919 H 113.88681304199713 43.850026938101905 119.75762422786063 H 0.0 **** 0.06
27920 H 112.475130348069 44.22597758162118 118.74045697227352 H 0.0 **** 0.06
27921 C 149.52507238444372 111.34108069037158 44.221855287715314 C 0.0 **** -0.24
27922 H 149.26846400580234 110.3009767343077 44.019933068666546 H 0.0 **** 0.06
27923 H 150.28729993798794 111.38247906139053 44.99991376998334 H 0.0 **** 0.06
27924 H 148.6349797053971 111.87550056245426 44.554868974759756 H 0.0 **** 0.06
27925 H 149.9080857744363 111.80346782380197 43.31219186133367 H 0.0 **** 0.06
27926 C 129.4638318858632 26.44251791835123 56.80307051821475 C 0.0 **** -0.24
27927 H 128.73996384481333 25.789187024790124 57.288547007888795 H 0.0 **** 0.06
27928 H 130.466463159127 26.033999076401642 56.932753150479755 H 0.0 **** 0.06
27929 H 129.41606241292104 27.435224045517316 57.25134533681501 H 0.0 **** 0.06
27930 H 129.23492960172882 26.512407721764845 55.73937373282287 H 0.0 **** 0.06
27931 C 147.39960247002037 144.17081918875581 105.9200732266009 C 0.0 **** -0.24
27932 H 148.16949310423325 144.02677711095106 105.16203433429017 H 0.0 **** 0.06
27933 H 146.45517359212684 144.4204435430441 105.4358837318815 H 0.0 **** 0.06
27934 H 147.6923270652855 144.98162806055842 106.58639291154925 H 0.0 **** 0.06
27935 H 147.2815095177627 143.25219415763075 106.49594718999224 H 0.0 **** 0.06
27936 C 149.81784174660248 60.936995649972886 13.466325263683416 C 0.0 **** -0.24
27937 H 149.36742613051717 60.92143035401698 14.458424120551854 H 0.0 **** 0.06
27938 H 150.78861893057416 61.42976570605016 13.515488127575907 H 0.0 **** 0.06
27939 H 149.16746878349403 61.47965720175691 12.78060293908544 H 0.0 **** 0.06
27940 H 149.94668107061312 59.91443731626427 13.111401952443885 H 0.0 **** 0.06
27941 C 115.16750301827734 18.542637500481646 156.5461527537455 C 0.0 **** -0.24
27942 H 115.06355991711821 18.1328690193198 157.5518775485124 H 0.0 **** 0.06
27943 H 116.13911725160683 19.027973817246448 156.45067955453513 H 0.0 **** 0.06
27944 H 114.37755638964241 19.27090837933261 156.3682582487974 H 0.0 **** 0.06
27945 H 115.08969477740483 17.736046729423748 155.81686482032617 H 0.0 **** 0.06
27946 C 79.27945861512882 120.7172372882481 47.84237238207635 C 0.0 **** -0.24
27947 H 80.03526746502067 120.10369925025884 48.334272554410546 H 0.0 **** 0.06
27948 H 79.13592265521248 120.36434680402118 46.8202283294346 H 0.0 **** 0.06
27949 H 79.61030000751029 121.75547384638969 47.82512477258916 H 0.0 **** 0.06
27950 H 78.33939669610447 120.64351421115498 48.388855828664134 H 0.0 **** 0.06
27951 C 115.85313748791725 9.637062924890756 97.26877344699034 C 0.0 **** -0.24
27952 H 116.43085591691789 8.796645357635157 97.65271404129133 H 0.0 **** 0.06
27953 H 115.87189650958567 10.451720887362598 97.99310568640328 H 0.0 **** 0.06
27954 H 114.82259099223597 9.321904983417397 97.10234299883805 H 0.0 **** 0.06
27955 H 116.28639784451832 9.975146576902688 96.32749263013312 H 0.0 **** 0.06
27956 C 26.761685469374783 44.82369718625691 80.2259738799836 C 0.0 **** -0.24
27957 H 26.07388758022813 44.04303012185906 80.55050378669195 H 0.0 **** 0.06
27958 H 27.26360212546649 44.50928178599793 79.3104235935316 H 0.0 **** 0.06
27959 H 27.503249581483146 45.001616412404815 81.00460478040372 H 0.0 **** 0.06
27960 H 26.2041304958027 45.742059949660984 80.03812552556752 H 0.0 **** 0.06
27961 C 66.32889227607318 32.07793180151368 97.38343378451805 C 0.0 **** -0.24
27962 H 65.37617117726845 31.709012667077793 97.76213791929734 H 0.0 **** 0.06
27963 H 66.2490642541075 32.253318893810125 96.31042188412812 H 0.0 **** 0.06
27964 H 67.10712417085152 31.33868596379127 97.57400763285892 H 0.0 **** 0.06
27965 H 66.58262917818313 33.01105586760436 97.88643053705982 H 0.0 **** 0.06
27966 C 48.016520751541435 17.066864600726575 91.16666171501612 C 0.0 **** -0.24
27967 H 48.067475423091196 17.658203179433485 90.25222965651591 H 0.0 **** 0.06
27968 H 47.52756577468824 16.115802615149732 90.95719147653416 H 0.0 **** 0.06
27969 H 47.44847719172077 17.610733606226773 91.91970195734213 H 0.0 **** 0.06
27970 H 49.0263025837599 16.883704523416725 91.53550957798048 H 0.0 **** 0.06
27971 C 95.91492841722423 92.23277278019542 76.99670012298367 C 0.0 **** -0.24
27972 H 94.83046403847523 92.12262716530212 77.0085590188325 H 0.0 **** 0.06
27973 H 96.37757114176027 91.29116400899912 77.2956856847702 H 0.0 **** 0.06
27974 H 96.2076514533173 93.01905007968692 77.69303978613294 H 0.0 **** 0.06
27975 H 96.2430801719848 92.49594117211137 75.99170089045424 H 0.0 **** 0.06
27976 C 66.8312539290864 144.11022226617533 10.957867249212406 C 0.0 **** -0.24
27977 H 67.82705364158682 143.77797618801787 11.250819699618084 H 0.0 **** 0.06
27978 H 66.35300300613898 143.33837173220098 10.355878512784166 H 0.0 **** 0.06
27979 H 66.9118201238011 145.02863261787073 10.375132976765826 H 0.0 **** 0.06
27980 H 66.2345208103906 144.29788542798374 11.851115159672098 H 0.0 **** 0.06
27981 C 22.511089012710897 45.59925787319351 2.873184363810367 C 0.0 **** -0.24
27982 H 22.94625202541772 44.96068298286319 3.641678944611499 H 0.0 **** 0.06
27983 H 23.268950117038855 45.83452588313531 2.124954300043612 H 0.0 **** 0.06
27984 H 22.150838772870202 46.52127547742117 3.327943561300742 H 0.0 **** 0.06
27985 H 21.679885047479843 45.07961562683282 2.397343475853404 H 0.0 **** 0.06
27986 C 6.717663410595492 53.33375309166951 104.61879356062006 C 0.0 **** -0.24
27987 H 7.3463411117614115 54.06279109305271 105.12920181278803 H 0.0 **** 0.06
27988 H 5.683082755359457 53.45810838283626 104.94086552092934 H 0.0 **** 0.06
27989 H 7.056876403365365 52.32701686751393 104.86276772261716 H 0.0 **** 0.06
27990 H 6.783590473831886 53.48917289426001 103.54128809682824 H 0.0 **** 0.06
27991 C 120.73826754740683 84.82205373308545 21.268325037267175 C 0.0 **** -0.24
27992 H 119.67536982990059 84.81127510861887 21.509621398820343 H 0.0 **** 0.06
27993 H 121.02561752507502 85.82230958307855 20.942523053507557 H 0.0 **** 0.06
27994 H 120.93638248566761 84.10917270845658 20.468172693210903 H 0.0 **** 0.06
27995 H 121.31433918551149 84.5474760933493 22.15123002384243 H 0.0 **** 0.06
27996 C 155.57169409640306 138.49363815978188 131.83274628265434 C 0.0 **** -0.24
27997 H 155.60011451116833 137.59715470817846 131.21404332852313 H 0.0 **** 0.06
27998 H 154.82434487801265 139.1829368582969 131.43936207957154 H 0.0 **** 0.06
27999 H 156.55025340880692 138.97347791269942 131.82373804763375 H 0.0 **** 0.06
28000 H 155.31058733438118 138.22049465489343 132.85573435406593 H 0.0 **** 0.06
28001 C 11.031193822722258 34.71985147998153 80.7379439672496 C 0.0 **** -0.24
28002 H 10.62146933499281 35.72863674053683 80.75980134293904 H 0.0 **** 0.06
28003 H 11.986621609399435 34.72748728757418 80.21255636082341 H 0.0 **** 0.06
28004 H 10.33829411313718 34.05643406547037 80.22081053839084 H 0.0 **** 0.06
28005 H 11.180069828297974 34.36544327480545 81.75750926847324 H 0.0 **** 0.06
28006 C 83.92967926261954 64.68065456669301 138.61259404792335 C 0.0 **** -0.24
28007 H 84.47783440005419 65.04261786752399 139.48266312480794 H 0.0 **** 0.06
28008 H 84.30622895606838 63.69688526161116 138.33103236949762 H 0.0 **** 0.06
28009 H 84.06633486023377 65.37349936692334 137.78301767256366 H 0.0 **** 0.06
28010 H 82.8695412664184 64.60851079898555 138.85547545194237 H 0.0 **** 0.06
28011 C 96.5955106120356 31.102245959267208 114.215842549083 C 0.0 **** -0.24
28012 H 97.32984595640738 30.315262681177273 114.0474871064091 H 0.0 **** 0.06
28013 H 95.6184656753082 30.654559296476435 114.39928881876766 H 0.0 **** 0.06
28014 H 96.54255301602561 31.742932908207763 113.33569461127836 H 0.0 **** 0.06
28015 H 96.89117780040154 31.696228951207303 115.08089965987678 H 0.0 **** 0.06
28016 C 74.33681127433819 119.73695940915083 124.83649030198147 C 0.0 **** -0.24
28017 H 74.43096081799476 120.03922429762447 123.79383338449212 H 0.0 **** 0.06
28018 H 73.30521494258691 119.87112501384006 125.16204716704799 H 0.0 **** 0.06
28019 H 74.99483069764416 120.34996326429608 125.45301394955256 H 0.0 **** 0.06
28020 H 74.61675039067255 118.68877535451664 124.93748496654128 H 0.0 **** 0.06
28021 C 17.04426644407465 148.22471421845432 12.297129803417505 C 0.0 **** -0.24
28022 H 16.226836004365964 148.3232242343762 13.01062394301303 H 0.0 **** 0.06
28023 H 17.725348814870443 149.06933551928643 12.406401799504522 H 0.0 **** 0.06
28024 H 16.642173042467476 148.2097432481778 11.284048640885459 H 0.0 **** 0.06
28025 H 17.582729297200444 147.29555580196325 12.487503409973186 H 0.0 **** 0.06
28026 C 108.05909550896439 83.02100329889241 25.724947634734917 C 0.0 **** -0.24
28027 H 107.18711166362112 83.5898313840245 26.047005764790697 H 0.0 **** 0.06
28028 H 108.12262838704748 82.09773189043457 26.30195993386849 H 0.0 **** 0.06
28029 H 108.95937124260269 83.61257478397793 25.886472870513273 H 0.0 **** 0.06
28030 H 107.96555382542914 82.78261055905911 24.665557470936562 H 0.0 **** 0.06
28031 C 55.21355186105636 59.06998299879804 103.73473401217035 C 0.0 **** -0.24
28032 H 56.02494705296239 59.65868156685892 103.30850817933322 H 0.0 **** 0.06
28033 H 54.41480657168627 59.73605682345203 104.06212264610741 H 0.0 **** 0.06
28034 H 55.5850021391916 58.50141681223862 104.58643220144228 H 0.0 **** 0.06
28035 H 54.82765521083978 58.38414842349928 102.98024982033934 H 0.0 **** 0.06
28036 C 50.04710193941003 31.548907696812762 106.37309173003291 C 0.0 **** -0.24
28037 H 51.106649449024815 31.54819136823562 106.11807365434726 H 0.0 **** 0.06
28038 H 49.671287451592946 32.57273714166661 106.35729736127541 H 0.0 **** 0.06
28039 H 49.911759040134484 31.127361029291137 107.36837276019861 H 0.0 **** 0.06
28040 H 49.498435091037095 30.94920404289175 105.6462878260973 H 0.0 **** 0.06
28041 C 84.86709809189887 98.95837035212112 152.06715064565373 C 0.0 **** -0.24
28042 H 84.80535635950552 99.08924931651931 153.14692204988307 H 0.0 **** 0.06
28043 H 85.83979378762247 98.5393100421256 151.80725787945352 H 0.0 **** 0.06
28044 H 84.7446577848924 99.92440941885495 151.57729906988027 H 0.0 **** 0.06
28045 H 84.07988163296521 98.28096393994524 151.73746072469282 H 0.0 **** 0.06
28046 C 17.03948875897138 28.629403341092228 115.99800020285238 C 0.0 **** -0.24
28047 H 17.537082876027 28.316107907711114 115.08032066715168 H 0.0 **** 0.06
28048 H 16.456613875589746 29.5297360513062 115.80526584592803 H 0.0 **** 0.06
28049 H 17.787032767369055 28.835968834587106 116.76383655615405 H 0.0 **** 0.06
28050 H 16.377796847613794 27.83345888241496 116.34109776336334 H 0.0 **** 0.06
28051 C 103.00619677847406 157.01842229859784 37.8615301749832 C 0.0 **** -0.24
28052 H 102.3361629394848 157.73228839744556 37.38182866688872 H 0.0 **** 0.06
28053 H 103.97390198390254 157.0345979265454 37.358185641301546 H 0.0 **** 0.06
28054 H 102.57937839881232 156.01835230563378 37.79665568377415 H 0.0 **** 0.06
28055 H 103.13712759252725 157.29156561427766 38.90839478333261 H 0.0 **** 0.06
28056 C 141.1218162729785 20.588661961564753 135.58221689199206 C 0.0 **** -0.24
28057 H 141.1071249655741 21.24989738237673 136.44923683964475 H 0.0 **** 0.06
28058 H 140.46825151887194 20.989847674100133 134.80766166152063 H 0.0 **** 0.06
28059 H 140.77307714530872 19.59867108272914 135.87606336536447 H 0.0 **** 0.06
28060 H 142.13965728360938 20.516821547529617 135.19950252364424 H 0.0 **** 0.06
28061 C 101.19581255265246 61.20441264601345 107.82648672423544 C 0.0 **** -0.24
28062 H 100.45387235756255 60.826475922860524 107.12288793248833 H 0.0 **** 0.06
28063 H 101.10712105905077 62.288748838940606 107.90034160491969 H 0.0 **** 0.06
28064 H 102.19403272828907 60.943594606587 107.47603119802874 H 0.0 **** 0.06
28065 H 101.02653693040526 60.758454320300615 108.80657835609871 H 0.0 **** 0.06
28066 C 37.97272672572876 62.39419604209222 82.41507296678851 C 0.0 **** -0.24
28067 H 38.16024787691981 63.35658683784234 82.89079602824116 H 0.0 **** 0.06
28068 H 37.358960648063714 61.77849724717308 83.07246619939043 H 0.0 **** 0.06
28069 H 38.92162065842217 61.891658178904535 82.22690102472356 H 0.0 **** 0.06
28070 H 37.45152074844856 62.55140869316283 81.47156031008446 H 0.0 **** 0.06
28071 C 48.3986014668597 28.27068297887878 56.35935591463178 C 0.0 **** -0.24
28072 H 47.626224628997306 28.048534499130298 57.09583317243549 H 0.0 **** 0.06
28073 H 48.22215796632878 29.25955532290152 55.93542800875328 H 0.0 **** 0.06
28074 H 48.36875875172831 27.523394910879574 55.566272921728526 H 0.0 **** 0.06
28075 H 49.37611006058552 28.250453349651828 56.840907960964486 H 0.0 **** 0.06
28076 C 125.87636923780498 24.602777164696732 32.25224974131071 C 0.0 **** -0.24
28077 H 125.32622620830993 24.9080961633845 31.36143962120181 H 0.0 **** 0.06
28078 H 125.18687932657063 24.519499174165162 33.09284366027507 H 0.0 **** 0.06
28079 H 126.63993479891123 25.34604130176612 32.47936577650397 H 0.0 **** 0.06
28080 H 126.35057178044327 23.637194716468713 32.07244372821394 H 0.0 **** 0.06
28081 C 91.42378659215304 16.045088502499738 44.89051470087554 C 0.0 **** -0.24
28082 H 90.9846688722956 15.557698410399098 45.76133397991316 H 0.0 **** 0.06
28083 H 90.63203924834109 16.33708791297164 44.20073491492474 H 0.0 **** 0.06
28084 H 92.10356845926822 15.353721847794105 44.391818946619196 H 0.0 **** 0.06
28085 H 91.97402173818313 16.930717899808826 45.20826385425784 H 0.0 **** 0.06
28086 C 79.25995666834456 46.59179694491122 11.493332446184468 C 0.0 **** -0.24
28087 H 78.22065187446032 46.40570921809868 11.76215309286539 H 0.0 **** 0.06
28088 H 79.33677345133772 46.73537754911666 10.415594323610833 H 0.0 **** 0.06
28089 H 79.87080397435349 45.7384515929303 11.791109228277435 H 0.0 **** 0.06
28090 H 79.61285478643735 47.48688400033896 12.00538590675356 H 0.0 **** 0.06
28091 C 151.70219948262073 82.94239671885435 50.30698002738998 C 0.0 **** -0.24
28092 H 151.69889769926428 84.02867973964706 50.21649814248235 H 0.0 **** 0.06
28093 H 151.7915293512276 82.66603306901628 51.35720998024297 H 0.0 **** 0.06
28094 H 152.54554092749237 82.53494126933367 49.750033069990266 H 0.0 **** 0.06
28095 H 150.772863620397 82.54207170685001 49.901849913104414 H 0.0 **** 0.06
28096 C 134.66414347481117 42.57310253553308 144.07618022160975 C 0.0 **** -0.24
28097 H 135.43605775231168 41.9647689763659 144.54884854107914 H 0.0 **** 0.06
28098 H 134.09519173112545 41.958563783252245 143.3780830034902 H 0.0 **** 0.06
28099 H 135.130585161147 43.39771506131834 143.53865445099007 H 0.0 **** 0.06
28100 H 133.99576575553175 42.96903950751866 144.84038031971394 H 0.0 **** 0.06
28101 C 136.60215190422696 14.706038125975866 103.664571069433 C 0.0 **** -0.24
28102 H 135.55107269213545 14.42270817762752 103.7131537680785 H 0.0 **** 0.06
28103 H 136.75666618154872 15.62748675073425 104.22499359372613 H 0.0 **** 0.06
28104 H 136.88812294091196 14.861396999593815 102.62379256693053 H 0.0 **** 0.06
28105 H 137.21236757249352 13.912220218607459 104.09441012323829 H 0.0 **** 0.06
28106 C 31.722344956500848 65.25337228077181 6.57621311917319 C 0.0 **** -0.24
28107 H 32.133722213057695 65.72072517005446 7.470934138891323 H 0.0 **** 0.06
28108 H 32.04082376677911 65.81219107568513 5.696203191016764 H 0.0 **** 0.06
28109 H 30.633293716350096 65.25527432909456 6.633723900900804 H 0.0 **** 0.06
28110 H 32.080831857759904 64.22684524672457 6.5043170866129 H 0.0 **** 0.06
28111 C 66.80157440254106 72.72101507627416 102.29068336800934 C 0.0 **** -0.24
28112 H 67.27963059236936 71.74169048477336 102.32042068162077 H 0.0 **** 0.06
28113 H 67.32431042353419 73.3999650399213 102.96399061802298 H 0.0 **** 0.06
28114 H 65.76180722691812 72.62755895359965 102.6024249434948 H 0.0 **** 0.06
28115 H 66.84258541890672 73.11355641437497 101.27441663104041 H 0.0 **** 0.06
28116 C 119.55435100175292 9.250936164656025 107.40864434407968 C 0.0 **** -0.24
28117 H 120.22354225963217 8.396259625642301 107.50570995261734 H 0.0 **** 0.06
28118 H 120.00081341746842 10.119872139306949 107.89282744732844 H 0.0 **** 0.06
28119 H 118.60029062646693 9.020767358694457 107.88148020269102 H 0.0 **** 0.06
28120 H 119.39283408299569 9.467399724135191 106.35217498106141 H 0.0 **** 0.06
28121 C 133.43606848763002 113.29709440751519 29.370427279858177 C 0.0 **** -0.24
28122 H 133.78422396537155 114.10515337553149 30.01344914871811 H 0.0 **** 0.06
28123 H 132.89167027817328 113.71661456975535 28.52399469703056 H 0.0 **** 0.06
28124 H 132.77599948664476 112.64067718413342 29.93777904515605 H 0.0 **** 0.06
28125 H 134.29072271283403 112.72769867749555 29.006851582484217 H 0.0 **** 0.06
28126 C 156.86777372692165 27.09803910473019 139.70928809597825 C 0.0 **** -0.24
28127 H 157.24015864633992 28.11098843436497 139.55756536464617 H 0.0 **** 0.06
28128 H 156.98435914683284 26.52588593428436 138.78758297054134 H 0.0 **** 0.06
28129 H 155.8128265712107 27.136470670359984 139.98157874675337 H 0.0 **** 0.06
28130 H 157.43232804930514 26.619025510704546 140.5084426637989 H 0.0 **** 0.06
28131 C 132.67544516232383 77.1188336842817 75.03048677067979 C 0.0 **** -0.24
28132 H 133.50320725511583 77.01071766597286 74.33002585343303 H 0.0 **** 0.06
28133 H 132.59411195783042 76.2182503157391 75.63943273670405 H 0.0 **** 0.06
28134 H 131.7480317774739 77.27011966234807 74.47781901514765 H 0.0 **** 0.06
28135 H 132.85700243479567 77.97868001852116 75.6768496516303 H 0.0 **** 0.06
28136 C 124.5187140202009 123.53762176413892 44.232664580356655 C 0.0 **** -0.24
28137 H 125.08855094119552 122.7065724492399 43.81678527383258 H 0.0 **** 0.06
28138 H 124.91488476023879 123.79182119900804 45.21636173892897 H 0.0 **** 0.06
28139 H 123.47221494936271 123.24952524215598 44.32535608948001 H 0.0 **** 0.06
28140 H 124.60166551033596 124.40123488673186 43.572568294432514 H 0.0 **** 0.06
28141 C 62.54233417355795 118.84135843118271 76.22564596246991 C 0.0 **** -0.24
28142 H 61.721234701484036 119.53304244992286 76.03413464300282 H 0.0 **** 0.06
28143 H 62.1386709532095 117.8636495213287 76.49044964778861 H 0.0 **** 0.06
28144 H 63.150759890227505 119.21824087614156 77.0471923156338 H 0.0 **** 0.06
28145 H 63.15676009793685 118.75063516234995 75.33023280426505 H 0.0 **** 0.06
28146 C 5.785996066471753 151.05503041737435 82.72413332671756 C 0.0 **** -0.24
28147 H 5.3482124875751325 150.40726823549085 83.48405265480133 H 0.0 **** 0.06
28148 H 6.736083788804173 151.4469838739722 83.0856750852208 H 0.0 **** 0.06
28149 H 5.106334391493775 151.8808833594006 82.51645433337072 H 0.0 **** 0.06
28150 H 5.952279733791109 150.48257644207442 81.81137110587795 H 0.0 **** 0.06
28151 C 136.78511891327568 145.5714765350851 83.67516246168785 C 0.0 **** -0.24
28152 H 136.19442679635185 145.3996855033239 84.57471030346223 H 0.0 **** 0.06
28153 H 136.12152204063673 145.6441752307631 82.81380379975205 H 0.0 **** 0.06
28154 H 137.47829998700465 144.74192821372876 83.53181572012913 H 0.0 **** 0.06
28155 H 137.3463934940062 146.49971735641202 83.78122134823563 H 0.0 **** 0.06
28156 C 48.05766767724738 108.89602977180499 85.39351318103249 C 0.0 **** -0.24
28157 H 48.02073703133276 109.17413734250624 86.4468317370072 H 0.0 **** 0.06
28158 H 47.04222306865289 108.7652596625274 85.01705181958457 H 0.0 **** 0.06
28159 H 48.60985308079859 107.96306287730778 85.28248295690027 H 0.0 **** 0.06
28160 H 48.55648695120098 109.68368613631333 84.8275710458345 H 0.0 **** 0.06
28161 C 42.12977188499816 92.21335027416944 14.749699658203554 C 0.0 **** -0.24
28162 H 41.78259646311736 91.56170672687267 13.947815883858766 H 0.0 **** 0.06
28163 H 42.847990249558535 91.67502396669869 15.368685813552702 H 0.0 **** 0.06
28164 H 41.281646979535466 92.52175659881527 15.360094873826597 H 0.0 **** 0.06
28165 H 42.60736397906199 93.0938884786218 14.320902611308952 H 0.0 **** 0.06
28166 C 12.304037779815644 44.632076144281015 137.92054727598577 C 0.0 **** -0.24
28167 H 12.1636793871063 45.606990720690945 138.3877525545847 H 0.0 **** 0.06
28168 H 13.093570949750983 44.699394921793385 137.17122073263064 H 0.0 **** 0.06
28169 H 11.374931961512118 44.32087315612971 137.44305617764837 H 0.0 **** 0.06
28170 H 12.584650387543718 43.90316954388875 138.68031854239808 H 0.0 **** 0.06
28171 C 24.905330389050278 97.41606833159284 20.183510739176967 C 0.0 **** -0.24
28172 H 25.446007393891705 97.43923255686335 21.1286791922235 H 0.0 **** 0.06
28173 H 23.873618839306992 97.11323065914313 20.362751634879018 H 0.0 **** 0.06
28174 H 25.381970250043317 96.70486126271545 19.508919293735552 H 0.0 **** 0.06
28175 H 24.91978768924718 98.408921262733 19.732241680042492 H 0.0 **** 0.06
28176 C 65.33682155390308 103.20082428077541 38.16076680636196 C 0.0 **** -0.24
28177 H 65.85694883615497 102.34871729518238 37.722203248549945 H 0.0 **** 0.06
28178 H 66.02911301422685 104.03695923131323 38.26062950192336 H 0.0 **** 0.06
28179 H 64.95396628878241 102.92594324753583 39.14312718028194 H 0.0 **** 0.06
28180 H 64.50740066566993 103.49098130568439 37.515527646134245 H 0.0 **** 0.06
28181 C 10.00948428484935 47.96719611156297 140.94472186228802 C 0.0 **** -0.24
28182 H 10.534615623147488 48.82442087102831 140.52334381096455 H 0.0 **** 0.06
28183 H 10.508035826038281 47.65083740952714 141.86114928202625 H 0.0 **** 0.06
28184 H 10.016033941220513 47.14779672689228 140.22604153221693 H 0.0 **** 0.06
28185 H 8.98018361198632 48.246091638041705 141.1683310152228 H 0.0 **** 0.06
28186 C 51.76827978462653 111.47812047930937 57.240292301174236 C 0.0 **** -0.24
28187 H 51.31298551331025 112.33333479179039 57.73838288954185 H 0.0 **** 0.06
28188 H 51.00304699695411 110.92150025013338 56.70044386758852 H 0.0 **** 0.06
28189 H 52.2329377338869 110.83063024664075 57.984329988863124 H 0.0 **** 0.06
28190 H 52.5261402578345 111.82794337635075 56.539096804373344 H 0.0 **** 0.06
28191 C 61.05304398454575 47.41240081381693 20.21409951617366 C 0.0 **** -0.24
28192 H 61.809187044390356 48.146420309626706 20.49391865018839 H 0.0 **** 0.06
28193 H 61.245573808071995 46.4745149344414 20.737132101817394 H 0.0 **** 0.06
28194 H 61.09083909669634 47.2431540750614 19.138165164485457 H 0.0 **** 0.06
28195 H 60.06559565248075 47.78467574726653 20.488338209328845 H 0.0 **** 0.06
28196 C 134.78992178465234 103.87846745201017 0.30150964466912455 C 0.0 **** -0.24
28197 H 135.37537322698182 103.38921411890055 -0.4767804348143727 H 0.0 **** 0.06
28198 H 133.89961178817958 104.32591374341212 -0.14056456138686713 H 0.0 **** 0.06
28199 H 135.3917120940881 104.65599382727498 0.7721483951732466 H 0.0 **** 0.06
28200 H 134.49566416024066 103.14404849982225 1.0508372786199516 H 0.0 **** 0.06
28201 C 81.88265661295885 105.31937191624662 74.53626657602973 C 0.0 **** -0.24
28202 H 82.72670600046055 104.64840377823081 74.3708364652075 H 0.0 **** 0.06
28203 H 81.91765871088272 105.70186061546029 75.55653219388637 H 0.0 **** 0.06
28204 H 80.95148598557924 104.775300839894 74.38263210116418 H 0.0 **** 0.06
28205 H 81.93882035913173 106.15091252735742 73.83379200980971 H 0.0 **** 0.06
28206 C 117.45885956367225 2.3203323087972265 70.87510159708592 C 0.0 **** -0.24
28207 H 118.51221291291448 2.365458203124316 70.59877924690602 H 0.0 **** 0.06
28208 H 116.85306404473657 2.719055643296244 70.0608238848789 H 0.0 **** 0.06
28209 H 117.29348900732138 2.9132314831561956 71.77437508266793 H 0.0 **** 0.06
28210 H 117.17720125130093 1.2848805299474861 71.06441840766713 H 0.0 **** 0.06
28211 C 93.32815562596349 3.054214703278223 123.14967958059026 C 0.0 **** -0.24
28212 H 94.13450217972104 2.3734241836437455 122.87391658959172 H 0.0 **** 0.06
28213 H 92.50322686017836 2.9428496694569652 122.44595446886228 H 0.0 **** 0.06
28214 H 93.6945837114475 4.080262927996806 123.1213218385218 H 0.0 **** 0.06
28215 H 92.9832144798612 2.81871551727102 124.15579854233476 H 0.0 **** 0.06
28216 C 129.60774226749135 38.049665781379105 12.11240874527968 C 0.0 **** -0.24
28217 H 130.56905564247594 37.687148249524896 12.47608208143015 H 0.0 **** 0.06
28218 H 129.64595575091144 38.15260325459985 11.027291090805875 H 0.0 **** 0.06
28219 H 129.3902962363901 39.01836625064344 12.562262380562544 H 0.0 **** 0.06
28220 H 128.82589066796055 37.339478429577795 12.38309989718337 H 0.0 **** 0.06
28221 C 73.16994394715093 37.81676538260939 68.54161409016857 C 0.0 **** -0.24
28222 H 72.77511639573744 38.46445791253859 69.32457658791805 H 0.0 **** 0.06
28223 H 73.4431949821187 36.852552704123354 68.97124705144557 H 0.0 **** 0.06
28224 H 74.05134175582492 38.280305775785166 68.09842126595265 H 0.0 **** 0.06
28225 H 72.41076467356334 37.67068426323857 67.77413655758409 H 0.0 **** 0.06
28226 C 152.6279776490449 98.13952530547061 118.32939503347838 C 0.0 **** -0.24
28227 H 151.55677751048228 98.09331546456099 118.13100498117306 H 0.0 **** 0.06
28228 H 153.07532661304572 97.1637044437725 118.13631144786099 H 0.0 **** 0.06
28229 H 152.79236374544627 98.41472724533483 119.3712135282528 H 0.0 **** 0.06
28230 H 153.08615850237146 98.88464947823707 117.67971748640026 H 0.0 **** 0.06
28231 C 131.87704635796118 125.21761298603174 139.73163867607417 C 0.0 **** -0.24
28232 H 131.92669388427896 124.2776251186216 139.18290051218372 H 0.0 **** 0.06
28233 H 131.6228333095956 126.02542434774027 139.0458215121491 H 0.0 **** 0.06
28234 H 132.84446904779733 125.42164346973361 140.19111619452343 H 0.0 **** 0.06
28235 H 131.11483112220856 125.14603486145093 140.50743192984925 H 0.0 **** 0.06
28236 C 147.5581029667339 43.18817858377707 86.85627709871449 C 0.0 **** -0.24
28237 H 148.0913530664487 42.23795388564815 86.8902040213008 H 0.0 **** 0.06
28238 H 148.03435448478345 43.895945877409346 87.53426131552385 H 0.0 **** 0.06
28239 H 146.5230312170328 43.03410114486266 87.16058003036102 H 0.0 **** 0.06
28240 H 147.58416189162205 43.58294728471705 85.84086424700672 H 0.0 **** 0.06
28241 C 14.678555895182356 91.88952680240689 81.6181530949035 C 0.0 **** -0.24
28242 H 15.671169598271348 92.20771718993917 81.93580945482103 H 0.0 **** 0.06
28243 H 14.212205823660959 91.30578416445954 82.4128227544071 H 0.0 **** 0.06
28244 H 14.763238231678045 91.2769217165579 80.72031591762936 H 0.0 **** 0.06
28245 H 14.067757437867662 92.76628012779511 81.40358023407134 H 0.0 **** 0.06
28246 C 55.28652212787722 18.12089187624531 94.44335443298208 C 0.0 **** -0.24
28247 H 55.71328532253318 17.880549123510093 93.46915669348317 H 0.0 **** 0.06
28248 H 55.621166612617685 17.38722083049467 95.17708159837838 H 0.0 **** 0.06
28249 H 54.19927211001476 18.100281346618857 94.3778545527657 H 0.0 **** 0.06
28250 H 55.614390252281936 19.11516132522175 94.74799430568793 H 0.0 **** 0.06
28251 C 138.70198316064756 109.67675801841237 42.47885268879449 C 0.0 **** -0.24
28252 H 138.38169522506024 109.88018658286033 41.456949986259644 H 0.0 **** 0.06
28253 H 138.8929743201266 108.61025839353398 42.593972484061254 H 0.0 **** 0.06
28254 H 137.91923670929486 109.98439357941395 43.17211239504513 H 0.0 **** 0.06
28255 H 139.6142904654431 110.23521597792909 42.69018603733444 H 0.0 **** 0.06
28256 C 28.488719141411735 151.90518616074587 0.6218649779863483 C 0.0 **** -0.24
28257 H 28.25456605915278 150.8464679146839 0.7311154507384003 H 0.0 **** 0.06
28258 H 29.186308229484183 152.20449103003637 1.4040246335302413 H 0.0 **** 0.06
28259 H 27.572630107553408 152.48953899684864 0.7072658684649582 H 0.0 **** 0.06
28260 H 28.941006030499494 152.07789178060384 -0.35551215520919754 H 0.0 **** 0.06
28261 C 40.04163638051935 92.75462489524622 38.785878734353105 C 0.0 **** -0.24
28262 H 39.86348916544932 93.82560941114275 38.88081237587423 H 0.0 **** 0.06
28263 H 39.492849380562774 92.36998255870884 37.92618589647259 H 0.0 **** 0.06
28264 H 39.70117784927598 92.24884359427142 39.689260672491 H 0.0 **** 0.06
28265 H 41.10720841143234 92.57417689719841 38.64854921195584 H 0.0 **** 0.06
28266 C 21.62354496607702 34.73320804040507 120.05591594255775 C 0.0 **** -0.24
28267 H 22.05042504686321 35.2650863258316 120.90587155261728 H 0.0 **** 0.06
28268 H 21.40827933209647 35.441577806195234 119.25512027881273 H 0.0 **** 0.06
28269 H 20.701775822711454 34.23964017058426 120.36217080595186 H 0.0 **** 0.06
28270 H 22.334032082248484 33.98727066008715 119.69991994758622 H 0.0 **** 0.06
28271 C 45.61599222577439 61.53700775504208 135.6272247204351 C 0.0 **** -0.24
28272 H 46.22868456190483 61.14611099614808 136.44047286448668 H 0.0 **** 0.06
28273 H 44.905611219734155 60.773510451882515 135.30820214155642 H 0.0 **** 0.06
28274 H 46.2564633221281 61.81138859804156 134.78999682753465 H 0.0 **** 0.06
28275 H 45.07335306138782 62.41665448777184 135.97394801839246 H 0.0 **** 0.06
28276 C 96.64590209953514 45.337341048074634 94.60388592731312 C 0.0 **** -0.24
28277 H 97.46379382387119 45.60552244925806 93.93517707261344 H 0.0 **** 0.06
28278 H 96.49199398530362 46.13859019387607 95.32700748400873 H 0.0 **** 0.06
28279 H 96.89391960233726 44.41549526493513 95.13066896102288 H 0.0 **** 0.06
28280 H 95.73515838113755 45.19101929108568 94.0240407231613 H 0.0 **** 0.06
28281 C 87.45830818258233 63.1822155099934 42.396485979122446 C 0.0 **** -0.24
28282 H 87.55249985271807 62.24050266075841 41.854959860284254 H 0.0 **** 0.06
28283 H 87.69400985598104 63.021689524022264 43.44797433502673 H 0.0 **** 0.06
28284 H 86.43696097078274 63.552848026266105 42.304154443113674 H 0.0 **** 0.06
28285 H 88.14952157140424 63.913421482201244 41.97572762437055 H 0.0 **** 0.06
28286 C 67.71333146475678 114.68968877405814 7.283346198286672 C 0.0 **** -0.24
28287 H 67.73882664636437 115.73166690080944 6.96379766920186 H 0.0 **** 0.06
28288 H 66.91549525446146 114.16724999739017 6.7545004629721745 H 0.0 **** 0.06
28289 H 67.52928157481412 114.64294513469821 8.356803393504372 H 0.0 **** 0.06
28290 H 68.66972238338724 114.2168930633348 7.0582832674682905 H 0.0 **** 0.06
28291 C 148.4028868802967 151.05289771087132 148.0376095316961 C 0.0 **** -0.24
28292 H 149.33328333705506 150.87655955224682 148.57752800958775 H 0.0 **** 0.06
28293 H 147.95790464172688 151.98898217203867 148.37646701215354 H 0.0 **** 0.06
28294 H 147.7112472910885 150.23253284276313 148.2284466939047 H 0.0 **** 0.06
28295 H 148.60948196153097 151.11374204857066 146.9693426675776 H 0.0 **** 0.06
28296 C 111.47704447116062 150.30683541612333 78.36804068298625 C 0.0 **** -0.24
28297 H 112.13069566187404 151.0840633742689 78.76454731337964 H 0.0 **** 0.06
28298 H 110.93383497286841 149.83696890141897 79.18794895245435 H 0.0 **** 0.06
28299 H 112.07646932560816 149.5558421768585 77.85260232778518 H 0.0 **** 0.06
28300 H 110.7690695632722 150.7500803776804 77.668192067387 H 0.0 **** 0.06
28301 C 30.45160276210973 46.95613898679733 92.2384588761071 C 0.0 **** -0.24
28302 H 30.275994058725303 47.370491249007756 93.2316348343009 H 0.0 **** 0.06
28303 H 29.720445517886077 46.17328991780457 92.03657501427517 H 0.0 **** 0.06
28304 H 31.456277029778875 46.53602613818403 92.1928137626503 H 0.0 **** 0.06
28305 H 30.354506012088876 47.74580151361155 91.49329447059944 H 0.0 **** 0.06
28306 C 103.34052223521552 18.882985780928493 102.17589174022034 C 0.0 **** -0.24
28307 H 103.19266321197706 18.169981488687654 101.36495940561498 H 0.0 **** 0.06
28308 H 104.33626583670393 18.74907792208512 102.59904425324275 H 0.0 **** 0.06
28309 H 102.59076962543016 18.713469190898877 102.94889163050466 H 0.0 **** 0.06
28310 H 103.24215748172948 19.8975188143163 101.78950880174956 H 0.0 **** 0.06
28311 C 95.22792981933083 37.99226877635415 114.22736851148825 C 0.0 **** -0.24
28312 H 95.90935135365544 38.84226205491905 114.2506013757375 H 0.0 **** 0.06
28313 H 94.63178462385042 37.97989421799399 115.13980834338817 H 0.0 **** 0.06
28314 H 95.80177681325267 37.06832093611584 114.15470702046001 H 0.0 **** 0.06
28315 H 94.56838778422542 38.079844302816255 113.36383651421552 H 0.0 **** 0.06
28316 C 115.25916493239579 55.125245476831935 30.576102397377156 C 0.0 **** -0.24
28317 H 114.38216990028259 55.44344029872718 30.011642063318163 H 0.0 **** 0.06
28318 H 114.95855552008742 54.405063976350164 31.33807766502747 H 0.0 **** 0.06
28319 H 115.71577942341172 55.990977454217386 31.054730632560677 H 0.0 **** 0.06
28320 H 115.9768672822333 54.66084197992609 29.900830336303272 H 0.0 **** 0.06
28321 C 136.1908431112485 0.7373182904017312 154.75473583338558 C 0.0 **** -0.24
28322 H 137.07729519187308 0.8138852971455606 155.3850563084946 H 0.0 **** 0.06
28323 H 135.3127357880374 0.5841023993514227 155.38205719440066 H 0.0 **** 0.06
28324 H 136.3023380657977 -0.10670221991938433 154.07254524993394 H 0.0 **** 0.06
28325 H 136.0720254553518 1.6554397115132247 154.17996538373737 H 0.0 **** 0.06
28326 C 34.20811641916579 18.16529879557305 42.89850571115487 C 0.0 **** -0.24
28327 H 33.89319567786309 18.668192044981993 41.98372486119513 H 0.0 **** 0.06
28328 H 33.7676148146371 18.66959114468284 43.75958427298815 H 0.0 **** 0.06
28329 H 35.29459669822458 18.196920115842374 42.975110805803084 H 0.0 **** 0.06
28330 H 33.87514987258761 17.127918402830232 42.87617071958299 H 0.0 **** 0.06
28331 C 134.6582737208402 39.3294466102536 132.49681116455966 C 0.0 **** -0.24
28332 H 135.5538183970968 39.19179549207078 131.89075540934903 H 0.0 **** 0.06
28333 H 134.7461451924693 40.25330539648358 133.06870820526885 H 0.0 **** 0.06
28334 H 134.54901819509215 38.48732402999998 133.17932887354797 H 0.0 **** 0.06
28335 H 133.78518307408655 39.386126011093154 131.84664361469464 H 0.0 **** 0.06
28336 C 48.9843573143193 45.47145050252345 133.331276058441 C 0.0 **** -0.24
28337 H 48.243129211774885 45.84281378154594 132.6242811109555 H 0.0 **** 0.06
28338 H 49.80406050111881 45.00386581003596 132.78650281504048 H 0.0 **** 0.06
28339 H 48.52013451694174 44.737212385684245 133.99104140439067 H 0.0 **** 0.06
28340 H 49.36766883219707 46.30108525902989 133.92537295661413 H 0.0 **** 0.06
28341 C 131.96484137656932 128.07874437879724 123.05000328557924 C 0.0 **** -0.24
28342 H 131.01816670665323 127.61473670170012 122.77622680336867 H 0.0 **** 0.06
28343 H 132.7800317610131 127.37991208060045 122.86256336184681 H 0.0 **** 0.06
28344 H 131.94772012285847 128.34177811661766 124.10751724632865 H 0.0 **** 0.06
28345 H 132.11383050598528 128.979746841209 122.4543553225904 H 0.0 **** 0.06
28346 C 30.481145844939533 129.15743783765498 58.44083841674487 C 0.0 **** -0.24
28347 H 29.815405371244395 129.91421445579294 58.02789848296692 H 0.0 **** 0.06
28348 H 30.14268319395076 128.88182352191154 59.43921531303147 H 0.0 **** 0.06
28349 H 31.4947117001891 129.55564330584912 58.49743669660859 H 0.0 **** 0.06
28350 H 30.472732190911415 128.27613651925907 57.798202500291666 H 0.0 **** 0.06
28351 C 61.00300255222655 26.76531447194335 132.53460979681444 C 0.0 **** -0.24
28352 H 61.07549220313463 27.822036124751016 132.7912774029195 H 0.0 **** 0.06
28353 H 61.992334417496664 26.310657902086724 132.58225981043705 H 0.0 **** 0.06
28354 H 60.604451006446155 26.66368207101653 131.52459978188642 H 0.0 **** 0.06
28355 H 60.338567308103904 26.264921740954023 133.23902131781722 H 0.0 **** 0.06
28356 C 7.168085373764654 41.16084844225145 93.12753400710292 C 0.0 **** -0.24
28357 H 6.123795497695575 41.19637417743911 92.81787736733699 H 0.0 **** 0.06
28358 H 7.340678219547101 40.26266700760743 93.72096345515195 H 0.0 **** 0.06
28359 H 7.398735874329226 42.0418570723059 93.7260787390241 H 0.0 **** 0.06
28360 H 7.808281589836994 41.14329775365616 92.24601235606485 H 0.0 **** 0.06
28361 C 39.5789793635431 73.84321374265205 44.27070263955406 C 0.0 **** -0.24
28362 H 39.49762526734017 72.78438384567397 44.02616958877607 H 0.0 **** 0.06
28363 H 38.80985833569588 74.39918384646622 43.735017337169666 H 0.0 **** 0.06
28364 H 40.56308300524981 74.20943259826075 43.97875669646055 H 0.0 **** 0.06
28365 H 39.44464500009525 73.97923084655432 45.34392177152802 H 0.0 **** 0.06
28366 C 58.25750150088105 47.181621852005264 7.560313729646879 C 0.0 **** -0.24
28367 H 57.67582525974535 46.855959328697224 6.698174338953606 H 0.0 **** 0.06
28368 H 58.784247013558286 48.103861708114934 7.314953817357576 H 0.0 **** 0.06
28369 H 58.979689472072224 46.409612092263956 7.822895305859504 H 0.0 **** 0.06
28370 H 57.589239108160015 47.357088201211084 8.403502684315157 H 0.0 **** 0.06
28371 C 61.29973095307179 8.701314084877538 129.1733907348479 C 0.0 **** -0.24
28372 H 62.050097812833144 8.529617021333848 128.40253191423608 H 0.0 **** 0.06
28373 H 61.40437581442286 9.714197424347304 129.56275621516644 H 0.0 **** 0.06
28374 H 61.44073954893295 7.984619438562106 129.98223065699312 H 0.0 **** 0.06
28375 H 60.304684203124395 8.576649621254347 128.74619357922933 H 0.0 **** 0.06
28376 C 85.96478952480135 131.88493762820633 75.11827436527153 C 0.0 **** -0.24
28377 H 86.74670859396801 131.91191327174204 75.87766594919344 H 0.0 **** 0.06
28378 H 85.97615404001749 130.91585755835706 74.61849204545081 H 0.0 **** 0.06
28379 H 86.1416852366537 132.67321261788385 74.3873994936215 H 0.0 **** 0.06
28380 H 84.99437897480414 132.03852012913114 75.5917503364106 H 0.0 **** 0.06
28381 C 83.07646514936344 52.267424773026164 101.9951768223144 C 0.0 **** -0.24
28382 H 84.12799555768099 52.187561749776364 102.27241750616336 H 0.0 **** 0.06
28383 H 82.98684412000861 52.8396831966042 101.0720029341846 H 0.0 **** 0.06
28384 H 82.52844448536348 52.771551432383006 102.79179364719359 H 0.0 **** 0.06
28385 H 82.66464118262168 51.269326836551016 101.84629701784364 H 0.0 **** 0.06
28386 C 139.42443718687588 75.61548119837839 40.216469586936114 C 0.0 **** -0.24
28387 H 139.32441551364752 76.09960454634133 41.188726739511765 H 0.0 **** 0.06
28388 H 139.40562691569426 76.3701758045406 39.43135568549286 H 0.0 **** 0.06
28389 H 138.59813213059505 74.91875978074388 40.07123209158482 H 0.0 **** 0.06
28390 H 140.36844017863217 75.07242894418616 40.17753047664405 H 0.0 **** 0.06
28391 C 45.98136725224458 5.579075137788209 118.29425542332187 C 0.0 **** -0.24
28392 H 45.96752485411059 4.650714935399094 117.72300818933128 H 0.0 **** 0.06
28393 H 45.56497390656864 6.3844143423925175 117.68816214883451 H 0.0 **** 0.06
28394 H 47.0089674869846 5.82270201200356 118.56597478004711 H 0.0 **** 0.06
28395 H 45.384926895162494 5.458035432978534 119.19889788479308 H 0.0 **** 0.06
28396 C 126.34390112158421 62.83433997973985 115.08157442108097 C 0.0 **** -0.24
28397 H 126.72707585955989 63.80235043328102 115.40733294266721 H 0.0 **** 0.06
28398 H 127.0573606435628 62.37210384127526 114.39881973753796 H 0.0 **** 0.06
28399 H 125.39056511603737 62.975278005260066 114.57166891556176 H 0.0 **** 0.06
28400 H 126.20072559192319 62.19049687432023 115.94934368355536 H 0.0 **** 0.06
28401 C 24.6404658590328 14.184629261713098 81.90057441946124 C 0.0 **** -0.24
28402 H 24.155384291413725 14.809563880325015 82.64944571628021 H 0.0 **** 0.06
28403 H 24.663445220932218 13.151733438327199 82.24928901245642 H 0.0 **** 0.06
28404 H 25.659184961630103 14.536434554696257 81.73930731389538 H 0.0 **** 0.06
28405 H 24.08436953150531 14.24096633425529 80.96555803815885 H 0.0 **** 0.06
28406 C 101.7530698961116 87.45223415550612 68.41345422322445 C 0.0 **** -0.24
28407 H 100.82802364134686 87.18118672960567 67.90459727783954 H 0.0 **** 0.06
28408 H 102.06808963795355 88.44497648917498 68.090720712015 H 0.0 **** 0.06
28409 H 102.52906589496901 86.72642337003978 68.16820818850427 H 0.0 **** 0.06
28410 H 101.58719991168961 87.45527444064162 69.49120354814269 H 0.0 **** 0.06
28411 C 80.08023833767237 94.4661735485477 57.58127382679706 C 0.0 **** -0.24
28412 H 79.3049571281822 94.86274384474248 56.92631528510685 H 0.0 **** 0.06
28413 H 79.77691468972108 94.5920577133097 58.620084481433 H 0.0 **** 0.06
28414 H 81.01245480514285 95.00324672887909 57.40727234288511 H 0.0 **** 0.06
28415 H 80.22615163334791 93.4067171679836 57.37054613455598 H 0.0 **** 0.06
28416 C 22.704572034611715 54.55840928555784 104.45204489405056 C 0.0 **** -0.24
28417 H 23.06138230218869 54.27302328274084 105.44163618933597 H 0.0 **** 0.06
28418 H 23.46570063261862 54.319853685644716 103.70953150279526 H 0.0 **** 0.06
28419 H 22.500831540358547 55.62861261852049 104.43503675801783 H 0.0 **** 0.06
28420 H 21.78972857336231 54.01059571244045 104.22425018716324 H 0.0 **** 0.06
28421 C 120.9499993968816 57.39635501132696 106.07491340850231 C 0.0 **** -0.24
28422 H 121.25945493909188 56.351498370607416 106.08878874940814 H 0.0 **** 0.06
28423 H 121.46310355542624 57.916644083668075 105.26604501414494 H 0.0 **** 0.06
28424 H 121.2037598488381 57.86323851593265 107.02644747888996 H 0.0 **** 0.06
28425 H 119.8723126310523 57.45367609177191 105.918346376398 H 0.0 **** 0.06
28426 C 83.16097397217857 18.49058527220511 45.20234708890996 C 0.0 **** -0.24
28427 H 83.96513469596454 19.11618098776146 45.59061146349359 H 0.0 **** 0.06
28428 H 83.58586256259389 17.677776017553057 44.6129919445068 H 0.0 **** 0.06
28429 H 82.50470545103087 19.091899627708358 44.57389079248267 H 0.0 **** 0.06
28430 H 82.5891091535608 18.077694080686307 46.03353670232792 H 0.0 **** 0.06
28431 C 115.5314339271119 103.73077994149996 29.00778854381224 C 0.0 **** -0.24
28432 H 115.5387532208352 103.03051862157925 28.173388079194666 H 0.0 **** 0.06
28433 H 116.20627798592677 103.37550720008132 29.78638114460449 H 0.0 **** 0.06
28434 H 114.52077740874996 103.80625746456106 29.409933095691372 H 0.0 **** 0.06
28435 H 115.85827023267827 104.71133380821392 28.661538896913612 H 0.0 **** 0.06
28436 C 133.04469771559582 93.31951352963662 73.68851367164116 C 0.0 **** -0.24
28437 H 133.88833326167156 93.13755501471938 74.35321043566192 H 0.0 **** 0.06
28438 H 132.11525800724513 93.25739137715523 74.25520791233416 H 0.0 **** 0.06
28439 H 133.03853715673506 92.57139186992366 72.89570744930754 H 0.0 **** 0.06
28440 H 133.13654574939983 94.31297275040781 73.24929118439617 H 0.0 **** 0.06
28441 C 73.27236288129312 144.3211355330673 152.87004667551923 C 0.0 **** -0.24
28442 H 74.1390822739721 143.68369681217632 153.0454264023969 H 0.0 **** 0.06
28443 H 72.6292593194354 143.86150288182924 152.11874424328167 H 0.0 **** 0.06
28444 H 73.60572997419062 145.29647090459093 152.5166475534164 H 0.0 **** 0.06
28445 H 72.71676571831256 144.44243257978115 153.8003103545132 H 0.0 **** 0.06
28446 C 45.178492421737786 47.74421359734464 49.89082761779092 C 0.0 **** -0.24
28447 H 45.63015154466652 46.975030766635996 50.517212864464724 H 0.0 **** 0.06
28448 H 45.727322708198955 48.678403109652265 50.01045598887744 H 0.0 **** 0.06
28449 H 44.14013944892261 47.89222590074752 50.1889352504286 H 0.0 **** 0.06
28450 H 45.216355985163034 47.43119461234255 48.846706367393026 H 0.0 **** 0.06
28451 C 15.17130940983813 38.1853427914853 156.03478899858908 C 0.0 **** -0.24
28452 H 14.681673070347813 38.896983367501946 155.36947355455513 H 0.0 **** 0.06
28453 H 15.381959727880798 37.264338574414325 155.49000060893775 H 0.0 **** 0.06
28454 H 14.516263923138183 37.96682408246413 156.87861758343328 H 0.0 **** 0.06
28455 H 16.10399891890765 38.61343957668693 156.40067294045326 H 0.0 **** 0.06
28456 C 4.918081923752197 85.65266385683104 134.8496576904422 C 0.0 **** -0.24
28457 H 4.601536150299182 85.83406010346707 133.82299425246333 H 0.0 **** 0.06
28458 H 5.671887500860407 86.38832452754326 135.13317710054403 H 0.0 **** 0.06
28459 H 5.339518319957193 84.65074704214325 134.9289212968955 H 0.0 **** 0.06
28460 H 4.058990444851702 85.73856679118622 135.5151982198332 H 0.0 **** 0.06
28461 C 13.323502527989035 39.865752761517044 16.795973245968753 C 0.0 **** -0.24
28462 H 14.135057906042675 40.313629666830664 17.368933800887874 H 0.0 **** 0.06
28463 H 13.235524954557405 40.3710953749131 15.834265672347499 H 0.0 **** 0.06
28464 H 12.38976329951916 39.96918041596233 17.348306867515703 H 0.0 **** 0.06
28465 H 13.533997927708583 38.808922853720915 16.633311359684768 H 0.0 **** 0.06
28466 C 59.632233092007155 83.9400552401847 36.75472442643944 C 0.0 **** -0.24
28467 H 59.26772180853108 84.89309303192138 37.13861396319294 H 0.0 **** 0.06
28468 H 59.782824518263936 84.01681983492031 35.67766681081535 H 0.0 **** 0.06
28469 H 58.90011329461096 83.16062414130897 36.965635383873234 H 0.0 **** 0.06
28470 H 60.57751410905786 83.69254331124267 37.237480376582695 H 0.0 **** 0.06
28471 C 34.229180476444355 62.78318033203695 47.5624043541719 C 0.0 **** -0.24
28472 H 33.854139527316704 63.6997894626667 47.10805687506985 H 0.0 **** 0.06
28473 H 34.95332712398431 62.31541521564324 46.894104155423946 H 0.0 **** 0.06
28474 H 33.39900458731114 62.09776105426663 47.735450894129244 H 0.0 **** 0.06
28475 H 34.70987530805212 63.01808466460734 48.51174627613405 H 0.0 **** 0.06
28476 C 30.535026478907298 54.705664471380075 30.633904944113567 C 0.0 **** -0.24
28477 H 30.35907602019924 55.76717588809201 30.456220787480277 H 0.0 **** 0.06
28478 H 29.594023014337353 54.16255261596079 30.54770949032286 H 0.0 **** 0.06
28479 H 30.944926730508456 54.567897470895986 31.633856277565428 H 0.0 **** 0.06
28480 H 31.241291023757867 54.32716767696327 29.895879743745866 H 0.0 **** 0.06
28481 C 119.09063315507693 92.34936272549997 112.62881636551997 C 0.0 **** -0.24
28482 H 119.38845316360543 92.0969998738201 113.64685562163488 H 0.0 **** 0.06
28483 H 119.39866949158305 93.37088173847152 112.40288222481614 H 0.0 **** 0.06
28484 H 118.00760871305211 92.2678356642033 112.53673452042294 H 0.0 **** 0.06
28485 H 119.56815542953878 91.66255149747948 111.93027826906778 H 0.0 **** 0.06
28486 C 125.44869267591973 121.71213587834359 142.81293390841387 C 0.0 **** -0.24
28487 H 125.76136673357173 121.26154245841326 141.870717272 H 0.0 **** 0.06
28488 H 124.68380205993434 122.46371431213055 142.61961332383726 H 0.0 **** 0.06
28489 H 126.30747936397798 122.1808326449738 143.29331441561047 H 0.0 **** 0.06
28490 H 125.04345894418746 120.93969595072195 143.46682293816338 H 0.0 **** 0.06
28491 C 42.17072790796226 19.720075020015344 112.94570736313669 C 0.0 **** -0.24
28492 H 41.76307461184979 18.7642327029967 112.61721700734775 H 0.0 **** 0.06
28493 H 41.93082759605116 20.488393243789076 112.2096946821858 H 0.0 **** 0.06
28494 H 43.25270502518592 19.63760361307469 113.04624909110812 H 0.0 **** 0.06
28495 H 41.735186233428124 19.989123199887075 113.907705896878 H 0.0 **** 0.06
28496 C 51.5151196105779 97.16735216641787 46.86991298384811 C 0.0 **** -0.24
28497 H 52.5476244620823 96.82534379487299 46.94291082644301 H 0.0 **** 0.06
28498 H 50.85866410425325 96.44554621232602 47.356132082483626 H 0.0 **** 0.06
28499 H 51.23820832601771 97.26126284762697 45.81987698703226 H 0.0 **** 0.06
28500 H 51.417478190028135 98.13606481808858 47.359573692549915 H 0.0 **** 0.06
28501 C 88.94272405233369 116.05658541634443 19.24380620419757 C 0.0 **** -0.24
28502 H 87.88217852704418 115.97676106609367 19.006067023161563 H 0.0 **** 0.06
28503 H 89.4999263826088 115.31276697253861 18.67528943275849 H 0.0 **** 0.06
28504 H 89.09002115995558 115.8848142947216 20.309865724739808 H 0.0 **** 0.06
28505 H 89.29822258428835 117.05411270897065 18.984486354716978 H 0.0 **** 0.06
28506 C 108.21831650510933 82.18378964857672 86.16728956967984 C 0.0 **** -0.24
28507 H 107.6120385153456 82.75938984125406 85.46745308411323 H 0.0 **** 0.06
28508 H 108.5517513371878 81.2640613383773 85.68710866146978 H 0.0 **** 0.06
28509 H 107.62344122921257 81.9399738897877 87.04770990377756 H 0.0 **** 0.06
28510 H 109.08517470187303 82.77283530787156 86.46667184581099 H 0.0 **** 0.06
28511 C 50.32196956600012 36.718626835985305 26.89622777223599 C 0.0 **** -0.24
28512 H 50.82706306489183 35.844886801481024 27.307269814902014 H 0.0 **** 0.06
28513 H 49.363086359444424 36.417948891083284 26.473787897483817 H 0.0 **** 0.06
28514 H 50.94083381229086 37.16053518017485 26.114360916852434 H 0.0 **** 0.06
28515 H 50.15796717495664 37.44947820604807 27.687467387698348 H 0.0 **** 0.06
28516 C 2.239474191510112 107.05840141163448 135.62045274082308 C 0.0 **** -0.24
28517 H 2.3039835323418743 108.07006211593098 135.22124753170567 H 0.0 **** 0.06
28518 H 1.194064531878837 106.80233546174178 135.79302895065754 H 0.0 **** 0.06
28519 H 2.7873173623944467 107.00318343004459 136.5606008524294 H 0.0 **** 0.06
28520 H 2.6715460311055494 106.35790016246175 134.90551455457637 H 0.0 **** 0.06
28521 C 97.28064342057272 85.81395638574301 115.77049167175916 C 0.0 **** -0.24
28522 H 96.84012263451334 85.14999701446823 115.0261180489076 H 0.0 **** 0.06
28523 H 97.68690933523558 86.69588256877985 115.27613263507497 H 0.0 **** 0.06
28524 H 98.07992125452051 85.28989175668262 116.29589715953357 H 0.0 **** 0.06
28525 H 96.51464792059383 86.11785478552548 116.4842845997231 H 0.0 **** 0.06
28526 C 4.375334062693241 79.40383083651699 152.73764215457862 C 0.0 **** -0.24
28527 H 4.652743182389486 79.30097959955208 153.78620566681587 H 0.0 **** 0.06
28528 H 5.271115093732135 79.34335735444529 152.1172930069394 H 0.0 **** 0.06
28529 H 3.8905898530864533 80.36762898067059 152.5819056437649 H 0.0 **** 0.06
28530 H 3.6883879805224637 78.60291678271574 152.4632784416351 H 0.0 **** 0.06
28531 C 17.587432424405222 149.11668658379386 83.2186146853605 C 0.0 **** -0.24
28532 H 18.057638442319245 149.70707457078447 82.43170298639228 H 0.0 **** 0.06
28533 H 18.176438686483777 149.19581693720474 84.13201419351572 H 0.0 **** 0.06
28534 H 17.535246476737512 148.07385976722782 82.90755602258497 H 0.0 **** 0.06
28535 H 16.580308915802107 149.49267329774128 83.40123157958541 H 0.0 **** 0.06
28536 C 38.15485329580851 107.18372000718539 98.749244022124 C 0.0 **** -0.24
28537 H 38.72078401892364 106.37781852517769 98.28301676303636 H 0.0 **** 0.06
28538 H 37.283661596733126 106.76892487602491 99.25599414269033 H 0.0 **** 0.06
28539 H 37.82899859937835 107.88911947752943 97.9849155778403 H 0.0 **** 0.06
28540 H 38.78596896819917 107.69901715000945 99.47304960492897 H 0.0 **** 0.06
28541 C 85.75949082578929 70.52133938798967 100.07266593891899 C 0.0 **** -0.24
28542 H 85.53010958434024 70.79813224069609 101.10133673697175 H 0.0 **** 0.06
28543 H 85.75576768203693 69.43477741743514 99.97932284157446 H 0.0 **** 0.06
28544 H 86.74406613859716 70.90577205480373 99.80487184856764 H 0.0 **** 0.06
28545 H 85.00965759052686 70.94625425458801 99.40550693235122 H 0.0 **** 0.06
28546 C 107.5653410534635 32.22009723115592 77.03599668838785 C 0.0 **** -0.24
28547 H 108.30519778402345 32.169859539295736 77.83429101618657 H 0.0 **** 0.06
28548 H 106.75853842546621 31.51709323135782 77.24299321788988 H 0.0 **** 0.06
28549 H 108.03618641051423 31.96292265485762 76.08726408515588 H 0.0 **** 0.06
28550 H 107.16166801820987 33.23136169645601 76.97794531981384 H 0.0 **** 0.06
28551 C 34.72047510725841 141.35646551969953 87.90398373491671 C 0.0 **** -0.24
28552 H 35.288518614928364 140.44871505918303 88.10536724421596 H 0.0 **** 0.06
28553 H 35.40145347270462 142.15149939606414 87.60083647782157 H 0.0 **** 0.06
28554 H 34.186710800281105 141.65885512442347 88.80538702294304 H 0.0 **** 0.06
28555 H 34.004404231168735 141.16734317715282 87.10453211271692 H 0.0 **** 0.06
28556 C 66.34244853692383 70.65000235796101 124.61955152902954 C 0.0 **** -0.24
28557 H 65.51597414348902 70.41010717213092 123.95070547543935 H 0.0 **** 0.06
28558 H 66.65881186174316 69.74800441307077 125.14495297389027 H 0.0 **** 0.06
28559 H 66.01734311306598 71.39663147821861 125.34415838418067 H 0.0 **** 0.06
28560 H 67.17616648261848 71.04526403626052 124.0400489557266 H 0.0 **** 0.06
28561 C 57.8290502853921 137.65123249654292 117.4390175327544 C 0.0 **** -0.24
28562 H 57.22634587411744 138.47447177531038 117.82543857905154 H 0.0 **** 0.06
28563 H 57.30183410532504 136.71049694253313 117.59807221645565 H 0.0 **** 0.06
28564 H 58.785549505688095 137.62615022227294 117.96049310375145 H 0.0 **** 0.06
28565 H 58.000618109974766 137.79682636937093 116.37275370099832 H 0.0 **** 0.06
28566 C 126.83140156946888 36.43885126151585 76.96999615886823 C 0.0 **** -0.24
28567 H 127.06701505188943 35.541832207834716 76.3966282128515 H 0.0 **** 0.06
28568 H 127.73305010184401 36.80168339715533 77.46240087370882 H 0.0 **** 0.06
28569 H 126.07724718059501 36.20196080239168 77.72063838162774 H 0.0 **** 0.06
28570 H 126.44783646560415 37.20795121748279 76.29937872065247 H 0.0 **** 0.06
28571 C 94.66341610091256 104.25015295585831 138.90260467983708 C 0.0 **** -0.24
28572 H 93.57680198244344 104.31993174755183 138.9631471168443 H 0.0 **** 0.06
28573 H 94.97799652013211 104.37611566319674 137.86690336776803 H 0.0 **** 0.06
28574 H 94.98518190848048 103.27425891494528 139.26484800299795 H 0.0 **** 0.06
28575 H 95.11096292558435 105.03109201533954 139.5172457874279 H 0.0 **** 0.06
28576 C 70.43191043018494 6.599191935835336 50.0898036403762 C 0.0 **** -0.24
28577 H 71.34126926236073 6.044371022666752 50.31995126154783 H 0.0 **** 0.06
28578 H 70.45193177599717 6.910312238032361 49.044138275139915 H 0.0 **** 0.06
28579 H 70.37200138500972 7.479436580450795 50.72974108865458 H 0.0 **** 0.06
28580 H 69.56454271813472 5.963519654916325 50.263189398904245 H 0.0 **** 0.06
28581 C 25.94649902208357 63.43486792841317 44.881710126236854 C 0.0 **** -0.24
28582 H 26.164771590694215 63.91292867864658 43.92668778050685 H 0.0 **** 0.06
28583 H 26.663007722500993 63.77547137944575 45.63043524516371 H 0.0 **** 0.06
28584 H 26.02095473463197 62.35363559846735 44.77226325668933 H 0.0 **** 0.06
28585 H 24.937126993171887 63.70025598942449 45.19728100520969 H 0.0 **** 0.06
28586 C 129.72444546926323 10.402727974663975 149.5238623505842 C 0.0 **** -0.24
28587 H 130.6067638628793 9.952544405877347 149.06887808746643 H 0.0 **** 0.06
28588 H 129.9452394924032 10.671625758709467 150.5569841545036 H 0.0 **** 0.06
28589 H 128.90079437516988 9.68971180432834 149.50160340572435 H 0.0 **** 0.06
28590 H 129.44546274515847 11.29752406927193 148.96674810313675 H 0.0 **** 0.06
28591 C 68.31751682547555 31.552545018204455 53.463259032434834 C 0.0 **** -0.24
28592 H 68.29404672454093 30.571249552255154 52.988481126367944 H 0.0 **** 0.06
28593 H 67.68436109721317 31.5422039851982 54.3497445185555 H 0.0 **** 0.06
28594 H 67.95223844739566 32.303375120429536 52.762823792887914 H 0.0 **** 0.06
28595 H 69.34155703738143 31.79080685714092 53.75026530715044 H 0.0 **** 0.06
28596 C 50.189754140397326 131.6941181340746 146.45976655392158 C 0.0 **** -0.24
28597 H 51.09919784826161 132.11691962239036 146.03334575101854 H 0.0 **** 0.06
28598 H 49.93479554879946 130.77426947564385 145.93402306642008 H 0.0 **** 0.06
28599 H 49.37387621635838 132.40985899825984 146.35711709351207 H 0.0 **** 0.06
28600 H 50.35056261866703 131.47652527255528 147.51524872962023 H 0.0 **** 0.06
28601 C 116.24968464650071 126.02718624393611 85.065574815793 C 0.0 **** -0.24
28602 H 116.49987813296467 125.93848068025306 86.12322846691856 H 0.0 **** 0.06
28603 H 115.48363475628427 125.2951462393537 84.8110858215436 H 0.0 **** 0.06
28604 H 117.14148940152536 125.84377706477363 84.46510410949725 H 0.0 **** 0.06
28605 H 115.87622202918725 127.03091476993234 84.86416138166105 H 0.0 **** 0.06
28606 C 85.35687442682672 26.783491867388392 144.5907832064782 C 0.0 **** -0.24
28607 H 84.66389077594283 25.98044193614126 144.3374194800517 H 0.0 **** 0.06
28608 H 86.32694927296842 26.582492270367908 144.1364071293289 H 0.0 **** 0.06
28609 H 85.46657723853133 26.838612942099047 145.67414909690098 H 0.0 **** 0.06
28610 H 84.96770057382548 27.730279735399336 144.21602578780588 H 0.0 **** 0.06
28611 C 8.949739959456991 98.94848418144961 116.6968088451285 C 0.0 **** -0.24
28612 H 8.694565339228319 98.77269295408323 117.74194186810608 H 0.0 **** 0.06
28613 H 9.85085880849985 99.55944647872674 116.64089308251319 H 0.0 **** 0.06
28614 H 8.126647907609595 99.46823413140616 116.20511872284153 H 0.0 **** 0.06
28615 H 9.124797296279638 97.99404287015211 116.1999140913038 H 0.0 **** 0.06
28616 C 60.50011412050431 62.49509419232406 146.2555157559245 C 0.0 **** -0.24
28617 H 60.74683052064404 62.02960866437418 147.21037174039807 H 0.0 **** 0.06
28618 H 61.40705637907696 62.894321719172225 145.8012935667641 H 0.0 **** 0.06
28619 H 59.78772629173072 63.303890524302375 146.4192617712301 H 0.0 **** 0.06
28620 H 60.05883801777247 61.75082428314036 145.59286851682288 H 0.0 **** 0.06
28621 C 5.774689721387233 23.827248793866943 135.94238415377242 C 0.0 **** -0.24
28622 H 6.426971574878337 24.13281140610934 135.12411185515685 H 0.0 **** 0.06
28623 H 5.2404264643543 24.696938748734112 136.3247280066455 H 0.0 **** 0.06
28624 H 6.373679244078119 23.387947891787405 136.73978613811292 H 0.0 **** 0.06
28625 H 5.056881220138337 23.09066602990444 135.57827217566776 H 0.0 **** 0.06
28626 C 27.10768269686622 112.16296331754364 111.17839476624181 C 0.0 **** -0.24
28627 H 26.23158086068264 111.59324123785132 111.49026819881254 H 0.0 **** 0.06
28628 H 27.156049235428156 112.18607460645148 110.08909441226842 H 0.0 **** 0.06
28629 H 28.007427906400608 111.69134116023668 111.57286878653105 H 0.0 **** 0.06
28630 H 27.03361821932333 113.18136040767126 111.56048049942933 H 0.0 **** 0.06
28631 C 4.599332496793551 35.19956135709279 116.94377624632769 C 0.0 **** -0.24
28632 H 4.288119694247655 34.18117444624488 117.17338311963981 H 0.0 **** 0.06
28633 H 5.372872253220919 35.509968448389685 117.64710504270077 H 0.0 **** 0.06
28634 H 3.742573047013053 35.869236872809495 117.02769088657475 H 0.0 **** 0.06
28635 H 4.99353406529363 35.239963497975026 115.92816929778878 H 0.0 **** 0.06
28636 C 109.8024302400359 69.49486440311625 97.4732472477196 C 0.0 **** -0.24
28637 H 108.72199550684684 69.46173251604205 97.61414345957085 H 0.0 **** 0.06
28638 H 110.03832425238363 70.134383337558 96.62212901340533 H 0.0 **** 0.06
28639 H 110.17591081428378 68.48764099687406 97.28542291627598 H 0.0 **** 0.06
28640 H 110.27349038662925 69.89570076199078 98.3712936016263 H 0.0 **** 0.06
28641 C 155.73107187264705 62.47610453102229 133.95528206134736 C 0.0 **** -0.24
28642 H 154.77767165640455 61.99681852935919 134.17860389690355 H 0.0 **** 0.06
28643 H 155.90952340687053 62.445187333839726 132.87932670663378 H 0.0 **** 0.06
28644 H 156.53262567897272 61.94778750671442 134.4711059409516 H 0.0 **** 0.06
28645 H 155.70411142538273 63.512962375619225 134.28942513595155 H 0.0 **** 0.06
28646 C 0.6344070816287797 70.73714069907324 90.45235397435465 C 0.0 **** -0.24
28647 H -0.2624981840285443 70.4017158210153 89.93126398299073 H 0.0 **** 0.06
28648 H 1.5120052713419057 70.50572314340828 89.8502576837103 H 0.0 **** 0.06
28649 H 0.7071804651635034 70.22848532457827 91.41354823661628 H 0.0 **** 0.06
28650 H 0.5785221030999992 71.81441204895741 90.61441580669118 H 0.0 **** 0.06
28651 C 133.852474396617 43.00050185367377 135.0846832439836 C 0.0 **** -0.24
28652 H 134.47277326911845 43.2637431603996 135.94156480004844 H 0.0 **** 0.06
28653 H 133.6953495464967 41.922434930084535 135.0678270445466 H 0.0 **** 0.06
28654 H 134.35242812594726 43.309300919920446 134.16630745132483 H 0.0 **** 0.06
28655 H 132.89077915560438 43.50785646154229 135.16346299019722 H 0.0 **** 0.06
28656 C 28.445200619439298 109.71251774070443 140.55132378117432 C 0.0 **** -0.24
28657 H 28.48772472976121 108.77706222290853 141.10849459881084 H 0.0 **** 0.06
28658 H 27.620153310663234 109.67465133114824 139.83936467115646 H 0.0 **** 0.06
28659 H 29.382360838927887 109.8589499569574 140.0141869231922 H 0.0 **** 0.06
28660 H 28.289314666769847 110.5405748292353 141.24352731500147 H 0.0 **** 0.06
28661 C 137.33457266072517 84.27490153232081 61.59545072141947 C 0.0 **** -0.24
28662 H 137.1764771129224 83.49339791731954 62.33910224597396 H 0.0 **** 0.06
28663 H 137.23629979331352 85.25222057672323 62.069144330874124 H 0.0 **** 0.06
28664 H 136.5929760207066 84.17839226770934 60.803231044169564 H 0.0 **** 0.06
28665 H 138.33363898039406 84.17484533700686 61.171431957257155 H 0.0 **** 0.06
28666 C 28.535179778521865 10.102256529613783 131.78943548663116 C 0.0 **** -0.24
28667 H 27.92033938461418 9.22504063331661 131.99013482164838 H 0.0 **** 0.06
28668 H 28.105134052091188 10.66442628755749 130.96000523977446 H 0.0 **** 0.06
28669 H 29.545356771692525 9.786262861232558 131.52901637076596 H 0.0 **** 0.06
28670 H 28.568339246665715 10.732709706973878 132.67708398656868 H 0.0 **** 0.06
28671 C 45.13894472916837 134.26275981774586 24.53890786905223 C 0.0 **** -0.24
28672 H 44.56314187070535 134.96465538055736 25.14272272546814 H 0.0 **** 0.06
28673 H 44.59261912520088 134.03999288366086 23.6225084520321 H 0.0 **** 0.06
28674 H 45.29672099608848 133.3435187427964 25.102700522108876 H 0.0 **** 0.06
28675 H 46.10239070443214 134.70592525783414 24.288626249141068 H 0.0 **** 0.06
28676 C 136.0752711644841 135.96159826331828 154.1750841279834 C 0.0 **** -0.24
28677 H 135.29244737861097 136.05231880795887 153.42268174679967 H 0.0 **** 0.06
28678 H 136.47548163407737 136.9498936808988 154.40331744604418 H 0.0 **** 0.06
28679 H 136.873895271685 135.32513544123367 153.7934687509002 H 0.0 **** 0.06
28680 H 135.65928152109683 135.52037436369602 155.08038613940056 H 0.0 **** 0.06
28681 C 38.98956542325931 118.22890600070353 56.56029858645985 C 0.0 **** -0.24
28682 H 39.60829776688456 118.01059368848469 57.43047941790414 H 0.0 **** 0.06
28683 H 39.31605903884821 119.16667477545487 56.10843092531118 H 0.0 **** 0.06
28684 H 37.94772911575342 118.31839168805145 56.868392889136544 H 0.0 **** 0.06
28685 H 39.0857151963566 117.42212543269612 55.834231109141555 H 0.0 **** 0.06
28686 C 150.28120376490187 44.38157736938706 156.10808826989827 C 0.0 **** -0.24
28687 H 150.6896715170452 44.898494464971634 156.9763517536608 H 0.0 **** 0.06
28688 H 151.0969778044635 44.06524869536429 155.45718152222477 H 0.0 **** 0.06
28689 H 149.62063006079273 45.054824876151656 155.56225053810394 H 0.0 **** 0.06
28690 H 149.71922845715318 43.506752556527914 156.43696516201518 H 0.0 **** 0.06
28691 C 98.23808949754937 108.56347086091758 41.77033785032836 C 0.0 **** -0.24
28692 H 98.70196731527905 107.91042655105183 42.50958623334503 H 0.0 **** 0.06
28693 H 98.32636950900303 109.60039394054631 42.09476017150325 H 0.0 **** 0.06
28694 H 97.18414564719272 108.30333132783493 41.665693225017435 H 0.0 **** 0.06
28695 H 98.73978657446796 108.43934670329925 40.810393099939176 H 0.0 **** 0.06
28696 C 152.46591414224068 77.03783878428753 49.37156376568814 C 0.0 **** -0.24
28697 H 153.157814124246 76.53947794674437 48.6930981889149 H 0.0 **** 0.06
28698 H 151.5614444863528 77.31372349262884 48.828733253972146 H 0.0 **** 0.06
28699 H 152.93484145377312 77.93400409243345 49.775938018899865 H 0.0 **** 0.06
28700 H 152.20888776130883 76.36286483423103 50.18753573610154 H 0.0 **** 0.06
28701 C 130.75272396415892 70.37967329653503 32.9869734027107 C 0.0 **** -0.24
28702 H 131.75686544860736 70.68204940160854 33.283387344306675 H 0.0 **** 0.06
28703 H 130.26901877983494 69.8651030968901 33.817788968787454 H 0.0 **** 0.06
28704 H 130.8130984478201 69.71022471133443 32.129641411601256 H 0.0 **** 0.06
28705 H 130.17302328384613 71.26250477098989 32.718907451810765 H 0.0 **** 0.06
28706 C 29.18406817662472 36.820363249327784 84.97833816813439 C 0.0 **** -0.24
28707 H 29.594038027858062 37.571889166895176 84.30419785463118 H 0.0 **** 0.06
28708 H 29.982485962184683 36.413944123073065 85.5980898605343 H 0.0 **** 0.06
28709 H 28.73145178909678 36.01753869194329 84.39421841357054 H 0.0 **** 0.06
28710 H 28.42600772935225 37.27777292894075 85.61468668715911 H 0.0 **** 0.06
28711 C 71.36098022516225 6.613153635329098 30.61670421239922 C 0.0 **** -0.24
28712 H 72.43130619893982 6.735786401111113 30.449814433623096 H 0.0 **** 0.06
28713 H 71.17386923759952 6.468080836269877 31.68137368242222 H 0.0 **** 0.06
28714 H 71.00508941103854 5.744428242659751 30.06328793539442 H 0.0 **** 0.06
28715 H 70.83568105834003 7.504042058708762 30.273247873670996 H 0.0 **** 0.06
28716 C 68.43734771640294 13.873472808441107 84.85344575146948 C 0.0 **** -0.24
28717 H 68.78810952291167 14.896025847617835 84.98551029146594 H 0.0 **** 0.06
28718 H 67.3471655606752 13.858224152514481 84.87236793338325 H 0.0 **** 0.06
28719 H 68.82343641942484 13.249687489043453 85.65991898416257 H 0.0 **** 0.06
28720 H 68.79061473662549 13.488974255069252 83.89617673223314 H 0.0 **** 0.06
28721 C 132.24023952078528 13.299722741201322 144.76621533898026 C 0.0 **** -0.24
28722 H 132.95514881304769 13.866727494588531 145.3622388081488 H 0.0 **** 0.06
28723 H 132.300884877907 13.618592891442688 143.7249984143479 H 0.0 **** 0.06
28724 H 131.23243288792244 13.477619434836356 145.14284680747676 H 0.0 **** 0.06
28725 H 132.47115014891938 12.237417360125335 144.83620951700618 H 0.0 **** 0.06
28726 C 73.48206693758465 11.486857165484153 103.82353233068697 C 0.0 **** -0.24
28727 H 74.05694608448543 11.00594621740116 104.61589799529186 H 0.0 **** 0.06
28728 H 73.1928693802384 10.74125032979093 103.0823610168754 H 0.0 **** 0.06
28729 H 74.09197221361833 12.25506736668168 103.34883106502745 H 0.0 **** 0.06
28730 H 72.58842320742129 11.943261119555387 104.24893681802111 H 0.0 **** 0.06
28731 C 146.7035359767754 42.19356952314371 3.3011142742802235 C 0.0 **** -0.24
28732 H 146.52115910016005 42.57767403580215 4.305478310001632 H 0.0 **** 0.06
28733 H 145.754129892151 41.927793984234995 2.8363873474997376 H 0.0 **** 0.06
28734 H 147.339316884187 41.30929495205089 3.360736788562349 H 0.0 **** 0.06
28735 H 147.19973392356914 42.958823221080564 2.705387825876471 H 0.0 **** 0.06
28736 C 9.898498037483051 4.591114769694627 49.84662167244579 C 0.0 **** -0.24
28737 H 10.829153775823784 4.546383295287399 50.41164082172213 H 0.0 **** 0.06
28738 H 9.78575840525707 3.6785072276647384 49.26070107588578 H 0.0 **** 0.06
28739 H 9.920780549483993 5.4516637017146365 49.17824327248513 H 0.0 **** 0.06
28740 H 9.059283503017468 4.6879533721859445 50.535730470234625 H 0.0 **** 0.06
28741 C 18.810753625193904 1.9555595670967705 89.53776924265333 C 0.0 **** -0.24
28742 H 19.005309157243218 1.026482984662465 89.00345522570797 H 0.0 **** 0.06
28743 H 19.609597324665025 2.667886880384401 89.32926206281888 H 0.0 **** 0.06
28744 H 18.769724346537302 1.757139559059425 90.60873458621757 H 0.0 **** 0.06
28745 H 17.85802484761892 2.371374856909256 89.2089513414179 H 0.0 **** 0.06
28746 C 36.05220350504189 25.280868985213544 143.91584953550336 C 0.0 **** -0.24
28747 H 36.57996503925733 25.512872635377676 142.99081292071298 H 0.0 **** 0.06
28748 H 35.004573410611755 25.07782684339446 143.6956479982421 H 0.0 **** 0.06
28749 H 36.12357328272125 26.129185336809883 144.59697023821386 H 0.0 **** 0.06
28750 H 36.5028747801052 24.40327891315667 144.38105464062988 H 0.0 **** 0.06
28751 C 108.81826581742264 11.15696911636985 147.8324259141368 C 0.0 **** -0.24
28752 H 108.79705195055884 10.24099570660826 148.42148558998235 H 0.0 **** 0.06
28753 H 109.3366479780676 11.9365930743337 148.39065086187114 H 0.0 **** 0.06
28754 H 107.79745201002625 11.477103986631732 147.62217005149404 H 0.0 **** 0.06
28755 H 109.34079560845997 10.973048292415626 146.89346402329437 H 0.0 **** 0.06
28756 C 76.18882631961165 42.61647474365071 136.40639993856 C 0.0 **** -0.24
28757 H 76.54625516973391 43.420488902035075 135.7623863138562 H 0.0 **** 0.06
28758 H 76.41804480530202 41.654902828009824 135.94705365323867 H 0.0 **** 0.06
28759 H 75.11096387718007 42.7099528252122 136.5387860136781 H 0.0 **** 0.06
28760 H 76.68107192584168 42.68297984199437 137.37634632228944 H 0.0 **** 0.06
28761 C 117.02125181911434 135.08494563971703 34.917435563488176 C 0.0 **** -0.24
28762 H 117.180912557951 135.2698947687967 35.980454844334474 H 0.0 **** 0.06
28763 H 115.97881184401173 134.81572138257656 34.7496236348259 H 0.0 **** 0.06
28764 H 117.6659974376153 134.26951642520112 34.58929236146806 H 0.0 **** 0.06
28765 H 117.2600012586612 135.9869811870305 34.35261939946685 H 0.0 **** 0.06
28766 C 153.5772607819296 146.35475840841292 66.63563967778687 C 0.0 **** -0.24
28767 H 154.00207602724547 147.3543249053678 66.72979119615141 H 0.0 **** 0.06
28768 H 153.92839811963353 145.73144267858106 67.45845300178624 H 0.0 **** 0.06
28769 H 153.88882961995662 145.9157709481886 65.688114731789 H 0.0 **** 0.06
28770 H 152.48949989446035 146.4188749197495 66.66639681585613 H 0.0 **** 0.06
28771 C 24.820136364213994 82.45157178254804 114.06477827805786 C 0.0 **** -0.24
28772 H 25.458875359245127 82.42010211552149 114.9475527865079 H 0.0 **** 0.06
28773 H 23.7743067286944 82.42797467023551 114.37321346517699 H 0.0 **** 0.06
28774 H 25.032163220200147 81.5901904205699 113.43128681222659 H 0.0 **** 0.06
28775 H 25.014768230300945 83.3687911375648 113.5091140294936 H 0.0 **** 0.06
28776 C 18.677650994882782 93.68591269250565 131.00138446962166 C 0.0 **** -0.24
28777 H 18.556279202998212 93.31564526952035 129.9830138981226 H 0.0 **** 0.06
28778 H 18.861768352121487 92.84582030051378 131.67208730108814 H 0.0 **** 0.06
28779 H 17.770764163586932 94.20557452898268 131.30923263783447 H 0.0 **** 0.06
28780 H 19.52176890362179 94.37360016991325 131.03921991423803 H 0.0 **** 0.06
28781 C 87.01500497059092 97.63931308940205 51.791349377274 C 0.0 **** -0.24
28782 H 87.91114472174944 97.53662286014756 51.17816752566 H 0.0 **** 0.06
28783 H 86.29937142805565 98.28460014949196 51.28259905581791 H 0.0 **** 0.06
28784 H 87.28217006620805 98.0766410226112 52.752525588588384 H 0.0 **** 0.06
28785 H 86.57032404039505 96.65667710449105 51.949716267959076 H 0.0 **** 0.06
28786 C 75.92370627739564 138.6508497801157 13.26284704852543 C 0.0 **** -0.24
28787 H 75.85312180765996 138.2828019995997 14.28627673674864 H 0.0 **** 0.06
28788 H 76.97284550515548 138.78803252566718 12.998507327697773 H 0.0 **** 0.06
28789 H 75.40056355570533 139.60309518440124 13.182057091285252 H 0.0 **** 0.06
28790 H 75.46992292969725 137.9279453798231 12.58555941094211 H 0.0 **** 0.06
28791 C 27.59092074490718 147.76423969109078 7.471986132620486 C 0.0 **** -0.24
28792 H 27.458268623041533 147.83262802996262 6.39208514994948 H 0.0 **** 0.06
28793 H 27.607463783978346 146.71623527640963 7.770383066734439 H 0.0 **** 0.06
28794 H 26.765182193969622 148.27169663876117 7.972508880035548 H 0.0 **** 0.06
28795 H 28.53146772970325 148.23790942490334 7.753130262023149 H 0.0 **** 0.06
28796 C 143.6087161046525 5.709996059904711 119.23868516394909 C 0.0 **** -0.24
28797 H 142.929192562391 5.905174671554789 118.40936392313806 H 0.0 **** 0.06
28798 H 144.4669795103623 5.143721954063722 118.87844607605909 H 0.0 **** 0.06
28799 H 143.08886205419205 5.135359532266875 120.00547868829919 H 0.0 **** 0.06
28800 H 143.9474682597244 6.656334872403079 119.66122217383746 H 0.0 **** 0.06
28801 C 90.36409624936681 58.01715995293296 144.47594395122866 C 0.0 **** -0.24
28802 H 89.56554056544968 57.583382271908874 143.87436402900812 H 0.0 **** 0.06
28803 H 91.2250199740667 57.34662149631356 144.4754169762536 H 0.0 **** 0.06
28804 H 90.01343883221821 58.15818978886966 145.49820009539306 H 0.0 **** 0.06
28805 H 90.6540855609233 58.98013085869519 144.05569057263526 H 0.0 **** 0.06
28806 C 79.52163295822248 55.67183925688698 54.85785906981191 C 0.0 **** -0.24
28807 H 80.23365084907277 55.45862391331663 55.65550211638762 H 0.0 **** 0.06
28808 H 80.06229937611391 55.958382819848424 53.954989571528 H 0.0 **** 0.06
28809 H 78.86604971250068 56.486702143748616 55.16321414148848 H 0.0 **** 0.06
28810 H 78.92558737217092 54.78145247614758 54.65747515155546 H 0.0 **** 0.06
28811 C 29.716399188727337 32.8394399560598 129.72620199016922 C 0.0 **** -0.24
28812 H 29.79545707673566 33.30667842669841 130.70750862632724 H 0.0 **** 0.06
28813 H 30.43834652052746 32.02613170384599 129.6514061774273 H 0.0 **** 0.06
28814 H 29.922135019633856 33.58046414070375 128.95372894950077 H 0.0 **** 0.06
28815 H 28.708442087511315 32.44602966204191 129.591793966127 H 0.0 **** 0.06
28816 C 17.759112225914805 40.01775699792108 67.92494718796638 C 0.0 **** -0.24
28817 H 17.337298587886664 39.13635697813436 68.40725301260883 H 0.0 **** 0.06
28818 H 18.63044085492399 40.356118879416044 68.48569430539703 H 0.0 **** 0.06
28819 H 17.011900451473906 40.81126309166552 67.90012118563999 H 0.0 **** 0.06
28820 H 18.05680900937466 39.76728904246826 66.90672024821976 H 0.0 **** 0.06
28821 C 35.44622702635439 102.12533907013591 19.151342781473886 C 0.0 **** -0.24
28822 H 35.34279702106204 101.99826942672894 18.074190898870143 H 0.0 **** 0.06
28823 H 36.322538517876666 102.73777575245134 19.362015816433427 H 0.0 **** 0.06
28824 H 35.56341560363097 101.14899079962441 19.62260342568024 H 0.0 **** 0.06
28825 H 34.555890883750095 102.61501209364968 19.54702773817445 H 0.0 **** 0.06
28826 C 102.53755803033022 97.80039018982251 23.172257645014838 C 0.0 **** -0.24
28827 H 103.23297719872579 97.98155274844869 23.993027432087104 H 0.0 **** 0.06
28828 H 101.81834818763309 97.03696297580167 23.468723086521862 H 0.0 **** 0.06
28829 H 103.09048464061226 97.45904201508068 22.29690727472979 H 0.0 **** 0.06
28830 H 102.01012406538905 98.72341387154378 22.9327720557078 H 0.0 **** 0.06
28831 C 148.72315848754738 24.304733196068355 136.16169827783375 C 0.0 **** -0.24
28832 H 148.23522750536682 23.734132722863478 135.37133371933083 H 0.0 **** 0.06
28833 H 148.83819402307967 23.676206559548348 137.04546397273072 H 0.0 **** 0.06
28834 H 148.11455723301242 25.17475514320671 136.41076862291402 H 0.0 **** 0.06
28835 H 149.70369650989576 24.634079821892215 135.8193773385351 H 0.0 **** 0.06
28836 C 95.37328205560438 8.476804365847855 85.28484453738272 C 0.0 **** -0.24
28837 H 95.29823547321455 8.168180127106709 84.24259133851756 H 0.0 **** 0.06
28838 H 94.56881106066311 9.175264173620086 85.51638719765603 H 0.0 **** 0.06
28839 H 96.33515324911036 8.962114009650513 85.45214979035856 H 0.0 **** 0.06
28840 H 95.29114558467435 7.601484296030314 85.92995931725933 H 0.0 **** 0.06
28841 C 111.63043346835252 54.37238164260431 21.345517858907392 C 0.0 **** -0.24
28842 H 112.62341765443716 53.9780026749619 21.131386393612082 H 0.0 **** 0.06
28843 H 111.26192843268416 54.919804149713215 20.477024702904565 H 0.0 **** 0.06
28844 H 111.68394972564562 55.04410823459439 22.20225706441265 H 0.0 **** 0.06
28845 H 110.95318792932608 53.54969196590055 21.571072264537477 H 0.0 **** 0.06
28846 C 14.860183127009662 3.057935853202764 34.11272761580011 C 0.0 **** -0.24
28847 H 13.838958614675335 2.8250583678758687 33.80938576683731 H 0.0 **** 0.06
28848 H 15.040646625538415 2.6637084245576546 35.11236820319937 H 0.0 **** 0.06
28849 H 14.999183866593114 4.13952043739269 34.11700397970114 H 0.0 **** 0.06
28850 H 15.559567607055754 2.604476028395112 33.410331567865114 H 0.0 **** 0.06
28851 C 52.61300151457988 101.98829443213201 4.663072341661433 C 0.0 **** -0.24
28852 H 53.30310267327809 101.17620305446418 4.889595236146249 H 0.0 **** 0.06
28853 H 52.212372571788705 102.3942101053094 5.591959626292635 H 0.0 **** 0.06
28854 H 51.795819698099706 101.61009764959492 4.04860854878649 H 0.0 **** 0.06
28855 H 53.14100602592288 102.77300919751256 4.120785829207591 H 0.0 **** 0.06
28856 C 111.71744557708371 22.470773937102848 139.12301556522215 C 0.0 **** -0.24
28857 H 112.72529966034381 22.745912608035383 139.4355736625917 H 0.0 **** 0.06
28858 H 111.71433070794944 21.438311080627557 138.77404650097728 H 0.0 **** 0.06
28859 H 111.39487456396387 23.129220635327755 138.31629345197362 H 0.0 **** 0.06
28860 H 111.03587497724897 22.570725325139307 139.96826756143327 H 0.0 **** 0.06
28861 C 67.42723213393207 84.3765133911511 100.25185722579045 C 0.0 **** -0.24
28862 H 67.96718424844876 85.31861851266459 100.3510860166034 H 0.0 **** 0.06
28863 H 68.10920923217968 83.6025357616644 99.89820404332016 H 0.0 **** 0.06
28864 H 66.61332511396996 84.49756419202811 99.53774329685615 H 0.0 **** 0.06
28865 H 67.0208273661793 84.08833328862727 101.2219407801748 H 0.0 **** 0.06
28866 C 122.43565527295772 110.90782247969817 123.51903088049585 C 0.0 **** -0.24
28867 H 121.66046698874919 110.30212209080106 123.04914275584599 H 0.0 **** 0.06
28868 H 122.09037413934436 111.24578818864434 124.49632909703189 H 0.0 **** 0.06
28869 H 122.6525519302308 111.77184085579826 122.89044057172987 H 0.0 **** 0.06
28870 H 123.34002632214697 110.31046961521996 123.63974239765349 H 0.0 **** 0.06
28871 C 148.5041156776066 101.05068961539963 120.22353155205313 C 0.0 **** -0.24
28872 H 147.54616376911252 101.18351779240619 119.71896981557835 H 0.0 **** 0.06
28873 H 149.09211981379497 100.30054480208211 119.69507857042946 H 0.0 **** 0.06
28874 H 148.33165334090546 100.72198383775923 121.24889293203326 H 0.0 **** 0.06
28875 H 149.04304702836055 101.99773720324673 120.2321056046738 H 0.0 **** 0.06
28876 C 140.42759289198796 126.20677832777824 86.79466999393537 C 0.0 **** -0.24
28877 H 140.75014174613352 127.13761665562231 86.32940138505744 H 0.0 **** 0.06
28878 H 141.2786623066164 125.72869477574915 87.2788802944328 H 0.0 **** 0.06
28879 H 140.02242767565406 125.54119253242976 86.03210302238024 H 0.0 **** 0.06
28880 H 139.65829282833823 126.41890450579211 87.53634952640734 H 0.0 **** 0.06
28881 C 143.45541845340477 54.8145286838745 31.47228219364567 C 0.0 **** -0.24
28882 H 143.1224879232786 53.77743813127893 31.482483510342632 H 0.0 **** 0.06
28883 H 144.53540104068938 54.85143492972247 31.61926263838265 H 0.0 **** 0.06
28884 H 142.9607942870818 55.363291849490565 32.2745032566462 H 0.0 **** 0.06
28885 H 143.20284359443133 55.26760478381672 30.513992761280576 H 0.0 **** 0.06
28886 C 0.2563123727898642 40.290393606955675 18.960525601849227 C 0.0 **** -0.24
28887 H 0.1337334802953194 40.1639301039193 20.037026937771465 H 0.0 **** 0.06
28888 H 1.2564164618967766 40.67002283796174 18.751592299103628 H 0.0 **** 0.06
28889 H -0.48583134551807916 40.99761105898385 18.59131858651039 H 0.0 **** 0.06
28890 H 0.12067006593443352 39.32905196176483 18.464812899199963 H 0.0 **** 0.06
28891 C 41.30597874902509 103.31322809714811 4.271261724440706 C 0.0 **** -0.24
28892 H 41.02966874781799 103.94290283302638 5.117260658202326 H 0.0 **** 0.06
28893 H 40.41132864134272 102.84655906507788 3.858286070490351 H 0.0 **** 0.06
28894 H 41.99773745347687 102.53991118244562 4.605177153215692 H 0.0 **** 0.06
28895 H 41.785122101840386 103.92243825961896 3.505208672378302 H 0.0 **** 0.06
28896 C 144.6747827821049 31.415002930152014 84.13010203384579 C 0.0 **** -0.24
28897 H 145.28996124909332 31.98420249292684 83.43308267401699 H 0.0 **** 0.06
28898 H 144.65369799074094 31.9236650362418 85.094530363778 H 0.0 **** 0.06
28899 H 145.095097234934 30.417512097456125 84.25335960791446 H 0.0 **** 0.06
28900 H 143.66079288679774 31.336913771976356 83.7372862218757 H 0.0 **** 0.06
28901 C 137.4507450287732 23.221681430387207 147.4065871632563 C 0.0 **** -0.24
28902 H 137.1327121069942 22.359672232909247 146.81863058863763 H 0.0 **** 0.06
28903 H 137.02741942796087 24.12941033596104 146.97667049973296 H 0.0 **** 0.06
28904 H 138.53851557410593 23.28673619991281 147.396205839159 H 0.0 **** 0.06
28905 H 137.10168209941946 23.10869472001525 148.4325880010811 H 0.0 **** 0.06
28906 C 119.67306036450748 55.91224761084926 96.2888946219 C 0.0 **** -0.24
28907 H 119.21768949176214 55.12019965764243 95.69465807813413 H 0.0 **** 0.06
28908 H 119.91435530397956 55.52891810283556 97.28098532040678 H 0.0 **** 0.06
28909 H 118.97611314351605 56.7447379757477 96.38080765674744 H 0.0 **** 0.06
28910 H 120.58503022712193 56.25496038781769 95.79939833563981 H 0.0 **** 0.06
28911 C 122.59470578115486 54.03829193633695 77.71510899064809 C 0.0 **** -0.24
28912 H 123.4841622528586 54.66081425906103 77.80626696937675 H 0.0 **** 0.06
28913 H 122.1285759897869 53.92452226069558 78.69474270187666 H 0.0 **** 0.06
28914 H 122.87445156153126 53.05790235585452 77.33030225963512 H 0.0 **** 0.06
28915 H 121.8901580273614 54.51009074406855 77.03001700688505 H 0.0 **** 0.06
28916 C 104.83536056432824 109.04818332312533 21.01231640410151 C 0.0 **** -0.24
28917 H 104.66488627730153 108.41671485122447 20.139798902830023 H 0.0 **** 0.06
28918 H 103.902874107589 109.1612321405367 21.565747212822828 H 0.0 **** 0.06
28919 H 105.18726170582825 110.02809105579706 20.68876870471206 H 0.0 **** 0.06
28920 H 105.58579727743988 108.58607802903953 21.65384123814289 H 0.0 **** 0.06
28921 C 154.2696852171859 97.99916471303575 104.28827372564746 C 0.0 **** -0.24
28922 H 153.67105016475927 97.21731663855499 103.82195484226116 H 0.0 **** 0.06
28923 H 153.80142851729067 98.30543647090425 105.22439230048025 H 0.0 **** 0.06
28924 H 154.33434834210158 98.85496211777136 103.61690413478885 H 0.0 **** 0.06
28925 H 155.2708168422231 97.61807253389946 104.4900381792919 H 0.0 **** 0.06
28926 C 43.80678614661434 39.345938560408015 35.99150098119537 C 0.0 **** -0.24
28927 H 43.60806382149059 40.407910582153406 36.14002563810652 H 0.0 **** 0.06
28928 H 44.41643922462896 39.21173648105588 35.09722270216406 H 0.0 **** 0.06
28929 H 42.86210324078496 38.81445266705241 35.8711487252711 H 0.0 **** 0.06
28930 H 44.33713456398067 38.95110094019667 36.85703863085246 H 0.0 **** 0.06
28931 C 44.74505204855018 21.808846491412176 47.66824103845869 C 0.0 **** -0.24
28932 H 44.33020094945499 21.90421099363798 48.67150363434337 H 0.0 **** 0.06
28933 H 45.833704122114966 21.83240551589045 47.72168560351997 H 0.0 **** 0.06
28934 H 44.3936828935705 22.634355022948256 47.04957550818921 H 0.0 **** 0.06
28935 H 44.4233476616147 20.8641182855063 47.230818415850365 H 0.0 **** 0.06
28936 C 58.73654426682809 27.142881641783674 83.63848174637614 C 0.0 **** -0.24
28937 H 58.45361738781281 26.969912037609163 82.59976446328761 H 0.0 **** 0.06
28938 H 58.06041946853466 27.87457901419063 84.08247491521715 H 0.0 **** 0.06
28939 H 59.75796920811162 27.5201596981114 83.67883024946107 H 0.0 **** 0.06
28940 H 58.67279147631962 26.20583497081438 84.19297416055652 H 0.0 **** 0.06
28941 C 96.91164855288702 83.43195027236446 5.810110355000916 C 0.0 **** -0.24
28942 H 96.86494168565577 83.01422049923872 6.814786874890757 H 0.0 **** 0.06
28943 H 95.933501602841 83.82588413848976 5.534068100971069 H 0.0 **** 0.06
28944 H 97.20223213203336 82.65211782833924 5.106098837097306 H 0.0 **** 0.06
28945 H 97.64796962804182 84.23608525220651 5.784754423921129 H 0.0 **** 0.06
28946 C 106.3566082309729 151.2101617735598 99.37760782779955 C 0.0 **** -0.24
28947 H 107.06575024056279 151.91051974816696 99.81892402969574 H 0.0 **** 0.06
28948 H 106.7238457363916 150.19171097970056 99.50975287639768 H 0.0 **** 0.06
28949 H 106.25036580422967 151.4226211433601 98.3144482962624 H 0.0 **** 0.06
28950 H 105.38936801165737 151.31457712847836 99.86765926814412 H 0.0 **** 0.06
28951 C 35.531713836796186 69.55394542079904 11.844704359501549 C 0.0 **** -0.24
28952 H 35.56993053103602 68.55731453993508 12.285684039625302 H 0.0 **** 0.06
28953 H 36.494958637287056 70.04704430751595 11.97795462839698 H 0.0 **** 0.06
28954 H 34.753202962301465 70.13860455262734 12.334285989512075 H 0.0 **** 0.06
28955 H 35.31006736049967 69.47074845197143 10.781016080543388 H 0.0 **** 0.06
28956 C 116.06164600161543 94.12651807463484 151.94565975871916 C 0.0 **** -0.24
28957 H 115.21225724161309 94.01705488365198 151.27208928432805 H 0.0 **** 0.06
28958 H 116.1825148081848 93.21302111359086 152.528937345957 H 0.0 **** 0.06
28959 H 115.88504670907184 94.96649691770608 152.61821528508625 H 0.0 **** 0.06
28960 H 116.96530824275834 94.31065947191806 151.36463465525583 H 0.0 **** 0.06
28961 C 63.91545589369713 41.685633646614065 17.23957952417956 C 0.0 **** -0.24
28962 H 63.870529050737304 42.18036868506837 16.269091755746274 H 0.0 **** 0.06
28963 H 64.32659102692895 40.68342381758913 17.11808863718946 H 0.0 **** 0.06
28964 H 62.911983936629326 41.61806799480243 17.65958854728848 H 0.0 **** 0.06
28965 H 64.5519482641896 42.26110628403282 17.912016427306952 H 0.0 **** 0.06
28966 C 33.1359404770173 116.5451001124104 59.23537012423991 C 0.0 **** -0.24
28967 H 34.15764227259069 116.85650387955609 59.45218755390076 H 0.0 **** 0.06
28968 H 33.02379519096189 115.48378793474201 59.45979741158304 H 0.0 **** 0.06
28969 H 32.91917972132222 116.71879127010835 58.18082336659188 H 0.0 **** 0.06
28970 H 32.442729610262006 117.12241570593785 59.847883879368936 H 0.0 **** 0.06
28971 C 91.37532756374983 119.17647099903427 59.39862064312149 C 0.0 **** -0.24
28972 H 90.87232216653888 119.73750984996657 60.18689387202943 H 0.0 **** 0.06
28973 H 90.75344963312696 118.33279734342575 59.10037870679406 H 0.0 **** 0.06
28974 H 92.33255131737016 118.8102331651388 59.76791072238859 H 0.0 **** 0.06
28975 H 91.54256578761007 119.82769786805996 58.53982866540531 H 0.0 **** 0.06
28976 C 152.68872681736656 70.8482280939201 56.906812152608666 C 0.0 **** -0.24
28977 H 153.1782542957489 70.92611687194551 57.87702647016823 H 0.0 **** 0.06
28978 H 151.98508648145713 70.01613910600932 56.92094902843985 H 0.0 **** 0.06
28979 H 153.43820751735865 70.67771783242195 56.133956666711924 H 0.0 **** 0.06
28980 H 152.15373082435423 71.77382996095635 56.69505726501541 H 0.0 **** 0.06
28981 C 126.53972762960025 100.37020465117507 150.98559119415836 C 0.0 **** -0.24
28982 H 126.42157830000683 101.4428140810304 151.13777004257258 H 0.0 **** 0.06
28983 H 127.19631732604363 100.1938049135772 150.13365118936156 H 0.0 **** 0.06
28984 H 125.56560565127181 99.92093828062815 150.7937090598574 H 0.0 **** 0.06
28985 H 126.97620910888999 99.92244464899164 151.8791563087774 H 0.0 **** 0.06
28986 C 63.618063949232805 109.65125805007237 9.624796480175874 C 0.0 **** -0.24
28987 H 63.16659484836529 108.87320582409212 9.010638520357261 H 0.0 **** 0.06
28988 H 64.37233491293581 109.20876939565984 10.275072389378899 H 0.0 **** 0.06
28989 H 62.84801335917379 110.12768844984522 10.23199401961984 H 0.0 **** 0.06
28990 H 64.08562095481415 110.39665158628559 8.98097226951959 H 0.0 **** 0.06
28991 C 72.25277773380208 105.3860605644676 9.31222941998621 C 0.0 **** -0.24
28992 H 71.57364084897006 104.84198597287168 9.968643620172486 H 0.0 **** 0.06
28993 H 73.1843720914793 104.82861769651161 9.209501101949854 H 0.0 **** 0.06
28994 H 72.46125896876595 106.3671926752367 9.737932369343099 H 0.0 **** 0.06
28995 H 71.79172715859323 105.50645643395212 8.331846904651854 H 0.0 **** 0.06
28996 C 114.51220556463909 117.34380032265733 129.67855843131773 C 0.0 **** -0.24
28997 H 115.34499594260245 117.80118057845033 129.14538292214127 H 0.0 **** 0.06
28998 H 113.63865185036371 117.31190008174957 129.0272666685587 H 0.0 **** 0.06
28999 H 114.28318168025703 117.93199620635801 130.56660589612494 H 0.0 **** 0.06
29000 H 114.78252325219836 116.3302012441186 129.9741340014327 H 0.0 **** 0.06
29001 C 53.04464521304533 127.48321987738784 97.74202398516385 C 0.0 **** -0.24
29002 H 52.216123263068425 127.14117230714 98.36205180866662 H 0.0 **** 0.06
29003 H 53.09892362158092 128.5715698585832 97.77654733219737 H 0.0 **** 0.06
29004 H 52.88601199947999 127.15930356481344 96.71320601694427 H 0.0 **** 0.06
29005 H 53.976559196792095 127.06023415300514 98.11544604309498 H 0.0 **** 0.06
29006 C 65.07548286319916 82.04975669328324 32.379294443789746 C 0.0 **** -0.24
29007 H 63.992684783332365 82.15207357708479 32.44086715959058 H 0.0 **** 0.06
29008 H 65.37160066852414 81.94602823951791 31.335002169918376 H 0.0 **** 0.06
29009 H 65.38916019889083 81.16539942934243 32.935303867728436 H 0.0 **** 0.06
29010 H 65.54961659977114 82.93276383857417 32.80631225544869 H 0.0 **** 0.06
29011 C 62.84394881944121 94.87966749395855 136.09661195606185 C 0.0 **** -0.24
29012 H 63.10566788298051 95.92387944185344 135.9314752035324 H 0.0 **** 0.06
29013 H 63.5781377220208 94.23923358449696 135.60652341767462 H 0.0 **** 0.06
29014 H 61.855716152165044 94.68275833749078 135.68194145395674 H 0.0 **** 0.06
29015 H 62.8374598646721 94.67209470462745 137.16681946571634 H 0.0 **** 0.06
29016 C 99.6729759767597 47.73543014398892 61.899875642793575 C 0.0 **** -0.24
29017 H 98.78776986028858 47.1107547054053 62.01795776456942 H 0.0 **** 0.06
29018 H 100.05271795611354 48.01846215315912 62.88226946631556 H 0.0 **** 0.06
29019 H 99.41237258552621 48.63233881139159 61.33794647770071 H 0.0 **** 0.06
29020 H 100.44034663370384 47.179584090050426 61.35960704045772 H 0.0 **** 0.06
29021 C 44.069526986069604 18.218085878555115 83.33567628880854 C 0.0 **** -0.24
29022 H 44.759141415227475 19.049508966506266 83.48204317024488 H 0.0 **** 0.06
29023 H 43.15263548097619 18.402599754565813 83.89616919160113 H 0.0 **** 0.06
29024 H 44.53191910972694 17.296588606527735 83.68948552282473 H 0.0 **** 0.06
29025 H 43.83522829922103 18.123218307074296 82.27539522232354 H 0.0 **** 0.06
29026 C 83.1379007432631 4.175709207106593 149.0582590359445 C 0.0 **** -0.24
29027 H 82.97616029020702 4.899880963404996 149.8565371550976 H 0.0 **** 0.06
29028 H 83.00032999430594 3.1680930483273357 149.44879276315302 H 0.0 **** 0.06
29029 H 84.1520778953865 4.281280536086854 148.67318752866424 H 0.0 **** 0.06
29030 H 82.42317297339356 4.355571466527721 148.2543632111938 H 0.0 **** 0.06
29031 C 105.25121706659786 64.4546770101606 134.14383024026387 C 0.0 **** -0.24
29032 H 105.34000581791082 63.75932270019945 133.31015251022694 H 0.0 **** 0.06
29033 H 106.21345017695211 64.54065612456992 134.65016190517076 H 0.0 **** 0.06
29034 H 104.50268489975036 64.08652417285447 134.84524790868863 H 0.0 **** 0.06
29035 H 104.94836659976352 65.43290730421478 133.77037240020942 H 0.0 **** 0.06
29036 C 39.59652996366259 41.78683143485824 127.22003274264148 C 0.0 **** -0.24
29037 H 39.64194085583138 41.0975365005221 126.3772735874582 H 0.0 **** 0.06
29038 H 38.90710648870943 42.5988030480338 126.98801107655243 H 0.0 **** 0.06
29039 H 40.589348661469415 42.19602597534657 127.40817775648975 H 0.0 **** 0.06
29040 H 39.247944399044954 41.255963300955045 128.10527381898083 H 0.0 **** 0.06
29041 C 33.38829855152888 88.4303648853122 46.119593825359004 C 0.0 **** -0.24
29042 H 33.78413278984725 89.41170272936051 45.856010825309994 H 0.0 **** 0.06
29043 H 32.800574446101734 88.04046777812667 45.287881538561706 H 0.0 **** 0.06
29044 H 32.75618357024311 88.51880076223068 47.002980154260925 H 0.0 **** 0.06
29045 H 34.21465171854864 87.75074022129473 46.33085307856247 H 0.0 **** 0.06
29046 C 32.96645051024575 156.3255760890297 69.72296939954921 C 0.0 **** -0.24
29047 H 31.877384030331626 156.37064134856575 69.69219560513653 H 0.0 **** 0.06
29048 H 33.27719744258238 155.5037725438425 70.36968882523274 H 0.0 **** 0.06
29049 H 33.35640578863678 157.26433613474984 70.11531886305517 H 0.0 **** 0.06
29050 H 33.35217130603985 156.16345691436254 68.71732062571212 H 0.0 **** 0.06
29051 C 87.27359609859286 9.430221373326958 62.31276565956263 C 0.0 **** -0.24
29052 H 87.03786948560696 10.166854238667838 63.081256179035876 H 0.0 **** 0.06
29053 H 87.81351014875105 8.597300321334842 62.76226536481636 H 0.0 **** 0.06
29054 H 87.89284634476508 9.89320552097439 61.544797257618384 H 0.0 **** 0.06
29055 H 86.34992464608644 9.066025165828307 61.86466657179204 H 0.0 **** 0.06
29056 C 68.75126090740275 141.26644372707733 13.85161505181658 C 0.0 **** -0.24
29057 H 69.13166337742086 140.85193526496164 14.785667189102654 H 0.0 **** 0.06
29058 H 69.46986386115651 141.08075010685042 13.053512090528429 H 0.0 **** 0.06
29059 H 68.60335634077586 142.34117439052022 13.964375688739935 H 0.0 **** 0.06
29060 H 67.80173542963871 140.793501822397 13.603905655329534 H 0.0 **** 0.06
29061 C 130.58157600119736 144.14648750426898 46.171232839968525 C 0.0 **** -0.24
29062 H 129.6296446217608 143.78399341472715 45.7830867860082 H 0.0 **** 0.06
29063 H 130.9241619838865 144.98542249708882 45.565217490263194 H 0.0 **** 0.06
29064 H 131.31916575896193 143.3453476981867 46.13271003038096 H 0.0 **** 0.06
29065 H 130.452640455287 144.47241758852275 47.203836301868364 H 0.0 **** 0.06
29066 C 31.59123779157477 102.28881840062864 108.25174725039483 C 0.0 **** -0.24
29067 H 30.747591475783025 101.71046724828106 108.62918536265511 H 0.0 **** 0.06
29068 H 31.309742480006605 103.34087888076574 108.18651015073038 H 0.0 **** 0.06
29069 H 31.86805772679196 101.92416777938153 107.26259998329476 H 0.0 **** 0.06
29070 H 32.43765083567678 102.1801730859175 108.92912512979387 H 0.0 **** 0.06
29071 C 100.31129362329996 60.406266750192515 100.61774535716616 C 0.0 **** -0.24
29072 H 99.45322441604371 59.82359932725477 100.95583801546623 H 0.0 **** 0.06
29073 H 100.46315352213806 60.240802732226555 99.55063245981351 H 0.0 **** 0.06
29074 H 101.20073418317425 60.093632946921915 101.16500697129543 H 0.0 **** 0.06
29075 H 100.12522383512503 61.46464449185227 100.79901103510035 H 0.0 **** 0.06
29076 C 26.807409561375522 26.85037150712958 100.64685011004974 C 0.0 **** -0.24
29077 H 26.005505610153897 27.254695764923213 101.26482472846709 H 0.0 **** 0.06
29078 H 26.381143755967713 26.375638737692498 99.76300287384026 H 0.0 **** 0.06
29079 H 27.370601698965054 26.11255558521833 101.21937521253494 H 0.0 **** 0.06
29080 H 27.47289498431077 27.6572606802211 100.34191790947534 H 0.0 **** 0.06
29081 C 71.76886584418513 34.97153541632976 125.7442723282381 C 0.0 **** -0.24
29082 H 72.53722075071354 34.51519122377079 126.36838641056043 H 0.0 **** 0.06
29083 H 70.96002007116532 34.25773211682771 125.58535390440868 H 0.0 **** 0.06
29084 H 72.20091376529669 35.251672836118516 124.78342567052532 H 0.0 **** 0.06
29085 H 71.37796381430135 35.85995756186311 126.23970077652886 H 0.0 **** 0.06
29086 C 124.75942906748755 6.608551075659619 124.09212309241518 C 0.0 **** -0.24
29087 H 124.46436757301161 7.6392373197172105 123.89678944643627 H 0.0 **** 0.06
29088 H 125.77513690425742 6.446908887036159 123.7307630600114 H 0.0 **** 0.06
29089 H 124.0777142701911 5.931841079859566 123.5759446148944 H 0.0 **** 0.06
29090 H 124.720057013463 6.416856334819187 125.16436496597963 H 0.0 **** 0.06
29091 C 79.92671445756929 133.05026812949328 43.2612109357907 C 0.0 **** -0.24
29092 H 79.62495078692811 132.95026746867924 44.30386103459597 H 0.0 **** 0.06
29093 H 79.39391014835033 133.88676485134343 42.80776577940287 H 0.0 **** 0.06
29094 H 79.6879974088099 132.13266054152103 42.7238375599664 H 0.0 **** 0.06
29095 H 81.00032183217627 133.2327810318035 43.2110917952173 H 0.0 **** 0.06
29096 C 94.65673673913426 150.73622359787845 39.76310633354478 C 0.0 **** -0.24
29097 H 95.38432680280386 151.19251428396558 39.092567631390224 H 0.0 **** 0.06
29098 H 93.6655537765451 151.1373717868566 39.550978672300715 H 0.0 **** 0.06
29099 H 94.9263502140409 150.95843643520598 40.795724708783496 H 0.0 **** 0.06
29100 H 94.65143183102441 149.6558797883511 39.61306022815984 H 0.0 **** 0.06
29101 C 69.41923451059662 155.29566456880605 134.65672448924158 C 0.0 **** -0.24
29102 H 70.33619051062088 155.88417928591554 134.62202864975345 H 0.0 **** 0.06
29103 H 69.33820560185355 154.69689658517035 133.74970360846802 H 0.0 **** 0.06
29104 H 68.56176514641858 155.96429040516267 134.72962466829733 H 0.0 **** 0.06
29105 H 69.44298382107924 154.63907168689968 135.526521840794 H 0.0 **** 0.06
29106 C 11.754131823851807 112.98843032848725 32.091030934753604 C 0.0 **** -0.24
29107 H 11.409430463333692 113.50342699957815 32.988078922605354 H 0.0 **** 0.06
29108 H 12.67682755748519 113.45122287386596 31.738241513046034 H 0.0 **** 0.06
29109 H 10.991646421406386 113.0605908178863 31.31573903373608 H 0.0 **** 0.06
29110 H 11.938186244260173 111.93924256187097 32.32254265626432 H 0.0 **** 0.06
29111 C 14.917123950989122 26.778689348710714 73.12830366171625 C 0.0 **** -0.24
29112 H 15.74409637118464 26.154093063047355 72.78969948973054 H 0.0 **** 0.06
29113 H 15.061106328238509 27.032924023470343 74.17914214878823 H 0.0 **** 0.06
29114 H 13.97956801312364 26.236656190462355 73.0094064278552 H 0.0 **** 0.06
29115 H 14.886678401521067 27.693237785298578 72.53416649820946 H 0.0 **** 0.06
29116 C 76.00424709144356 109.69785613813127 105.83887038516774 C 0.0 **** -0.24
29117 H 75.80392204111232 110.17679076752023 104.88103943531176 H 0.0 **** 0.06
29118 H 75.65454142767928 110.3405150665559 106.64628978866655 H 0.0 **** 0.06
29119 H 77.07694969671108 109.53138264025597 105.94527724162218 H 0.0 **** 0.06
29120 H 75.4827738888488 108.74217975745387 105.88337877937762 H 0.0 **** 0.06
29121 C 148.20114806686078 53.09902574400013 99.33348522704557 C 0.0 **** -0.24
29122 H 148.46364515658465 52.23716434137032 99.94695557685583 H 0.0 **** 0.06
29123 H 149.10039309980425 53.67349524087183 99.10963737576867 H 0.0 **** 0.06
29124 H 147.49308078501554 53.72783688027971 99.87417273661214 H 0.0 **** 0.06
29125 H 147.74649183031408 52.75789868590141 98.40415069975336 H 0.0 **** 0.06
29126 C 6.952775666871219 3.261248777332227 9.009167174625816 C 0.0 **** -0.24
29127 H 6.422108926788184 2.3106513067519785 9.05768433146983 H 0.0 **** 0.06
29128 H 6.615885201062724 3.9067697683525253 9.820760151704121 H 0.0 **** 0.06
29129 H 6.747652617485926 3.7428428198722656 8.052623703287736 H 0.0 **** 0.06
29130 H 8.023400788359027 3.0848238386941844 9.104270834961142 H 0.0 **** 0.06
29131 C 83.15117833529655 79.0497280822058 1.0675020112931008 C 0.0 **** -0.24
29132 H 83.05494601981042 80.06518262145252 0.6838888287144584 H 0.0 **** 0.06
29133 H 84.09823320212433 78.95071492122571 1.598701757028806 H 0.0 **** 0.06
29134 H 83.12447907984432 78.34393600824009 0.2375186638927005 H 0.0 **** 0.06
29135 H 82.32705503940724 78.83907877790499 1.7498987955363532 H 0.0 **** 0.06
29136 C 83.62999812425241 14.719123075764735 96.38313687704401 C 0.0 **** -0.24
29137 H 83.61436396780977 14.31974162010006 95.36924798536425 H 0.0 **** 0.06
29138 H 84.36960164378684 15.517968701495867 96.44725403155576 H 0.0 **** 0.06
29139 H 83.89163740263524 13.92529404586309 97.08249159234269 H 0.0 **** 0.06
29140 H 82.64595519865088 15.114182185977675 96.63329573643233 H 0.0 **** 0.06
29141 C 103.02106007373384 119.82997487095236 57.97168415639743 C 0.0 **** -0.24
29142 H 102.25690223316296 119.61153831203995 57.22558701637982 H 0.0 **** 0.06
29143 H 102.54337314163034 120.1328786721192 58.903187316860695 H 0.0 **** 0.06
29144 H 103.65897398553558 120.63714259349632 57.61167474189779 H 0.0 **** 0.06
29145 H 103.6240636392837 118.93861016655 58.1440364889241 H 0.0 **** 0.06
29146 C 137.7411006800039 109.56397996239475 90.80292655603458 C 0.0 **** -0.24
29147 H 138.68693279837873 109.99171851613845 90.47124299098586 H 0.0 **** 0.06
29148 H 137.93214594188927 108.63744264199296 91.34534983021791 H 0.0 **** 0.06
29149 H 137.11365979880907 109.35401408380666 89.93589426862415 H 0.0 **** 0.06
29150 H 137.23185491218416 110.27100266317144 91.45750757176258 H 0.0 **** 0.06
29151 C 156.34663675729513 148.50463789055402 145.1676199957598 C 0.0 **** -0.24
29152 H 155.70576575848963 148.5590184200716 146.04776532429239 H 0.0 **** 0.06
29153 H 155.8466085446147 148.98371001828662 144.32489026028168 H 0.0 **** 0.06
29154 H 156.54620269689195 147.4608507665763 144.92613804752628 H 0.0 **** 0.06
29155 H 157.28679712942272 149.01710467073053 145.37196517131483 H 0.0 **** 0.06
29156 C 31.182084875539545 100.54942167622943 121.09966464994476 C 0.0 **** -0.24
29157 H 31.309614138041184 101.33795597635083 121.84005343614068 H 0.0 **** 0.06
29158 H 31.94012844972366 100.65492585250462 120.32217410370573 H 0.0 **** 0.06
29159 H 30.190788128734454 100.62672392347707 120.65320324153932 H 0.0 **** 0.06
29160 H 31.289044953023733 99.57728194241582 121.58126984283346 H 0.0 **** 0.06
29161 C 144.86437969910196 0.6040676888924317 40.6458468984775 C 0.0 **** -0.24
29162 H 144.25534370623882 1.0139516951087728 41.45076608096048 H 0.0 **** 0.06
29163 H 145.72024102733107 1.2576272894831355 40.46993218280997 H 0.0 **** 0.06
29164 H 144.2676367578375 0.5348194058732574 39.73727485783738 H 0.0 **** 0.06
29165 H 145.2165387439359 -0.3884522570614557 40.926495838826014 H 0.0 **** 0.06
29166 C 25.134751159821207 43.59465635972521 40.90045494708579 C 0.0 **** -0.24
29167 H 25.63840067943694 43.38699453084811 39.956719086158984 H 0.0 **** 0.06
29168 H 25.87916152439856 43.733134555381525 41.6852668398039 H 0.0 **** 0.06
29169 H 24.48522990985947 42.758600344396996 41.158929592453035 H 0.0 **** 0.06
29170 H 24.537685563824688 44.50178237370136 40.8014257861133 H 0.0 **** 0.06
29171 C 45.168270156928486 29.90788555329675 116.53859336081355 C 0.0 **** -0.24
29172 H 46.02987549059583 29.77749942080618 117.1937486038526 H 0.0 **** 0.06
29173 H 45.39355196316086 29.494081286239464 115.5558305217428 H 0.0 **** 0.06
29174 H 44.94283171722884 30.97006968188242 116.44306817789142 H 0.0 **** 0.06
29175 H 44.307919219419205 29.390593301212107 116.96354355824057 H 0.0 **** 0.06
29176 C 6.099335868654805 58.862650560589245 98.30773509070983 C 0.0 **** -0.24
29177 H 5.585877424133571 59.75287141227632 98.67099798687155 H 0.0 **** 0.06
29178 H 6.6868074570626845 59.116903831238645 97.42500743923665 H 0.0 **** 0.06
29179 H 5.36503166610089 58.099754144530536 98.04865194728342 H 0.0 **** 0.06
29180 H 6.75997050001979 58.4821316395781 99.08715534067244 H 0.0 **** 0.06
29181 C 90.27489527669809 143.08657778810078 94.11829572748266 C 0.0 **** -0.24
29182 H 91.02462531430871 142.65358792154157 93.45600853871879 H 0.0 **** 0.06
29183 H 90.53604196418286 144.12213524713275 94.33394311206001 H 0.0 **** 0.06
29184 H 90.24029920421432 142.51829339943717 95.04810466243983 H 0.0 **** 0.06
29185 H 89.29893188899626 143.05115435311066 93.63322939388175 H 0.0 **** 0.06
29186 C 138.1294300078173 152.10445313751703 123.43559919237806 C 0.0 **** -0.24
29187 H 138.63196971687273 151.92761170114014 122.48508060112893 H 0.0 **** 0.06
29188 H 137.6975578820685 153.10612668162506 123.43790279825966 H 0.0 **** 0.06
29189 H 138.848736220349 152.01717608845118 124.24889735870194 H 0.0 **** 0.06
29190 H 137.33814969311464 151.3673308870178 123.57019081817494 H 0.0 **** 0.06
29191 C 138.00066990314718 133.27312779322273 15.848642739603235 C 0.0 **** -0.24
29192 H 138.52642948364814 133.91070868991108 15.136851209133738 H 0.0 **** 0.06
29193 H 137.9187561752112 132.26503702046688 15.441559425368041 H 0.0 **** 0.06
29194 H 137.0038432122281 133.67558245762007 16.028126594472155 H 0.0 **** 0.06
29195 H 138.55491713915828 133.24312110137572 16.786408835782623 H 0.0 **** 0.06
29196 C 132.41823605283014 70.7121021622402 141.21510248118756 C 0.0 **** -0.24
29197 H 132.11345311138706 70.39471774138177 140.21788778124466 H 0.0 **** 0.06
29198 H 131.5376665392801 70.8091655805447 141.85072793680996 H 0.0 **** 0.06
29199 H 132.92661792929493 71.67435489847206 141.14933599981913 H 0.0 **** 0.06
29200 H 133.09493429957155 69.97168988222647 141.64084041248032 H 0.0 **** 0.06
29201 C 113.09026975065956 59.10946216713049 66.7814601779076 C 0.0 **** -0.24
29202 H 112.27134621768022 58.92447808438976 66.08602303489735 H 0.0 **** 0.06
29203 H 113.24355802766729 58.22796594865312 67.40408188881078 H 0.0 **** 0.06
29204 H 112.84465777447411 59.96316690181402 67.41310537462829 H 0.0 **** 0.06
29205 H 114.0003089553544 59.3219624251422 66.22106037983382 H 0.0 **** 0.06
29206 C 152.69360151876742 114.01214722316728 122.34151993908803 C 0.0 **** -0.24
29207 H 152.9150833801069 114.75696267004194 123.10485692476912 H 0.0 **** 0.06
29208 H 152.35984491945842 114.51252213926726 121.4317660219554 H 0.0 **** 0.06
29209 H 151.90753538577627 113.34715617205093 122.6994956543145 H 0.0 **** 0.06
29210 H 153.5913741865365 113.431849243738 122.12866984785809 H 0.0 **** 0.06
29211 C 145.711933263024 112.14344223961324 100.36705473557616 C 0.0 **** -0.24
29212 H 145.08371657730072 112.73158499491667 101.03733573854926 H 0.0 **** 0.06
29213 H 146.11075258638675 112.78833373128425 99.58482283844039 H 0.0 **** 0.06
29214 H 145.11722316149206 111.34883482491709 99.91673749734728 H 0.0 **** 0.06
29215 H 146.53499022417128 111.70532612955601 100.93228938464232 H 0.0 **** 0.06
29216 C 28.46629668411876 13.113758067256072 77.33862032289747 C 0.0 **** -0.24
29217 H 27.4107612108412 13.378421538007956 77.38979396119339 H 0.0 **** 0.06
29218 H 28.958637751834914 13.728051346001223 76.58506030821258 H 0.0 **** 0.06
29219 H 28.564402644206808 12.061230394609993 77.07076882452878 H 0.0 **** 0.06
29220 H 28.931257579940876 13.28665342973028 78.30958440796255 H 0.0 **** 0.06
29221 C 26.417064551555363 152.2793677749818 58.82246426760264 C 0.0 **** -0.24
29222 H 26.71321886210069 152.70954069153746 57.86516202041216 H 0.0 **** 0.06
29223 H 26.408578319937668 151.19236693495407 58.74425418148962 H 0.0 **** 0.06
29224 H 25.421175448776637 152.63325850717698 59.08641666901423 H 0.0 **** 0.06
29225 H 27.127203567185326 152.58368767371456 59.591924258275384 H 0.0 **** 0.06
29226 C 105.4086120804218 145.49862808927298 74.43582722735171 C 0.0 **** -0.24
29227 H 106.46394940858 145.29398864817202 74.61812785344308 H 0.0 **** 0.06
29228 H 105.3121872833804 146.42088649417832 73.86247360162982 H 0.0 **** 0.06
29229 H 104.88942726268961 145.60580093906904 75.38866551564053 H 0.0 **** 0.06
29230 H 104.97111306451252 144.67381623977232 73.87422268402304 H 0.0 **** 0.06
29231 C 97.33102361188087 34.41889578831727 130.23970987445028 C 0.0 **** -0.24
29232 H 97.85450520159299 35.37446033795753 130.27056578684875 H 0.0 **** 0.06
29233 H 97.84484068397744 33.74659399217214 129.55219623752527 H 0.0 **** 0.06
29234 H 96.3083735836298 34.576343366739906 129.89741783552347 H 0.0 **** 0.06
29235 H 97.3173781998948 33.97912978815326 131.23663430353258 H 0.0 **** 0.06
29236 C 14.049689384408282 10.477411231974749 130.26089629530077 C 0.0 **** -0.24
29237 H 14.087908316751026 11.171772837786925 131.1001614144227 H 0.0 **** 0.06
29238 H 13.395427579705654 9.642467699705932 130.51090318833866 H 0.0 **** 0.06
29239 H 15.052541572635334 10.104914205683563 130.0535099296785 H 0.0 **** 0.06
29240 H 13.663480673675679 10.991415779433794 129.38119759713948 H 0.0 **** 0.06
29241 C 93.35495134888698 129.822305241432 13.893188478544857 C 0.0 **** -0.24
29242 H 93.35638625144136 129.4507655405906 14.918119635583935 H 0.0 **** 0.06
29243 H 93.99034195481072 130.7056228884868 13.825443380598074 H 0.0 **** 0.06
29244 H 92.33722796534923 130.08346985119852 13.60300261626952 H 0.0 **** 0.06
29245 H 93.73568312140786 129.04846383959404 13.225782672779076 H 0.0 **** 0.06
29246 C 64.48980149635594 62.70250970152033 15.529192718636068 C 0.0 **** -0.24
29247 H 64.41760887581859 62.30300497006023 14.517928734509383 H 0.0 **** 0.06
29248 H 63.73244873951498 63.47334754472479 15.67067587010115 H 0.0 **** 0.06
29249 H 65.47937029631369 63.13326943760417 15.679789168537809 H 0.0 **** 0.06
29250 H 64.33032645994776 61.89931809683716 16.249078579179468 H 0.0 **** 0.06
29251 C 64.60435015093006 142.3037670056344 73.04349982085994 C 0.0 **** -0.24
29252 H 63.99101268852105 142.89819220815636 72.36575021235542 H 0.0 **** 0.06
29253 H 65.38112403093257 142.93252248718792 73.47676821399172 H 0.0 **** 0.06
29254 H 65.06510892163888 141.4843435986974 72.49013071505078 H 0.0 **** 0.06
29255 H 63.978683805235946 141.8982612649838 73.83791806910857 H 0.0 **** 0.06
29256 C 81.21755773818404 100.16007114568946 47.85995319252737 C 0.0 **** -0.24
29257 H 81.45946877202927 99.84252680808528 48.87445027547862 H 0.0 **** 0.06
29258 H 80.29748158466951 99.67223244462893 47.53672730583851 H 0.0 **** 0.06
29259 H 82.03052977842047 99.88381256665689 47.18961500822442 H 0.0 **** 0.06
29260 H 81.08100200145577 101.24140820463127 47.84070810275098 H 0.0 **** 0.06
29261 C 147.65933794110686 48.714135438936694 115.71699231992476 C 0.0 **** -0.24
29262 H 147.77461394874194 49.580056796781946 116.3685253574068 H 0.0 **** 0.06
29263 H 147.98658755100098 48.971561841196745 114.70935050317884 H 0.0 **** 0.06
29264 H 146.61213509100668 48.41454649177524 115.69453602581892 H 0.0 **** 0.06
29265 H 148.264076446636 47.89128366548573 116.09703171436932 H 0.0 **** 0.06
29266 C 74.05405696214406 152.02106619905166 101.98780376039878 C 0.0 **** -0.24
29267 H 73.15649620507543 152.56585690781134 102.2829147355784 H 0.0 **** 0.06
29268 H 74.44579188859346 151.4757145083255 102.84721460267019 H 0.0 **** 0.06
29269 H 74.80442626619846 152.72463627725756 101.62983915061602 H 0.0 **** 0.06
29270 H 73.80641487192925 151.31731933441563 101.19217101467746 H 0.0 **** 0.06
29271 C 12.315865255125487 53.61925199607131 1.5942842403443365 C 0.0 **** -0.24
29272 H 13.247994336535783 53.98486387056711 2.0263490967707867 H 0.0 **** 0.06
29273 H 12.008126136225712 54.27829499078767 0.7827920227267668 H 0.0 **** 0.06
29274 H 11.543235960306617 53.60135231892433 2.3623279988590298 H 0.0 **** 0.06
29275 H 12.466600569494119 52.61198497048355 1.2068959962675194 H 0.0 **** 0.06
29276 C 141.19540909672176 56.98481193415512 152.62305016386654 C 0.0 **** -0.24
29277 H 140.78392835588983 56.772102442824746 151.63660962951548 H 0.0 **** 0.06
29278 H 141.1949702572989 56.0729827845837 153.22057848331002 H 0.0 **** 0.06
29279 H 140.5857013451941 57.742244518189636 153.11506641434573 H 0.0 **** 0.06
29280 H 142.21728964732495 57.35170809081956 152.51900174771288 H 0.0 **** 0.06
29281 C 19.029650962890308 69.61102320468035 138.5896867145709 C 0.0 **** -0.24
29282 H 19.032005284032117 69.90548423269563 139.63865515875506 H 0.0 **** 0.06
29283 H 18.532937023973247 70.3818237857598 137.99791184665722 H 0.0 **** 0.06
29284 H 18.496960631399446 68.6669772871632 138.47799980227666 H 0.0 **** 0.06
29285 H 20.055919558301085 69.49186587096635 138.24310634469623 H 0.0 **** 0.06
29286 C 116.35120627803758 17.31697202868972 97.60316109918197 C 0.0 **** -0.24
29287 H 117.26238437317664 17.457216211724614 97.02182323571809 H 0.0 **** 0.06
29288 H 116.08153506550008 16.2612439824632 97.60778437503654 H 0.0 **** 0.06
29289 H 115.54365652303733 17.89695482879523 97.15678457091074 H 0.0 **** 0.06
29290 H 116.5178303569877 17.65537351520807 98.62575217925972 H 0.0 **** 0.06
29291 C 134.6216771152406 76.8607340157414 78.21825869916154 C 0.0 **** -0.24
29292 H 134.02002772929293 76.09705585989974 78.71025700603246 H 0.0 **** 0.06
29293 H 133.99567863768846 77.72159471196488 77.9838798777709 H 0.0 **** 0.06
29294 H 135.0418353036323 76.45505253887822 77.29816397929085 H 0.0 **** 0.06
29295 H 135.42999658302008 77.1689275710633 78.88183767789252 H 0.0 **** 0.06
29296 C 123.16274872816685 77.84459560471072 0.12185298246091136 C 0.0 **** -0.24
29297 H 123.60983967182806 78.83051102039724 0.2432000254115927 H 0.0 **** 0.06
29298 H 123.93355004762005 77.08015569752615 0.22810118381719136 H 0.0 **** 0.06
29299 H 122.71047655337041 77.76883909936316 -0.8671255367751023 H 0.0 **** 0.06
29300 H 122.39728329531876 77.69647756250822 0.8837062452915951 H 0.0 **** 0.06
29301 C 20.80965254341737 22.452511023812576 16.792219857092675 C 0.0 **** -0.24
29302 H 20.956559934854795 21.970048886852936 15.825963073105498 H 0.0 **** 0.06
29303 H 19.980627371765728 21.974067132535737 17.31421257460977 H 0.0 **** 0.06
29304 H 20.5842002003356 23.508023985368055 16.640422966367964 H 0.0 **** 0.06
29305 H 21.718467153241946 22.355968565616195 17.387441057163784 H 0.0 **** 0.06
29306 C 146.72417978728083 18.500663265012008 130.1565895520854 C 0.0 **** -0.24
29307 H 147.37479896908815 18.060799975156385 129.40101055292098 H 0.0 **** 0.06
29308 H 146.77877438297423 19.58787240087804 130.09589016850322 H 0.0 **** 0.06
29309 H 147.04443202731537 18.175041112329893 131.1461477253166 H 0.0 **** 0.06
29310 H 145.69659590317738 18.17860109791684 129.98394240641198 H 0.0 **** 0.06
29311 C 3.1657062481894123 124.79646414696623 70.15664902683895 C 0.0 **** -0.24
29312 H 2.474917356450227 124.19027746990804 70.74200367514317 H 0.0 **** 0.06
29313 H 4.082945709454265 124.23397542353052 69.9800565469354 H 0.0 **** 0.06
29314 H 3.398382795805759 125.7107394040446 70.70236602416298 H 0.0 **** 0.06
29315 H 2.70624667761971 125.05035879569971 69.20137363100031 H 0.0 **** 0.06
29316 C 62.717536210129424 66.42631652896429 78.25490455315142 C 0.0 **** -0.24
29317 H 61.69627513144327 66.04604702435299 78.25954866397495 H 0.0 **** 0.06
29318 H 63.068429336177076 66.53574225466522 79.28134340394229 H 0.0 **** 0.06
29319 H 62.741135009278196 67.39616975814789 77.75734500669287 H 0.0 **** 0.06
29320 H 63.362005424134594 65.72810400590248 77.7216556934257 H 0.0 **** 0.06
29321 C 27.38285973826926 147.71546280044703 30.780822654563316 C 0.0 **** -0.24
29322 H 27.139471697070327 147.47257668040643 31.814743462248302 H 0.0 **** 0.06
29323 H 27.74052483516067 148.74421914926978 30.724504205601455 H 0.0 **** 0.06
29324 H 26.49226138984926 147.60530028157788 30.163131444224177 H 0.0 **** 0.06
29325 H 28.160138848558617 147.04021078040304 30.423119475282263 H 0.0 **** 0.06
29326 C 1.0715209045592076 98.48274998217317 103.54461393778452 C 0.0 **** -0.24
29327 H 0.20160382936714427 97.88328654917905 103.81394192310903 H 0.0 **** 0.06
29328 H 0.8086268600117705 99.54035295198224 103.58122512672703 H 0.0 **** 0.06
29329 H 1.3945649790231585 98.22222759964882 102.53633406105656 H 0.0 **** 0.06
29330 H 1.880711434739112 98.28484298708366 104.2477186135472 H 0.0 **** 0.06
29331 C 148.91655871513916 86.90436399710796 138.95402871902 C 0.0 **** -0.24
29332 H 149.04211709168823 87.96191636488172 139.18598291867085 H 0.0 **** 0.06
29333 H 149.81471998680203 86.35942341530841 139.24790424670954 H 0.0 **** 0.06
29334 H 148.7522862114777 86.7846462713655 137.88300122543305 H 0.0 **** 0.06
29335 H 148.05839083188957 86.51188426069729 139.50031823796004 H 0.0 **** 0.06
29336 C 71.35001168001291 42.029851624521825 103.8390342872945 C 0.0 **** -0.24
29337 H 71.25304317740638 43.04944669147926 103.46473666281419 H 0.0 **** 0.06
29338 H 71.94041276054973 41.4411334046556 103.1368106059971 H 0.0 **** 0.06
29339 H 70.36059583868342 41.585711597282454 103.94341133234194 H 0.0 **** 0.06
29340 H 71.84627672271493 42.04456829464738 104.80922709661432 H 0.0 **** 0.06
29341 C 0.8096992865258699 97.93718925275797 69.84678178191355 C 0.0 **** -0.24
29342 H 1.5776262956615028 97.9165875640315 69.07274148044867 H 0.0 **** 0.06
29343 H 1.2844999095297567 97.97102199479005 70.82759644356217 H 0.0 **** 0.06
29344 H 0.19406884290378912 97.0417102128828 69.77058420242832 H 0.0 **** 0.06
29345 H 0.1848559506905758 98.82078279255614 69.71444149332099 H 0.0 **** 0.06
29346 C 92.8832832486329 119.75993027699683 65.96982328481619 C 0.0 **** -0.24
29347 H 92.42080600933753 118.96488016852531 66.55422107739093 H 0.0 **** 0.06
29348 H 92.90033939372697 120.67886251232862 66.5560547368633 H 0.0 **** 0.06
29349 H 92.30897605162903 119.92187948180752 65.05766520139139 H 0.0 **** 0.06
29350 H 93.90301153983806 119.47409894532551 65.71135212361924 H 0.0 **** 0.06
29351 C 19.8847520492846 56.14199155812018 75.73107455734356 C 0.0 **** -0.24
29352 H 18.964172522085903 55.64260432419738 75.43049783432488 H 0.0 **** 0.06
29353 H 20.438618909249954 55.50183387246712 76.4182268920128 H 0.0 **** 0.06
29354 H 19.64276815386438 57.083230766973315 76.2256453300538 H 0.0 **** 0.06
29355 H 20.494226899181058 56.34184609977507 74.84893041454023 H 0.0 **** 0.06
29356 C 124.41725918629295 3.467188356258653 17.032760439682868 C 0.0 **** -0.24
29357 H 123.920303354296 4.377798506833713 17.366742045956848 H 0.0 **** 0.06
29358 H 124.225205440589 3.3181576762407268 15.969530486449138 H 0.0 **** 0.06
29359 H 124.03176800599768 2.6166617123400187 17.594067499316736 H 0.0 **** 0.06
29360 H 125.49013992816795 3.557388360683653 17.199803882455775 H 0.0 **** 0.06
29361 C 127.67888021920197 84.60463693209975 59.085446450886934 C 0.0 **** -0.24
29362 H 128.6451602647477 85.01707372219943 58.7960878149627 H 0.0 **** 0.06
29363 H 127.80997576080767 83.57640257610697 59.42384380204008 H 0.0 **** 0.06
29364 H 127.00418448777481 84.62390579439982 58.23041779344142 H 0.0 **** 0.06
29365 H 127.25667227424526 85.20269581729072 59.893973347468844 H 0.0 **** 0.06
29366 C 19.935582944082682 62.99476563931687 102.35947337731251 C 0.0 **** -0.24
29367 H 19.082504338929937 62.568844020938556 102.8870075639713 H 0.0 **** 0.06
29368 H 20.511612623148153 62.193112654457536 101.89384361576715 H 0.0 **** 0.06
29369 H 20.56755047490688 63.53358888191799 103.06484859456948 H 0.0 **** 0.06
29370 H 19.580559032034216 63.6813924071576 101.59097915224795 H 0.0 **** 0.06
29371 C 98.27793372721887 120.83122419242322 63.07133394490204 C 0.0 **** -0.24
29372 H 97.68751377573703 121.52273716356761 63.67181853154031 H 0.0 **** 0.06
29373 H 98.81175081813868 121.3852109776466 62.299446250787014 H 0.0 **** 0.06
29374 H 97.61693704601865 120.10123648115227 62.60426864442911 H 0.0 **** 0.06
29375 H 98.9945815905791 120.31529765113042 63.71076285596075 H 0.0 **** 0.06
29376 C 95.41496996919277 75.0360447364688 60.52317925274144 C 0.0 **** -0.24
29377 H 96.15026484737075 75.61296338505412 61.08400363109479 H 0.0 **** 0.06
29378 H 95.12227980063962 74.16057327066437 61.10267890201335 H 0.0 **** 0.06
29379 H 95.8511238752477 74.71630085905323 59.57630105316527 H 0.0 **** 0.06
29380 H 94.53951906334274 75.6541237056029 60.3296238375857 H 0.0 **** 0.06
29381 C 52.19313387165613 86.7760114239803 129.4969908706192 C 0.0 **** -0.24
29382 H 52.109490874119615 86.97759147365878 128.4294080965155 H 0.0 **** 0.06
29383 H 51.49476425596623 87.41299390187814 130.04139598676306 H 0.0 **** 0.06
29384 H 53.209672186464275 86.98642678285745 129.82747212779643 H 0.0 **** 0.06
29385 H 51.95703481051606 85.73019397449644 129.68844766115797 H 0.0 **** 0.06
29386 C 114.52020671994502 111.44180087752795 70.76354208487096 C 0.0 **** -0.24
29387 H 115.48641564396424 111.17521485751001 70.33500167165728 H 0.0 **** 0.06
29388 H 114.282063936001 112.4746917117979 70.50619161291115 H 0.0 **** 0.06
29389 H 114.56245796973583 111.33850395680196 71.8476030767903 H 0.0 **** 0.06
29390 H 113.7508676105963 110.78053548355695 70.36528956010793 H 0.0 **** 0.06
29391 C 24.748802228666506 145.89177963120895 125.17367811933032 C 0.0 **** -0.24
29392 H 24.491926320770567 145.0685293917838 125.84067024720828 H 0.0 **** 0.06
29393 H 24.67587949550053 146.83492729976973 125.71609166308012 H 0.0 **** 0.06
29394 H 24.061166634467384 145.9029102434702 124.32886510824746 H 0.0 **** 0.06
29395 H 25.768762182261078 145.75960137630466 124.81022477820217 H 0.0 **** 0.06
29396 C 119.26486881250686 31.182350996907545 143.6837682340299 C 0.0 **** -0.24
29397 H 119.65380148906785 31.368394231813028 144.68493903008306 H 0.0 **** 0.06
29398 H 120.00584122467122 30.63281011092991 143.1025278403087 H 0.0 **** 0.06
29399 H 119.05127136794344 32.13255892247281 143.1947072073333 H 0.0 **** 0.06
29400 H 118.34968195696139 30.595310257395056 143.75369553326396 H 0.0 **** 0.06
29401 C 49.64909870960925 121.05401095377665 91.07343569206957 C 0.0 **** -0.24
29402 H 49.76279260510515 120.64338368913933 92.07674751853291 H 0.0 **** 0.06
29403 H 48.741650232559564 121.65637709582766 91.02888269355289 H 0.0 **** 0.06
29404 H 49.580210792305294 120.23927911759962 90.35319813811097 H 0.0 **** 0.06
29405 H 50.51149086418289 121.67716400762471 90.83629708304537 H 0.0 **** 0.06
29406 C 152.96899031449703 47.862150879827254 85.14907886641481 C 0.0 **** -0.24
29407 H 151.96135982273586 47.448934862482076 85.1305604685707 H 0.0 **** 0.06
29408 H 153.35042961574877 47.844653642388295 86.16996405788632 H 0.0 **** 0.06
29409 H 152.94676354324525 48.89044022118719 84.78709447682655 H 0.0 **** 0.06
29410 H 153.6184996651621 47.265465377753685 84.50882213896261 H 0.0 **** 0.06
29411 C 62.838644154035705 128.50710803063492 85.85445487992511 C 0.0 **** -0.24
29412 H 62.24877490067884 128.76448292269814 84.97535701046344 H 0.0 **** 0.06
29413 H 62.3254522668519 128.85507049041786 86.750680225641 H 0.0 **** 0.06
29414 H 63.816868479643176 128.98327211660038 85.78757735064556 H 0.0 **** 0.06
29415 H 62.96348096896901 127.42560659282326 85.90420493295056 H 0.0 **** 0.06
29416 C 73.39634830097323 104.93007654854408 16.378011889704425 C 0.0 **** -0.24
29417 H 74.27661789496766 104.4090246426279 16.756341203770603 H 0.0 **** 0.06
29418 H 72.84633178849893 105.36594487460628 17.21301450188554 H 0.0 **** 0.06
29419 H 72.75636431254476 104.22323807686827 15.849313903378857 H 0.0 **** 0.06
29420 H 73.70828223676745 105.72024406830515 15.695023469060516 H 0.0 **** 0.06
29421 C 32.7036584244548 152.98169839579626 143.5856610590192 C 0.0 **** -0.24
29422 H 32.12330680658508 153.649475052793 144.22196443889172 H 0.0 **** 0.06
29423 H 33.185117366475026 153.55898093964876 142.7958377572276 H 0.0 **** 0.06
29424 H 32.04091643280455 152.23819474431232 143.14077443986477 H 0.0 **** 0.06
29425 H 33.46372690180402 152.4788914957216 144.18307697778198 H 0.0 **** 0.06
29426 C 117.23097583412289 110.0243969940377 123.67897147036656 C 0.0 **** -0.24
29427 H 116.94121746212397 109.23521176561839 124.37289829565582 H 0.0 **** 0.06
29428 H 117.0781820700796 110.99532131687913 124.14900514921625 H 0.0 **** 0.06
29429 H 116.6226648325802 109.95665572801163 122.7769246176894 H 0.0 **** 0.06
29430 H 118.28314886352445 109.90882182854655 123.41616543229325 H 0.0 **** 0.06
29431 C 49.677516904574304 55.94624784903769 22.946628716288956 C 0.0 **** -0.24
29432 H 50.30367957102919 55.1363858836458 22.57423573114565 H 0.0 **** 0.06
29433 H 50.244945186363395 56.877913360252904 22.93848903362985 H 0.0 **** 0.06
29434 H 49.36127222024572 55.72243533167794 23.96562623315387 H 0.0 **** 0.06
29435 H 48.79961313547585 56.05040523961554 22.308435245819226 H 0.0 **** 0.06
29436 C 102.38593170621714 135.42318533326807 17.144108670226217 C 0.0 **** -0.24
29437 H 102.89068498962122 136.2000312317802 17.719081946631434 H 0.0 **** 0.06
29438 H 103.02922803343294 135.10023164918647 16.325815683351948 H 0.0 **** 0.06
29439 H 101.45464701285933 135.81938815878885 16.73861781806289 H 0.0 **** 0.06
29440 H 102.16802550787854 134.57525391140024 17.792791054893655 H 0.0 **** 0.06
29441 C 135.2199159759319 24.98793652154677 88.13482388724667 C 0.0 **** -0.24
29442 H 134.41422366974683 24.82010371697372 88.8494130863224 H 0.0 **** 0.06
29443 H 135.85987000995829 24.1060911891324 88.09349180418799 H 0.0 **** 0.06
29444 H 135.8089353535817 25.850610462410202 88.44780719085232 H 0.0 **** 0.06
29445 H 134.79703303380006 25.17694285884403 87.14767074674168 H 0.0 **** 0.06
29446 C 34.179884889185516 93.24883848925771 86.97377100849394 C 0.0 **** -0.24
29447 H 34.46890259880087 93.76539502075235 86.05929972074874 H 0.0 **** 0.06
29448 H 35.05865386162441 93.109713439588 87.60468386682662 H 0.0 **** 0.06
29449 H 33.7550482017179 92.2774799727406 86.72327540148608 H 0.0 **** 0.06
29450 H 33.43911137944738 93.8425700708919 87.50893180012882 H 0.0 **** 0.06
29451 C 22.781540400485724 156.63064631277817 133.18407900898757 C 0.0 **** -0.24
29452 H 22.778817610538333 155.56850743159117 132.94420992838127 H 0.0 **** 0.06
29453 H 22.958664108455295 157.20756196425071 132.27640495218225 H 0.0 **** 0.06
29454 H 23.5699242525167 156.83806470715427 133.90683217908713 H 0.0 **** 0.06
29455 H 21.816620610582554 156.90964822777516 133.6087747116292 H 0.0 **** 0.06
29456 C 14.318518377940904 156.39850994064824 2.166278527707675 C 0.0 **** -0.24
29457 H 14.352360371807322 156.66201368946017 3.2229758046726715 H 0.0 **** 0.06
29458 H 13.918530289858325 155.39006398770988 2.056065130331291 H 0.0 **** 0.06
29459 H 15.325266245431237 156.4371746496449 1.7498995505824837 H 0.0 **** 0.06
29460 H 13.678504845374732 157.10264591890572 1.635912778347972 H 0.0 **** 0.06
29461 C 123.95090884973054 149.32080039926672 68.41215287349272 C 0.0 **** -0.24
29462 H 124.74180884756335 149.73549620384856 69.03762731266698 H 0.0 **** 0.06
29463 H 124.39536072746166 148.74593321156976 67.59919104015208 H 0.0 **** 0.06
29464 H 123.35067100224545 150.13140087959246 68.00026329689165 H 0.0 **** 0.06
29465 H 123.3165570832745 148.66925286163917 69.01357147193184 H 0.0 **** 0.06
29466 C 5.832639177805731 93.73847772144036 142.00974202154921 C 0.0 **** -0.24
29467 H 6.177272971408456 92.72989152232768 141.77965915355253 H 0.0 **** 0.06
29468 H 4.82608555805399 93.69197614376486 142.42467221404166 H 0.0 **** 0.06
29469 H 5.82406884609739 94.33576055326998 141.09877473726027 H 0.0 **** 0.06
29470 H 6.505219669956887 94.1934153956769 142.73704929631342 H 0.0 **** 0.06
29471 C 15.752348746633459 34.37782881703714 32.06459394939887 C 0.0 **** -0.24
29472 H 16.70207193620638 34.912316816888904 32.088091089046316 H 0.0 **** 0.06
29473 H 15.831841576657382 33.52624664519104 31.388953984379924 H 0.0 **** 0.06
29474 H 14.967262639668888 35.04738322314765 31.713648990786908 H 0.0 **** 0.06
29475 H 15.508768459547241 34.02566859026203 33.06690202837149 H 0.0 **** 0.06
29476 C 16.070100183596736 129.83875867106866 61.69482661683749 C 0.0 **** -0.24
29477 H 15.545777926419504 130.7756040324425 61.503471850459945 H 0.0 **** 0.06
29478 H 15.625885844147177 129.34391059247736 62.558098676644406 H 0.0 **** 0.06
29479 H 17.12154913724177 130.0459533192028 61.89595636003422 H 0.0 **** 0.06
29480 H 15.988209810833268 129.19216941822782 60.821353111672266 H 0.0 **** 0.06
29481 C 146.7169549515272 150.0523896976503 47.086313144460036 C 0.0 **** -0.24
29482 H 147.2430687665845 151.00542326218653 47.156534304394256 H 0.0 **** 0.06
29483 H 145.71171911893313 150.22055282779473 46.70025389460322 H 0.0 **** 0.06
29484 H 146.65652975752025 149.5979663378394 48.07466725156817 H 0.0 **** 0.06
29485 H 147.25900487410686 149.38832293365533 46.413155748083994 H 0.0 **** 0.06
29486 C 45.45468911084879 38.75019952863971 100.89008646888358 C 0.0 **** -0.24
29487 H 46.1079591011881 38.38050834174351 100.09978816194773 H 0.0 **** 0.06
29488 H 44.6946113149761 38.00160652810382 101.11381607548567 H 0.0 **** 0.06
29489 H 44.971673314113104 39.670740065643486 100.56044185419002 H 0.0 **** 0.06
29490 H 46.04449090901318 38.948976680531416 101.78491000085062 H 0.0 **** 0.06
29491 C 144.93138181710583 153.66047010719433 38.5864503396366 C 0.0 **** -0.24
29492 H 144.25760336230385 154.1019012475739 39.32000113899835 H 0.0 **** 0.06
29493 H 145.48307056184478 152.8404127393419 39.046238463179975 H 0.0 **** 0.06
29494 H 145.63232701449152 154.41887283949575 38.235434885102734 H 0.0 **** 0.06
29495 H 144.353602127111 153.28338688738927 37.743359297920506 H 0.0 **** 0.06
29496 C 18.28257656007662 26.877536687547803 2.196676946291973 C 0.0 **** -0.24
29497 H 19.228723440838053 26.363747069406656 2.3670059869755278 H 0.0 **** 0.06
29498 H 17.975099662770162 27.383968669520698 3.1122867524636604 H 0.0 **** 0.06
29499 H 17.522116923746637 26.151450104817854 1.9098667724081793 H 0.0 **** 0.06
29500 H 18.40565226355352 27.610481672677423 1.399572386655052 H 0.0 **** 0.06
29501 C 61.62163847876715 118.71362717099329 79.72819648974968 C 0.0 **** -0.24
29502 H 60.70040107867811 118.67001546905094 79.14871026274068 H 0.0 **** 0.06
29503 H 62.438402884925836 119.04594444527321 79.08778272427966 H 0.0 **** 0.06
29504 H 61.848844181661775 117.72256500186866 80.1231573390815 H 0.0 **** 0.06
29505 H 61.49897733314532 119.41401944029344 80.55420168118826 H 0.0 **** 0.06
29506 C 116.3245656952954 139.55200965614964 48.08293902206526 C 0.0 **** -0.24
29507 H 116.64848289365943 140.50117814801024 48.50969830939033 H 0.0 **** 0.06
29508 H 115.2789697978908 139.62734996325156 47.7834048054404 H 0.0 **** 0.06
29509 H 116.43443399582083 138.762707551779 48.82582513587789 H 0.0 **** 0.06
29510 H 116.93588122856244 139.31851480154103 47.211476958207456 H 0.0 **** 0.06
29511 C 146.49010112236647 31.24775683485052 124.80998419937902 C 0.0 **** -0.24
29512 H 145.68550805096916 31.209302784774934 124.07539114283963 H 0.0 **** 0.06
29513 H 147.14109901830315 32.09427120106683 124.58948733390167 H 0.0 **** 0.06
29514 H 147.06650455787167 30.32296248003152 124.76575530046188 H 0.0 **** 0.06
29515 H 146.0663536946879 31.363739389165772 125.80716914339399 H 0.0 **** 0.06
29516 C 51.027892740018814 17.362755997325074 54.23547110880622 C 0.0 **** -0.24
29517 H 50.84048821260714 18.227634163861083 54.87272616597545 H 0.0 **** 0.06
29518 H 51.13278773414413 17.68969002272359 53.200907018053954 H 0.0 **** 0.06
29519 H 50.1931227140571 16.666583034132962 54.31460308081205 H 0.0 **** 0.06
29520 H 51.945557207097536 16.868445052559622 54.55566997723281 H 0.0 **** 0.06
29521 C 119.10762441243139 22.49588531663541 91.77745003987744 C 0.0 **** -0.24
29522 H 119.11049016707062 23.31747242176315 92.4935715929603 H 0.0 **** 0.06
29523 H 119.62220201595704 21.637054252235792 92.2090178573439 H 0.0 **** 0.06
29524 H 119.61816171748984 22.806171461292976 90.86627782289695 H 0.0 **** 0.06
29525 H 118.07841324912692 22.223596604415498 91.5429123668056 H 0.0 **** 0.06
29526 C 123.83006379069401 69.69583810009432 95.65365625334555 C 0.0 **** -0.24
29527 H 123.84540655517459 68.6676229609682 95.29291967115238 H 0.0 **** 0.06
29528 H 124.70462878324217 70.22662952604114 95.27655384013941 H 0.0 **** 0.06
29529 H 123.84397049446214 69.69843347297552 96.74325641706355 H 0.0 **** 0.06
29530 H 122.92484222491275 70.19016849689264 95.3002300713385 H 0.0 **** 0.06
29531 C 67.31203178060055 56.954003606622734 17.510413664937033 C 0.0 **** -0.24
29532 H 66.91294763497099 56.041612122611795 17.06666225565715 H 0.0 **** 0.06
29533 H 67.26730641402723 56.87877791845847 18.597714665785247 H 0.0 **** 0.06
29534 H 66.72114852266341 57.80696491592896 17.179727130212427 H 0.0 **** 0.06
29535 H 68.34828731163032 57.085304883628936 17.19699835109938 H 0.0 **** 0.06
29536 C 45.461622118449 72.19729717268683 130.67122166126137 C 0.0 **** -0.24
29537 H 44.82818807040401 73.05005726645518 130.91606081155123 H 0.0 **** 0.06
29538 H 46.48713919996159 72.53786269116497 130.52524377671136 H 0.0 **** 0.06
29539 H 45.10017348631479 71.72784918515003 129.7562363343959 H 0.0 **** 0.06
29540 H 45.43204160301417 71.47535541406674 131.48696901328913 H 0.0 **** 0.06
29541 C 10.114604582418998 118.07029359294985 79.13065944450531 C 0.0 **** -0.24
29542 H 10.88912649147759 118.81763944164312 79.30464129612463 H 0.0 **** 0.06
29543 H 9.40711524129835 118.08011858619382 79.95975411377424 H 0.0 **** 0.06
29544 H 10.5725153828865 117.0838917810574 79.05428635732488 H 0.0 **** 0.06
29545 H 9.590339239791234 118.30055874538881 78.20274322669314 H 0.0 **** 0.06
29546 C 87.64599884224839 24.717365859770325 44.500480515695145 C 0.0 **** -0.24
29547 H 87.3240872304938 24.882171022978923 43.4716035138552 H 0.0 **** 0.06
29548 H 87.305182960632 23.737819163523483 44.83513774551399 H 0.0 **** 0.06
29549 H 87.22041632995251 25.48954240656957 45.14091127557444 H 0.0 **** 0.06
29550 H 88.7345753608074 24.761279252174916 44.55160286988401 H 0.0 **** 0.06
29551 C 53.46574506711143 99.29669144689562 142.7066928965081 C 0.0 **** -0.24
29552 H 53.18411906273914 100.1235065729828 143.35823275750622 H 0.0 **** 0.06
29553 H 54.549001649301545 99.17122544363775 142.72621667524243 H 0.0 **** 0.06
29554 H 53.142858872891395 99.510679853551 141.68844533402103 H 0.0 **** 0.06
29555 H 52.98847881143854 98.38124091834953 143.0555508956642 H 0.0 **** 0.06
29556 C 146.46616814637161 14.331098380146727 36.47463113241426 C 0.0 **** -0.24
29557 H 146.0167760934304 15.305339062849441 36.28282253240616 H 0.0 **** 0.06
29558 H 146.02153431338502 13.589634282962692 35.81054873518562 H 0.0 **** 0.06
29559 H 146.28615117316815 14.046002443820015 37.51118015107397 H 0.0 **** 0.06
29560 H 147.5399241760956 14.384441330822824 36.29304035309093 H 0.0 **** 0.06
29561 C 112.42644618842378 120.52049884295076 101.96746363857999 C 0.0 **** -0.24
29562 H 111.35510167697682 120.35603398075011 102.08532770460336 H 0.0 **** 0.06
29563 H 112.65954521253248 121.56355122386577 102.18501891021863 H 0.0 **** 0.06
29564 H 112.71827778788703 120.28950221263136 100.94263459522425 H 0.0 **** 0.06
29565 H 112.97071195155338 119.87447791152357 102.65591362785993 H 0.0 **** 0.06
29566 C 47.97874863114771 0.4816666251023207 55.80508094636167 C 0.0 **** -0.24
29567 H 48.1930939742532 0.059415972214765134 56.78719557991347 H 0.0 **** 0.06
29568 H 47.37030021770971 1.379597051314306 55.91999918150891 H 0.0 **** 0.06
29569 H 47.4373785269413 -0.24991051170189849 55.20551279895231 H 0.0 **** 0.06
29570 H 48.914507591812026 0.7383617217234928 55.30912686923088 H 0.0 **** 0.06
29571 C 88.62826098191192 41.011701510637806 122.33164033879076 C 0.0 **** -0.24
29572 H 88.36515263384098 40.22982435360481 123.0436668560232 H 0.0 **** 0.06
29573 H 87.72011534929152 41.50439749976994 121.98150192685064 H 0.0 **** 0.06
29574 H 89.1518588340441 40.57032757828313 121.48316049955825 H 0.0 **** 0.06
29575 H 89.27473873266933 41.74257192540048 122.8175164837305 H 0.0 **** 0.06
29576 C 87.27662953897017 48.5377759885848 87.22141453394832 C 0.0 **** -0.24
29577 H 87.44478349297633 48.84147130621851 88.25529562752348 H 0.0 **** 0.06
29578 H 87.6735063534597 49.29904519802457 86.55003636495064 H 0.0 **** 0.06
29579 H 86.20617924476848 48.42178047567741 87.04801925881051 H 0.0 **** 0.06
29580 H 87.77956223744758 47.5894149715225 87.03553900195703 H 0.0 **** 0.06
29581 C 91.12791723577277 71.68260690914472 33.414092251779905 C 0.0 **** -0.24
29582 H 91.09758613122358 72.71118013934758 33.770950408974755 H 0.0 **** 0.06
29583 H 91.43575424686779 71.66989240512338 32.367597889018995 H 0.0 **** 0.06
29584 H 90.13848528925615 71.2354364133643 33.50764239086416 H 0.0 **** 0.06
29585 H 91.84141412177482 71.11228397757554 34.00925074608989 H 0.0 **** 0.06
29586 C 77.07444765480409 41.143243288233066 97.31326475021737 C 0.0 **** -0.24
29587 H 76.14402173021767 40.8642493346521 96.8175171504887 H 0.0 **** 0.06
29588 H 77.8332978149216 41.36624901999994 96.56288246946404 H 0.0 **** 0.06
29589 H 77.41371825741265 40.3184966796278 97.94042675360356 H 0.0 **** 0.06
29590 H 76.9045209414196 42.02401709607088 97.93210080773582 H 0.0 **** 0.06
29591 C 150.01410908437546 74.27272835631135 126.86187115325056 C 0.0 **** -0.24
29592 H 149.0422279169568 74.50854748571453 127.29625005465935 H 0.0 **** 0.06
29593 H 150.32668068168124 75.08831580001967 126.20956156516188 H 0.0 **** 0.06
29594 H 149.93957308981223 73.35299514600723 126.28268479289677 H 0.0 **** 0.06
29595 H 150.74618248541913 74.14323432910126 127.65865624726113 H 0.0 **** 0.06
29596 C 139.28711198926766 55.04096765194056 155.93879291665576 C 0.0 **** -0.24
29597 H 138.8748947464747 54.06639704746239 155.67542286453985 H 0.0 **** 0.06
29598 H 140.23707002749182 54.905115227429974 156.45720256644094 H 0.0 **** 0.06
29599 H 138.58916286297742 55.565642114628844 156.5916584573302 H 0.0 **** 0.06
29600 H 139.44696195828408 55.62477664364897 155.03291506408098 H 0.0 **** 0.06
29601 C 145.78897641749344 96.75980190838199 34.73905102820535 C 0.0 **** -0.24
29602 H 145.22583716548962 97.2384476042585 33.93744503119652 H 0.0 **** 0.06
29603 H 145.60920298595525 95.68465006007278 34.717447600032756 H 0.0 **** 0.06
29604 H 145.46773241360827 97.16363229696141 35.6989947595969 H 0.0 **** 0.06
29605 H 146.85226570998583 96.95387028642025 34.60049780829283 H 0.0 **** 0.06
29606 C 149.9942103642265 133.49725221007537 38.97115440159891 C 0.0 **** -0.24
29607 H 149.51645406038037 134.09903411456253 39.744515337333695 H 0.0 **** 0.06
29608 H 151.03054962516998 133.81434866523745 38.85328813641988 H 0.0 **** 0.06
29609 H 149.46362530277975 133.63070176741257 38.02847716363823 H 0.0 **** 0.06
29610 H 149.96615449487592 132.44681497939627 39.25989329147512 H 0.0 **** 0.06
29611 C 3.505599988914014 6.4462448567539 152.51855120183743 C 0.0 **** -0.24
29612 H 4.130248287725806 6.492511703606418 151.62579334378336 H 0.0 **** 0.06
29613 H 4.1137166079872145 6.146478100000856 153.37138336819524 H 0.0 **** 0.06
29614 H 2.708167676726532 5.718800205201369 152.36537590482186 H 0.0 **** 0.06
29615 H 3.0702190971705363 7.428201531137809 152.70849408131775 H 0.0 **** 0.06
29616 C 66.35714282372606 119.32086027368233 86.42376224100924 C 0.0 **** -0.24
29617 H 66.09372808047999 119.54101194025917 85.38936406860648 H 0.0 **** 0.06
29618 H 66.99736122628325 120.1133056094928 86.8123989394988 H 0.0 **** 0.06
29619 H 66.88873443012868 118.37005180497012 86.46898733835867 H 0.0 **** 0.06
29620 H 65.4501015923836 119.25947991596543 87.0243055751645 H 0.0 **** 0.06
29621 C 121.10506626607162 48.43825816513565 90.26058278640546 C 0.0 **** -0.24
29622 H 120.4204712654253 48.73335542404746 91.05561168831622 H 0.0 **** 0.06
29623 H 121.10815688407007 47.35159874326972 90.16900518787237 H 0.0 **** 0.06
29624 H 122.10920605722589 48.78643251957787 90.49835263986603 H 0.0 **** 0.06
29625 H 120.77898017626325 48.88075136396817 89.31882043161828 H 0.0 **** 0.06
29626 C 53.92322997482937 110.0770477166027 24.712950583717543 C 0.0 **** -0.24
29627 H 54.13074988576369 109.9196654707519 23.654919885203924 H 0.0 **** 0.06
29628 H 52.851812185428784 109.98142331194764 24.89190755485845 H 0.0 **** 0.06
29629 H 54.25332393522268 111.07393562170485 25.003005946100075 H 0.0 **** 0.06
29630 H 54.45799857647434 109.33127033280984 25.302657601322323 H 0.0 **** 0.06
29631 C 92.6197985400004 33.48473160507231 79.27524920643832 C 0.0 **** -0.24
29632 H 91.78323864345177 33.63557367741217 78.59329842756325 H 0.0 **** 0.06
29633 H 93.33585635171656 32.797074617691194 78.82513171868744 H 0.0 **** 0.06
29634 H 92.25402924246758 33.06735277415571 80.2130830855202 H 0.0 **** 0.06
29635 H 93.10674635606644 34.441592158353885 79.4688272125815 H 0.0 **** 0.06
29636 C 116.80576670172138 129.82511412790734 122.9535005606652 C 0.0 **** -0.24
29637 H 115.96712258367018 130.38411320018741 123.3678829112253 H 0.0 **** 0.06
29638 H 117.44904883338722 130.50058559991334 122.38883598123753 H 0.0 **** 0.06
29639 H 116.429806328999 129.04333641381405 122.29251484372297 H 0.0 **** 0.06
29640 H 117.37571744238898 129.37209034140483 123.76486440159535 H 0.0 **** 0.06
29641 C 44.53520225411029 106.81122592811028 80.0461962675157 C 0.0 **** -0.24
29642 H 43.85909786022523 106.68825170524906 80.89163096296043 H 0.0 **** 0.06
29643 H 44.822788596116595 105.83055725039992 79.66607294827257 H 0.0 **** 0.06
29644 H 45.42576999731841 107.35051188102881 80.36926813840186 H 0.0 **** 0.06
29645 H 44.03454871491118 107.37421226998458 79.2588957769924 H 0.0 **** 0.06
29646 C 117.80176040436628 130.26967826381335 69.5778963163495 C 0.0 **** -0.24
29647 H 118.55510448094203 130.53424753551363 68.83652431590015 H 0.0 **** 0.06
29648 H 117.18012231676342 129.4617061513644 69.19218162617081 H 0.0 **** 0.06
29649 H 117.17895521849569 131.13909260619377 69.78859295772229 H 0.0 **** 0.06
29650 H 118.29351157834556 129.94408113334413 70.49492138920616 H 0.0 **** 0.06
29651 C 64.8239065877307 100.57566620775877 74.92762341118102 C 0.0 **** -0.24
29652 H 64.55205143114284 101.53355389190044 74.4840226516934 H 0.0 **** 0.06
29653 H 64.63148700438876 100.60394655320538 75.99966518481241 H 0.0 **** 0.06
29654 H 65.88252157474255 100.38298028825925 74.75285463698972 H 0.0 **** 0.06
29655 H 64.22974248380098 99.78363401038105 74.47225798208729 H 0.0 **** 0.06
29656 C 61.52840763753227 31.96100147054439 22.66576242341864 C 0.0 **** -0.24
29657 H 62.567025382955876 31.63189001560002 22.62808601368164 H 0.0 **** 0.06
29658 H 61.01935228327068 31.46460640032791 23.492096048798317 H 0.0 **** 0.06
29659 H 61.03295603042329 31.708661404779377 21.728785457953933 H 0.0 **** 0.06
29660 H 61.495482249523775 33.04058442991908 22.814843766029128 H 0.0 **** 0.06
29661 C 73.69710509132796 8.161075335320284 38.42856418141993 C 0.0 **** -0.24
29662 H 73.53616861580662 7.885706106196096 39.47121270020861 H 0.0 **** 0.06
29663 H 74.6689960643487 7.7908704028062274 38.100841820833395 H 0.0 **** 0.06
29664 H 73.67023019137476 9.246464506445484 38.332513386149344 H 0.0 **** 0.06
29665 H 72.91389206655352 7.7223413644370495 37.81170886860308 H 0.0 **** 0.06
29666 C 40.25647900438395 69.285618091603 65.46779722580283 C 0.0 **** -0.24
29667 H 40.002116964145216 68.53129640138008 64.72290902875419 H 0.0 **** 0.06
29668 H 40.98812817381736 69.97573898146219 65.04949677053429 H 0.0 **** 0.06
29669 H 40.676878215704676 68.79838599562049 66.34844080277252 H 0.0 **** 0.06
29670 H 39.357653266720035 69.833495673832 65.75009336067546 H 0.0 **** 0.06
29671 C 71.96112021750173 44.23797442877006 50.772382736471144 C 0.0 **** -0.24
29672 H 72.31226887755719 44.71109201458977 51.68973984181147 H 0.0 **** 0.06
29673 H 72.46857012017719 43.281888643233046 50.640404450267454 H 0.0 **** 0.06
29674 H 72.17865841987248 44.886015871772486 49.923057058618696 H 0.0 **** 0.06
29675 H 70.8860388916869 44.07275304903004 50.83769495270457 H 0.0 **** 0.06
29676 C 31.116300086874674 32.53931912230519 40.485444507738336 C 0.0 **** -0.24
29677 H 30.213425775818635 32.24935404178737 41.02391543334795 H 0.0 **** 0.06
29678 H 31.781516651876615 33.08149095987022 41.158054585108616 H 0.0 **** 0.06
29679 H 30.848011877612038 33.17901380467538 39.644897181086165 H 0.0 **** 0.06
29680 H 31.62092902577477 31.64693291847601 40.11665170302335 H 0.0 **** 0.06
29681 C 65.52820779033323 133.57538025897105 49.773297312412225 C 0.0 **** -0.24
29682 H 64.81928591604435 134.39656583846937 49.88396223804092 H 0.0 **** 0.06
29683 H 64.99403477516785 132.6264594126427 49.81553557944284 H 0.0 **** 0.06
29684 H 66.26083503118332 133.61737593062708 50.57982529680655 H 0.0 **** 0.06
29685 H 66.03902830236473 133.66353760762922 48.8136924955317 H 0.0 **** 0.06
29686 C 70.61083285484426 89.49208683048698 56.903552814006005 C 0.0 **** -0.24
29687 H 69.68931824899859 89.75025579361183 57.4258355971822 H 0.0 **** 0.06
29688 H 70.73194037201523 88.40932368756016 56.89414084928248 H 0.0 **** 0.06
29689 H 71.45838855733464 89.94819807663083 57.4166030868048 H 0.0 **** 0.06
29690 H 70.56441681261202 89.86263146168868 55.880124331861765 H 0.0 **** 0.06
29691 C 140.4193424370172 5.286704911489608 144.1125836418211 C 0.0 **** -0.24
29692 H 140.06921762426006 6.0057682069325296 144.85334357071054 H 0.0 **** 0.06
29693 H 139.89031929779347 5.44662523507926 143.17303924053553 H 0.0 **** 0.06
29694 H 140.22818988211313 4.274713102028308 144.47046346846088 H 0.0 **** 0.06
29695 H 141.49008385476827 5.4194704239890115 143.95566701835003 H 0.0 **** 0.06
29696 C 0.7595282801024901 53.08375326574654 138.85456963912367 C 0.0 **** -0.24
29697 H 1.753726115852821 53.23347752443266 139.27520959262577 H 0.0 **** 0.06
29698 H 0.05544671299021431 52.862642043809785 139.65738261790364 H 0.0 **** 0.06
29699 H 0.7840431419320915 52.2511784281467 138.1511964480858 H 0.0 **** 0.06
29700 H 0.44588856562778645 53.98981892678664 138.33525870340105 H 0.0 **** 0.06
29701 C 103.75271244469053 16.97138322548784 39.6520442939383 C 0.0 **** -0.24
29702 H 103.8511737069121 16.324613691430727 38.7796898647082 H 0.0 **** 0.06
29703 H 103.96167314232486 18.002316354940888 39.36447340573581 H 0.0 **** 0.06
29704 H 104.45932149579039 16.656620400511088 40.419270889143064 H 0.0 **** 0.06
29705 H 102.7374364794864 16.90123026546371 40.04231720493759 H 0.0 **** 0.06
29706 C 7.634229626907029 40.74938062492947 26.68587791731121 C 0.0 **** -0.24
29707 H 7.49149654758196 40.96353655557914 25.626852343630333 H 0.0 **** 0.06
29708 H 7.492512832683246 41.66399574709067 27.263466238099767 H 0.0 **** 0.06
29709 H 8.643422726320011 40.37062620498307 26.84763714639132 H 0.0 **** 0.06
29710 H 6.9098278776325515 40.00101125450584 27.00702906126036 H 0.0 **** 0.06
29711 C 59.234977503309636 53.9455755495992 138.53490210054957 C 0.0 **** -0.24
29712 H 59.29685946202599 54.08979309378822 139.61269221658648 H 0.0 **** 0.06
29713 H 59.31366702496443 52.88235751107281 138.30502370382874 H 0.0 **** 0.06
29714 H 60.04843452731954 54.48290856040404 138.04820244875827 H 0.0 **** 0.06
29715 H 58.280290744044194 54.32624264417977 138.17155318540517 H 0.0 **** 0.06
29716 C 154.79926468578518 3.8812944877464304 31.03975170770019 C 0.0 **** -0.24
29717 H 155.00834577021521 4.067990926322352 29.98529199408938 H 0.0 **** 0.06
29718 H 154.86010860766572 4.819171058591252 31.592617201736743 H 0.0 **** 0.06
29719 H 155.53022009793145 3.1769865273141704 31.43561799741019 H 0.0 **** 0.06
29720 H 153.79808437408036 3.4630317437775204 31.142333005342152 H 0.0 **** 0.06
29721 C 143.60347893329606 101.05285774740855 147.32597213812204 C 0.0 **** -0.24
29722 H 144.2197425285529 101.25057428713063 148.2030787593277 H 0.0 **** 0.06
29723 H 142.9386550128568 101.89974578118745 147.1519763648422 H 0.0 **** 0.06
29724 H 143.01066211956922 100.15384292551249 147.49371073374977 H 0.0 **** 0.06
29725 H 144.2445573198334 100.90945673144051 146.45618117396316 H 0.0 **** 0.06
29726 C 71.52961059938374 149.65694918909526 37.78659306043946 C 0.0 **** -0.24
29727 H 70.67630877431412 149.06373313374982 37.459369366903445 H 0.0 **** 0.06
29728 H 72.36988771356016 149.4870663539823 37.11304805034226 H 0.0 **** 0.06
29729 H 71.80944539778667 149.36234512402626 38.7981584859191 H 0.0 **** 0.06
29730 H 71.26291661721831 150.71387274723162 37.776970699847325 H 0.0 **** 0.06
29731 C 148.40768733821832 95.6315263990492 28.251933056237704 C 0.0 **** -0.24
29732 H 147.66003482094698 96.22855553382024 27.730554528270204 H 0.0 **** 0.06
29733 H 149.3712620427655 96.13980849464194 28.21248967589338 H 0.0 **** 0.06
29734 H 148.49069861044453 94.65570930988213 27.77347845458098 H 0.0 **** 0.06
29735 H 148.1067801912417 95.50098353675537 29.29113953363371 H 0.0 **** 0.06
29736 C 28.853523954480693 97.09702394593442 10.77075008175737 C 0.0 **** -0.24
29737 H 29.065838684822097 97.39716258484606 11.797920463608875 H 0.0 **** 0.06
29738 H 28.008279788819607 96.40883240320264 10.761840944502922 H 0.0 **** 0.06
29739 H 29.728846753083445 96.60364755625459 10.349146733513294 H 0.0 **** 0.06
29740 H 28.61186018974098 97.97889834560439 10.178247922686069 H 0.0 **** 0.06
29741 C 118.81754456153556 69.05681866613145 85.17035579393388 C 0.0 **** -0.24
29742 H 117.99319888581317 69.53781480003255 85.69744935072761 H 0.0 **** 0.06
29743 H 119.76439761687578 69.43245314488098 85.55883451347243 H 0.0 **** 0.06
29744 H 118.74671825706957 69.28054437371571 84.10637502267419 H 0.0 **** 0.06
29745 H 118.76380080856848 67.97863930632522 85.32018082038913 H 0.0 **** 0.06
29746 C 37.456168104503064 105.36469922616232 95.79791067161591 C 0.0 **** -0.24
29747 H 37.395031384894466 105.61514530004587 94.73913415315852 H 0.0 **** 0.06
29748 H 38.274866213122266 104.66380626516258 95.95825750444209 H 0.0 **** 0.06
29749 H 36.519505574686164 104.91005591282965 96.11915575833282 H 0.0 **** 0.06
29750 H 37.63540255469957 106.27201433184803 96.374915860269 H 0.0 **** 0.06
29751 C 131.6151613820868 1.0653312382467277 152.3592660029949 C 0.0 **** -0.24
29752 H 130.66486278126803 1.5213703321223022 152.6388686165051 H 0.0 **** 0.06
29753 H 132.23243637103997 1.801028068035663 151.8419609753061 H 0.0 **** 0.06
29754 H 131.43048745415422 0.21779599884828826 151.69980849607913 H 0.0 **** 0.06
29755 H 132.13174314943 0.7232974286158367 153.2561811763781 H 0.0 **** 0.06
29756 C 11.53839417991017 100.39819029183481 107.20307523157395 C 0.0 **** -0.24
29757 H 11.890507511974334 101.37248357277484 106.86305096857221 H 0.0 **** 0.06
29758 H 12.261721523971346 99.63288311940299 106.9214848213952 H 0.0 **** 0.06
29759 H 10.576934901502739 100.17782385666176 106.74015155105339 H 0.0 **** 0.06
29760 H 11.425976175946062 100.41144880333745 108.28778215865357 H 0.0 **** 0.06
29761 C 92.90221686032453 148.8028082565626 16.44512458872657 C 0.0 **** -0.24
29762 H 93.63336452946464 148.03445414712576 16.196350236753574 H 0.0 **** 0.06
29763 H 93.00808304350227 149.64084097647805 15.756853454592715 H 0.0 **** 0.06
29764 H 93.06827826315532 149.14644673643886 17.465785577626292 H 0.0 **** 0.06
29765 H 91.89780200178444 148.38783045808026 16.3608400014721 H 0.0 **** 0.06
29766 C 46.05219994770249 64.34484635806777 64.22691023684428 C 0.0 **** -0.24
29767 H 45.54205287237649 65.0739736233374 64.8564529811028 H 0.0 **** 0.06
29768 H 47.129218621935905 64.44930659107342 64.35064965653298 H 0.0 **** 0.06
29769 H 45.78656795539109 64.51845255779345 63.18317450992855 H 0.0 **** 0.06
29770 H 45.747205701217666 63.33857220594652 64.51561517161471 H 0.0 **** 0.06
29771 C 151.6290870756117 29.399390818177608 92.04175517956168 C 0.0 **** -0.24
29772 H 151.7655389632979 30.417559176591453 91.67784071861291 H 0.0 **** 0.06
29773 H 151.17115666972012 29.426204163911763 93.03084995726317 H 0.0 **** 0.06
29774 H 152.59676518864947 28.902326877144418 92.10183966996055 H 0.0 **** 0.06
29775 H 150.98151102171673 28.851774478491706 91.35636966837114 H 0.0 **** 0.06
29776 C 28.831910696362172 121.14467084382157 45.25702019600226 C 0.0 **** -0.24
29777 H 29.09135797075254 121.09509970988954 46.31461486847286 H 0.0 **** 0.06
29778 H 28.661650699047755 122.18313530015415 44.97273023649953 H 0.0 **** 0.06
29779 H 27.926946023934278 120.56468400981443 45.0780708701394 H 0.0 **** 0.06
29780 H 29.64933612975244 120.7339528669029 44.664079990985854 H 0.0 **** 0.06
29781 C 106.39902341847926 92.18442146228898 118.34500615973768 C 0.0 **** -0.24
29782 H 105.5844551718597 91.85373005189899 118.9896653297849 H 0.0 **** 0.06
29783 H 106.71626469754392 91.3582258270082 117.70870559024571 H 0.0 **** 0.06
29784 H 107.2372274778383 92.5145907789393 118.95829714773815 H 0.0 **** 0.06
29785 H 106.05572786282471 93.01152566284583 117.72339978754864 H 0.0 **** 0.06
29786 C 50.41134892813231 148.96219762900813 29.032511535681124 C 0.0 **** -0.24
29787 H 49.9305111592266 148.11257934755287 29.51689204019948 H 0.0 **** 0.06
29788 H 50.44585050672862 149.8034766714454 29.725001894685647 H 0.0 **** 0.06
29789 H 49.84355414816065 149.24451008497513 28.145146626606163 H 0.0 **** 0.06
29790 H 51.426141038565476 148.68893366111865 28.74276085277029 H 0.0 **** 0.06
29791 C 94.83261087040948 1.074574986505354 12.156745962345497 C 0.0 **** -0.24
29792 H 93.85817464051497 1.5604420577020335 12.214883062344484 H 0.0 **** 0.06
29793 H 94.87633369086554 0.4539589640836539 11.262550965809055 H 0.0 **** 0.06
29794 H 94.98177437804452 0.4519041519974394 13.039016872921707 H 0.0 **** 0.06
29795 H 95.61427158815891 1.8326369686022872 12.111788085253238 H 0.0 **** 0.06
29796 C 56.35285097494233 17.161647072097338 63.00571936542687 C 0.0 **** -0.24
29797 H 56.265221685152824 16.62200302830348 63.948465922263125 H 0.0 **** 0.06
29798 H 56.22028314761204 16.46784838666747 62.175661644177325 H 0.0 **** 0.06
29799 H 57.33879308745837 17.62209736052381 62.941763470688926 H 0.0 **** 0.06
29800 H 55.586491902544296 17.935511778400326 62.958678226139185 H 0.0 **** 0.06
29801 C 63.98043927203176 6.165335392576225 99.10205078720276 C 0.0 **** -0.24
29802 H 64.54271399056738 6.130514427466636 98.16922106322119 H 0.0 **** 0.06
29803 H 63.08230899626216 5.555236274439551 99.0078290648483 H 0.0 **** 0.06
29804 H 63.69866014052586 7.195914750454733 99.31788956614628 H 0.0 **** 0.06
29805 H 64.59807396077188 5.779676117944149 99.91326345459527 H 0.0 **** 0.06
29806 C 28.743054214907744 24.81388194399051 24.432642273380452 C 0.0 **** -0.24
29807 H 28.70871009842122 25.896856769708187 24.551699748597827 H 0.0 **** 0.06
29808 H 29.45698370412856 24.557694878569137 23.649327796782387 H 0.0 **** 0.06
29809 H 27.75467461291629 24.44677139148282 24.157972938908472 H 0.0 **** 0.06
29810 H 29.05338275776444 24.35541692360806 25.371148354941823 H 0.0 **** 0.06
29811 C 89.4896516223703 30.540106972757798 64.63336533033271 C 0.0 **** -0.24
29812 H 90.52785442820276 30.30392084516953 64.40163338683669 H 0.0 **** 0.06
29813 H 89.16409794810019 31.381310453140912 64.02131126032049 H 0.0 **** 0.06
29814 H 89.40349615970997 30.80300676555855 65.68788873980446 H 0.0 **** 0.06
29815 H 88.8643439148092 29.672950289240475 64.42275145855598 H 0.0 **** 0.06
29816 C 49.64509687623968 4.103309539240115 14.565186477647288 C 0.0 **** -0.24
29817 H 49.89416088392301 4.488239089386667 13.576221342992412 H 0.0 **** 0.06
29818 H 50.51170669416547 4.199384734145866 15.219804437320086 H 0.0 **** 0.06
29819 H 49.364836160639356 3.0525426933924678 14.485288614270281 H 0.0 **** 0.06
29820 H 48.81240383593831 4.671940469560781 14.977907694431757 H 0.0 **** 0.06
29821 C 153.87222482612384 89.01487228525058 32.7971721900137 C 0.0 **** -0.24
29822 H 154.28478197053536 89.83676329087136 33.38354450805402 H 0.0 **** 0.06
29823 H 153.050165685134 89.38359919129873 32.18314618874645 H 0.0 **** 0.06
29824 H 153.5048693935316 88.23913140457147 33.468531797043276 H 0.0 **** 0.06
29825 H 154.6490774571152 88.60199686884685 32.154878254640344 H 0.0 **** 0.06
29826 C 107.72850692337526 156.52859928146938 121.34034152902034 C 0.0 **** -0.24
29827 H 108.52750113018955 157.08263224356972 121.83201964787149 H 0.0 **** 0.06
29828 H 107.98741566628873 155.47031481637532 121.30740334025857 H 0.0 **** 0.06
29829 H 107.59720624799287 156.9028879849903 120.32526135599183 H 0.0 **** 0.06
29830 H 106.8004044533504 156.65786381645285 121.89818576742918 H 0.0 **** 0.06
29831 C 91.9391776257887 81.41388684098467 76.30912992334771 C 0.0 **** -0.24
29832 H 92.69001655434475 80.63457227876816 76.44103291849513 H 0.0 **** 0.06
29833 H 92.40455044790252 82.39215194318953 76.44088078461232 H 0.0 **** 0.06
29834 H 91.14923087569714 81.28547638082904 77.04808019662244 H 0.0 **** 0.06
29835 H 91.51540364884886 81.34474658322819 75.30743990105879 H 0.0 **** 0.06
29836 C 25.44479172063035 43.851158709950624 87.45584545358727 C 0.0 **** -0.24
29837 H 24.512957947383597 43.79505448720117 88.01878400684073 H 0.0 **** 0.06
29838 H 25.34586182644074 43.28101502045732 86.53193542977446 H 0.0 **** 0.06
29839 H 26.255863171622707 43.43659169651541 88.05413798180551 H 0.0 **** 0.06
29840 H 25.663139521655012 44.89268549429197 87.21935258797876 H 0.0 **** 0.06
29841 C 116.99449884500694 135.2658785363269 114.89916359680171 C 0.0 **** -0.24
29842 H 116.06428211002611 135.3772614902834 114.34236980872726 H 0.0 **** 0.06
29843 H 117.50517790066897 136.22737145818462 114.95026082687798 H 0.0 **** 0.06
29844 H 117.63426425543679 134.5402611983763 114.39677293877168 H 0.0 **** 0.06
29845 H 116.77475435362487 134.91705414242 115.90877223879414 H 0.0 **** 0.06
29846 C 53.22985369844805 59.494360531059726 4.4052136466396234 C 0.0 **** -0.24
29847 H 53.06130288438396 58.96899455996652 3.4655547367265456 H 0.0 **** 0.06
29848 H 52.7332672358819 58.95775103744779 5.214453320910309 H 0.0 **** 0.06
29849 H 52.822551530146086 60.50283653469751 4.334724229938331 H 0.0 **** 0.06
29850 H 54.299176029457925 59.54728924658093 4.605143417803902 H 0.0 **** 0.06
29851 C 36.476004755053424 127.48921448923251 136.57360816805496 C 0.0 **** -0.24
29852 H 37.38004277968477 128.06824325404438 136.7590712999426 H 0.0 **** 0.06
29853 H 36.00088882101774 127.24416500513514 137.52393563625827 H 0.0 **** 0.06
29854 H 36.734349318694754 126.56959066885763 136.04892943336262 H 0.0 **** 0.06
29855 H 35.78832878944594 128.07523528927248 135.96379667084568 H 0.0 **** 0.06
29856 C 64.59007392210307 99.23444304285107 148.1388581051889 C 0.0 **** -0.24
29857 H 64.35120293376342 100.29750715489507 148.1323016912229 H 0.0 **** 0.06
29858 H 63.86430571075606 98.70275844628816 148.75490249601637 H 0.0 **** 0.06
29859 H 65.58979417680696 99.08990787176504 148.5483109887183 H 0.0 **** 0.06
29860 H 64.55507537694996 98.84765347835173 147.12091234471035 H 0.0 **** 0.06
29861 C 51.174481166439065 39.91077595056551 99.66912634491092 C 0.0 **** -0.24
29862 H 50.98552356470266 40.97820312097268 99.54886837473566 H 0.0 **** 0.06
29863 H 52.24952313063994 39.731113240592904 99.67476145173157 H 0.0 **** 0.06
29864 H 50.71824022034441 39.36590472295373 98.84220177781788 H 0.0 **** 0.06
29865 H 50.7442078785659 39.57028286540438 100.6109076492375 H 0.0 **** 0.06
29866 C 86.56118383455508 63.60551653435182 92.07973152162123 C 0.0 **** -0.24
29867 H 85.65420391191745 63.515268806204716 92.6784764389366 H 0.0 **** 0.06
29868 H 86.79855596532293 64.65986352246065 91.93805735303016 H 0.0 **** 0.06
29869 H 86.40507369197259 63.134210717229465 91.10987117625785 H 0.0 **** 0.06
29870 H 87.38570592360715 63.1135362003926 92.59533343638327 H 0.0 **** 0.06
29871 C 86.21584691818293 15.800879497364804 131.37437691085472 C 0.0 **** -0.24
29872 H 87.04197195072024 16.108588981152707 130.7344152477562 H 0.0 **** 0.06
29873 H 86.61162144227727 15.380201344494708 132.30003460420141 H 0.0 **** 0.06
29874 H 85.61800712141729 15.04881418404375 130.8596255056974 H 0.0 **** 0.06
29875 H 85.59315763625034 16.66535915230446 131.60433484265718 H 0.0 **** 0.06
29876 C 101.56306920346093 110.56786773805244 85.96000585104532 C 0.0 **** -0.24
29877 H 102.4344740099363 110.41125866292903 86.59488607145143 H 0.0 **** 0.06
29878 H 100.77094537514627 109.87982165708958 86.25499753765979 H 0.0 **** 0.06
29879 H 101.8335053102998 110.38687373395403 84.9196197880728 H 0.0 **** 0.06
29880 H 101.21249097371204 111.59463679453923 86.07058578763225 H 0.0 **** 0.06
29881 C 35.8052382926155 47.495619994329004 104.59130641694229 C 0.0 **** -0.24
29882 H 35.99055978962565 46.46113026126676 104.30304336010404 H 0.0 **** 0.06
29883 H 36.74488862084219 47.96699039304296 104.87884749143926 H 0.0 **** 0.06
29884 H 35.113520770497104 47.51968475790825 105.43444607769062 H 0.0 **** 0.06
29885 H 35.37003422933185 48.03504555093825 103.74991877132716 H 0.0 **** 0.06
29886 C 43.74508573092707 44.01870101588213 6.628612760974619 C 0.0 **** -0.24
29887 H 43.79787244606314 43.39203792537967 5.737723519964391 H 0.0 **** 0.06
29888 H 42.71124764220204 44.07794057900634 6.969012753336472 H 0.0 **** 0.06
29889 H 44.10851457831875 45.01804822954125 6.392087401865723 H 0.0 **** 0.06
29890 H 44.362735638956934 43.58380083487771 7.415253173136847 H 0.0 **** 0.06
29891 C 99.82524416346224 0.09966452675371329 94.05985491422278 C 0.0 **** -0.24
29892 H 100.8233089001679 0.4339696288236041 94.34524340631917 H 0.0 **** 0.06
29893 H 99.75130532620018 0.06417678797726012 92.97300518428692 H 0.0 **** 0.06
29894 H 99.0832147908894 0.7959115154950496 94.45294557818129 H 0.0 **** 0.06
29895 H 99.64389181796439 -0.8939218365674719 94.469729451599 H 0.0 **** 0.06
29896 C 151.38799180740605 10.810782875069748 98.37130922651338 C 0.0 **** -0.24
29897 H 151.90639624304765 11.734071672118873 98.11284780513628 H 0.0 **** 0.06
29898 H 151.69357849344695 10.489467955787092 99.36799535218937 H 0.0 **** 0.06
29899 H 151.63963628339366 10.037308936849364 97.64677437935936 H 0.0 **** 0.06
29900 H 150.31141135166806 10.983273712418452 98.3593873532836 H 0.0 **** 0.06
29901 C 149.98802698574377 146.3609953053194 134.448197640045 C 0.0 **** -0.24
29902 H 150.625319652779 146.07765983420904 135.28506542829777 H 0.0 **** 0.06
29903 H 150.60199077704033 146.77518597525142 133.6484075268396 H 0.0 **** 0.06
29904 H 149.26576534287193 147.1081421375439 134.77736234938473 H 0.0 **** 0.06
29905 H 149.4589965962421 145.48084863106658 134.0807722783541 H 0.0 **** 0.06
29906 C 68.84551599109545 152.5357675769902 104.35257226558963 C 0.0 **** -0.24
29907 H 69.39465282689503 153.13573080120184 105.07844590880228 H 0.0 **** 0.06
29908 H 69.12170622076215 152.84349086003104 103.34436544745483 H 0.0 **** 0.06
29909 H 67.7747860312744 152.68241628169915 104.49670832108961 H 0.0 **** 0.06
29910 H 69.08933198281846 151.4823080987028 104.49241711856689 H 0.0 **** 0.06
29911 C 60.48891819684118 119.04390666488307 87.14155664418249 C 0.0 **** -0.24
29912 H 60.22532305119067 118.47827226816308 86.2484788401587 H 0.0 **** 0.06
29913 H 60.54899997949116 120.10350936485123 86.89564623857541 H 0.0 **** 0.06
29914 H 61.452833379447014 118.70189875647775 87.51651495735251 H 0.0 **** 0.06
29915 H 59.726623257625874 118.89058442001802 87.9063359790709 H 0.0 **** 0.06
29916 C 120.99773930711159 127.51564223683506 26.539011125709628 C 0.0 **** -0.24
29917 H 120.00966573216017 127.9428121874874 26.70664487687054 H 0.0 **** 0.06
29918 H 121.71320136628474 127.97720356916706 27.22067665803545 H 0.0 **** 0.06
29919 H 121.30396726742772 127.7012361858318 25.509837199073623 H 0.0 **** 0.06
29920 H 120.96370890154832 126.44089997295548 26.72051513017992 H 0.0 **** 0.06
29921 C 99.20948262405079 117.30519091092073 41.670404515835784 C 0.0 **** -0.24
29922 H 99.32061688210024 117.84190254671414 40.72792720239008 H 0.0 **** 0.06
29923 H 99.71925777403334 116.34315183179253 41.60285573354068 H 0.0 **** 0.06
29924 H 98.15098263544388 117.14239454462093 41.873123004433694 H 0.0 **** 0.06
29925 H 99.64813453762554 117.89303219173071 42.47682116011403 H 0.0 **** 0.06
29926 C 120.59345649784463 125.78470082139353 90.03927761415677 C 0.0 **** -0.24
29927 H 119.73892950460682 125.39549155490039 90.59343233811217 H 0.0 **** 0.06
29928 H 120.842074253554 125.10081473217105 89.22842086744166 H 0.0 **** 0.06
29929 H 121.4474616692993 125.8804187260917 90.70931410511801 H 0.0 **** 0.06
29930 H 120.34378752848004 126.76233985959658 89.62751072191917 H 0.0 **** 0.06
29931 C 156.06218035035891 57.31279451134543 6.9756076941299625 C 0.0 **** -0.24
29932 H 155.47398491849833 58.00752451562391 6.375466003637257 H 0.0 **** 0.06
29933 H 157.07927745715608 57.26872644563309 6.587082111303857 H 0.0 **** 0.06
29934 H 155.61181486829008 56.321089229297 6.929011026101705 H 0.0 **** 0.06
29935 H 156.08203106567305 57.65474901166891 8.01011807181294 H 0.0 **** 0.06
29936 C 44.98806639946197 148.33961596391202 72.58751712101599 C 0.0 **** -0.24
29937 H 44.75434334281776 147.5392166537202 73.28993591787747 H 0.0 **** 0.06
29938 H 44.79960634517268 147.99564824423516 71.57112514586004 H 0.0 **** 0.06
29939 H 46.0374302453757 148.61776574068355 72.6899325570277 H 0.0 **** 0.06
29940 H 44.36039929249337 149.20441453182337 72.80203309464179 H 0.0 **** 0.06
29941 C 91.59893380564493 100.5300282312024 91.121561826075 C 0.0 **** -0.24
29942 H 92.5090970798376 100.33645047937436 90.5528851366036 H 0.0 **** 0.06
29943 H 90.97590484352135 101.2399566674756 90.57742562664694 H 0.0 **** 0.06
29944 H 91.86060948476718 100.94658906474429 92.09419103538723 H 0.0 **** 0.06
29945 H 91.0521287538714 99.59724900942872 91.25951772457127 H 0.0 **** 0.06
29946 C 34.71974009839735 0.6138401115717045 107.82229372910312 C 0.0 **** -0.24
29947 H 34.406980281785565 1.531857711329451 107.32389862173464 H 0.0 **** 0.06
29948 H 35.65650170489057 0.7884515175038871 108.35214016122124 H 0.0 **** 0.06
29949 H 34.86238236006997 -0.17126988780469787 107.07988135095842 H 0.0 **** 0.06
29950 H 33.95243437283111 0.30729362216291634 108.53246963062033 H 0.0 **** 0.06
29951 C 30.852485063989057 143.1608112701154 54.49580433329223 C 0.0 **** -0.24
29952 H 31.53147022840527 143.3987356043242 53.67715067046399 H 0.0 **** 0.06
29953 H 30.93797248648856 143.92288624702056 55.271695024932626 H 0.0 **** 0.06
29954 H 31.11273154081534 142.18778099980716 54.9115488597277 H 0.0 **** 0.06
29955 H 29.829339170052478 143.135400087321 54.12313643060273 H 0.0 **** 0.06
29956 C 62.1965107442234 40.988346404804474 127.71435940281019 C 0.0 **** -0.24
29957 H 61.98968583499912 41.12387178073655 126.65308470737791 H 0.0 **** 0.06
29958 H 61.37672576419277 41.4044197795734 128.30087047586147 H 0.0 **** 0.06
29959 H 63.123910555258334 41.499893876244755 127.97210433229323 H 0.0 **** 0.06
29960 H 62.29526522779106 39.925196406131874 127.93226829332689 H 0.0 **** 0.06
29961 C 113.43829627228219 148.12949403909965 104.20239352675672 C 0.0 **** -0.24
29962 H 112.75897459936671 148.73559898414348 104.80042402649728 H 0.0 **** 0.06
29963 H 112.87978164898398 147.32728953462038 103.71897026052356 H 0.0 **** 0.06
29964 H 114.2053685193621 147.70082811181248 104.84717748673872 H 0.0 **** 0.06
29965 H 113.90974847761952 148.75304193953122 103.4432120706333 H 0.0 **** 0.06
29966 C 3.2446468135806867 30.762249069446085 41.796416024641715 C 0.0 **** -0.24
29967 H 4.07946551891439 30.275872682295734 42.30063264260528 H 0.0 **** 0.06
29968 H 3.441865254853525 30.804444324324223 40.72436137166551 H 0.0 **** 0.06
29969 H 3.12560557866874 31.774699590796665 42.183918074982344 H 0.0 **** 0.06
29970 H 2.330888398609005 30.194563862832624 41.975714037878745 H 0.0 **** 0.06
29971 C 11.341959390821565 27.349691910302198 21.77799885703638 C 0.0 **** -0.24
29972 H 12.252792853569318 27.696203349116644 22.26624049378293 H 0.0 **** 0.06
29973 H 11.572128909176172 26.492745589273397 21.144992013077 H 0.0 **** 0.06
29974 H 10.931266105947671 28.153683997997035 21.166801313616673 H 0.0 **** 0.06
29975 H 10.612312628391827 27.058875246401556 22.533737529500854 H 0.0 **** 0.06
29976 C 103.72604159075756 31.761209012453264 103.03548944454836 C 0.0 **** -0.24
29977 H 104.51662933237988 31.711208076030523 103.78374780768546 H 0.0 **** 0.06
29978 H 102.76008628067241 31.60509234310679 103.5171393575702 H 0.0 **** 0.06
29979 H 103.88698087579748 30.987794936174033 102.28487045691274 H 0.0 **** 0.06
29980 H 103.74099189395262 32.74061160534694 102.5570432834753 H 0.0 **** 0.06
29981 C 144.64253267179177 88.81026345169111 150.01986040537 C 0.0 **** -0.24
29982 H 143.82354146579794 88.50516778071922 149.36919791414402 H 0.0 **** 0.06
29983 H 144.51547290368813 89.85711508369103 150.29743414173083 H 0.0 **** 0.06
29984 H 145.58968666652027 88.68598406244463 149.49520470376777 H 0.0 **** 0.06
29985 H 144.64107556822344 88.19425362445112 150.91953449419117 H 0.0 **** 0.06
29986 C 48.860320296159955 119.25148697100451 123.92471637160384 C 0.0 **** -0.24
29987 H 49.4705530799873 120.1539133658232 123.92324028043402 H 0.0 **** 0.06
29988 H 48.74194374024049 118.89478586607817 124.94845414193713 H 0.0 **** 0.06
29989 H 49.34726474299029 118.48221093613955 123.32540496836282 H 0.0 **** 0.06
29990 H 47.88015655639158 119.47477525870647 123.50203671534825 H 0.0 **** 0.06
29991 C 135.51054043070604 21.239918438379625 99.4656061194263 C 0.0 **** -0.24
29992 H 136.4122638076279 21.297955307271558 98.85546403318189 H 0.0 **** 0.06
29993 H 135.6772861780931 20.554359245284203 100.29608435491498 H 0.0 **** 0.06
29994 H 134.682725905618 20.87767716347343 98.85526599175539 H 0.0 **** 0.06
29995 H 135.27051528291415 22.23006255073833 99.85287893308968 H 0.0 **** 0.06
29996 C 4.215826612078239 96.70944200118191 150.46859870551367 C 0.0 **** -0.24
29997 H 3.2303235610476655 96.59731904009442 150.01691204474227 H 0.0 **** 0.06
29998 H 4.963885761381313 96.82331538613292 149.68348912066378 H 0.0 **** 0.06
29999 H 4.445254090289836 95.82524573593105 151.0632899427764 H 0.0 **** 0.06
30000 H 4.223394023806719 97.59054977475103 151.1096996916726 H 0.0 **** 0.06
30001 C 49.53939501065247 103.28560817265003 15.739792367921012 C 0.0 **** -0.24
30002 H 50.46955158753241 103.21052152637225 16.304439567214217 H 0.0 **** 0.06
30003 H 49.28016794609198 104.33576623632723 15.6061509279603 H 0.0 **** 0.06
30004 H 48.74241211061832 102.78094478793804 16.28514800370192 H 0.0 **** 0.06
30005 H 49.66837458343343 102.81574489786442 14.764894201372641 H 0.0 **** 0.06
30006 C 148.6132937281521 96.63393686267193 120.35718257601569 C 0.0 **** -0.24
30007 H 149.17270666696868 96.730244804937 119.42686993926058 H 0.0 **** 0.06
30008 H 148.48041843571872 97.61847512449509 120.8045897815531 H 0.0 **** 0.06
30009 H 149.16293980528195 95.99181602415132 121.04579909240324 H 0.0 **** 0.06
30010 H 147.63763959093205 96.19369781124311 120.14961987296691 H 0.0 **** 0.06
30011 C 60.59421676740297 92.94117582420677 9.277119763637387 C 0.0 **** -0.24
30012 H 59.84476780908794 92.14993156062451 9.249634164949725 H 0.0 **** 0.06
30013 H 60.18546822961807 93.84325477984578 8.820197548746364 H 0.0 **** 0.06
30014 H 61.47815121924299 92.62262069573183 8.725522852244069 H 0.0 **** 0.06
30015 H 60.86560075127126 93.14815629594113 10.311345765999107 H 0.0 **** 0.06
30016 C 28.623725883681516 144.75929451767095 83.75040203583625 C 0.0 **** -0.24
30017 H 28.1417934225166 143.81219014082498 83.50487786115801 H 0.0 **** 0.06
30018 H 28.992990921100755 144.722231072096 84.7759425511376 H 0.0 **** 0.06
30019 H 27.90248796854516 145.5698623635097 83.6522630175799 H 0.0 **** 0.06
30020 H 29.457628537187645 144.92929688496287 83.06955313744673 H 0.0 **** 0.06
30021 C 95.70529139681004 22.13351970799846 146.70165167522478 C 0.0 **** -0.24
30022 H 95.67182530195021 22.110878730518095 147.7910533864072 H 0.0 **** 0.06
30023 H 95.19003266802932 23.023676061594642 146.34058965288062 H 0.0 **** 0.06
30024 H 95.2146549693491 21.244664656002044 146.3050898743494 H 0.0 **** 0.06
30025 H 96.74314986806638 22.15418500704635 146.37138608067679 H 0.0 **** 0.06
30026 C 56.09152259661789 144.71830468484575 142.3769002355894 C 0.0 **** -0.24
30027 H 55.72098089082732 145.70354436768235 142.6616410201414 H 0.0 **** 0.06
30028 H 56.771645607851326 144.35082214696297 143.14455439339588 H 0.0 **** 0.06
30029 H 56.62034953107599 144.7909959089735 141.42619799390297 H 0.0 **** 0.06
30030 H 55.251472315884484 144.03085748199715 142.2746624718543 H 0.0 **** 0.06
30031 C 47.529298373136044 99.93850068580934 80.47029368281501 C 0.0 **** -0.24
30032 H 46.704010603828635 99.74747358569556 81.15569895864964 H 0.0 **** 0.06
30033 H 48.25262265063293 100.60021576255883 80.949428215367 H 0.0 **** 0.06
30034 H 47.14755573452797 100.41120271229323 79.5655931751199 H 0.0 **** 0.06
30035 H 48.01296199946938 98.99685973440444 80.21216879362633 H 0.0 **** 0.06
30036 C 20.64816818345281 110.93452848877736 51.05584562590245 C 0.0 **** -0.24
30037 H 21.07650911143105 111.2074038684337 50.091946402412105 H 0.0 **** 0.06
30038 H 21.41368166387099 110.46501439487055 51.67416214655634 H 0.0 **** 0.06
30039 H 19.824947875409464 110.23602432538651 50.90201140651217 H 0.0 **** 0.06
30040 H 20.275848464179262 111.829889147076 51.553809474425464 H 0.0 **** 0.06
30041 C 120.07618495203191 109.30097077409403 54.98756930536811 C 0.0 **** -0.24
30042 H 120.30276688201975 109.4795690364117 56.03908582331066 H 0.0 **** 0.06
30043 H 121.00620872824045 109.17779032039431 54.43210999947961 H 0.0 **** 0.06
30044 H 119.52272749191634 110.14972918438883 54.58712750194408 H 0.0 **** 0.06
30045 H 119.47434339104815 108.39745926769416 54.8947558704762 H 0.0 **** 0.06
30046 C 12.001727157330699 3.6400038597400908 55.8103631972167 C 0.0 **** -0.24
30047 H 11.25975396458663 2.963347732572686 55.38644818504977 H 0.0 **** 0.06
30048 H 11.786789209206397 4.6607878259334825 55.49233099088737 H 0.0 **** 0.06
30049 H 12.995066775179275 3.352757200009279 55.4632717346624 H 0.0 **** 0.06
30050 H 11.966402613420051 3.5819494548566695 56.897556595417726 H 0.0 **** 0.06
30051 C 60.2961833560974 123.27401134566985 110.05975612540037 C 0.0 **** -0.24
30052 H 59.22786001148421 123.41103957927722 110.23311480588153 H 0.0 **** 0.06
30053 H 60.542770503734914 123.59076251842409 109.04578364920836 H 0.0 **** 0.06
30054 H 60.551423985716156 122.22104419922037 110.18355078078862 H 0.0 **** 0.06
30055 H 60.86019898836139 123.87206958531046 110.77532049736912 H 0.0 **** 0.06
30056 C 155.4982514216507 22.23950990087357 22.014370217397982 C 0.0 **** -0.24
30057 H 155.9593078120791 23.142093310129894 21.61283456902322 H 0.0 **** 0.06
30058 H 156.18137754565268 21.765867789433997 22.72021549526505 H 0.0 **** 0.06
30059 H 155.2818604790469 21.54922855296732 21.19948355816581 H 0.0 **** 0.06
30060 H 154.57150909843148 22.501771182616437 22.525171912890073 H 0.0 **** 0.06
30061 C 39.97879954026598 94.10720927483821 31.543730516326796 C 0.0 **** -0.24
30062 H 40.97324620041596 94.39050604487362 31.19943204273524 H 0.0 **** 0.06
30063 H 39.97344402012635 93.04859638243487 31.806210576131406 H 0.0 **** 0.06
30064 H 39.25427935051897 94.28727036127368 30.74930041690871 H 0.0 **** 0.06
30065 H 39.71461291102938 94.70030084640646 32.41889647949073 H 0.0 **** 0.06
30066 C 152.01237699244945 113.25114612584794 63.5821644851862 C 0.0 **** -0.24
30067 H 153.08116494941174 113.43934149620445 63.46897634120758 H 0.0 **** 0.06
30068 H 151.564942316071 113.09893075934336 62.599869535018414 H 0.0 **** 0.06
30069 H 151.5430352634411 114.10687731382443 64.06716874922165 H 0.0 **** 0.06
30070 H 151.8635861112743 112.36096226694492 64.19210021360172 H 0.0 **** 0.06
30071 C 39.0058677685747 46.624337277358165 131.70021414815577 C 0.0 **** -0.24
30072 H 38.718069547420754 46.39783585037209 130.67427462150914 H 0.0 **** 0.06
30073 H 38.33340149405818 47.379642882027824 132.1081384753623 H 0.0 **** 0.06
30074 H 40.0286657279902 47.00261237782756 131.7158345698019 H 0.0 **** 0.06
30075 H 38.944282538334505 45.71860883633711 132.3031344636862 H 0.0 **** 0.06
30076 C 96.53939681227857 65.29430702980383 22.006065247838308 C 0.0 **** -0.24
30077 H 96.37614136327053 64.83376921533885 21.032262281988316 H 0.0 **** 0.06
30078 H 96.87555861756539 66.32212403411101 21.870270883937323 H 0.0 **** 0.06
30079 H 97.29801299717037 64.73263735055491 22.55142690388721 H 0.0 **** 0.06
30080 H 95.60642011058638 65.28872916577029 22.5712414072241 H 0.0 **** 0.06
30081 C 92.71699861370134 121.34494569241781 89.09761108770567 C 0.0 **** -0.24
30082 H 92.16327703594686 122.14602433330987 89.58477945414518 H 0.0 **** 0.06
30083 H 92.55837870033727 120.4118312079205 89.63890839771463 H 0.0 **** 0.06
30084 H 93.77981989760691 121.58760223005072 89.09394956652233 H 0.0 **** 0.06
30085 H 92.36711202359034 121.23333853227268 88.07064471356142 H 0.0 **** 0.06
30086 C 130.2248372191881 101.9164369882764 74.72742525086574 C 0.0 **** -0.24
30087 H 131.0754963417329 101.27423766020634 74.95343126703165 H 0.0 **** 0.06
30088 H 130.2647477631236 102.80596500966864 75.35629862943591 H 0.0 **** 0.06
30089 H 129.29915625220775 101.37466213678543 74.92206449364846 H 0.0 **** 0.06
30090 H 130.26104833383974 102.21052580877311 73.67872072864532 H 0.0 **** 0.06
30091 C 143.81357236512332 76.42854374815056 141.36656543478495 C 0.0 **** -0.24
30092 H 144.86442546445727 76.21220093256336 141.17163146348025 H 0.0 **** 0.06
30093 H 143.72163319985575 77.43088473753684 141.78709779183356 H 0.0 **** 0.06
30094 H 143.41830330875584 75.69987493424206 142.07426367663658 H 0.0 **** 0.06
30095 H 143.2524827239887 76.3729882306448 140.43441972306022 H 0.0 **** 0.06
30096 C 59.29282270889115 151.82428320523115 28.0238988908622 C 0.0 **** -0.24
30097 H 59.56357758768938 151.92773095489406 29.074572019838314 H 0.0 **** 0.06
30098 H 59.118913414178294 150.7727377375782 27.7954861946929 H 0.0 **** 0.06
30099 H 60.101850565760756 152.20331276405392 27.400573817931615 H 0.0 **** 0.06
30100 H 58.38405838233179 152.39389617157045 27.82649530238325 H 0.0 **** 0.06
30101 C 126.12451326932116 52.18730531466815 69.5554998354325 C 0.0 **** -0.24
30102 H 125.4441432908226 52.14422559327221 68.70566546072968 H 0.0 **** 0.06
30103 H 127.15283621956742 52.23545588379022 69.19581506021025 H 0.0 **** 0.06
30104 H 125.99594017032048 51.295798351328244 70.16955599952615 H 0.0 **** 0.06
30105 H 125.90564188548628 53.073052281011485 70.15147910109039 H 0.0 **** 0.06
30106 C 3.0433941705868506 16.77425180075869 17.964137615839427 C 0.0 **** -0.24
30107 H 3.0366311847423333 15.994849310436393 18.72501516009178 H 0.0 **** 0.06
30108 H 3.4372267546559954 17.69686429116325 18.391750518030562 H 0.0 **** 0.06
30109 H 2.02661359996776 16.943795527695414 17.608678906335726 H 0.0 **** 0.06
30110 H 3.672429413031125 16.462071798634696 17.130003928865236 H 0.0 **** 0.06
30111 C 97.01706526634169 93.1975543023718 51.119748456795264 C 0.0 **** -0.24
30112 H 97.3094486719433 93.5480708722524 52.10956902093261 H 0.0 **** 0.06
30113 H 95.9661527954596 92.91009376045889 51.13149821078514 H 0.0 **** 0.06
30114 H 97.6264352917472 92.33583276353511 50.84508161692776 H 0.0 **** 0.06
30115 H 97.16824214303747 93.99534250480349 50.39244644720827 H 0.0 **** 0.06
30116 C 98.42114867538359 128.22852572838963 102.12710086213268 C 0.0 **** -0.24
30117 H 98.0807601766934 128.94921602716443 101.38284964850136 H 0.0 **** 0.06
30118 H 99.50439293303764 128.12490283949933 102.06278249442626 H 0.0 **** 0.06
30119 H 97.95166940876632 127.26254930762815 101.9390278190201 H 0.0 **** 0.06
30120 H 98.1481305594475 128.57831715983428 103.12269803673247 H 0.0 **** 0.06
30121 C 2.181114616666818 144.8589586884814 133.756168878604 C 0.0 **** -0.24
30122 H 2.620833202597897 143.86256670483738 133.79221371057264 H 0.0 **** 0.06
30123 H 2.7263523034456476 145.47021694868732 133.03611616008408 H 0.0 **** 0.06
30124 H 2.2422148277907716 145.31897889544763 134.74209829893607 H 0.0 **** 0.06
30125 H 1.137115383178923 144.78538366521838 133.45402828253475 H 0.0 **** 0.06
30126 C 111.57989118930243 31.218199562193234 102.630805344284 C 0.0 **** -0.24
30127 H 111.81867329305476 32.001898671294335 103.34999203428885 H 0.0 **** 0.06
30128 H 111.23123744774563 31.670439101923044 101.70256743008127 H 0.0 **** 0.06
30129 H 110.79803271936152 30.577664167639604 103.03923333318801 H 0.0 **** 0.06
30130 H 112.47116568679195 30.622869394203796 102.43361655591173 H 0.0 **** 0.06
30131 C 10.422930604212354 143.54785696830135 48.50125113722589 C 0.0 **** -0.24
30132 H 9.381568648664256 143.610595402718 48.816428586623545 H 0.0 **** 0.06
30133 H 10.49694364144949 142.91461964441336 47.616460047337 H 0.0 **** 0.06
30134 H 11.021266193126564 143.1209156197599 49.306110925268456 H 0.0 **** 0.06
30135 H 10.790741901244019 144.5464910564775 48.26564452104941 H 0.0 **** 0.06
30136 C 111.0728594800567 140.77510873101937 53.97432205383916 C 0.0 **** -0.24
30137 H 110.99961862341206 141.8461790967521 53.7841859464271 H 0.0 **** 0.06
30138 H 112.05971804680138 140.4206753385584 53.67774189582644 H 0.0 **** 0.06
30139 H 110.3099903255229 140.25226954858636 53.397748118812785 H 0.0 **** 0.06
30140 H 110.92123586433365 140.58302705200566 55.03647674001235 H 0.0 **** 0.06
30141 C 52.0512623404161 26.927893753952965 15.087401916622234 C 0.0 **** -0.24
30142 H 52.75415056511487 27.303345402698532 14.344181995620758 H 0.0 **** 0.06
30143 H 52.54338423953891 26.87595507100537 16.058919338516034 H 0.0 **** 0.06
30144 H 51.71331914099029 25.932980293867246 14.796803766074511 H 0.0 **** 0.06
30145 H 51.19473926811733 27.59967651334066 15.148955484729456 H 0.0 **** 0.06
30146 C 31.373502652873555 98.16874089630068 97.41147486781682 C 0.0 **** -0.24
30147 H 32.40058584307782 97.81355381010147 97.49207206013239 H 0.0 **** 0.06
30148 H 31.312481054468257 98.92879913066719 96.63183549392913 H 0.0 **** 0.06
30149 H 31.061959911804223 98.59802577986727 98.36381424354347 H 0.0 **** 0.06
30150 H 30.719914167467216 97.33401847284523 97.15727562827395 H 0.0 **** 0.06
30151 C 149.9049201450156 37.493648350840246 108.74370046721333 C 0.0 **** -0.24
30152 H 150.27887520578022 36.69870482944543 109.38940790975698 H 0.0 **** 0.06
30153 H 149.6280468341777 37.07582237902692 107.77597618525056 H 0.0 **** 0.06
30154 H 150.68293235609863 38.244625868802984 108.60595271723207 H 0.0 **** 0.06
30155 H 149.03230007273422 37.955290109441236 109.20515550107189 H 0.0 **** 0.06
30156 C 29.394929984593375 93.17104828282163 64.38063897310379 C 0.0 **** -0.24
30157 H 30.285356457418118 93.78169419190107 64.22957621648696 H 0.0 **** 0.06
30158 H 28.540931885850398 93.6486972485124 63.90053233965959 H 0.0 **** 0.06
30159 H 29.202149007535752 93.07009807512605 65.44870321367634 H 0.0 **** 0.06
30160 H 29.55270534710786 92.18436796214081 63.945336153343334 H 0.0 **** 0.06
30161 C 4.114505842461682 82.12742844800593 147.61875850082032 C 0.0 **** -0.24
30162 H 5.162121310640202 82.09533623845554 147.91714009262378 H 0.0 **** 0.06
30163 H 3.9520326578884806 82.97749484341232 146.95599665519387 H 0.0 **** 0.06
30164 H 3.4875125232229323 82.23178249491943 148.5040710283407 H 0.0 **** 0.06
30165 H 3.856377534249418 81.20607574589805 147.0976072618272 H 0.0 **** 0.06
30166 C 101.72127000290631 4.856137742542842 12.15106073656635 C 0.0 **** -0.24
30167 H 101.08372579935006 4.100625843292505 11.692673557260925 H 0.0 **** 0.06
30168 H 101.14652734448039 5.417922958039583 12.887685426487415 H 0.0 **** 0.06
30169 H 102.09047728797869 5.535025441979883 11.382523076365295 H 0.0 **** 0.06
30170 H 102.56462348908691 4.369847481391901 12.642167014854358 H 0.0 **** 0.06
30171 C 15.084390203020632 9.665293807936678 124.42345822416644 C 0.0 **** -0.24
30172 H 14.055811882980436 9.349079657130517 124.25030246650681 H 0.0 **** 0.06
30173 H 15.474197114729634 10.13960917753829 123.5222966390017 H 0.0 **** 0.06
30174 H 15.694218425964692 8.795948279685376 124.66927230278412 H 0.0 **** 0.06
30175 H 15.111727215715234 10.374943312076738 125.25026529684942 H 0.0 **** 0.06
30176 C 29.45153143435789 114.24849872836914 91.38089865351822 C 0.0 **** -0.24
30177 H 28.81936579939436 115.03255699428071 91.79666407858826 H 0.0 **** 0.06
30178 H 29.15370743592579 114.04938486114379 90.35183977325846 H 0.0 **** 0.06
30179 H 29.34156392806839 113.34087545573699 91.97441597819642 H 0.0 **** 0.06
30180 H 30.492925527401837 114.57242817527138 91.40184584981534 H 0.0 **** 0.06
30181 C 129.2217403965157 148.36886084290325 43.67945000085942 C 0.0 **** -0.24
30182 H 129.71608129076844 148.43153543432268 42.709859026855554 H 0.0 **** 0.06
30183 H 129.20645833387061 147.33093066667772 44.01289729655571 H 0.0 **** 0.06
30184 H 128.19933736849782 148.73801965432955 43.590379593588864 H 0.0 **** 0.06
30185 H 129.76517003244828 148.9759275584188 44.40443617221894 H 0.0 **** 0.06
30186 C 79.57757064152281 137.0686013340034 131.15322734476925 C 0.0 **** -0.24
30187 H 79.31020212934078 136.8685943465906 132.19031698423723 H 0.0 **** 0.06
30188 H 79.69461307650789 136.12368548562546 130.62073899346572 H 0.0 **** 0.06
30189 H 80.51594761914652 137.62220139102146 131.12060380477376 H 0.0 **** 0.06
30190 H 78.79069585421047 137.65652712927982 130.68152831548306 H 0.0 **** 0.06
30191 C 42.424396075583516 132.18086238926273 28.470884920100048 C 0.0 **** -0.24
30192 H 43.050758097967545 132.53608321791222 27.65221497966934 H 0.0 **** 0.06
30193 H 42.996147982161105 132.19802387207508 29.398536740489305 H 0.0 **** 0.06
30194 H 42.09948870055014 131.16062017433953 28.26275336040578 H 0.0 **** 0.06
30195 H 41.55208058877828 132.82766712664352 28.568275967789788 H 0.0 **** 0.06
30196 C 16.167880499986353 52.08387164692303 60.448922125380605 C 0.0 **** -0.24
30197 H 17.0636998672069 51.566055468998 60.790809122895965 H 0.0 **** 0.06
30198 H 16.052733032159978 53.0158123529219 61.00309473164086 H 0.0 **** 0.06
30199 H 15.296104547475792 51.45096408857768 60.61687272557164 H 0.0 **** 0.06
30200 H 16.258984553102778 52.302654677194596 59.38491192141409 H 0.0 **** 0.06
30201 C 60.52135047246499 116.15397954029073 123.05563873021822 C 0.0 **** -0.24
30202 H 61.533460761852666 115.74935958329918 123.05598946616334 H 0.0 **** 0.06
30203 H 60.33407249301602 116.65905950192611 122.1078323811717 H 0.0 **** 0.06
30204 H 60.41462354437516 116.86575287976926 123.87460134654015 H 0.0 **** 0.06
30205 H 59.805369955560536 115.34238243929 123.18384834314855 H 0.0 **** 0.06
30206 C 63.1186786320535 151.10365133015142 144.90175579026965 C 0.0 **** -0.24
30207 H 62.527113106732926 151.1505024105337 145.81575352449988 H 0.0 **** 0.06
30208 H 64.10488944250855 151.53281634256422 145.08443958199527 H 0.0 **** 0.06
30209 H 62.61729791533563 151.6670436407718 144.1146794545954 H 0.0 **** 0.06
30210 H 63.22679140240824 150.06394934735027 144.5922802693847 H 0.0 **** 0.06
30211 C 71.85135194232039 7.642484700010868 97.78015854882456 C 0.0 **** -0.24
30212 H 71.51187581336818 6.6112559750154105 97.6928895005699 H 0.0 **** 0.06
30213 H 72.8156672353149 7.751059425636413 97.28083469541467 H 0.0 **** 0.06
30214 H 71.95646722688295 7.902788466322136 98.83331589330477 H 0.0 **** 0.06
30215 H 71.12350146971418 8.305729532835443 97.31271480426696 H 0.0 **** 0.06
30216 C 128.6521526811064 104.25803308909362 40.32807629624017 C 0.0 **** -0.24
30217 H 128.14159376207158 103.8114092807184 41.180454374994724 H 0.0 **** 0.06
30218 H 129.72292691498305 104.06782878786849 40.4057973155962 H 0.0 **** 0.06
30219 H 128.47377721857805 105.33329534389635 40.320799796588545 H 0.0 **** 0.06
30220 H 128.2702860584874 103.81959382745491 39.40625334257928 H 0.0 **** 0.06
30221 C 151.58577408684403 89.69723620936816 55.14818933865109 C 0.0 **** -0.24
30222 H 150.6111579774605 89.41227391759395 55.545465853076664 H 0.0 **** 0.06
30223 H 152.18316459086662 88.80158827468466 54.97680659557378 H 0.0 **** 0.06
30224 H 152.0945484682353 90.34299181788074 55.86403289690115 H 0.0 **** 0.06
30225 H 151.45173671664725 90.23151130834296 54.20802406178227 H 0.0 **** 0.06
30226 C 102.73444829016773 73.0486621388585 61.22560235069125 C 0.0 **** -0.24
30227 H 102.10684631071541 73.44434904499923 62.02451430994205 H 0.0 **** 0.06
30228 H 102.58989100219134 73.6414740594524 60.323357466008645 H 0.0 **** 0.06
30229 H 102.46046136234042 72.01253540989686 61.02853328870043 H 0.0 **** 0.06
30230 H 103.77988532851799 73.09616964246351 61.529242077865774 H 0.0 **** 0.06
30231 C 96.53034514214698 139.7577496954366 38.528777132936156 C 0.0 **** -0.24
30232 H 96.61664234125837 139.44131612235088 37.4895393152392 H 0.0 **** 0.06
30233 H 97.33283759671397 139.30789219012814 39.113670942281885 H 0.0 **** 0.06
30234 H 95.56673861549545 139.43870552083078 38.927457437954885 H 0.0 **** 0.06
30235 H 96.60480574992324 140.84444348586368 38.58460671655135 H 0.0 **** 0.06
30236 C 19.715241695823977 90.04576061573304 96.39798069859035 C 0.0 **** -0.24
30237 H 20.212197178101462 90.91000424551142 95.95764689627629 H 0.0 **** 0.06
30238 H 20.406580611793288 89.20207953591685 96.42050801435846 H 0.0 **** 0.06
30239 H 18.842715988616703 89.7842888873368 95.799744057461 H 0.0 **** 0.06
30240 H 19.4005120106641 90.28445840442903 97.41384942011092 H 0.0 **** 0.06
30241 C 87.3536799840056 151.6016778793096 35.627029851786844 C 0.0 **** -0.24
30242 H 87.24227006978992 150.5320476571117 35.44540734329735 H 0.0 **** 0.06
30243 H 87.54208335358862 151.77179869896526 36.687248112832194 H 0.0 **** 0.06
30244 H 86.43814337357989 152.11641124259134 35.333120005773324 H 0.0 **** 0.06
30245 H 88.18941408408494 151.98398991451967 35.0421481140433 H 0.0 **** 0.06
30246 C 153.77529048672346 135.57897227590843 133.0813859088347 C 0.0 **** -0.24
30247 H 152.85710695074286 135.0528668764341 133.34320986428548 H 0.0 **** 0.06
30248 H 153.56397449889374 136.6423454302817 132.96600922442985 H 0.0 **** 0.06
30249 H 154.1670518264489 135.1815386024533 132.14579136228747 H 0.0 **** 0.06
30250 H 154.51198165284399 135.43861919850028 133.8726859945623 H 0.0 **** 0.06
30251 C 65.87153801386036 37.89075319756715 75.29422465929485 C 0.0 **** -0.24
30252 H 65.0986228454074 37.423710632403555 74.68353810502516 H 0.0 **** 0.06
30253 H 65.57787207258228 37.85282348282982 76.34248668360928 H 0.0 **** 0.06
30254 H 65.99850500304926 38.92938282281857 74.98905658603691 H 0.0 **** 0.06
30255 H 66.81223200612709 37.35559779428614 75.16055636511172 H 0.0 **** 0.06
30256 C 84.35261077760129 145.7154120724755 57.00825262078962 C 0.0 **** -0.24
30257 H 84.81775315125203 144.8427430908266 56.55189636865066 H 0.0 **** 0.06
30258 H 84.03287088817514 145.47000214280777 58.0214303295119 H 0.0 **** 0.06
30259 H 83.48684344256854 146.01644515747756 56.41697457357108 H 0.0 **** 0.06
30260 H 85.07132227833795 146.53475888443577 57.04172321368344 H 0.0 **** 0.06
30261 C 155.48979616259345 99.39422832138013 22.494773061737078 C 0.0 **** -0.24
30262 H 154.8481089442247 99.47669622771139 21.61658100754955 H 0.0 **** 0.06
30263 H 155.1800538660284 100.12770434889852 23.240092685131962 H 0.0 **** 0.06
30264 H 156.52447207591757 99.58351905307897 22.206211985335585 H 0.0 **** 0.06
30265 H 155.40671425021566 98.39198113167129 22.912594277615298 H 0.0 **** 0.06
30266 C 23.229857036838347 51.44821875152222 137.50467959305973 C 0.0 **** -0.24
30267 H 23.26604750640042 52.440097219936646 137.95374861041523 H 0.0 **** 0.06
30268 H 22.35372926276097 50.913968401254806 137.87369638593108 H 0.0 **** 0.06
30269 H 24.131292800801994 50.89562547929722 137.77145842097988 H 0.0 **** 0.06
30270 H 23.16942304197785 51.54163728242813 136.42050415887525 H 0.0 **** 0.06
30271 C 56.22507281448341 141.18504287231968 134.38907270852548 C 0.0 **** -0.24
30272 H 56.762549209006366 141.63136134283792 135.22599004769313 H 0.0 **** 0.06
30273 H 55.2960125226564 141.72885376528006 134.22186530173735 H 0.0 **** 0.06
30274 H 56.00116889047435 140.14304877987928 134.61551251182925 H 0.0 **** 0.06
30275 H 56.84345012956025 141.23657075608355 133.49218972387422 H 0.0 **** 0.06
30276 C 43.95455789954815 133.9968315179309 83.38244918392658 C 0.0 **** -0.24
30277 H 44.34218784275237 132.99198931624014 83.55089756067494 H 0.0 **** 0.06
30278 H 44.78413040931906 134.70269993785433 83.3348580555863 H 0.0 **** 0.06
30279 H 43.289274818900594 134.2714805874348 84.20162438751437 H 0.0 **** 0.06
30280 H 43.401912120776615 134.02058338468692 82.44279648744781 H 0.0 **** 0.06
30281 C 152.17627557558058 77.85005860998737 33.45774273185296 C 0.0 **** -0.24
30282 H 152.52019677056592 78.02986264784658 34.47633410816462 H 0.0 **** 0.06
30283 H 151.5177833101643 78.66245935364981 33.14736763787785 H 0.0 **** 0.06
30284 H 151.63149796861447 76.90640245400218 33.41893408322832 H 0.0 **** 0.06
30285 H 153.03497066739007 77.80189916333092 32.78768594621084 H 0.0 **** 0.06
30286 C 147.48269516619277 40.74096384150876 151.11322803013002 C 0.0 **** -0.24
30287 H 148.31427205387155 40.44204185269621 150.47491916884056 H 0.0 **** 0.06
30288 H 147.81757956554537 40.78349779247752 152.14994978363706 H 0.0 **** 0.06
30289 H 146.67490286774867 40.01532206733184 151.02120481934122 H 0.0 **** 0.06
30290 H 147.12480099908177 41.72402848690162 150.8062649058786 H 0.0 **** 0.06
30291 C 92.43422011221611 58.87104544085095 53.457745167541816 C 0.0 **** -0.24
30292 H 92.6814560730723 59.17663349313786 54.47493690383811 H 0.0 **** 0.06
30293 H 92.20071606904696 57.80636165735892 53.44474598693421 H 0.0 **** 0.06
30294 H 93.2851467056285 59.06501920972306 52.803887524439745 H 0.0 **** 0.06
30295 H 91.57208150854737 59.43793469646499 53.10864601344491 H 0.0 **** 0.06
30296 C 73.66413734679831 54.633884965853355 60.29427567795085 C 0.0 **** -0.24
30297 H 74.24452139486392 55.526830577729086 60.527989574421554 H 0.0 **** 0.06
30298 H 74.32222077246013 53.87230991334023 59.8758114405955 H 0.0 **** 0.06
30299 H 72.88919136094916 54.884417727942534 59.57010945883064 H 0.0 **** 0.06
30300 H 73.20174235403981 54.253407739284214 61.20483463176623 H 0.0 **** 0.06
30301 C 80.34819975871281 22.798134018309725 106.72479145060571 C 0.0 **** -0.24
30302 H 81.24478494633397 22.936250437886514 106.11974471108083 H 0.0 **** 0.06
30303 H 80.06971765216747 23.747883099806586 107.18191625173127 H 0.0 **** 0.06
30304 H 80.54604269592386 22.063198180668707 107.50449852955082 H 0.0 **** 0.06
30305 H 79.53394077568319 22.44702382354305 106.09104575623174 H 0.0 **** 0.06
30306 C 100.47019696555806 59.181350077557184 96.32599069022774 C 0.0 **** -0.24
30307 H 100.35424831440066 60.22965066105766 96.60113877294661 H 0.0 **** 0.06
30308 H 100.37161837828647 58.5600908593354 97.21644390785058 H 0.0 **** 0.06
30309 H 101.45424644887716 59.02927730971457 95.88332474740608 H 0.0 **** 0.06
30310 H 99.70090268085544 58.9076464089283 95.6048851283287 H 0.0 **** 0.06
30311 C 93.39874132905146 82.42759587425019 90.45354241272044 C 0.0 **** -0.24
30312 H 93.88669287189782 83.37893279366051 90.66445000621603 H 0.0 **** 0.06
30313 H 94.11025610921013 81.61453904966288 90.5967868888249 H 0.0 **** 0.06
30314 H 93.04203306915247 82.42244120461294 89.4239127244037 H 0.0 **** 0.06
30315 H 92.55484868920621 82.29564891437883 91.13054453721679 H 0.0 **** 0.06
30316 C 77.08494389241575 153.3776125514821 57.691447169550884 C 0.0 **** -0.24
30317 H 76.44957807353306 153.67851432895034 58.52470588220234 H 0.0 **** 0.06
30318 H 77.80587664685156 154.16837099309237 57.48077974282256 H 0.0 **** 0.06
30319 H 76.46802244320533 153.2044309394451 56.80904773507177 H 0.0 **** 0.06
30320 H 77.6154266207032 152.4619889451677 57.95095656391817 H 0.0 **** 0.06
30321 C 40.365840929431286 59.619167316562255 68.40119345565441 C 0.0 **** -0.24
30322 H 40.85499332853679 60.440038479595216 68.92517162369626 H 0.0 **** 0.06
30323 H 39.81472224003855 60.011810151702946 67.54652423679751 H 0.0 **** 0.06
30324 H 39.67652978870139 59.115423654252595 69.07829028854168 H 0.0 **** 0.06
30325 H 41.11843766253014 58.910856808534504 68.05372536126742 H 0.0 **** 0.06
30326 C 39.12304932097426 43.303297291693525 101.82520310093925 C 0.0 **** -0.24
30327 H 40.20242579658499 43.23916114507631 101.68544377527807 H 0.0 **** 0.06
30328 H 38.884055083813635 44.20209306761771 102.39448036994601 H 0.0 **** 0.06
30329 H 38.77495599315225 42.424514204204286 102.36825005904403 H 0.0 **** 0.06
30330 H 38.632953326124806 43.34777232896417 100.85289834421856 H 0.0 **** 0.06
30331 C 41.74859959173409 136.43416298533054 134.66636531814498 C 0.0 **** -0.24
30332 H 42.04401390308237 135.6630772630727 133.95413438815382 H 0.0 **** 0.06
30333 H 42.538804102744024 137.18124128319317 134.74119526016074 H 0.0 **** 0.06
30334 H 41.58146286136997 135.98059981959616 135.6438142786117 H 0.0 **** 0.06
30335 H 40.828277328919825 136.90982490032928 134.32491341419362 H 0.0 **** 0.06
30336 C 56.32200858543547 108.99466362048098 68.68226649517365 C 0.0 **** -0.24
30337 H 55.77932492230673 109.77410370413124 68.14753547444872 H 0.0 **** 0.06
30338 H 57.265731655205826 109.39610013165553 69.05105661889567 H 0.0 **** 0.06
30339 H 56.520060869098444 108.16220743067272 68.00702308869842 H 0.0 **** 0.06
30340 H 55.721911073612205 108.64555573148341 69.52273263853931 H 0.0 **** 0.06
30341 C 35.196576283548644 16.79759326388843 38.68857645569312 C 0.0 **** -0.24
30342 H 35.80061551581743 16.30905191009004 39.45302895046618 H 0.0 **** 0.06
30343 H 35.49610177724318 17.8422439347925 38.60063245995849 H 0.0 **** 0.06
30344 H 34.144785020835286 16.743430707396087 38.966431045126484 H 0.0 **** 0.06
30345 H 35.346646550917725 16.2956629185229 37.7320684550221 H 0.0 **** 0.06
30346 C 48.36289457345394 86.06986852405858 16.424759381684773 C 0.0 **** -0.24
30347 H 48.86818625674617 85.1880969326255 16.030451312424603 H 0.0 **** 0.06
30348 H 47.4178355534643 86.21199855256765 15.900134572908726 H 0.0 **** 0.06
30349 H 48.995848771644745 86.94579717666744 16.278993531627812 H 0.0 **** 0.06
30350 H 48.17047769135405 85.933767153612 17.48884764057476 H 0.0 **** 0.06
30351 C 140.97979275176374 145.48301125156559 65.38272745816221 C 0.0 **** -0.24
30352 H 139.95633701197488 145.37879045955435 65.02155565975389 H 0.0 **** 0.06
30353 H 141.20596064701493 146.53819898397353 65.53456812526584 H 0.0 **** 0.06
30354 H 141.66773469617237 145.06381513541723 64.64951321985191 H 0.0 **** 0.06
30355 H 141.086271201189 144.94927418339114 66.32790193974293 H 0.0 **** 0.06
30356 C 39.52966437010922 78.93058600949513 54.526997105804384 C 0.0 **** -0.24
30357 H 40.20714590930048 78.23588411174342 55.02488439560895 H 0.0 **** 0.06
30358 H 39.06270394650096 79.5774573699519 55.27055686690156 H 0.0 **** 0.06
30359 H 38.75908046481709 78.36917277846493 53.99781440594805 H 0.0 **** 0.06
30360 H 40.09035754896912 79.53820833355161 53.81645720345347 H 0.0 **** 0.06
30361 C 78.58694187279406 104.0704850298006 24.04302310287577 C 0.0 **** -0.24
30362 H 78.57255985020623 104.15741468506003 25.12968039905143 H 0.0 **** 0.06
30363 H 77.67962287268875 104.51204114493184 23.631557331731734 H 0.0 **** 0.06
30364 H 78.63858734372104 103.01790979218144 23.76501450945714 H 0.0 **** 0.06
30365 H 79.4577763974466 104.5934115163724 23.648675837451428 H 0.0 **** 0.06
30366 C 69.48154672514488 27.031528773880765 62.845015535139225 C 0.0 **** -0.24
30367 H 70.35458895598947 26.618919000662174 62.33817418965964 H 0.0 **** 0.06
30368 H 68.63383177900113 26.358400518117747 62.71574681037674 H 0.0 **** 0.06
30369 H 69.24123545600779 28.004847966048658 62.41856052216406 H 0.0 **** 0.06
30370 H 69.69870743936897 27.143446207202565 63.907683597566546 H 0.0 **** 0.06
30371 C 98.71232871228017 76.07027569080923 109.69358812185281 C 0.0 **** -0.24
30372 H 98.78974424212146 75.58865940439048 110.66868467137759 H 0.0 **** 0.06
30373 H 99.68561496386161 76.46718554508455 109.40690872682357 H 0.0 **** 0.06
30374 H 97.98926515819846 76.88448264952443 109.74778051393672 H 0.0 **** 0.06
30375 H 98.38404903589321 75.34051428156825 108.95372097271915 H 0.0 **** 0.06
30376 C 129.0871703056688 57.63177917306376 16.451249746843466 C 0.0 **** -0.24
30377 H 128.44173060725586 58.50411772864024 16.347284752082984 H 0.0 **** 0.06
30378 H 130.08065476360085 57.951375401265196 16.76762229783474 H 0.0 **** 0.06
30379 H 129.1585949061973 57.11667663256655 15.493646724404663 H 0.0 **** 0.06
30380 H 128.66767897117197 56.95697554843237 17.19738563117579 H 0.0 **** 0.06
30381 C 32.98041467184659 37.037595856256075 111.32636922111976 C 0.0 **** -0.24
30382 H 32.83690414534793 37.10340189870996 110.2476018769085 H 0.0 **** 0.06
30383 H 33.947595880326745 37.46688715886161 111.59139038862452 H 0.0 **** 0.06
30384 H 32.95041147361721 35.99178713322725 111.63362094831427 H 0.0 **** 0.06
30385 H 32.18734913086848 37.587426296906514 111.83193540373185 H 0.0 **** 0.06
30386 C 95.6478202111763 139.9650744102809 118.71921109108706 C 0.0 **** -0.24
30387 H 95.40750659255066 139.44811751127298 117.78985614293487 H 0.0 **** 0.06
30388 H 95.81989065744233 141.02155294423062 118.51206969460907 H 0.0 **** 0.06
30389 H 96.54646971484566 139.52957529945706 119.15516663765135 H 0.0 **** 0.06
30390 H 94.81752257805623 139.86163768708008 119.41759662008923 H 0.0 **** 0.06
30391 C 63.631249887252466 110.70096013097702 92.00479871038345 C 0.0 **** -0.24
30392 H 62.67374927075389 110.18715994996512 91.91342229934452 H 0.0 **** 0.06
30393 H 63.83292195070658 111.2581536781766 91.09033527353608 H 0.0 **** 0.06
30394 H 64.42228323215772 109.9677167016498 92.16654245364941 H 0.0 **** 0.06
30395 H 63.59563411107035 111.3883487577171 92.85055996235076 H 0.0 **** 0.06
30396 C 64.6360264486191 43.069139048002526 47.29541486585309 C 0.0 **** -0.24
30397 H 64.74184173096221 43.635961913949345 48.220273572617174 H 0.0 **** 0.06
30398 H 63.8595588236783 43.52200298450829 46.67857861073975 H 0.0 **** 0.06
30399 H 64.35977939985949 42.041176463370235 47.53014910767456 H 0.0 **** 0.06
30400 H 65.58209262976077 43.076764226423535 46.75403024130594 H 0.0 **** 0.06
30401 C 51.41027357941799 4.753321465774874 64.56912081865258 C 0.0 **** -0.24
30402 H 51.241189055499234 3.679997588896768 64.64474417855877 H 0.0 **** 0.06
30403 H 50.46628355560648 5.280682232193904 64.71046495166769 H 0.0 **** 0.06
30404 H 51.81467647267799 4.988760890526564 63.58376590457135 H 0.0 **** 0.06
30405 H 52.11959822045 5.064089190454219 65.33538357130237 H 0.0 **** 0.06
30406 C 34.55131649598911 60.453706793770095 57.46023412965502 C 0.0 **** -0.24
30407 H 35.16921721604905 60.4885138088909 56.562918775001634 H 0.0 **** 0.06
30408 H 35.1769496767173 60.22071606013816 58.3222748105419 H 0.0 **** 0.06
30409 H 33.787758020990054 59.6847543449029 57.34547247472493 H 0.0 **** 0.06
30410 H 34.07281918596408 61.42248978930462 57.60994906519737 H 0.0 **** 0.06
30411 C 16.092870378580983 103.42245992713288 155.32740693250196 C 0.0 **** -0.24
30412 H 15.584334238635165 103.43446233776854 156.29071921971945 H 0.0 **** 0.06
30413 H 16.817492782318766 104.23670493172818 155.2897617373018 H 0.0 **** 0.06
30414 H 15.361049912777048 103.549488602032 154.52945317241006 H 0.0 **** 0.06
30415 H 16.60791015020419 102.47040593294565 155.1998495269734 H 0.0 **** 0.06
30416 C 89.79737164532855 96.9524595956178 62.25317806029173 C 0.0 **** -0.24
30417 H 88.79769544348277 97.25392497171545 62.563749700231725 H 0.0 **** 0.06
30418 H 90.45126166707138 96.91207983807821 63.12463087196902 H 0.0 **** 0.06
30419 H 90.1891011451939 97.67692464838845 61.538121344835645 H 0.0 **** 0.06
30420 H 89.75220484069803 95.96898004859186 61.78653839595181 H 0.0 **** 0.06
30421 C 66.88449719996974 5.544664333011269 123.4870949061339 C 0.0 **** -0.24
30422 H 66.59224184492315 5.58770483425883 124.53692538593685 H 0.0 **** 0.06
30423 H 66.92397213616248 4.504973295783543 123.1630518092681 H 0.0 **** 0.06
30424 H 67.86573326651407 6.0022715372230095 123.36455890535063 H 0.0 **** 0.06
30425 H 66.15362868062512 6.08551573648424 122.88479707135104 H 0.0 **** 0.06
30426 C 151.11226857517732 79.01888015226967 92.13915081842755 C 0.0 **** -0.24
30427 H 151.28944403302378 77.98759540411311 91.83405199197827 H 0.0 **** 0.06
30428 H 150.99889335111055 79.64403255167952 91.25333751150887 H 0.0 **** 0.06
30429 H 151.95733569329582 79.37357813628739 92.72890209294648 H 0.0 **** 0.06
30430 H 150.20411326423596 79.06942930942068 92.73946937666545 H 0.0 **** 0.06
30431 C 34.29579878904741 98.70692758308968 89.80772307143161 C 0.0 **** -0.24
30432 H 34.622003393572584 97.83474789589825 90.37464531786583 H 0.0 **** 0.06
30433 H 33.294529233678304 98.99435035265377 90.12724157196311 H 0.0 **** 0.06
30434 H 34.283150478508105 98.46474552541036 88.74504083183285 H 0.0 **** 0.06
30435 H 34.98563073654799 99.53291995267149 89.98318015216034 H 0.0 **** 0.06
30436 C 78.12187062511713 3.771606647935954 87.12162994222302 C 0.0 **** -0.24
30437 H 78.76755496686022 4.644590893157783 87.21948659874944 H 0.0 **** 0.06
30438 H 77.59319430393232 3.6050541601373425 88.06070625427601 H 0.0 **** 0.06
30439 H 78.72634841109178 2.8970951822712436 86.88394543130018 H 0.0 **** 0.06
30440 H 77.3987055716775 3.9422517589184736 86.32364607803811 H 0.0 **** 0.06
30441 C 156.58778360037053 67.80265214792473 121.62119188075991 C 0.0 **** -0.24
30442 H 156.62328916944176 67.92131809334722 120.53853062286248 H 0.0 **** 0.06
30443 H 156.96481069080568 66.81577823962505 121.89033709526842 H 0.0 **** 0.06
30444 H 155.5574161558469 67.90373109199788 121.96406895917096 H 0.0 **** 0.06
30445 H 157.2035897099513 68.56874062043414 122.09093533768078 H 0.0 **** 0.06
30446 C 23.203608827773223 25.402654135949746 117.51125414111114 C 0.0 **** -0.24
30447 H 23.7114126705643 26.068546760598736 116.81315818963672 H 0.0 **** 0.06
30448 H 22.75366000572643 24.575537861761546 116.96185045718435 H 0.0 **** 0.06
30449 H 22.424961473027906 25.9558873066714 118.03769983863931 H 0.0 **** 0.06
30450 H 23.922634255969285 25.013527437671996 118.23070563345557 H 0.0 **** 0.06
30451 C 99.52430274214879 129.70412577503427 52.84625053725958 C 0.0 **** -0.24
30452 H 98.92199599724955 129.69121095850682 53.75465543863875 H 0.0 **** 0.06
30453 H 98.95488887997146 130.16789468740944 52.03991936118598 H 0.0 **** 0.06
30454 H 99.78488449155361 128.6831867446855 52.568663988078455 H 0.0 **** 0.06
30455 H 100.43550762309746 130.27668439503597 53.02345947844215 H 0.0 **** 0.06
30456 C 156.9869156919621 54.052760301580875 134.50972936697556 C 0.0 **** -0.24
30457 H 157.9210846196636 54.45275515888274 134.11621039549217 H 0.0 **** 0.06
30458 H 156.21601406232546 54.108988844176054 133.74093959592804 H 0.0 **** 0.06
30459 H 156.67850033903363 54.63607586937982 135.37756322369503 H 0.0 **** 0.06
30460 H 157.1317792481603 53.01366082078627 134.802890488397 H 0.0 **** 0.06
30461 C 36.72299692624428 110.42915712646506 117.00579409012516 C 0.0 **** -0.24
30462 H 36.629480035521524 109.42411028772743 117.41663481302533 H 0.0 **** 0.06
30463 H 37.602205583421565 110.91349433145756 117.42925157459973 H 0.0 **** 0.06
30464 H 35.832871845544574 111.0074262844765 117.25534332705769 H 0.0 **** 0.06
30465 H 36.82623618876674 110.37034323417642 115.92191666253831 H 0.0 **** 0.06
30466 C 21.670613520155115 100.19035289475426 111.06285078772186 C 0.0 **** -0.24
30467 H 22.259024520575537 99.46745803004171 110.49829063885755 H 0.0 **** 0.06
30468 H 21.792824455145166 101.180620901851 110.62311284338875 H 0.0 **** 0.06
30469 H 22.011547980101398 100.20739199088626 112.09753769775301 H 0.0 **** 0.06
30470 H 20.618708880097955 99.90590135349942 111.03109184460834 H 0.0 **** 0.06
30471 C 50.60303477337868 95.48256887966686 22.053272709119362 C 0.0 **** -0.24
30472 H 50.71765307753704 95.68301085615514 23.11913028433227 H 0.0 **** 0.06
30473 H 50.33794126002982 94.43543111034356 21.907919395734034 H 0.0 **** 0.06
30474 H 51.5417811492494 95.69476381718047 21.541347686242304 H 0.0 **** 0.06
30475 H 49.816083140012566 96.11737978487783 21.646733787839487 H 0.0 **** 0.06
30476 C 91.21819668204161 123.59366234599601 127.63696498341494 C 0.0 **** -0.24
30477 H 91.21092086259674 124.00367797512853 126.62656756217712 H 0.0 **** 0.06
30478 H 91.5134316351553 122.54501130556828 127.60064707395827 H 0.0 **** 0.06
30479 H 90.22167964590979 123.67726139213939 128.06903977136216 H 0.0 **** 0.06
30480 H 91.92815440503836 124.15102194808422 128.24819324084967 H 0.0 **** 0.06
30481 C 102.15215819849813 94.68530438711397 144.72709141767146 C 0.0 **** -0.24
30482 H 101.13120114557405 95.02200355127562 144.54685811523288 H 0.0 **** 0.06
30483 H 102.30422878997219 93.71754453518517 144.2491907226073 H 0.0 **** 0.06
30484 H 102.31972085882525 94.59209016314108 145.79990897970563 H 0.0 **** 0.06
30485 H 102.85193631885805 95.41083421474293 144.31138990430122 H 0.0 **** 0.06
30486 C 23.089037064688966 98.0506843633236 75.52914626068295 C 0.0 **** -0.24
30487 H 22.976571592541745 98.72380890198389 76.37844921616698 H 0.0 **** 0.06
30488 H 24.028679054220106 98.26325718846931 75.01927922328848 H 0.0 **** 0.06
30489 H 22.258775739860596 98.19587407420539 74.8376010566628 H 0.0 **** 0.06
30490 H 23.09201802107333 97.01887175553793 75.88161973885934 H 0.0 **** 0.06
30491 C 47.76157370032166 129.16943624936715 91.0532083054793 C 0.0 **** -0.24
30492 H 47.8798898193736 129.81993889926713 91.92008101031458 H 0.0 **** 0.06
30493 H 48.73192566459136 129.0169868226525 90.5789352167252 H 0.0 **** 0.06
30494 H 47.078004215571355 129.6332017957514 90.34177246080577 H 0.0 **** 0.06
30495 H 47.357775446007054 128.2085554832828 91.3726997835845 H 0.0 **** 0.06
30496 C 148.15356871244083 18.928019721249086 12.642599545315448 C 0.0 **** -0.24
30497 H 148.74986932263775 18.02618013699174 12.502433102394832 H 0.0 **** 0.06
30498 H 148.7519987091521 19.682522785736182 13.15291643361951 H 0.0 **** 0.06
30499 H 147.2753669886805 18.691993205721246 13.243083407478252 H 0.0 **** 0.06
30500 H 147.8389701045718 19.308909354313585 11.671569454705264 H 0.0 **** 0.06
30501 C 137.5350049186369 128.9336961716643 0.7531954956571667 C 0.0 **** -0.24
30502 H 137.70798196660883 128.28912845847287 1.6148915376310526 H 0.0 **** 0.06
30503 H 138.36487054773738 128.83420048608025 0.05314668670749256 H 0.0 **** 0.06
30504 H 137.4601193902651 129.96968024271703 1.0841967705626416 H 0.0 **** 0.06
30505 H 136.60764166000166 128.64054013579033 0.2608951780095765 H 0.0 **** 0.06
30506 C 147.05998635763274 67.97561229166794 82.35080194412299 C 0.0 **** -0.24
30507 H 146.2600047088232 68.70155309542884 82.49966770665186 H 0.0 **** 0.06
30508 H 147.79414740462732 68.38124352430515 81.65525718961719 H 0.0 **** 0.06
30509 H 146.64215948597206 67.05474691544526 81.94297188006243 H 0.0 **** 0.06
30510 H 147.54010417077504 67.76479313905747 83.3065476484848 H 0.0 **** 0.06
30511 C 137.73479245382586 74.85462983715564 76.72058012139007 C 0.0 **** -0.24
30512 H 137.46185066597647 75.89203064826302 76.5296220682863 H 0.0 **** 0.06
30513 H 137.21545043673245 74.50101548643416 77.61098082561051 H 0.0 **** 0.06
30514 H 138.81145887423196 74.78471060845514 76.87566846171612 H 0.0 **** 0.06
30515 H 137.45016945009903 74.2417063827341 75.8658221266237 H 0.0 **** 0.06
30516 C 95.75292779610857 24.643545636184427 152.343782582088 C 0.0 **** -0.24
30517 H 96.41313469003691 25.50356017299444 152.45674952361455 H 0.0 **** 0.06
30518 H 96.15750949734846 23.971369491858155 151.5876208781019 H 0.0 **** 0.06
30519 H 94.76355716880715 24.983333541885145 152.03777178624426 H 0.0 **** 0.06
30520 H 95.67749582813383 24.11700941344168 153.29518170708192 H 0.0 **** 0.06
30521 C 25.78905659717725 157.01546193480144 44.965227333806524 C 0.0 **** -0.24
30522 H 24.929407918648536 157.2993464977997 45.571940908706935 H 0.0 **** 0.06
30523 H 26.69789083865811 157.0959344973013 45.56306026738234 H 0.0 **** 0.06
30524 H 25.860903136852897 157.6775558804391 44.103749374751516 H 0.0 **** 0.06
30525 H 25.66844825555495 155.9871658859292 44.624486181366635 H 0.0 **** 0.06
30526 C 47.541219365452775 136.98735848713295 104.12053500740075 C 0.0 **** -0.24
30527 H 47.82912942054776 137.76469347278672 104.82757797435994 H 0.0 **** 0.06
30528 H 47.5573596293475 137.392020141567 103.10789284333964 H 0.0 **** 0.06
30529 H 46.53571029598697 136.63716103244093 104.35586022140137 H 0.0 **** 0.06
30530 H 48.24077470095651 136.1549452013249 104.190813715503 H 0.0 **** 0.06
30531 C 73.89305463455855 129.81361589783182 91.30807777851027 C 0.0 **** -0.24
30532 H 73.28785788824217 130.28227020012469 92.08432756177803 H 0.0 **** 0.06
30533 H 74.34640700733178 128.9037036134684 91.70130663272255 H 0.0 **** 0.06
30534 H 74.67573487270323 130.50282876929396 90.99124039119573 H 0.0 **** 0.06
30535 H 73.26085329287423 129.5654493654606 90.45573776692856 H 0.0 **** 0.06
30536 C 2.8075185043543343 89.55986938675932 70.84770280549839 C 0.0 **** -0.24
30537 H 2.4062694387123997 89.41572380926601 71.85139446423557 H 0.0 **** 0.06
30538 H 2.1362372659996254 89.10507913190207 70.11862940491926 H 0.0 **** 0.06
30539 H 3.789315183368217 89.09217981235315 70.77957507242212 H 0.0 **** 0.06
30540 H 2.898362850034289 90.62650239207306 70.64344562900914 H 0.0 **** 0.06
30541 C 1.7248828036187263 22.353018875245937 136.37963334256054 C 0.0 **** -0.24
30542 H 0.6511099537970324 22.521751158634913 136.30341046237433 H 0.0 **** 0.06
30543 H 1.9081828337171487 21.39739542460842 136.87080804620533 H 0.0 **** 0.06
30544 H 2.1779795147425887 23.154746592432673 136.96317573576516 H 0.0 **** 0.06
30545 H 2.1612420628659663 22.33889706909372 135.38181382865756 H 0.0 **** 0.06
30546 C 4.921013876143888 42.11855260762454 73.84440411493875 C 0.0 **** -0.24
30547 H 5.288967612678562 42.740117188603335 73.02721366157328 H 0.0 **** 0.06
30548 H 5.74556334171379 41.538049307716776 74.25749217981206 H 0.0 **** 0.06
30549 H 4.151665836510119 41.44407810283303 73.46990261485945 H 0.0 **** 0.06
30550 H 4.49828099887668 42.755477848421066 74.62230955207372 H 0.0 **** 0.06
30551 C 44.89076545765268 36.05680763916824 33.14445721970094 C 0.0 **** -0.24
30552 H 44.91897783976788 37.04637495344127 33.60106128987729 H 0.0 **** 0.06
30553 H 43.93654614233749 35.91917351014689 32.635636008656036 H 0.0 **** 0.06
30554 H 45.003669692304584 35.297279844526784 33.91755088028816 H 0.0 **** 0.06
30555 H 45.70305860891412 35.965523140483086 32.42387785243943 H 0.0 **** 0.06
30556 C 26.829518922254266 106.00887831222225 133.7378288843188 C 0.0 **** -0.24
30557 H 26.934212328138415 106.86500293068839 134.4045474230972 H 0.0 **** 0.06
30558 H 26.809572510758073 106.35403211006026 132.7045633632054 H 0.0 **** 0.06
30559 H 25.902317107994946 105.48324391684311 133.96468110071402 H 0.0 **** 0.06
30560 H 27.67385171838822 105.33315090648689 133.87986171464536 H 0.0 **** 0.06
30561 C 68.96336819980036 49.575921791049296 143.80550609385557 C 0.0 **** -0.24
30562 H 68.72702556085989 49.367565564376704 144.8483063936917 H 0.0 **** 0.06
30563 H 69.13934838048613 50.6443721968254 143.67965941362837 H 0.0 **** 0.06
30564 H 68.12833245266876 49.268920373644534 143.17514657155283 H 0.0 **** 0.06
30565 H 69.85748947388242 49.023291446974596 143.51851743161876 H 0.0 **** 0.06
30566 C 50.9515486078206 139.28694321706206 144.7640269658981 C 0.0 **** -0.24
30567 H 51.5214609839025 139.60642978223768 143.8921772923615 H 0.0 **** 0.06
30568 H 50.14202866678613 138.62869539530135 144.44780401005886 H 0.0 **** 0.06
30569 H 50.5353293131796 140.15987841834084 145.2661885753629 H 0.0 **** 0.06
30570 H 51.60788498439291 138.751740081222 145.4507633482334 H 0.0 **** 0.06
30571 C 24.066529097680075 100.7028236994039 30.272435941588952 C 0.0 **** -0.24
30572 H 24.515148652923017 101.36896608534272 29.53600436808165 H 0.0 **** 0.06
30573 H 24.372775065415567 99.67650038792783 30.06915891416523 H 0.0 **** 0.06
30574 H 22.980462166385564 100.77572695564692 30.213432427214258 H 0.0 **** 0.06
30575 H 24.396504343874597 100.99047109755026 31.270548146795818 H 0.0 **** 0.06
30576 C 155.26039264312388 95.37238509717046 85.40027479019187 C 0.0 **** -0.24
30577 H 154.71507061416025 95.23632201931578 84.4657388455163 H 0.0 **** 0.06
30578 H 155.95558466070656 94.54414933467842 85.53914979207515 H 0.0 **** 0.06
30579 H 154.55577657730893 95.39983594816064 86.23149216459696 H 0.0 **** 0.06
30580 H 155.81568312037646 96.30952406113649 85.36256914358209 H 0.0 **** 0.06
30581 C 113.54512771398106 22.247745702267167 131.3114299410009 C 0.0 **** -0.24
30582 H 114.00619454810692 21.691348801921094 130.49446263233233 H 0.0 **** 0.06
30583 H 113.06169700861585 21.55149430924834 131.99676228629517 H 0.0 **** 0.06
30584 H 112.80210314090601 22.935366764093004 130.90718566169593 H 0.0 **** 0.06
30585 H 114.31028622733419 22.8119653869212 131.84426036009106 H 0.0 **** 0.06
30586 C 40.53592022077862 56.96371220379581 37.79793651279215 C 0.0 **** -0.24
30587 H 41.377211061983985 56.8710286856806 38.48525461867129 H 0.0 **** 0.06
30588 H 40.019353582236306 57.90608922164847 37.980909583912606 H 0.0 **** 0.06
30589 H 39.84665871971333 56.13489709021758 37.95431972368013 H 0.0 **** 0.06
30590 H 40.90170722159465 56.94336439199252 36.77086614532317 H 0.0 **** 0.06
30591 C 54.47446484983361 56.15373408149617 149.0982470574399 C 0.0 **** -0.24
30592 H 54.59489831255934 56.14858365874596 148.0155296967534 H 0.0 **** 0.06
30593 H 54.35386098590725 57.180662436889094 149.44473452772831 H 0.0 **** 0.06
30594 H 55.357289411825164 55.714411502715635 149.56416569829963 H 0.0 **** 0.06
30595 H 53.5933403868532 55.5733498677039 149.36972906050323 H 0.0 **** 0.06
30596 C 4.8621770755441105 107.68730874364924 122.95887933261652 C 0.0 **** -0.24
30597 H 4.470466978093867 108.68280979684808 122.75059943642795 H 0.0 **** 0.06
30598 H 4.25101466699499 107.2095254135581 123.7246784417613 H 0.0 **** 0.06
30599 H 5.890029357583018 107.76874402325804 123.31172014168551 H 0.0 **** 0.06
30600 H 4.8366421100146795 107.08936926509061 122.04805113450512 H 0.0 **** 0.06
30601 C 156.18482308332352 7.914517580218359 10.214284047091724 C 0.0 **** -0.24
30602 H 156.2209227775537 6.8454434687388215 10.423429983774895 H 0.0 **** 0.06
30603 H 157.02646788058576 8.189695364059546 9.578873246968612 H 0.0 **** 0.06
30604 H 156.2394059047234 8.46968527380659 11.15129058574638 H 0.0 **** 0.06
30605 H 155.25159764643428 8.154131083540157 9.704730007051012 H 0.0 **** 0.06
30606 C 62.097580810952635 104.013612176499 59.79147711324538 C 0.0 **** -0.24
30607 H 61.109013405841736 104.46320310726064 59.885094171154435 H 0.0 **** 0.06
30608 H 62.302077070932256 103.40076940323796 60.668913526630945 H 0.0 **** 0.06
30609 H 62.84790075878958 104.79969821650836 59.71207713975076 H 0.0 **** 0.06
30610 H 62.129269205795396 103.38989851334809 58.89737990018392 H 0.0 **** 0.06
30611 C 64.45870718925667 1.795982678596193 22.390994180601467 C 0.0 **** -0.24
30612 H 65.31834353288954 2.106213328689414 22.983995809068688 H 0.0 **** 0.06
30613 H 64.27377989772913 2.5307194819650967 21.607290536501807 H 0.0 **** 0.06
30614 H 63.58154154779011 1.7221931078914459 23.033999790891357 H 0.0 **** 0.06
30615 H 64.66030006613927 0.824813251968834 21.93919453216901 H 0.0 **** 0.06
30616 C 104.21440069752374 100.10482494159292 128.59687169096622 C 0.0 **** -0.24
30617 H 104.12350403928416 99.41451415354118 129.43559601354616 H 0.0 **** 0.06
30618 H 103.4119501622716 99.91832735912833 127.88414494442668 H 0.0 **** 0.06
30619 H 105.17782127609554 99.95789486732083 128.10840774995404 H 0.0 **** 0.06
30620 H 104.14608827710036 101.12944036087696 128.9625208809262 H 0.0 **** 0.06
30621 C 35.13858906982364 100.12781325997004 93.46487021129705 C 0.0 **** -0.24
30622 H 35.48246812181557 100.0570882715498 94.49582015184818 H 0.0 **** 0.06
30623 H 35.48654554642076 99.25990582446083 92.90433416515624 H 0.0 **** 0.06
30624 H 35.53566623572701 101.03663042261833 93.01145120392826 H 0.0 **** 0.06
30625 H 34.04920771930068 100.15997235975259 93.44606229487056 H 0.0 **** 0.06
30626 C 137.19570798154425 137.08599865754957 103.1452376203584 C 0.0 **** -0.24
30627 H 136.55786891742125 136.5257420260712 103.82890896480804 H 0.0 **** 0.06
30628 H 136.88565879927606 136.89259179068017 102.11771633120152 H 0.0 **** 0.06
30629 H 138.2319296545606 136.77380151539347 103.27749600309171 H 0.0 **** 0.06
30630 H 137.1066501339376 138.151403804653 103.35734664977427 H 0.0 **** 0.06
30631 C 31.032563825430607 34.65215448196636 66.17359268391532 C 0.0 **** -0.24
30632 H 31.404884695056246 34.460768066460105 67.18078091479072 H 0.0 **** 0.06
30633 H 31.874906134308667 34.82135738274707 65.5022064232261 H 0.0 **** 0.06
30634 H 30.393171041079448 35.534237408499166 66.18389866369071 H 0.0 **** 0.06
30635 H 30.459527941093164 33.791176551889464 65.82884268263615 H 0.0 **** 0.06
30636 C 71.23111252449057 4.174348515010479 44.310240319948946 C 0.0 **** -0.24
30637 H 72.10176285900903 3.5218789278971485 44.376233531796146 H 0.0 **** 0.06
30638 H 71.28096366894792 4.925615394810023 45.09900368125005 H 0.0 **** 0.06
30639 H 70.32416886763075 3.581098522036484 44.43009166429971 H 0.0 **** 0.06
30640 H 71.21781108465207 4.665964756881465 43.338059175507965 H 0.0 **** 0.06
30641 C 22.26600116180026 138.58560729782045 50.342196950702885 C 0.0 **** -0.24
30642 H 21.565856549548812 139.02326366193927 49.62948161325113 H 0.0 **** 0.06
30643 H 22.182568416758272 139.10445688002417 51.296832870531276 H 0.0 **** 0.06
30644 H 23.281587961871082 138.68537839225843 49.9613586698279 H 0.0 **** 0.06
30645 H 22.03106889165349 137.53043233419308 50.479617018820235 H 0.0 **** 0.06
30646 C 120.30515575515471 24.75222096881655 107.06500776158369 C 0.0 **** -0.24
30647 H 121.03463068693856 25.3078185265499 106.475829228394 H 0.0 **** 0.06
30648 H 120.244415422374 23.727810710770065 106.69670092276674 H 0.0 **** 0.06
30649 H 119.32922721784206 25.2287636987895 106.97737124759705 H 0.0 **** 0.06
30650 H 120.61333711634853 24.74508570922167 108.11094898250063 H 0.0 **** 0.06
30651 C 72.2499161687572 23.08119379955474 145.88867404113415 C 0.0 **** -0.24
30652 H 71.59409386003315 22.5280984872918 146.56081564518215 H 0.0 **** 0.06
30653 H 72.85409877570312 23.782411924113887 146.4644901550184 H 0.0 **** 0.06
30654 H 71.64820409433065 23.62907023889636 145.1640957985022 H 0.0 **** 0.06
30655 H 72.90321389360734 22.38254773827083 145.36429870562904 H 0.0 **** 0.06
30656 C 91.39505612851308 2.0132699131381173 80.32885341230356 C 0.0 **** -0.24
30657 H 91.85778237877956 2.614908872255995 79.54653208985287 H 0.0 **** 0.06
30658 H 90.54933522805504 2.5559808815683596 80.7519144666933 H 0.0 **** 0.06
30659 H 92.1264732346691 1.812193835155881 81.11198629898362 H 0.0 **** 0.06
30660 H 91.04752484593962 1.0714733360308628 79.90513433103722 H 0.0 **** 0.06
30661 C 93.62069435487476 154.68416312250358 91.97853166737887 C 0.0 **** -0.24
30662 H 93.18151017414459 154.99767636010912 91.03156367930669 H 0.0 **** 0.06
30663 H 94.56533788888453 154.17270666750426 91.78797293804685 H 0.0 **** 0.06
30664 H 92.93737100254094 154.00781585856691 92.49034822454574 H 0.0 **** 0.06
30665 H 93.80145312144799 155.55940566851334 92.60293253318622 H 0.0 **** 0.06
30666 C 34.547929662079014 118.31327598600375 8.114644569187021 C 0.0 **** -0.24
30667 H 34.071672248383535 117.58545668940995 8.771517932895307 H 0.0 **** 0.06
30668 H 35.5052005258697 118.61514516280177 8.540339511891489 H 0.0 **** 0.06
30669 H 33.90377930853226 119.1861659208803 8.011624501138414 H 0.0 **** 0.06
30670 H 34.71221348129829 117.86443432523372 7.134836081049798 H 0.0 **** 0.06
30671 C 88.12982241613564 40.4444431798687 69.01866472888834 C 0.0 **** -0.24
30672 H 87.28609002956262 40.838812920506086 69.58455590543407 H 0.0 **** 0.06
30673 H 87.90597803304425 39.427293996062104 68.69511883922007 H 0.0 **** 0.06
30674 H 89.01931905575114 40.43781626158406 69.64957876593617 H 0.0 **** 0.06
30675 H 88.30745331959119 41.07314253558536 68.1465448800418 H 0.0 **** 0.06
30676 C 106.94546367897958 32.44756052288648 93.1212678650906 C 0.0 **** -0.24
30677 H 107.93946906060567 32.06017811197263 93.34742904166143 H 0.0 **** 0.06
30678 H 106.81267947900777 32.495625837619414 92.04033967098394 H 0.0 **** 0.06
30679 H 106.84071822618604 33.44570782851014 93.54460929338455 H 0.0 **** 0.06
30680 H 106.19161947082411 31.78808369778679 93.55140610048969 H 0.0 **** 0.06
30681 C 89.87326022754019 100.42123893942045 45.17342732940489 C 0.0 **** -0.24
30682 H 89.14299086574852 100.9673674162413 44.575955965443455 H 0.0 **** 0.06
30683 H 90.79338060897305 101.00261498316235 45.242522137737495 H 0.0 **** 0.06
30684 H 90.0838602334477 99.46126552001255 44.700703960158265 H 0.0 **** 0.06
30685 H 89.4722567648314 100.25419908950045 46.17332162145557 H 0.0 **** 0.06
30686 C 47.62769666591673 88.76454822785493 151.79903822989692 C 0.0 **** -0.24
30687 H 48.42878619090291 88.27477633316028 152.35259557415696 H 0.0 **** 0.06
30688 H 47.0929631658055 89.44715725160759 152.46097005340604 H 0.0 **** 0.06
30689 H 46.93686335159174 88.01204222773455 151.41847452884141 H 0.0 **** 0.06
30690 H 48.05159847048884 89.3234941975378 150.9655777984729 H 0.0 **** 0.06
30691 C 91.46940323520141 68.23743490330628 127.56304867738129 C 0.0 **** -0.24
30692 H 91.33489079798147 67.60924219454506 126.68207590837221 H 0.0 **** 0.06
30693 H 90.54822851458268 68.24600380510736 128.14596838866703 H 0.0 **** 0.06
30694 H 91.71100388985423 69.25311201241854 127.2503302837037 H 0.0 **** 0.06
30695 H 92.2819804864043 67.84060257134837 128.1709713344656 H 0.0 **** 0.06
30696 C 51.120110703305386 17.073789671448814 116.99988479279621 C 0.0 **** -0.24
30697 H 52.04674090055096 17.19392340490166 116.4376001035762 H 0.0 **** 0.06
30698 H 50.81273224321092 18.03791923703435 117.40442937683868 H 0.0 **** 0.06
30699 H 51.27956725012211 16.370416331465904 117.8163204489294 H 0.0 **** 0.06
30700 H 50.342265499193104 16.691659945370176 116.33823654325461 H 0.0 **** 0.06
30701 C 36.49805651347215 84.21195562914153 144.72393167612856 C 0.0 **** -0.24
30702 H 35.86839885417568 83.90808793727496 143.88702166575288 H 0.0 **** 0.06
30703 H 36.821476808545185 83.32848536331807 145.2731458687814 H 0.0 **** 0.06
30704 H 35.9295019354565 84.8652224100687 145.3859920082898 H 0.0 **** 0.06
30705 H 37.36988183945344 84.74627813090757 144.34638335231062 H 0.0 **** 0.06
30706 C 98.0739113802774 36.81372070456743 67.16521097795172 C 0.0 **** -0.24
30707 H 97.87950582505951 36.681858251963476 66.10116049916536 H 0.0 **** 0.06
30708 H 99.13685934264714 36.66748196531307 67.35993787907307 H 0.0 **** 0.06
30709 H 97.49670379235837 36.08343925354855 67.73306932399463 H 0.0 **** 0.06
30710 H 97.78371954855457 37.820048083529116 67.46599088841741 H 0.0 **** 0.06
30711 C 79.95754602771558 4.227711812501212 79.90094007603932 C 0.0 **** -0.24
30712 H 79.68626983091929 4.010478739677126 80.93416788051984 H 0.0 **** 0.06
30713 H 79.98856343680586 3.297410211653215 79.33144239468638 H 0.0 **** 0.06
30714 H 80.93797019834551 4.70255886923772 79.87436250770598 H 0.0 **** 0.06
30715 H 79.21717576385566 4.896663624478236 79.46383485843764 H 0.0 **** 0.06
30716 C 121.21553572936703 13.096304542192925 127.57959816462625 C 0.0 **** -0.24
30717 H 121.32267508962592 13.525551182683053 128.57516690192062 H 0.0 **** 0.06
30718 H 120.69443461302932 12.141253208113511 127.65055072955175 H 0.0 **** 0.06
30719 H 122.20192454259156 12.94181755802969 127.14240993583377 H 0.0 **** 0.06
30720 H 120.64214462830385 13.77803512492303 126.9502486765918 H 0.0 **** 0.06
30721 C 24.87528477602251 57.73338911766018 128.07707378222864 C 0.0 **** -0.24
30722 H 25.761205811045727 57.24823318477729 128.48863588060738 H 0.0 **** 0.06
30723 H 24.495038540910002 57.14536212715467 127.24194461828482 H 0.0 **** 0.06
30724 H 25.138370799871723 58.73241652252983 127.72878557568104 H 0.0 **** 0.06
30725 H 24.10969312152497 57.80698595968687 128.8497319271895 H 0.0 **** 0.06
30726 C 40.50678345165406 22.89229589411258 28.2032411074658 C 0.0 **** -0.24
30727 H 41.53767970692233 22.637981964076886 28.447597354311597 H 0.0 **** 0.06
30728 H 39.8327213481533 22.182478085814267 28.68501979382586 H 0.0 **** 0.06
30729 H 40.36779758451499 22.849469729727957 27.123231152784626 H 0.0 **** 0.06
30730 H 40.28722180171265 23.899296695677435 28.55736640207624 H 0.0 **** 0.06
30731 C 23.433258005970295 25.055356134718465 15.520715462320112 C 0.0 **** -0.24
30732 H 23.29774539346463 26.111115717103928 15.759673140391612 H 0.0 **** 0.06
30733 H 22.997650719237633 24.44527206889728 16.312152385147698 H 0.0 **** 0.06
30734 H 24.49799674327437 24.83646303252297 15.435357819952685 H 0.0 **** 0.06
30735 H 22.939068464761434 24.83166513053598 14.575335274300556 H 0.0 **** 0.06
30736 C 139.94188462908158 73.80022790227082 28.861938667218766 C 0.0 **** -0.24
30737 H 140.7364081083841 73.1277037294887 28.54008261576459 H 0.0 **** 0.06
30738 H 139.02206164438044 73.55978275805126 28.327507636913595 H 0.0 **** 0.06
30739 H 140.22858956737326 74.82956940308975 28.64803447260664 H 0.0 **** 0.06
30740 H 139.78061079154207 73.6833191856839 29.93429673338126 H 0.0 **** 0.06
30741 C 72.87318290548498 16.326436436329402 93.8596317041226 C 0.0 **** -0.24
30742 H 73.11554725690944 17.020663799573356 94.6648786186183 H 0.0 **** 0.06
30743 H 73.21290533246754 15.32582837184026 94.12895284966662 H 0.0 **** 0.06
30744 H 73.37123897355372 16.64510600712873 92.94372748346504 H 0.0 **** 0.06
30745 H 71.79463501156299 16.315206856274813 93.70212293826826 H 0.0 **** 0.06
30746 C 102.53004026832464 20.582034890771084 46.529592868669596 C 0.0 **** -0.24
30747 H 103.44416536900665 21.015173296989538 46.93794829449402 H 0.0 **** 0.06
30748 H 101.87460099798777 21.38073946958623 46.182378195485995 H 0.0 **** 0.06
30749 H 102.0235767257375 20.00682420039533 47.30463093953614 H 0.0 **** 0.06
30750 H 102.78042592807229 19.927495231653786 45.6950933134552 H 0.0 **** 0.06
30751 C 91.76120249782116 73.17868407601162 97.61763810308867 C 0.0 **** -0.24
30752 H 92.10010001398317 73.28369992196662 96.58709513451358 H 0.0 **** 0.06
30753 H 90.94586952734831 73.87834286175479 97.80515462453786 H 0.0 **** 0.06
30754 H 92.58728888432539 73.39345524448962 98.29543991312092 H 0.0 **** 0.06
30755 H 91.41160695733682 72.16001948272714 97.78348457625462 H 0.0 **** 0.06
30756 C 13.553537486776463 121.9147487630367 36.53153639267671 C 0.0 **** -0.24
30757 H 12.941607822544881 122.15898148583358 35.66260131540898 H 0.0 **** 0.06
30758 H 14.18720683818907 121.05937777848953 36.30104074177501 H 0.0 **** 0.06
30759 H 12.905332556588803 121.67099842109064 37.373540445562924 H 0.0 **** 0.06
30760 H 14.176544728863348 122.77092005633693 36.7883326770384 H 0.0 **** 0.06
30761 C 135.1353613547343 110.01821432637642 154.62470533194588 C 0.0 **** -0.24
30762 H 135.49792663626127 110.9201816100284 154.1337388972354 H 0.0 **** 0.06
30763 H 134.0449513111081 110.03034676316075 154.64765010822958 H 0.0 **** 0.06
30764 H 135.51928053564563 109.98071578347044 155.64438842368065 H 0.0 **** 0.06
30765 H 135.47739009530716 109.14148803976353 154.07536481146357 H 0.0 **** 0.06
30766 C 125.2888211227304 55.01366846021001 20.82561735815659 C 0.0 **** -0.24
30767 H 124.97359479183946 55.386779342050176 19.851353897702495 H 0.0 **** 0.06
30768 H 124.43574250780061 54.56747276135353 21.336915657844486 H 0.0 **** 0.06
30769 H 125.67943646951177 55.8392705822133 21.421271189991103 H 0.0 **** 0.06
30770 H 126.06733768403144 54.26197255486876 20.691647463576032 H 0.0 **** 0.06
30771 C 44.92855519778959 113.38810673691034 155.9662835637921 C 0.0 **** -0.24
30772 H 44.19003551348038 112.89872492655348 156.60223468685587 H 0.0 **** 0.06
30773 H 45.88982998594804 112.88677352064246 156.07573873716467 H 0.0 **** 0.06
30774 H 45.027493759705294 114.43270409210572 156.26213354349352 H 0.0 **** 0.06
30775 H 44.60567959162478 113.33355905652655 154.926805063401 H 0.0 **** 0.06
30776 C 23.751730982161348 25.288233074618915 47.64619387391218 C 0.0 **** -0.24
30777 H 24.121374858017646 26.172720412249703 47.12863403772775 H 0.0 **** 0.06
30778 H 24.377987772265897 25.08988167332086 48.51777916888028 H 0.0 **** 0.06
30779 H 23.785261783381884 24.4319444743698 46.9727006040944 H 0.0 **** 0.06
30780 H 22.724347953124266 25.45712853107773 47.967457130162614 H 0.0 **** 0.06
30781 C 25.19776773055804 51.87398428678995 156.9406709902682 C 0.0 **** -0.24
30782 H 24.674839471073994 51.63072856264802 156.01519792607309 H 0.0 **** 0.06
30783 H 25.539592401462187 52.90821091625631 156.9032031792883 H 0.0 **** 0.06
30784 H 26.054639032832256 51.21155498313598 157.0578017565083 H 0.0 **** 0.06
30785 H 24.52056868705523 51.74516491100218 157.7847857233548 H 0.0 **** 0.06
30786 C 96.71489643680596 70.11182529851527 121.75513992414967 C 0.0 **** -0.24
30787 H 96.51206107293996 69.44121381090078 122.58957068070454 H 0.0 **** 0.06
30788 H 97.32221225072794 69.59383980980397 121.01280899404689 H 0.0 **** 0.06
30789 H 97.25147070220588 70.9887910316646 122.1154797500213 H 0.0 **** 0.06
30790 H 95.77301631539942 70.42253984129451 121.30200858512093 H 0.0 **** 0.06
30791 C 107.22977108868703 53.480981449688116 139.46332462336866 C 0.0 **** -0.24
30792 H 106.74254589716058 52.56643405884007 139.80163122702854 H 0.0 **** 0.06
30793 H 107.62148847855129 54.022109603882086 140.32546296797244 H 0.0 **** 0.06
30794 H 106.5071558448539 54.10518960694823 138.93987550246828 H 0.0 **** 0.06
30795 H 108.048459956018 53.22889204128806 138.78979131428588 H 0.0 **** 0.06
30796 C 148.68225288309944 136.31346879131718 6.415359339805548 C 0.0 **** -0.24
30797 H 148.90066663689072 137.38146985551748 6.434771959339315 H 0.0 **** 0.06
30798 H 149.12902498434426 135.86859386083404 5.526189132161591 H 0.0 **** 0.06
30799 H 147.60292521213535 136.16362742142843 6.394695247938557 H 0.0 **** 0.06
30800 H 149.0981151258719 135.8423556203777 7.306350735672368 H 0.0 **** 0.06
30801 C 96.20626219038343 15.068953385816371 123.56987802510321 C 0.0 **** -0.24
30802 H 95.88943845914946 15.391431849530704 122.57797175958734 H 0.0 **** 0.06
30803 H 96.26483491010318 15.933472653302204 124.2315277512219 H 0.0 **** 0.06
30804 H 97.1859486964885 14.594978592556629 123.50208461468372 H 0.0 **** 0.06
30805 H 95.48445853342031 14.355449305986838 123.96665007662597 H 0.0 **** 0.06
30806 C 135.87332359895993 154.5791945709402 33.187846029840586 C 0.0 **** -0.24
30807 H 136.44306482578673 153.70266709925554 32.88133313234897 H 0.0 **** 0.06
30808 H 135.04223329742507 154.2676199217284 33.82169922039057 H 0.0 **** 0.06
30809 H 135.4852698006565 155.08664791466444 32.30489075821421 H 0.0 **** 0.06
30810 H 136.5199439935805 155.2575508664387 33.743513590969314 H 0.0 **** 0.06
30811 C 84.9160657912083 36.879395490094566 37.49893988918376 C 0.0 **** -0.24
30812 H 83.87935404343271 36.696918348103566 37.21505869251416 H 0.0 **** 0.06
30813 H 85.32540804277733 35.983824729742196 37.96724174888038 H 0.0 **** 0.06
30814 H 84.95871241392422 37.70965261993433 38.20272961752602 H 0.0 **** 0.06
30815 H 85.49781722871559 37.12400983241048 36.61101494116116 H 0.0 **** 0.06
30816 C 12.29545307317759 141.99724197832097 13.446367247260866 C 0.0 **** -0.24
30817 H 12.234233966201835 142.45398572845892 14.43508464775448 H 0.0 **** 0.06
30818 H 13.113495745854692 142.45095519835718 12.887093466302247 H 0.0 **** 0.06
30819 H 11.357343441861715 142.1584456735907 12.914378158897023 H 0.0 **** 0.06
30820 H 12.474274316445268 140.92749808900456 13.550715781041902 H 0.0 **** 0.06
30821 C 64.6960086036791 121.78291572591344 77.51919847205752 C 0.0 **** -0.24
30822 H 63.83536846736308 122.17130072957058 76.97433764025573 H 0.0 **** 0.06
30823 H 65.07717100523948 120.89578356782646 77.01210827104016 H 0.0 **** 0.06
30824 H 64.39562127888485 121.52039784714547 78.53354973666715 H 0.0 **** 0.06
30825 H 65.47538365481637 122.5433125186229 77.5567202482188 H 0.0 **** 0.06
30826 C 111.64695896798355 14.883239305223697 69.80946469196226 C 0.0 **** -0.24
30827 H 111.36064800658994 14.96045422271817 70.85827904919597 H 0.0 **** 0.06
30828 H 110.8085846668697 15.187033364791944 69.18132583442315 H 0.0 **** 0.06
30829 H 111.91688378592664 13.851854026463485 69.58156628225987 H 0.0 **** 0.06
30830 H 112.50051290255942 15.53386487615819 69.6173820539803 H 0.0 **** 0.06
30831 C 31.955158454571766 131.18610339001748 63.79893156361561 C 0.0 **** -0.24
30832 H 32.92197233158097 130.73922060643602 64.03281916418348 H 0.0 **** 0.06
30833 H 31.756442671945827 131.08578563532961 62.73201729857955 H 0.0 **** 0.06
30834 H 31.969512260261673 132.2422667323064 64.0683896122969 H 0.0 **** 0.06
30835 H 31.173839806426628 130.67815391054236 64.36442088467203 H 0.0 **** 0.06
30836 C 41.135795808140315 101.49230136167749 97.37882514504469 C 0.0 **** -0.24
30837 H 41.498082186907865 102.51342358698172 97.25555030757698 H 0.0 **** 0.06
30838 H 40.42120345088526 101.45848631666625 98.20224121970091 H 0.0 **** 0.06
30839 H 41.97545894135517 100.83329094833029 97.59792271198307 H 0.0 **** 0.06
30840 H 40.64799354146996 101.16762194804078 96.46043315027785 H 0.0 **** 0.06
30841 C 14.287881905184292 127.54387456373824 71.26906725077231 C 0.0 **** -0.24
30842 H 13.691435416392608 126.74732545155344 71.7143871172562 H 0.0 **** 0.06
30843 H 15.318423134399495 127.20617267517731 71.15742096062672 H 0.0 **** 0.06
30844 H 14.261135093916607 128.4211480508448 71.91525337006254 H 0.0 **** 0.06
30845 H 13.880507125349624 127.7997965772647 70.29141784785111 H 0.0 **** 0.06
30846 C 37.960063362049084 38.17127289910886 133.15203198498244 C 0.0 **** -0.24
30847 H 37.946166302581105 39.168273414116555 133.5929078532928 H 0.0 **** 0.06
30848 H 38.31977075446639 38.23420319443885 132.12429705358176 H 0.0 **** 0.06
30849 H 36.95235759143873 37.757444249210366 133.15974927620388 H 0.0 **** 0.06
30850 H 38.622045607917016 37.52754609373558 133.73058185487992 H 0.0 **** 0.06
30851 C 141.50574255957548 145.9415476343779 46.11973773594792 C 0.0 **** -0.24
30852 H 140.94715455628898 146.87424945009263 46.041504522512085 H 0.0 **** 0.06
30853 H 140.91631667460712 145.21044801922415 46.672663712382246 H 0.0 **** 0.06
30854 H 142.44392961429227 146.12285898158336 46.64350857715472 H 0.0 **** 0.06
30855 H 141.71606072441625 145.5592748386702 45.12011305661616 H 0.0 **** 0.06
30856 C 103.33144444651502 55.747134861636866 95.03966160379291 C 0.0 **** -0.24
30857 H 103.81939916829025 55.01629658993174 94.39441800932943 H 0.0 **** 0.06
30858 H 102.39874639526833 55.33149072913017 95.41998639437651 H 0.0 **** 0.06
30859 H 103.12086816668211 56.65192984933461 94.4687646268486 H 0.0 **** 0.06
30860 H 103.98894908734754 55.9904669109886 95.87475552559407 H 0.0 **** 0.06
30861 C 55.41437594399939 75.75780840576084 89.0435303360684 C 0.0 **** -0.24
30862 H 54.94070604892623 75.01444165861173 88.40163672375745 H 0.0 **** 0.06
30863 H 56.03711131654936 76.41699432476724 88.4377851021018 H 0.0 **** 0.06
30864 H 56.031870541781785 75.25457577705907 89.78682434199297 H 0.0 **** 0.06
30865 H 54.645585542947956 76.34500440835086 89.54688595662485 H 0.0 **** 0.06
30866 C 14.158805430630082 59.295877452555686 142.5963430235387 C 0.0 **** -0.24
30867 H 13.486658050045492 58.53147725587894 142.20531752810393 H 0.0 **** 0.06
30868 H 14.866230344298287 59.58878287045361 141.82006658885075 H 0.0 **** 0.06
30869 H 14.70271871122776 58.89649346281209 143.45274798908463 H 0.0 **** 0.06
30870 H 13.578932861592193 60.164632751905586 142.90740200989097 H 0.0 **** 0.06
30871 C 63.18860996735259 101.04061513482101 7.69930916028536 C 0.0 **** -0.24
30872 H 62.697938598313726 100.1206596557965 8.017998998183373 H 0.0 **** 0.06
30873 H 63.137462791582266 101.77613559462633 8.502641170252375 H 0.0 **** 0.06
30874 H 62.686437263563676 101.43310552167226 6.815402760372656 H 0.0 **** 0.06
30875 H 64.23162195098655 100.832724708637 7.46292978970645 H 0.0 **** 0.06
30876 C 19.90297271749842 107.40922174456703 144.8636974056294 C 0.0 **** -0.24
30877 H 19.830402753557692 108.42414947166928 144.4725516682247 H 0.0 **** 0.06
30878 H 18.912703730354757 107.06277994500336 145.15766007340022 H 0.0 **** 0.06
30879 H 20.564235974532565 107.40152798616607 145.73021941046267 H 0.0 **** 0.06
30880 H 20.30542974825618 106.75138848711454 144.09314667618406 H 0.0 **** 0.06
30881 C 35.93520308342028 42.72875176407797 67.13106219110689 C 0.0 **** -0.24
30882 H 35.16716182602579 42.401270299551015 66.4306336249153 H 0.0 **** 0.06
30883 H 35.88553095507814 43.812480922118326 67.24297066679561 H 0.0 **** 0.06
30884 H 36.91687919109097 42.44724038126232 66.75108323563478 H 0.0 **** 0.06
30885 H 35.770738707217674 42.25499826905191 68.09867665726641 H 0.0 **** 0.06
30886 C 49.51134621151722 87.25342376737814 50.15501579666136 C 0.0 **** -0.24
30887 H 49.92989718463447 87.37736326249876 51.152934480578764 H 0.0 **** 0.06
30888 H 50.02314719153338 87.91896096095243 49.46013547598865 H 0.0 **** 0.06
30889 H 48.44866700603113 87.49584291233113 50.17371192640657 H 0.0 **** 0.06
30890 H 49.64232369136347 86.22011855503376 49.83180077634351 H 0.0 **** 0.06
30891 C 140.8736729114354 41.744771292564906 77.62634484273686 C 0.0 **** -0.24
30892 H 139.99741300323572 42.15431290566002 78.12866536224068 H 0.0 **** 0.06
30893 H 140.84434497889742 40.65622502473725 77.67425690591995 H 0.0 **** 0.06
30894 H 141.77658166199657 42.10689696072696 78.1181430374501 H 0.0 **** 0.06
30895 H 140.87582350604052 42.06274191185585 76.5830774861506 H 0.0 **** 0.06
30896 C 110.44100631725324 140.5184828295824 130.56540369402313 C 0.0 **** -0.24
30897 H 109.96969396907598 141.16159058373205 131.30876078492935 H 0.0 **** 0.06
30898 H 109.86233764162448 140.5473665660294 129.64141180626694 H 0.0 **** 0.06
30899 H 110.47633555121577 139.4955548592736 130.94035287402033 H 0.0 **** 0.06
30900 H 111.45430250233646 140.86970388621316 130.37137464718757 H 0.0 **** 0.06
30901 C 90.4502146931948 54.12689797995836 132.23063778639272 C 0.0 **** -0.24
30902 H 90.06325809863722 53.83024071106462 133.20451902526395 H 0.0 **** 0.06
30903 H 90.7321945705094 55.17958242444337 132.25660868674402 H 0.0 **** 0.06
30904 H 89.68029026765329 53.97555694671155 131.47289178732035 H 0.0 **** 0.06
30905 H 91.32340975265221 53.522301756423076 131.98677625751426 H 0.0 **** 0.06
30906 C 10.701723346918435 154.93857964103634 36.24226803033436 C 0.0 **** -0.24
30907 H 10.021256373480426 154.21816593307534 35.787447753479256 H 0.0 **** 0.06
30908 H 10.786292823963684 155.8138398621204 35.59826786289595 H 0.0 **** 0.06
30909 H 11.684035907560705 154.48106312950455 36.3663341271606 H 0.0 **** 0.06
30910 H 10.31562638777634 155.23804413288215 37.216232507646026 H 0.0 **** 0.06
30911 C 3.5384671327348585 103.97692948038973 131.61743437887245 C 0.0 **** -0.24
30912 H 2.6127734708398336 103.40051933579603 131.6010544007874 H 0.0 **** 0.06
30913 H 3.3104317614018477 105.03338959339304 131.4779010386004 H 0.0 **** 0.06
30914 H 4.192649683755413 103.63630611291343 130.81529750790435 H 0.0 **** 0.06
30915 H 4.036716461566968 103.83603599294499 132.5777574364363 H 0.0 **** 0.06
30916 C 14.578344363016953 1.3013351433218645 58.490661002296704 C 0.0 **** -0.24
30917 H 15.450447762183785 1.781070906894854 58.93598443461467 H 0.0 **** 0.06
30918 H 14.42637613402627 1.6899534990394613 57.48376820902406 H 0.0 **** 0.06
30919 H 13.699024044534212 1.5112314636679685 59.09876868125791 H 0.0 **** 0.06
30920 H 14.74032856361299 0.22435007700420329 58.44537348191173 H 0.0 **** 0.06
30921 C 83.16441631213902 106.95632510310803 148.6689817408881 C 0.0 **** -0.24
30922 H 83.61201383264637 107.30079289976776 149.60138405570086 H 0.0 **** 0.06
30923 H 83.70011420707777 107.39374405067748 147.82590396700903 H 0.0 **** 0.06
30924 H 82.11912268670699 107.26236977046928 148.6329601790057 H 0.0 **** 0.06
30925 H 83.22749691888362 105.86974581900041 148.61566244694143 H 0.0 **** 0.06
30926 C 131.231262407071 12.55183552410898 42.185666547167216 C 0.0 **** -0.24
30927 H 131.27938560250962 13.431426442114628 42.82777530159878 H 0.0 **** 0.06
30928 H 131.05590391748802 11.665626271931473 42.79671341763651 H 0.0 **** 0.06
30929 H 132.17352004531057 12.44265655234176 41.648576079261915 H 0.0 **** 0.06
30930 H 130.416829271435 12.668168596806566 41.470770087083466 H 0.0 **** 0.06
30931 C 1.5482603105837995 40.56288890592887 115.52667627168034 C 0.0 **** -0.24
30932 H 2.0826002529556717 41.22012493091637 114.84111352175455 H 0.0 **** 0.06
30933 H 0.7449734541023076 41.119341912029 116.01119149345482 H 0.0 **** 0.06
30934 H 2.2383814343048414 40.188930579657494 116.28288898749486 H 0.0 **** 0.06
30935 H 1.12678140003419 39.72459584386013 114.97286772356682 H 0.0 **** 0.06
30936 C 81.97720237009254 85.62894551782361 91.44528946561137 C 0.0 **** -0.24
30937 H 82.60434244256831 85.12450245719555 90.71052747408714 H 0.0 **** 0.06
30938 H 81.90512182936526 86.68788063335525 91.19551854140144 H 0.0 **** 0.06
30939 H 82.41912757638538 85.51874175245901 92.43607750843748 H 0.0 **** 0.06
30940 H 80.98264911405704 85.1846754050746 91.4393305819277 H 0.0 **** 0.06
30941 C 59.26716206932207 67.73365594499467 149.21583741690424 C 0.0 **** -0.24
30942 H 58.911307609983155 66.7674681183754 148.8590106547809 H 0.0 **** 0.06
30943 H 59.5620779234564 68.34948068936954 148.3658378791405 H 0.0 **** 0.06
30944 H 60.12534178206771 67.58468893915727 149.87203793552914 H 0.0 **** 0.06
30945 H 58.47043406425901 68.2330742523553 149.76777811577037 H 0.0 **** 0.06
30946 C 77.8651517015602 117.00939375040406 87.43167447277926 C 0.0 **** -0.24
30947 H 77.61601032385363 116.05677514126722 87.90060525057828 H 0.0 **** 0.06
30948 H 76.98018833678736 117.41490217450615 86.94061902521707 H 0.0 **** 0.06
30949 H 78.65279940442099 116.85650298172294 86.69403284376563 H 0.0 **** 0.06
30950 H 78.21041339744284 117.70911005058116 88.1933090029292 H 0.0 **** 0.06
30951 C 40.20744022932627 143.91374577810623 96.62181562755306 C 0.0 **** -0.24
30952 H 39.25883035241054 144.24789990789444 97.04017066720625 H 0.0 **** 0.06
30953 H 40.35161686934316 144.36541866528464 95.64064930609536 H 0.0 **** 0.06
30954 H 40.19900008930381 142.82786578046506 96.52392748643916 H 0.0 **** 0.06
30955 H 41.020512948482065 144.21255649900831 97.28316089753582 H 0.0 **** 0.06
30956 C 71.54244062341036 39.45442287119593 58.39344441456586 C 0.0 **** -0.24
30957 H 71.10840232865505 39.730980984146456 57.43251099061422 H 0.0 **** 0.06
30958 H 70.74593943838279 39.321452652078634 59.1262994404442 H 0.0 **** 0.06
30959 H 72.21628916587622 40.24360791357799 58.72693921484279 H 0.0 **** 0.06
30960 H 72.09818897921096 38.52268877712088 58.28601989324443 H 0.0 **** 0.06
30961 C 65.75632266450482 26.40587244468736 97.70291608987822 C 0.0 **** -0.24
30962 H 64.85093528400824 26.300659620374915 98.30035111698686 H 0.0 **** 0.06
30963 H 66.14915986980685 27.416602607544746 97.81238358205877 H 0.0 **** 0.06
30964 H 65.52276925924946 26.218267999234968 96.65416678745405 H 0.0 **** 0.06
30965 H 66.50138496096886 25.686734838450093 98.04320853452901 H 0.0 **** 0.06
30966 C 131.64057925166102 31.33659976176 46.70671939136952 C 0.0 **** -0.24
30967 H 132.6462548373682 30.924797027642512 46.798129649076486 H 0.0 **** 0.06
30968 H 131.34233142638996 31.77997242932878 47.65690547453204 H 0.0 **** 0.06
30969 H 130.94513114859035 30.540034955116823 46.443354441116696 H 0.0 **** 0.06
30970 H 131.63017247797524 32.10051186734137 45.929082796037505 H 0.0 **** 0.06
30971 C 13.690307262797319 15.025469781344782 136.4385345785092 C 0.0 **** -0.24
30972 H 13.101693434519802 15.942143396358802 136.49215328371255 H 0.0 **** 0.06
30973 H 14.088416322800867 14.79111780268704 137.42563183145992 H 0.0 **** 0.06
30974 H 14.513710158733545 15.164797041280963 135.7369112408021 H 0.0 **** 0.06
30975 H 13.057138490790265 14.206923620642442 136.0976253109746 H 0.0 **** 0.06
30976 C 119.73447040179201 151.575908920463 106.84322583594407 C 0.0 **** -0.24
30977 H 120.5024247666974 151.51288440987813 107.61376438430564 H 0.0 **** 0.06
30978 H 120.01121166072062 152.3381151776639 106.11507162371915 H 0.0 **** 0.06
30979 H 118.78175303520857 151.83989083647114 107.30220604882034 H 0.0 **** 0.06
30980 H 119.64239315493882 150.6109501000521 106.3435249590372 H 0.0 **** 0.06
30981 C 93.19791243482064 25.53723513430316 129.57149685679593 C 0.0 **** -0.24
30982 H 93.87916905859772 25.010022108659086 130.23892287540912 H 0.0 **** 0.06
30983 H 93.26734062025065 26.609316251349583 129.75531326573693 H 0.0 **** 0.06
30984 H 92.17724122608756 25.202304735133737 129.7543042923708 H 0.0 **** 0.06
30985 H 93.4693311910031 25.32665200236488 128.53620929734143 H 0.0 **** 0.06
30986 C 45.57668549399432 40.637073318932394 81.65530236863918 C 0.0 **** -0.24
30987 H 44.486990622335156 40.642327514137136 81.68187591456228 H 0.0 **** 0.06
30988 H 45.936674906567646 39.61334451250498 81.76171031910394 H 0.0 **** 0.06
30989 H 45.96212522245247 41.24594544432756 82.47241960921505 H 0.0 **** 0.06
30990 H 45.91874399836212 41.04625448028908 80.70422852489935 H 0.0 **** 0.06
30991 C 21.409652629389086 140.17701765300484 0.648023195619686 C 0.0 **** -0.24
30992 H 22.31737772892916 140.57291879659306 1.1038193239988061 H 0.0 **** 0.06
30993 H 21.67276774194471 139.4021430844014 -0.07241592794548524 H 0.0 **** 0.06
30994 H 20.878012171095293 140.98156584636817 0.13977394204778193 H 0.0 **** 0.06
30995 H 20.770841654087803 139.75155523624824 1.422270543450253 H 0.0 **** 0.06
30996 C 25.792805091921352 144.00627226472386 32.33445919114741 C 0.0 **** -0.24
30997 H 25.949359514593873 143.27034673694934 33.12239888661965 H 0.0 **** 0.06
30998 H 26.114250079862373 143.5906161181986 31.379676102792708 H 0.0 **** 0.06
30999 H 26.372327768624075 144.90276557602763 32.5545338990381 H 0.0 **** 0.06
31000 H 24.734496227997397 144.26213672177317 32.28211033049455 H 0.0 **** 0.06
31001 C 55.072999567391335 62.02225078040405 20.52914956775311 C 0.0 **** -0.24
31002 H 55.89212570237285 62.69116936002622 20.792020184150942 H 0.0 **** 0.06
31003 H 54.21049708018367 62.237371345266084 21.162161703496054 H 0.0 **** 0.06
31004 H 55.385413186607394 60.988883596286655 20.680012644359522 H 0.0 **** 0.06
31005 H 54.80229003055145 62.171326494958464 19.48386661574426 H 0.0 **** 0.06
31006 C 12.065689669770137 117.22833723560035 92.96232630601696 C 0.0 **** -0.24
31007 H 11.782785149138448 116.22001029452514 92.66101672259731 H 0.0 **** 0.06
31008 H 11.174121222206281 117.85363369483292 93.02113747008502 H 0.0 **** 0.06
31009 H 12.755064272177009 117.64656051295373 92.2294418732858 H 0.0 **** 0.06
31010 H 12.550050373646343 117.19270051849219 93.93821790269982 H 0.0 **** 0.06
31011 C 8.536645251150446 66.48943644882974 83.62387975564833 C 0.0 **** -0.24
31012 H 8.351186836854708 66.5258984438752 84.69677365953655 H 0.0 **** 0.06
31013 H 8.077035757528165 67.35631676217278 83.14673053227689 H 0.0 **** 0.06
31014 H 8.107092005158336 65.57721448413348 83.21101811409127 H 0.0 **** 0.06
31015 H 9.611241031062946 66.50129568612692 83.44064779515722 H 0.0 **** 0.06
31016 C 61.60949695587733 73.78551884422322 68.5974976968657 C 0.0 **** -0.24
31017 H 62.21309942837246 73.46722399874227 69.44741364237478 H 0.0 **** 0.06
31018 H 61.58385243960154 74.87565080224644 68.5578438720031 H 0.0 **** 0.06
31019 H 60.59509613276437 73.40171452259221 68.70788744639991 H 0.0 **** 0.06
31020 H 62.04628722453646 73.39881465845501 67.67718374011551 H 0.0 **** 0.06
31021 C 111.77132184573234 114.28884501424982 31.07447411966006 C 0.0 **** -0.24
31022 H 111.4894984597452 115.15124783567397 31.679246514993743 H 0.0 **** 0.06
31023 H 111.41412935607268 113.37672109682548 31.553872906935553 H 0.0 **** 0.06
31024 H 112.8571114829377 114.25009169942773 30.982611501033645 H 0.0 **** 0.06
31025 H 111.32507234092996 114.37798823263496 30.08504273211331 H 0.0 **** 0.06
31026 C 5.71404825406627 93.51161301585523 110.2345825001524 C 0.0 **** -0.24
31027 H 5.04092618433917 93.55835381527257 109.37796316833858 H 0.0 **** 0.06
31028 H 6.742596395394209 93.63010765554799 109.89426441137955 H 0.0 **** 0.06
31029 H 5.6030507663340074 92.54744980524549 110.73091962140451 H 0.0 **** 0.06
31030 H 5.466583449757138 94.31034381246133 110.93300495146111 H 0.0 **** 0.06
31031 C 23.809793290312662 107.70099675404064 125.87523241280246 C 0.0 **** -0.24
31032 H 23.554513578188313 108.67752095623807 125.46350504163144 H 0.0 **** 0.06
31033 H 24.86613811219282 107.68669599980687 126.1458591225329 H 0.0 **** 0.06
31034 H 23.61471572824172 106.93033871936645 125.12939421718636 H 0.0 **** 0.06
31035 H 23.204950958316438 107.51071518352272 126.7619704554836 H 0.0 **** 0.06
31036 C 17.98537105768657 6.6850663307749585 27.93870576228653 C 0.0 **** -0.24
31037 H 17.207597193837934 7.384068071933456 27.631568909993064 H 0.0 **** 0.06
31038 H 18.94046449193729 7.208184238478509 28.000608178753396 H 0.0 **** 0.06
31039 H 18.05915868584546 5.879932134802857 27.207896640432352 H 0.0 **** 0.06
31040 H 17.734653478694604 6.269000891628849 28.91479179174428 H 0.0 **** 0.06
31041 C 143.43583912742986 119.84170482176593 53.1855424215198 C 0.0 **** -0.24
31042 H 143.14182555959576 120.79293761006157 53.630923074335016 H 0.0 **** 0.06
31043 H 144.4637831803136 119.61317823606002 53.46485095328934 H 0.0 **** 0.06
31044 H 143.35945160223736 119.90994775059453 52.10118064511441 H 0.0 **** 0.06
31045 H 142.77574496877656 119.05257040807963 53.548247966142156 H 0.0 **** 0.06
31046 C 13.489113776905725 52.49234131983401 108.49135545899976 C 0.0 **** -0.24
31047 H 13.62643943894335 51.411170128108495 108.51720501153135 H 0.0 **** 0.06
31048 H 12.50256120355246 52.741978164060754 108.88201149800038 H 0.0 **** 0.06
31049 H 13.573831888985694 52.8449921778672 107.46348782003251 H 0.0 **** 0.06
31050 H 14.254001240295764 52.96927792809494 109.10415502594132 H 0.0 **** 0.06
31051 C 82.58373030977383 51.93876523313557 96.7854152255949 C 0.0 **** -0.24
31052 H 81.87031982278606 52.752717304672956 96.90910487776873 H 0.0 **** 0.06
31053 H 82.4757091388585 51.50938582203793 95.78890458817796 H 0.0 **** 0.06
31054 H 82.39230424124383 51.17037531679108 97.53488216247419 H 0.0 **** 0.06
31055 H 83.59738788252388 52.32204221426747 96.90903077269382 H 0.0 **** 0.06
31056 C 76.47649350001554 61.09471950368146 90.58390922534396 C 0.0 **** -0.24
31057 H 76.35306799341255 60.673670164706934 91.58122825099309 H 0.0 **** 0.06
31058 H 77.48342790254064 60.88444594805195 90.22299258491876 H 0.0 **** 0.06
31059 H 76.32064834726293 62.17265793024265 90.6225058031052 H 0.0 **** 0.06
31060 H 75.74711451512043 60.64662588580681 89.90797570195906 H 0.0 **** 0.06
31061 C 87.04445786678102 138.10261413012853 56.5590888398624 C 0.0 **** -0.24
31062 H 87.65557050759628 137.25020580934873 56.859135720469695 H 0.0 **** 0.06
31063 H 86.0539517616824 138.01360162094727 57.00450895389578 H 0.0 **** 0.06
31064 H 86.95507235722033 138.121692778628 55.47340017664395 H 0.0 **** 0.06
31065 H 87.51588170885415 139.02419203456338 56.90184447931048 H 0.0 **** 0.06
31066 C 0.9621153901502453 36.98225902364888 119.27904410451764 C 0.0 **** -0.24
31067 H 1.389605871898226 37.95781927705592 119.50746193105967 H 0.0 **** 0.06
31068 H 0.6467288506171656 36.95790318046792 118.23540583779238 H 0.0 **** 0.06
31069 H 0.10133457869517315 36.80246909977933 119.92320841016208 H 0.0 **** 0.06
31070 H 1.711645691471432 36.208177541508775 119.44970143137222 H 0.0 **** 0.06
31071 C 133.240341093113 8.113912915502127 43.62376041492479 C 0.0 **** -0.24
31072 H 133.0909524003615 7.393257319011816 42.81981750837042 H 0.0 **** 0.06
31073 H 133.75662086985682 8.991523730504838 43.23317219221087 H 0.0 **** 0.06
31074 H 133.84041484123767 7.659053095714967 44.411057481205034 H 0.0 **** 0.06
31075 H 132.27351914150736 8.411089731995624 44.02888495729911 H 0.0 **** 0.06
31076 C 142.88283883375104 26.699128846792547 109.46933045544073 C 0.0 **** -0.24
31077 H 142.40240151296464 25.885894803211187 108.92726129557344 H 0.0 **** 0.06
31078 H 143.74889013415265 26.315110023533606 110.0091798670408 H 0.0 **** 0.06
31079 H 142.17511902124323 27.13143952666033 110.1774857006218 H 0.0 **** 0.06
31080 H 143.20518752205842 27.465639765334856 108.76408792328645 H 0.0 **** 0.06
31081 C 133.03553880162667 138.07677892719005 6.850174814877164 C 0.0 **** -0.24
31082 H 132.03603737240178 137.6545847219391 6.950915046313469 H 0.0 **** 0.06
31083 H 133.10637044062062 138.98843932812252 7.443296099188501 H 0.0 **** 0.06
31084 H 133.22852163049834 138.30822930075698 5.802189578634568 H 0.0 **** 0.06
31085 H 133.7717108881149 137.35465630035617 7.203153906017889 H 0.0 **** 0.06
31086 C 27.956396635852478 63.91205758495204 131.06627467475968 C 0.0 **** -0.24
31087 H 27.973903018605377 64.18058151311641 132.12341854304586 H 0.0 **** 0.06
31088 H 28.834619055805945 63.30975688116078 130.83010319001258 H 0.0 **** 0.06
31089 H 27.964168651831784 64.81825310329803 130.46138053667107 H 0.0 **** 0.06
31090 H 27.0542527164313 63.33972590268681 130.8522339376309 H 0.0 **** 0.06
31091 C 81.55715765260075 151.0060659942061 68.13517792503292 C 0.0 **** -0.24
31092 H 81.73360021946931 150.19970525415602 67.42242053999733 H 0.0 **** 0.06
31093 H 82.46251690750017 151.6041801812446 68.2388780315607 H 0.0 **** 0.06
31094 H 81.28746956440197 150.58268665054314 69.1027552812643 H 0.0 **** 0.06
31095 H 80.74363548967445 151.6359098755164 67.77574081770905 H 0.0 **** 0.06
31096 C 84.34997759998991 10.940975518445804 66.49792824844396 C 0.0 **** -0.24
31097 H 84.21446219835941 11.511330356756666 67.41669622551242 H 0.0 **** 0.06
31098 H 85.38271946144032 11.03486532599193 66.16093025150472 H 0.0 **** 0.06
31099 H 83.67950362334223 11.326880168967449 65.72904206142675 H 0.0 **** 0.06
31100 H 84.12141523983361 9.89184439621318 66.68421510048627 H 0.0 **** 0.06
31101 C 66.05520063186928 44.28444689931786 59.27238819617119 C 0.0 **** -0.24
31102 H 66.2149625756473 43.20900432350234 59.2023237761796 H 0.0 **** 0.06
31103 H 65.44563168539845 44.61664653477135 58.43153814968238 H 0.0 **** 0.06
31104 H 67.01630782889383 44.79765189900826 59.24859237288193 H 0.0 **** 0.06
31105 H 65.54269872627805 44.51519977894645 60.20688678465048 H 0.0 **** 0.06
31106 C 103.10638187586471 81.36259934792025 25.746900283310033 C 0.0 **** -0.24
31107 H 102.32403345705688 80.80623683049924 25.23012916371963 H 0.0 **** 0.06
31108 H 103.62278126921746 82.00669285805043 25.035415303925603 H 0.0 **** 0.06
31109 H 103.81816139584066 80.66355055195325 26.18672909990712 H 0.0 **** 0.06
31110 H 102.6600706839343 81.97114481568332 26.532861082036952 H 0.0 **** 0.06
31111 C 146.9140563857042 76.13176275894799 100.09928314447559 C 0.0 **** -0.24
31112 H 145.84147718362158 76.31941774004719 100.14878197295006 H 0.0 **** 0.06
31113 H 147.30802719038607 76.52507984065574 99.16168761415503 H 0.0 **** 0.06
31114 H 147.09650614744365 75.05825624823058 100.14861394732905 H 0.0 **** 0.06
31115 H 147.40778610960825 76.6231656506248 100.93669987294108 H 0.0 **** 0.06
31116 C 66.26470674126494 48.00974192744752 45.31743318434383 C 0.0 **** -0.24
31117 H 65.94208451338221 48.79175731744391 44.62943062072526 H 0.0 **** 0.06
31118 H 65.45792303990089 47.28822964428345 45.450398555565016 H 0.0 **** 0.06
31119 H 66.51662814058602 48.455331805008356 46.279771971321736 H 0.0 **** 0.06
31120 H 67.14011640805049 47.50553111337949 44.90974090035425 H 0.0 **** 0.06
31121 C 58.13438843638751 45.3742423612191 13.321905719647816 C 0.0 **** -0.24
31122 H 57.76218898703155 45.60614604747309 14.319821007994022 H 0.0 **** 0.06
31123 H 57.31042389798175 45.02339481563115 12.699685384865035 H 0.0 **** 0.06
31124 H 58.89608653047915 44.59663700582678 13.389983916730785 H 0.0 **** 0.06
31125 H 58.56891403564508 46.27046105984448 12.879506344619443 H 0.0 **** 0.06
31126 C 123.49355574156381 100.48653299720449 35.84767830512067 C 0.0 **** -0.24
31127 H 123.46500436120603 101.10302471597238 34.94948933014723 H 0.0 **** 0.06
31128 H 124.26662810319301 100.8601265773204 36.520121368623336 H 0.0 **** 0.06
31129 H 123.71778998770206 99.45545106343968 35.573843082085546 H 0.0 **** 0.06
31130 H 122.52639873156541 100.52799951714921 36.34773378842539 H 0.0 **** 0.06
31131 C 54.4790066803165 80.88739215145777 37.863678516544155 C 0.0 **** -0.24
31132 H 54.55484766465747 80.37301747073379 36.90523679615569 H 0.0 **** 0.06
31133 H 53.95889503672103 81.83554816256029 37.72648254149021 H 0.0 **** 0.06
31134 H 55.4790265274014 81.07387544675211 38.255586626976594 H 0.0 **** 0.06
31135 H 53.92343933373587 80.26507390480558 38.5654716524765 H 0.0 **** 0.06
31136 C 90.77326026666223 139.85354956281355 12.971835390706502 C 0.0 **** -0.24
31137 H 91.17097293197634 139.91062422810214 11.958437246108957 H 0.0 **** 0.06
31138 H 90.35638141544494 138.86006886092727 13.142425096531724 H 0.0 **** 0.06
31139 H 89.9906321060081 140.60236983790304 13.097414283592165 H 0.0 **** 0.06
31140 H 91.57291953400969 140.04029979907943 13.688202654948967 H 0.0 **** 0.06
31141 C 140.15827417518332 80.1479755512234 82.42022415379633 C 0.0 **** -0.24
31142 H 140.85659869245393 80.94642037373114 82.67361801054389 H 0.0 **** 0.06
31143 H 139.378820885456 80.09291562536475 83.18029299980415 H 0.0 **** 0.06
31144 H 140.69309758400968 79.19840642472502 82.37945519476114 H 0.0 **** 0.06
31145 H 139.70689610600851 80.35328727987002 81.45033624574077 H 0.0 **** 0.06
31146 C 20.956671488837912 46.83835620500571 25.24050029551698 C 0.0 **** -0.24
31147 H 21.33958615080732 46.64242851915776 26.242477043170325 H 0.0 **** 0.06
31148 H 20.818191853404983 45.89398878603569 24.713960416250323 H 0.0 **** 0.06
31149 H 21.66787920029512 47.458336550286106 24.695154884658308 H 0.0 **** 0.06
31150 H 20.00146108915709 47.358481235235075 25.312352344246406 H 0.0 **** 0.06
31151 C 51.399629645074285 120.24771614280678 22.208159426334873 C 0.0 **** -0.24
31152 H 50.56703467784136 119.56313130801209 22.045842146499183 H 0.0 **** 0.06
31153 H 52.09681379752786 120.17516278392515 21.37286189272504 H 0.0 **** 0.06
31154 H 51.911767509235375 119.98261416566083 23.13329964930142 H 0.0 **** 0.06
31155 H 51.022163965264156 121.26691391809948 22.280188393621756 H 0.0 **** 0.06
31156 C 47.942134029421396 110.06606699877591 1.6094722964575396 C 0.0 **** -0.24
31157 H 48.18801962459709 110.38221619732263 0.5961615838299679 H 0.0 **** 0.06
31158 H 48.378745474152936 110.76518145126767 2.3239015476541454 H 0.0 **** 0.06
31159 H 48.34213680914131 109.067502273505 1.786542760607773 H 0.0 **** 0.06
31160 H 46.859431116761954 110.05105588037787 1.7323369491391247 H 0.0 **** 0.06
31161 C 135.53288118528775 42.443491935233695 73.75746595847808 C 0.0 **** -0.24
31162 H 135.83243342381124 42.68671848619924 72.73854793466687 H 0.0 **** 0.06
31163 H 134.8027629076902 43.174376581272455 74.1058186858255 H 0.0 **** 0.06
31164 H 136.40724105824853 42.46353862195531 74.40776481592479 H 0.0 **** 0.06
31165 H 135.0881835488557 41.448373164137266 73.77722259212055 H 0.0 **** 0.06
31166 C 14.127820830987382 104.83604241150529 4.573512166854243 C 0.0 **** -0.24
31167 H 13.46472112997742 104.0422029644471 4.916169960669151 H 0.0 **** 0.06
31168 H 15.16181288740406 104.56137303004441 4.784864637077646 H 0.0 **** 0.06
31169 H 13.883294251656409 105.7623992333837 5.094288986004017 H 0.0 **** 0.06
31170 H 14.001022306312848 104.97784193708837 3.5000245261825853 H 0.0 **** 0.06
31171 C 147.35373267755335 123.38042134779501 24.405352233863567 C 0.0 **** -0.24
31172 H 147.23100640863694 124.44105516065976 24.186533034501764 H 0.0 **** 0.06
31173 H 146.51974572427574 123.03720759929912 25.017514593627254 H 0.0 **** 0.06
31174 H 148.28823798336975 123.22695690093691 24.944340307803316 H 0.0 **** 0.06
31175 H 147.37653707382177 122.81821154818492 23.471409625296474 H 0.0 **** 0.06
31176 C 135.9975612431439 13.885130284133993 156.81410872017432 C 0.0 **** -0.24
31177 H 136.12016508854768 14.627741506959921 156.02551468706594 H 0.0 **** 0.06
31178 H 136.9309090167264 13.337804197838693 156.94526036311765 H 0.0 **** 0.06
31179 H 135.20283780462506 13.19173566009232 156.54071853959948 H 0.0 **** 0.06
31180 H 135.7370575623641 14.38673743613856 157.74700090171257 H 0.0 **** 0.06
31181 C 123.32244767278895 143.11007629183516 10.584387581576294 C 0.0 **** -0.24
31182 H 123.02967537118225 142.35712372170494 11.31593557609699 H 0.0 **** 0.06
31183 H 122.74698316110546 142.96992346913993 9.669326133163906 H 0.0 **** 0.06
31184 H 124.38531909966174 143.0098384561389 10.36512662273725 H 0.0 **** 0.06
31185 H 123.12674252349377 144.10361888815294 10.989115035145801 H 0.0 **** 0.06
31186 C 19.439982586137603 137.7212752674993 28.6958491751692 C 0.0 **** -0.24
31187 H 19.30406916533849 137.64361311711468 29.775245697437867 H 0.0 **** 0.06
31188 H 19.211439222435388 136.76184222787512 28.231253802380706 H 0.0 **** 0.06
31189 H 20.47189361281687 137.995121279234 28.478500072501845 H 0.0 **** 0.06
31190 H 18.769793912871876 138.485791089196 28.300376755647733 H 0.0 **** 0.06
31191 C 138.28143681500904 81.43374625632774 60.32384237151197 C 0.0 **** -0.24
31192 H 138.6970654477778 81.60772026572124 61.31679029696204 H 0.0 **** 0.06
31193 H 138.52216089793424 82.2769434482158 59.676652235444436 H 0.0 **** 0.06
31194 H 137.19873800560836 81.3288788561125 60.397861338214 H 0.0 **** 0.06
31195 H 138.70787542130776 80.5212400590005 59.90737482004806 H 0.0 **** 0.06
31196 C 78.92566578945004 17.31732637954778 54.40911864404984 C 0.0 **** -0.24
31197 H 78.02728491134526 16.776604107173995 54.70602919882751 H 0.0 **** 0.06
31198 H 78.69283101322337 17.977367183275206 53.57264639547178 H 0.0 **** 0.06
31199 H 79.69485511037374 16.60621457634508 54.10911958086854 H 0.0 **** 0.06
31200 H 79.28775698115037 17.910304130662865 55.24994150242178 H 0.0 **** 0.06
31201 C 142.70682294224835 144.71833150377492 86.9927156895223 C 0.0 **** -0.24
31202 H 143.37049617707677 144.27324542641193 86.25092332266328 H 0.0 **** 0.06
31203 H 142.74363350100862 145.80466387456744 86.90704972725072 H 0.0 **** 0.06
31204 H 143.02667120527278 144.41992778822512 87.99096664701302 H 0.0 **** 0.06
31205 H 141.68735625399188 144.37420559277672 86.81916543188825 H 0.0 **** 0.06
31206 C 104.43435297299277 73.29772469893476 116.39336195696454 C 0.0 **** -0.24
31207 H 105.23406403874742 72.60305759795575 116.13595273107192 H 0.0 **** 0.06
31208 H 104.74606721554704 73.91443248926811 117.23650038707673 H 0.0 **** 0.06
31209 H 103.53870751746774 72.73855190521738 116.66340392641992 H 0.0 **** 0.06
31210 H 104.21857614824359 73.93645616033862 115.53573545496685 H 0.0 **** 0.06
31211 C 47.17850626786236 1.1887339616423276 30.859305920885433 C 0.0 **** -0.24
31212 H 46.23747996069574 1.197901958458914 31.410394069480766 H 0.0 **** 0.06
31213 H 47.62501249107822 0.19584904507576084 30.919475922933785 H 0.0 **** 0.06
31214 H 47.85988716461077 1.920657865531524 31.291688975536594 H 0.0 **** 0.06
31215 H 46.98967957487304 1.4395818602980341 29.81517254561122 H 0.0 **** 0.06
31216 C 84.91655357944751 126.38733916456029 111.75836878976004 C 0.0 **** -0.24
31217 H 83.95080168178646 126.54323017910745 112.23894545304667 H 0.0 **** 0.06
31218 H 85.29709207492249 127.34112903969243 111.3898690330385 H 0.0 **** 0.06
31219 H 84.79985198381314 125.6956530725456 110.92392120789738 H 0.0 **** 0.06
31220 H 85.61873450543834 125.97140189127417 112.47990517590542 H 0.0 **** 0.06
31221 C 112.89355229083152 6.422495580592269 37.973138761420444 C 0.0 **** -0.24
31222 H 112.89414485008338 7.172717915894374 37.18276242771228 H 0.0 **** 0.06
31223 H 113.14510707923459 5.449874917890142 37.55110335694839 H 0.0 **** 0.06
31224 H 111.90455407668175 6.375633478801134 38.429694528215535 H 0.0 **** 0.06
31225 H 113.63063258015823 6.692981995425605 38.729661358239184 H 0.0 **** 0.06
31226 C 32.15606840768305 52.27873489519504 15.944650390872312 C 0.0 **** -0.24
31227 H 32.89400103549963 52.80510149997161 16.549820033702645 H 0.0 **** 0.06
31228 H 31.630630801862935 51.551384966118974 16.56295860865208 H 0.0 **** 0.06
31229 H 32.65922063461926 51.76400714449787 15.125369675765029 H 0.0 **** 0.06
31230 H 31.442155397209092 52.99508693543184 15.539195571613135 H 0.0 **** 0.06
31231 C 13.45161315485413 118.2517317616328 136.16033873073388 C 0.0 **** -0.24
31232 H 13.90200303028216 118.68730967833007 137.0520654256271 H 0.0 **** 0.06
31233 H 13.289163252007164 119.03253264411372 135.41750047525932 H 0.0 **** 0.06
31234 H 12.49718836017938 117.793789815473 136.42214627727907 H 0.0 **** 0.06
31235 H 14.118702519911864 117.49227761390536 135.75090755184203 H 0.0 **** 0.06
31236 C 24.64220294123661 24.649547734824694 35.281108106217005 C 0.0 **** -0.24
31237 H 24.679013592575757 23.715769060584222 35.84224537716085 H 0.0 **** 0.06
31238 H 23.96593488055082 25.346188549567614 35.77771438309588 H 0.0 **** 0.06
31239 H 24.28301039560874 24.45153411702961 34.27094771730961 H 0.0 **** 0.06
31240 H 25.641152518256064 25.083519236022568 35.232805261158376 H 0.0 **** 0.06
31241 C 141.36121098678132 19.177132772756465 84.22154613013186 C 0.0 **** -0.24
31242 H 141.7245330265968 19.028696993867186 83.20449716548328 H 0.0 **** 0.06
31243 H 141.0249933082747 20.20760809368096 84.33945702957615 H 0.0 **** 0.06
31244 H 142.16614523654806 18.97370918143733 84.92786076941672 H 0.0 **** 0.06
31245 H 140.52876343553788 18.499655405992627 84.41248898239667 H 0.0 **** 0.06
31246 C 65.1186236814237 93.4920992738069 97.48163557245113 C 0.0 **** -0.24
31247 H 66.17537793560184 93.37853821680201 97.72065640810774 H 0.0 **** 0.06
31248 H 64.51682029234225 93.05520801924975 98.27837604149033 H 0.0 **** 0.06
31249 H 64.902216121422 92.98314123769734 96.54120257241419 H 0.0 **** 0.06
31250 H 64.87953847940581 94.55144458916487 97.38391931598773 H 0.0 **** 0.06
31251 C 152.48789974359406 94.85313797382423 32.105049837562355 C 0.0 **** -0.24
31252 H 152.98602597616642 94.98752814898641 31.14520131373309 H 0.0 **** 0.06
31253 H 151.56646960439986 94.28777837957304 31.960541201528173 H 0.0 **** 0.06
31254 H 152.25257167422225 95.8284826462057 32.530891519573096 H 0.0 **** 0.06
31255 H 153.145801840948 94.30997233577479 32.78350071483832 H 0.0 **** 0.06
31256 C 38.56574150335287 41.04305345118293 75.05767852739561 C 0.0 **** -0.24
31257 H 38.52227773752858 40.410282869462975 75.94478393274028 H 0.0 **** 0.06
31258 H 39.60665474323464 41.25556089806223 74.81477346606445 H 0.0 **** 0.06
31259 H 38.03842445675252 41.97629467771188 75.25217576435094 H 0.0 **** 0.06
31260 H 38.094705209384074 40.526714318106514 74.22119159779223 H 0.0 **** 0.06
31261 C 54.82028843711895 156.0390405387385 139.08150999831565 C 0.0 **** -0.24
31262 H 55.073160728068075 155.82650625045142 138.0426161336482 H 0.0 **** 0.06
31263 H 54.194461748928305 155.2375792839489 139.47403195123752 H 0.0 **** 0.06
31264 H 54.28016899829048 156.98432388905655 139.13814093790228 H 0.0 **** 0.06
31265 H 55.73495577083298 156.10709759027554 139.67107305789153 H 0.0 **** 0.06
31266 C 28.969857329041297 138.57067901025084 123.40788907755145 C 0.0 **** -0.24
31267 H 28.706991728591447 137.55833743327696 123.10085995531442 H 0.0 **** 0.06
31268 H 30.026351151001144 138.6075572299875 123.67128314262312 H 0.0 **** 0.06
31269 H 28.369180961073745 138.85608259629737 124.2714916274971 H 0.0 **** 0.06
31270 H 28.77538840376917 139.26105577831555 122.58665741051585 H 0.0 **** 0.06
31271 C 18.930751756563303 23.59111569826078 11.958876359727071 C 0.0 **** -0.24
31272 H 19.589932105777606 22.765850038777046 11.689919999674686 H 0.0 **** 0.06
31273 H 18.016486402588257 23.53449164454065 11.367498076940336 H 0.0 **** 0.06
31274 H 19.433906225194008 24.53770878533851 11.759924603074467 H 0.0 **** 0.06
31275 H 18.68315264368605 23.527199952328147 13.018560810370388 H 0.0 **** 0.06
31276 C 118.97057629434424 53.03866062881666 32.65175424511676 C 0.0 **** -0.24
31277 H 118.75552590893354 53.13138901112799 33.716340292710015 H 0.0 **** 0.06
31278 H 119.81331622168817 53.68137074929743 32.39562768943449 H 0.0 **** 0.06
31279 H 118.09516626958494 53.33984165445895 32.07676908440442 H 0.0 **** 0.06
31280 H 119.22012709226912 52.002708410321915 32.41976478407446 H 0.0 **** 0.06
31281 C 81.95295191238276 37.966937795795104 131.53057950167477 C 0.0 **** -0.24
31282 H 81.44815807186313 37.06136464182538 131.19303226685028 H 0.0 **** 0.06
31283 H 82.1703128958207 38.60229026476733 130.6719240890968 H 0.0 **** 0.06
31284 H 82.88439383122628 37.698530049244994 132.0302683488365 H 0.0 **** 0.06
31285 H 81.30889968064221 38.50337149860849 132.22666731496298 H 0.0 **** 0.06
31286 C 9.451000746991056 29.088207778114963 93.861396665374 C 0.0 **** -0.24
31287 H 9.651283588859528 28.86163567617396 92.81351710052449 H 0.0 **** 0.06
31288 H 9.217553619913623 30.148203808075493 93.9658885591588 H 0.0 **** 0.06
31289 H 10.330802084613502 28.848545941547087 94.45923987859763 H 0.0 **** 0.06
31290 H 8.604714979557762 28.494334212559806 94.20524870777082 H 0.0 **** 0.06
31291 C 28.786180945161156 8.420051830433415 22.677507061292516 C 0.0 **** -0.24
31292 H 28.22998890420019 7.483435901368537 22.62719086571849 H 0.0 **** 0.06
31293 H 28.70858947607971 8.83461042489293 23.682798769901126 H 0.0 **** 0.06
31294 H 28.372004688672362 9.126867697482645 21.958919550914857 H 0.0 **** 0.06
31295 H 29.834390486283553 8.233071573060514 22.44107766127604 H 0.0 **** 0.06
31296 C 83.63355257205765 87.87752988348153 37.86525668897076 C 0.0 **** -0.24
31297 H 82.64097536018738 88.29515807996295 37.697167927580836 H 0.0 **** 0.06
31298 H 84.08668159038149 87.62023267880717 36.90754121281725 H 0.0 **** 0.06
31299 H 83.55122038510582 86.98290965113361 38.481046152947215 H 0.0 **** 0.06
31300 H 84.2558214141221 88.6134637853888 38.37503357193856 H 0.0 **** 0.06
31301 C 127.06832216197078 135.91941961386783 142.1640095044994 C 0.0 **** -0.24
31302 H 127.87196830639375 135.20573407891928 142.3471529549566 H 0.0 **** 0.06
31303 H 126.45005575755097 135.56598985557036 141.33886301573574 H 0.0 **** 0.06
31304 H 127.49557641857312 136.88881343289066 141.90996412892437 H 0.0 **** 0.06
31305 H 126.45766728650851 136.01555734012123 143.06194872439053 H 0.0 **** 0.06
31306 C 74.9331908843568 36.19221823708841 15.462321836415128 C 0.0 **** -0.24
31307 H 74.15761807070041 36.948287915803405 15.339565465236973 H 0.0 **** 0.06
31308 H 74.53920584153002 35.21730981018973 15.175691399578767 H 0.0 **** 0.06
31309 H 75.25174173759673 36.164319950067664 16.5039415760439 H 0.0 **** 0.06
31310 H 75.7857699778417 36.44031320138859 14.829261424534877 H 0.0 **** 0.06
31311 C 115.15345117953645 46.455185205301404 68.04781295207505 C 0.0 **** -0.24
31312 H 116.15255298023597 46.83901548516688 68.25478538455144 H 0.0 **** 0.06
31313 H 114.6345268568406 47.13745019100581 67.37558035775072 H 0.0 **** 0.06
31314 H 114.59687337170188 46.369603391759426 68.98156002536246 H 0.0 **** 0.06
31315 H 115.23215066524294 45.473260767809606 67.58097629145834 H 0.0 **** 0.06
31316 C 79.1588084469761 141.52936328688736 141.30889522327243 C 0.0 **** -0.24
31317 H 78.82150292173237 142.35140836981446 140.67661793079725 H 0.0 **** 0.06
31318 H 79.12369893099698 140.5981263250225 140.741292549421 H 0.0 **** 0.06
31319 H 78.50680216689277 141.44920455428613 142.17849170869314 H 0.0 **** 0.06
31320 H 80.180666118775 141.71717847958513 141.63600525044 H 0.0 **** 0.06
31321 C 71.96425881776055 109.72662186663773 134.66733624695516 C 0.0 **** -0.24
31322 H 71.73708421702018 109.68224932006432 135.7319805136161 H 0.0 **** 0.06
31323 H 71.53076756817535 110.63171730911152 134.24114817971738 H 0.0 **** 0.06
31324 H 71.5450299969397 108.85221465830632 134.16929316631803 H 0.0 **** 0.06
31325 H 73.04532910918384 109.74104316336467 134.52664956608925 H 0.0 **** 0.06
31326 C 44.17217460745391 42.08552829109016 120.61477056796616 C 0.0 **** -0.24
31327 H 44.40740224322832 43.06485476487018 121.03010326533303 H 0.0 **** 0.06
31328 H 43.67831245266632 42.2091222353244 119.65046490517972 H 0.0 **** 0.06
31329 H 43.51121126592324 41.55068226461472 121.2960721368135 H 0.0 **** 0.06
31330 H 45.093638403007674 41.5172637018573 120.48122447773198 H 0.0 **** 0.06
31331 C 31.17776171783084 54.247906144167786 0.008136012273155302 C 0.0 **** -0.24
31332 H 31.849784997183406 53.38986613977028 -0.024000559845717362 H 0.0 **** 0.06
31333 H 31.12299673406651 54.627510779013505 1.0287974708975298 H 0.0 **** 0.06
31334 H 30.184139851363717 53.94412731140494 -0.32116882406208447 H 0.0 **** 0.06
31335 H 31.556462445425908 55.02993361336169 -0.6503747956794825 H 0.0 **** 0.06
31336 C 65.65830403759547 33.65613458440964 3.6177189108015284 C 0.0 **** -0.24
31337 H 65.40676520397034 33.624936235366135 2.5573705883462488 H 0.0 **** 0.06
31338 H 65.74312517375122 34.69384284766727 3.940078339541138 H 0.0 **** 0.06
31339 H 66.60856341396158 33.14599760405417 3.7801722871656764 H 0.0 **** 0.06
31340 H 64.87631149909335 33.158904234269414 4.19083259118397 H 0.0 **** 0.06
31341 C 154.34259004192177 41.15498840366581 90.36402797471837 C 0.0 **** -0.24
31342 H 154.66332711652018 40.6287906583609 89.46523082502523 H 0.0 **** 0.06
31343 H 153.67352665112543 41.97052188204967 90.08825448389577 H 0.0 **** 0.06
31344 H 155.21471496107193 41.55784948666586 90.87988529388835 H 0.0 **** 0.06
31345 H 153.81911672170082 40.46154539974802 91.02332548106448 H 0.0 **** 0.06
31346 C 154.6862784723292 125.16054564634665 156.1231422705094 C 0.0 **** -0.24
31347 H 154.89054545851417 124.11352232677139 156.34984665777156 H 0.0 **** 0.06
31348 H 153.85347675114565 125.22475868471075 155.42343617299474 H 0.0 **** 0.06
31349 H 155.57124621395172 125.61418295137231 155.67807494048066 H 0.0 **** 0.06
31350 H 154.43110181024247 125.68749543183473 157.04242756813292 H 0.0 **** 0.06
31351 C 115.82807770401877 96.41384607202562 104.01842453269266 C 0.0 **** -0.24
31352 H 116.20507664948161 95.40562776768408 103.84660102231614 H 0.0 **** 0.06
31353 H 114.98224718145616 96.37227780443756 104.7063253619849 H 0.0 **** 0.06
31354 H 115.50594639263892 96.84763557040816 103.07180330001397 H 0.0 **** 0.06
31355 H 116.61794623481109 97.02774187029836 104.44959071550734 H 0.0 **** 0.06
31356 C 13.16883624142082 42.48378139738384 33.358861839738665 C 0.0 **** -0.24
31357 H 13.189370241343369 43.367695532747234 32.72181646511274 H 0.0 **** 0.06
31358 H 12.663394643479023 42.72269552023789 34.2949689534297 H 0.0 **** 0.06
31359 H 14.189664313217378 42.16463895794476 33.5683226067614 H 0.0 **** 0.06
31360 H 12.633414035503222 41.68249380866865 32.85031891301895 H 0.0 **** 0.06
31361 C 146.1257731039891 83.5191439733826 36.68321547653993 C 0.0 **** -0.24
31362 H 146.8425486865294 83.08743837782795 37.382065766651976 H 0.0 **** 0.06
31363 H 145.62306677711922 84.36423979870149 37.15546448413993 H 0.0 **** 0.06
31364 H 145.38836446722073 82.7653901830766 36.406317638122005 H 0.0 **** 0.06
31365 H 146.64930829482208 83.86076983272231 35.79084934365868 H 0.0 **** 0.06
31366 C 4.1022592451152065 112.84953099703266 114.10339583262653 C 0.0 **** -0.24
31367 H 3.582682413920523 113.63301895107001 113.55106872057776 H 0.0 **** 0.06
31368 H 4.908064674987166 112.44670971642616 113.48914643557553 H 0.0 **** 0.06
31369 H 3.400166923590774 112.05289859641316 114.35057163913528 H 0.0 **** 0.06
31370 H 4.517377213836248 113.26606516189172 115.02076653715197 H 0.0 **** 0.06
31371 C 29.27994310405542 138.62320397097773 143.59102605852203 C 0.0 **** -0.24
31372 H 28.212894518525502 138.44997313312757 143.44529644408328 H 0.0 **** 0.06
31373 H 29.741774389655404 137.7226642963368 143.99689901658883 H 0.0 **** 0.06
31374 H 29.421632714658934 139.4498347330296 144.28803778361464 H 0.0 **** 0.06
31375 H 29.740416978837175 138.87028640691102 142.63516377354998 H 0.0 **** 0.06
31376 C 99.56861812937348 35.133037153494456 25.696934892420416 C 0.0 **** -0.24
31377 H 100.25431963034919 34.2983859883434 25.550174666950397 H 0.0 **** 0.06
31378 H 99.9059221812634 35.7368216260478 26.539883873129895 H 0.0 **** 0.06
31379 H 98.56920572155983 34.74967178804383 25.90087724569304 H 0.0 **** 0.06
31380 H 99.54578083034744 35.746668237981226 24.796543860625945 H 0.0 **** 0.06
31381 C 29.512593300886124 92.3423586810136 135.37189751910694 C 0.0 **** -0.24
31382 H 29.039614402723373 91.36069876573757 135.37899831859747 H 0.0 **** 0.06
31383 H 28.997316325062855 92.9893072702273 134.66204202174322 H 0.0 **** 0.06
31384 H 30.557379324608632 92.24023336090922 135.07848270248712 H 0.0 **** 0.06
31385 H 29.457053881845184 92.77966471509538 136.36896044994938 H 0.0 **** 0.06
31386 C 152.94626020773765 119.8133149831005 106.35308119101738 C 0.0 **** -0.24
31387 H 152.72873211111855 120.86057454403118 106.56369130682607 H 0.0 **** 0.06
31388 H 152.76423170670716 119.61018124880627 105.29755525771098 H 0.0 **** 0.06
31389 H 152.30040871887476 119.18006302094773 106.96134961736855 H 0.0 **** 0.06
31390 H 153.98903581170978 119.60431605820003 106.59047356221707 H 0.0 **** 0.06
31391 C 13.332333686648518 154.21101428784817 130.49079890875544 C 0.0 **** -0.24
31392 H 13.79143813261657 155.0793803612603 130.01809905985778 H 0.0 **** 0.06
31393 H 12.24719149344952 154.28989325173023 130.4194811358489 H 0.0 **** 0.06
31394 H 13.625537134502835 154.17149997363214 131.54013919953934 H 0.0 **** 0.06
31395 H 13.664820328458411 153.30416144664628 129.98580561824645 H 0.0 **** 0.06
31396 C 59.38790901128266 113.5735998836036 139.89943656505426 C 0.0 **** -0.24
31397 H 58.89169521608767 114.54465950811198 139.882383973447 H 0.0 **** 0.06
31398 H 60.46377538445165 113.71813990134922 139.99743349134732 H 0.0 **** 0.06
31399 H 59.17553353799977 113.04131038886396 138.97211017596004 H 0.0 **** 0.06
31400 H 59.0198448549703 112.99233869130552 140.74377347271667 H 0.0 **** 0.06
31401 C 122.77524231756841 4.221386836470842 8.204822485846876 C 0.0 **** -0.24
31402 H 123.81714525712515 4.451621226339697 8.426351369830286 H 0.0 **** 0.06
31403 H 122.22764900869736 5.147447050800686 8.030530462174568 H 0.0 **** 0.06
31404 H 122.33347976608361 3.6899418054240414 9.048860257228796 H 0.0 **** 0.06
31405 H 122.72335397666835 3.594537091785 7.314799082743434 H 0.0 **** 0.06
31406 C 114.32808463653303 15.312667939214805 151.3872556116862 C 0.0 **** -0.24
31407 H 113.66037454019532 15.086030296405966 150.5557970793893 H 0.0 **** 0.06
31408 H 113.79953088296851 15.161464459901623 152.32885272957176 H 0.0 **** 0.06
31409 H 114.6563251125806 16.349717899197373 151.31671311151052 H 0.0 **** 0.06
31410 H 115.19492654070326 14.65415021831626 151.34730378503417 H 0.0 **** 0.06
31411 C 63.28918147525951 116.39405779203526 85.46700885797298 C 0.0 **** -0.24
31412 H 63.30652524396983 117.42532949839853 85.1123560965516 H 0.0 **** 0.06
31413 H 62.2915378239954 116.1544915892024 85.8362294967859 H 0.0 **** 0.06
31414 H 64.0138540684269 116.27462843293262 86.27176030863745 H 0.0 **** 0.06
31415 H 63.54315026972351 115.72389434072687 84.64574369322776 H 0.0 **** 0.06
31416 C 119.91472803942132 111.46102525302807 126.17131292138009 C 0.0 **** -0.24
31417 H 119.69870335039683 110.51006362856062 125.68447209467718 H 0.0 **** 0.06
31418 H 119.17239565019379 111.64789111299628 126.94723330579853 H 0.0 **** 0.06
31419 H 119.87887949636801 112.26287758892342 125.4335938713354 H 0.0 **** 0.06
31420 H 120.90751661369937 111.42249840574995 126.61932094681634 H 0.0 **** 0.06
31421 C 134.95012131576578 148.63129907098568 64.16757075247654 C 0.0 **** -0.24
31422 H 135.37880234318635 147.63589398252032 64.04707182825038 H 0.0 **** 0.06
31423 H 135.6580766640442 149.27119882823348 64.69423496695316 H 0.0 **** 0.06
31424 H 134.0258499664659 148.56075657843388 64.7418798440413 H 0.0 **** 0.06
31425 H 134.73682843597084 149.05542142567361 63.186439240810216 H 0.0 **** 0.06
31426 C 22.84724585170369 138.87426022119172 25.644724575784693 C 0.0 **** -0.24
31427 H 21.761708999023085 138.97379475757617 25.674344223223244 H 0.0 **** 0.06
31428 H 23.117830849686015 138.05215736739967 24.98113632199221 H 0.0 **** 0.06
31429 H 23.22040337665851 138.6700622737369 26.647981427362453 H 0.0 **** 0.06
31430 H 23.286837522065525 139.8007412112193 25.27440332271189 H 0.0 **** 0.06
31431 C 108.30480655552594 153.82707030216898 129.91249179095684 C 0.0 **** -0.24
31432 H 108.17282222671167 152.80031658898048 130.25374920169764 H 0.0 **** 0.06
31433 H 107.32918034479366 154.29775952670713 129.79226777650663 H 0.0 **** 0.06
31434 H 108.82901625176208 153.82654962348465 128.95565394314832 H 0.0 **** 0.06
31435 H 108.88954969965783 154.38183278870628 130.6458721093801 H 0.0 **** 0.06
31436 C 54.383316628864605 133.24295778111502 112.16380992364826 C 0.0 **** -0.24
31437 H 54.36339014482692 134.30885560163338 111.9316967665737 H 0.0 **** 0.06
31438 H 54.340763358041485 132.66936357983383 111.23798565402852 H 0.0 **** 0.06
31439 H 53.525843062402586 132.9919964922768 112.78840274600397 H 0.0 **** 0.06
31440 H 55.30341536659307 133.0058703075663 112.69809029809456 H 0.0 **** 0.06
31441 C 77.89898850923981 12.842685694826343 155.06036799855792 C 0.0 **** -0.24
31442 H 77.35625631427072 13.308311559110379 154.23728719223664 H 0.0 **** 0.06
31443 H 78.11572663873702 11.803205370641187 154.80945967599732 H 0.0 **** 0.06
31444 H 77.29100919097499 12.880256085939237 155.9640843666714 H 0.0 **** 0.06
31445 H 78.8336629706867 13.37852789977584 155.22742927922542 H 0.0 **** 0.06
31446 C 126.8652430643665 46.2094462050635 62.57821228999097 C 0.0 **** -0.24
31447 H 127.43871891177218 45.822913801927655 63.4202828338461 H 0.0 **** 0.06
31448 H 126.49087947339939 45.3776066433969 61.98079991490059 H 0.0 **** 0.06
31449 H 127.50420512840037 46.84105512095819 61.96172603575235 H 0.0 **** 0.06
31450 H 126.0250466035128 46.796805479089784 62.95041613943147 H 0.0 **** 0.06
31451 C 106.50585147991019 66.30659901148601 50.38243422561703 C 0.0 **** -0.24
31452 H 106.19237584199017 67.18633942593215 50.94521173546353 H 0.0 **** 0.06
31453 H 105.8199495473779 65.48351391482682 50.58445688412927 H 0.0 **** 0.06
31454 H 107.51453781369555 66.0238406692385 50.683577498027645 H 0.0 **** 0.06
31455 H 106.4950946719005 66.53545245276682 49.317072763735624 H 0.0 **** 0.06
31456 C 89.55643165038411 62.40876127420023 48.792232661728505 C 0.0 **** -0.24
31457 H 89.98755631290635 62.222745292497365 47.80782558262837 H 0.0 **** 0.06
31458 H 89.66747643299696 63.46298533183773 49.04400504163034 H 0.0 **** 0.06
31459 H 90.07231098853116 61.80078044741563 49.53497654239689 H 0.0 **** 0.06
31460 H 88.49786374467939 62.146404853672095 48.780074716216404 H 0.0 **** 0.06
31461 C 138.429726111931 97.03414687427134 126.84573455726012 C 0.0 **** -0.24
31462 H 137.9221156823366 96.80864245466213 127.7843186631281 H 0.0 **** 0.06
31463 H 138.98264505339475 97.9679215583822 126.94769117960998 H 0.0 **** 0.06
31464 H 137.69282309349092 97.1327766131101 126.04900137185747 H 0.0 **** 0.06
31465 H 139.12075246527914 96.22692286552387 126.60428761134183 H 0.0 **** 0.06
31466 C 75.77937174080375 88.47219684039607 60.57219062789949 C 0.0 **** -0.24
31467 H 76.03483200351741 88.03793005570157 59.6052215952198 H 0.0 **** 0.06
31468 H 76.5976124467104 89.1068820340196 60.91264844940244 H 0.0 **** 0.06
31469 H 75.6119702839822 87.67461611785154 61.29558843929378 H 0.0 **** 0.06
31470 H 74.87281784490784 89.06985597904463 60.473138706373874 H 0.0 **** 0.06
31471 C 130.99080711301966 137.69631944064201 144.26051811208725 C 0.0 **** -0.24
31472 H 130.0960280515389 137.0925009638205 144.107863720845 H 0.0 **** 0.06
31473 H 131.10252727758692 138.395370847484 143.43109455389128 H 0.0 **** 0.06
31474 H 131.86485849709976 137.04642407093922 144.30960862280784 H 0.0 **** 0.06
31475 H 130.8979029381098 138.2514515232662 145.19456623371138 H 0.0 **** 0.06
31476 C 72.10026226542328 133.6963058159332 26.07931026615657 C 0.0 **** -0.24
31477 H 71.17909169441282 133.15680736474962 26.299881970286606 H 0.0 **** 0.06
31478 H 72.25290254620532 133.7282353867757 25.000784837705595 H 0.0 **** 0.06
31479 H 72.94057271851423 133.1879551320202 26.551841309287624 H 0.0 **** 0.06
31480 H 72.02535700011569 134.71258763425004 26.466758524399125 H 0.0 **** 0.06
31481 C 51.25028184023698 116.34258698216227 86.58610263913876 C 0.0 **** -0.24
31482 H 51.22537557799579 115.29299054804908 86.88067131586712 H 0.0 **** 0.06
31483 H 52.16821461059746 116.54175569388637 86.03157042287557 H 0.0 **** 0.06
31484 H 51.21952010709539 116.97029538117526 87.4760664118636 H 0.0 **** 0.06
31485 H 50.38945854368106 116.56402325165031 85.95497277086267 H 0.0 **** 0.06
31486 C 22.101111008633247 67.56814290734253 96.30331658634054 C 0.0 **** -0.24
31487 H 22.50338901730037 66.79762850349597 96.96166805460217 H 0.0 **** 0.06
31488 H 22.869412058601924 68.31775533318499 96.11033103627551 H 0.0 **** 0.06
31489 H 21.243555813304162 68.04121948413052 96.78082604356064 H 0.0 **** 0.06
31490 H 21.78947400471182 67.11525310601833 95.36232941156737 H 0.0 **** 0.06
31491 C 147.09681401742964 62.53263778918058 137.73458967886745 C 0.0 **** -0.24
31492 H 146.68669390123085 62.637935189551825 138.73849883155486 H 0.0 **** 0.06
31493 H 146.28121030436262 62.44927623234953 137.0158058948714 H 0.0 **** 0.06
31494 H 147.71604907173557 61.63646735263235 137.6876195895182 H 0.0 **** 0.06
31495 H 147.70330279238962 63.40687238218868 137.49643439952536 H 0.0 **** 0.06
31496 C 82.71422568913357 80.74871843609066 98.54182155438542 C 0.0 **** -0.24
31497 H 83.15911041324983 79.81252364967898 98.87928945003753 H 0.0 **** 0.06
31498 H 83.32615609298429 81.58420360390888 98.88259919924921 H 0.0 **** 0.06
31499 H 81.7098890290261 80.84183395113587 98.95338200061565 H 0.0 **** 0.06
31500 H 82.66312607953364 80.75496345544991 97.45314644539552 H 0.0 **** 0.06
31501 C 33.79200358325221 151.04757796165495 68.88076804839363 C 0.0 **** -0.24
31502 H 33.51583211165371 150.18405470837035 68.27520996034303 H 0.0 **** 0.06
31503 H 34.396940019343106 151.73074916134738 68.28405646656654 H 0.0 **** 0.06
31504 H 34.36516558160923 150.71521105533415 69.7459045768411 H 0.0 **** 0.06
31505 H 32.88979736376467 151.5588215774644 69.21596584210204 H 0.0 **** 0.06
31506 C 97.04573427805528 153.81077067608658 16.505963345443206 C 0.0 **** -0.24
31507 H 96.06700301067892 153.76782111162103 16.029054462189038 H 0.0 **** 0.06
31508 H 97.05516136195725 153.15226960508872 17.375004868102053 H 0.0 **** 0.06
31509 H 97.25088067562835 154.83342391457012 16.822336506463103 H 0.0 **** 0.06
31510 H 97.80876655019152 153.488860591852 15.796975098965163 H 0.0 **** 0.06
31511 C 88.04695281036595 111.4951789773264 75.83049361991063 C 0.0 **** -0.24
31512 H 88.72313786007015 112.27828426861969 76.17323046849059 H 0.0 **** 0.06
31513 H 87.69068150123874 111.73620990290614 74.82842997293172 H 0.0 **** 0.06
31514 H 87.19757763815107 111.42585756683253 76.51070318823531 H 0.0 **** 0.06
31515 H 88.57536432476184 110.5420494958034 75.80985060843149 H 0.0 **** 0.06
31516 C 84.03859460089723 146.92410588214517 71.28655068351182 C 0.0 **** -0.24
31517 H 84.64346545397751 146.36511945240204 70.57261224667972 H 0.0 **** 0.06
31518 H 84.58257749855 147.02005515381262 72.22629267993246 H 0.0 **** 0.06
31519 H 83.10143350857976 146.39676893673735 71.460988240258 H 0.0 **** 0.06
31520 H 83.82883758969263 147.91559726992182 70.88530699998226 H 0.0 **** 0.06
31521 C 61.27199296917672 132.1945104512703 119.85924547219152 C 0.0 **** -0.24
31522 H 60.86969247908229 131.86192539641647 118.90226837043791 H 0.0 **** 0.06
31523 H 60.61468608969682 131.86376588733452 120.66382945996723 H 0.0 **** 0.06
31524 H 61.33856268109088 133.28211849404977 119.86748359359466 H 0.0 **** 0.06
31525 H 62.26499053065979 131.76736315180614 120.00252397246346 H 0.0 **** 0.06
31526 C 130.04669666531777 91.151811947453 89.4456974121637 C 0.0 **** -0.24
31527 H 130.5723766254582 91.53702183995468 88.5720833190929 H 0.0 **** 0.06
31528 H 130.7030148552154 91.20083116413143 90.31472170955325 H 0.0 **** 0.06
31529 H 129.75760000094093 90.11591633402101 89.26747261548252 H 0.0 **** 0.06
31530 H 129.15538250049832 91.7523108262983 89.62745501531013 H 0.0 **** 0.06
31531 C 54.52980384152323 95.68722690559582 74.06659289495701 C 0.0 **** -0.24
31532 H 54.99200510866768 95.32167240929647 74.98400806611323 H 0.0 **** 0.06
31533 H 54.04008501435683 94.8597941449201 73.55288658152801 H 0.0 **** 0.06
31534 H 55.29549072247575 96.11526277006118 73.42039049903588 H 0.0 **** 0.06
31535 H 53.79153598152784 96.4509073207497 74.3121483385479 H 0.0 **** 0.06
31536 C 140.36461946877296 36.759983041978856 59.108015742888824 C 0.0 **** -0.24
31537 H 141.25454331240553 37.156203779597064 59.59592281917283 H 0.0 **** 0.06
31538 H 140.0133713318591 37.47220552689711 58.36023997116776 H 0.0 **** 0.06
31539 H 139.58410304933915 36.599537301568645 59.85154714384454 H 0.0 **** 0.06
31540 H 140.6061893539296 35.81478423462082 58.624045901614 H 0.0 **** 0.06
31541 C 75.36724044455448 29.798663719484523 34.27831126790102 C 0.0 **** -0.24
31542 H 75.7533082805625 30.56191133967897 34.953652184486316 H 0.0 **** 0.06
31543 H 75.53267609828694 30.11041986970565 33.24614903380274 H 0.0 **** 0.06
31544 H 74.29918074249265 29.666619178924122 34.451156232884756 H 0.0 **** 0.06
31545 H 75.88523976455764 28.857036102535346 34.46121784940988 H 0.0 **** 0.06
31546 C 7.678832247236855 25.90492563952555 123.19559865061245 C 0.0 **** -0.24
31547 H 8.066919007410384 25.951996368246398 122.17843167164688 H 0.0 **** 0.06
31548 H 7.849412720455092 26.860167098004062 123.69378313809449 H 0.0 **** 0.06
31549 H 8.189198570690728 25.11263085844717 123.74308733709785 H 0.0 **** 0.06
31550 H 6.608843062617872 25.695787012819437 123.16653157469807 H 0.0 **** 0.06
31551 C 85.4217314248699 107.86053133002632 125.57417076262108 C 0.0 **** -0.24
31552 H 86.27240920163219 107.70973892428076 124.90844657825441 H 0.0 **** 0.06
31553 H 84.52576953977014 107.4382273015835 125.11949035840475 H 0.0 **** 0.06
31554 H 85.27662822580392 108.92785254083326 125.74045413042013 H 0.0 **** 0.06
31555 H 85.61395807242222 107.36715788640684 126.52691639071871 H 0.0 **** 0.06
31556 C 149.42654415493595 86.69670526349296 1.775603874602119 C 0.0 **** -0.24
31557 H 150.08421774005686 86.25954807685409 1.0238281476503026 H 0.0 **** 0.06
31558 H 150.0114945552387 87.31592843439535 2.455156920291369 H 0.0 **** 0.06
31559 H 148.93846820445947 85.89943399435367 2.3376146516842304 H 0.0 **** 0.06
31560 H 148.67096627796826 87.30959906429348 1.2832473376350926 H 0.0 **** 0.06
31561 C 84.80592168711446 103.58175938332674 151.8759339224539 C 0.0 **** -0.24
31562 H 84.79650497479507 104.19610185896961 152.7766332844947 H 0.0 **** 0.06
31563 H 83.78941075344058 103.48135168962527 151.49404581836424 H 0.0 **** 0.06
31564 H 85.20466664919093 102.59548564172069 152.11418640570815 H 0.0 **** 0.06
31565 H 85.4331020846161 104.05509434384196 151.12060457084618 H 0.0 **** 0.06
31566 C 131.150082409206 130.27123639372635 56.48965421604264 C 0.0 **** -0.24
31567 H 131.26335821274128 129.88101064276924 55.478357959867 H 0.0 **** 0.06
31568 H 131.63718138564002 129.59718523056213 57.19526695200223 H 0.0 **** 0.06
31569 H 130.0900064730243 130.3475832353819 56.73300964223618 H 0.0 **** 0.06
31570 H 131.60894811761824 131.25745941804408 56.55316051902024 H 0.0 **** 0.06
31571 C 136.33434127361696 137.22125391980788 139.62139040020847 C 0.0 **** -0.24
31572 H 135.46637770032075 137.86926024444665 139.49906822695158 H 0.0 **** 0.06
31573 H 136.45608345308426 136.9720148791022 140.67570981449424 H 0.0 **** 0.06
31574 H 137.2250815482398 137.73596421384667 139.2629622964468 H 0.0 **** 0.06
31575 H 136.18714713037593 136.30641842184744 139.0464072678247 H 0.0 **** 0.06
31576 C 69.75006311737761 137.38806344800412 65.00673104296486 C 0.0 **** -0.24
31577 H 68.92663071005086 137.4507576629127 64.29475828909236 H 0.0 **** 0.06
31578 H 69.4820754223816 136.70513929274267 65.81281842071614 H 0.0 **** 0.06
31579 H 69.94888837123185 138.37719855300014 65.4196777038168 H 0.0 **** 0.06
31580 H 70.64153982554444 137.02002420439135 64.49966690615686 H 0.0 **** 0.06
31581 C 76.89475799970819 127.5080115135003 33.2697759254887 C 0.0 **** -0.24
31582 H 76.30181619249156 127.93081498445288 32.45803893178482 H 0.0 **** 0.06
31583 H 77.82891661913736 127.11332408348984 32.86831207122864 H 0.0 **** 0.06
31584 H 76.3357876448245 126.70303269682789 33.74644132529719 H 0.0 **** 0.06
31585 H 77.11236231644341 128.28308309138293 34.003029636667364 H 0.0 **** 0.06
31586 C 12.903206952273024 85.01052651472678 129.43278781670392 C 0.0 **** -0.24
31587 H 13.791446863409504 84.85634009692313 128.8196197321118 H 0.0 **** 0.06
31588 H 12.371027620231473 85.89614522075405 129.08558710163192 H 0.0 **** 0.06
31589 H 13.200190071651178 85.14875896404786 130.4728803704192 H 0.0 **** 0.06
31590 H 12.25194427256099 84.13971814294933 129.35378533629267 H 0.0 **** 0.06
31591 C 151.46937017879162 24.450970831016377 90.47873282661982 C 0.0 **** -0.24
31592 H 151.6351460108836 24.54865101570661 89.40639958193626 H 0.0 **** 0.06
31593 H 152.41928908545992 24.548103365027174 91.00375376972721 H 0.0 **** 0.06
31594 H 151.03473466169635 23.474164943331232 90.69154002579666 H 0.0 **** 0.06
31595 H 150.7870240414569 25.233157615205897 90.81379148688484 H 0.0 **** 0.06
31596 C 150.67408531863776 41.73172696954674 9.591915919888265 C 0.0 **** -0.24
31597 H 149.68391221761777 41.81094387965862 9.143833826412617 H 0.0 **** 0.06
31598 H 150.83826933336132 40.70815418917239 9.929545985993066 H 0.0 **** 0.06
31599 H 150.7446888205356 42.411248024401246 10.44099420747574 H 0.0 **** 0.06
31600 H 151.43025716131888 41.995403456433394 8.851546032504572 H 0.0 **** 0.06
31601 C 156.6491076084402 133.34438072765954 119.9005865988683 C 0.0 **** -0.24
31602 H 156.86613346368284 132.7669977419231 119.00283814725736 H 0.0 **** 0.06
31603 H 156.08254230684022 134.23636574957305 119.63193408401906 H 0.0 **** 0.06
31604 H 157.58454188787402 133.6378384416634 120.37832710579488 H 0.0 **** 0.06
31605 H 156.06393142028247 132.73668266056748 120.59041015767707 H 0.0 **** 0.06
31606 C 75.5730668054228 14.614054257566352 21.95132495623818 C 0.0 **** -0.24
31607 H 75.21338143568913 13.5974388112069 22.112285083086533 H 0.0 **** 0.06
31608 H 76.36538279784602 14.604117609825835 21.202039068876843 H 0.0 **** 0.06
31609 H 75.96301056475727 15.013045432927186 22.888139560444415 H 0.0 **** 0.06
31610 H 74.75041161042063 15.238534520767047 21.603545588558973 H 0.0 **** 0.06
31611 C 96.80654969956431 132.30019479008337 24.294335015996353 C 0.0 **** -0.24
31612 H 96.06257659802826 132.94431936684197 23.82468381249913 H 0.0 **** 0.06
31613 H 97.39978775359316 131.80809613525787 23.523341364948067 H 0.0 **** 0.06
31614 H 96.30391356923793 131.54857221828638 24.90235234622753 H 0.0 **** 0.06
31615 H 97.45953783545133 132.90257735412035 24.926658860406008 H 0.0 **** 0.06
31616 C 143.629763647482 27.836799174264343 37.38858657158886 C 0.0 **** -0.24
31617 H 143.55437545052575 28.678828686873373 36.70101070687099 H 0.0 **** 0.06
31618 H 144.55256224595303 27.28975173649775 37.19238372249475 H 0.0 **** 0.06
31619 H 142.77600817630042 27.17363048163037 37.24456367429974 H 0.0 **** 0.06
31620 H 143.6362198726698 28.204924578842395 38.413941942168265 H 0.0 **** 0.06
31621 C 97.58017215787928 20.367935542165526 150.64277195461761 C 0.0 **** -0.24
31622 H 97.36119559253399 20.34891803386367 151.71024853986256 H 0.0 **** 0.06
31623 H 97.33296929415863 21.350230914772197 150.23885704941557 H 0.0 **** 0.06
31624 H 96.98571173626931 19.60636842797581 150.13759473415664 H 0.0 **** 0.06
31625 H 98.6390570075144 20.165081768037595 150.48565779529548 H 0.0 **** 0.06
31626 C 95.5326466912317 81.10813539502976 53.163710260825724 C 0.0 **** -0.24
31627 H 95.04750612339254 81.5981357229431 54.00790690855837 H 0.0 **** 0.06
31628 H 95.55743508642772 80.031729085062 53.33445179842329 H 0.0 **** 0.06
31629 H 96.55084152876272 81.48341512988368 53.061123401203645 H 0.0 **** 0.06
31630 H 94.97340528670452 81.31935562519588 52.251545374713544 H 0.0 **** 0.06
31631 C 90.51281820107067 116.7699483812575 56.219933741394726 C 0.0 **** -0.24
31632 H 90.01959545105018 116.31968181310651 57.08178003270547 H 0.0 **** 0.06
31633 H 90.64593399720627 117.83746846904103 56.394810016242815 H 0.0 **** 0.06
31634 H 89.89912830686853 116.62013358107384 55.33237029633091 H 0.0 **** 0.06
31635 H 91.48572723065786 116.30142786560089 56.07251865528332 H 0.0 **** 0.06
31636 C 29.49134877523953 40.626245599903854 133.50829448222325 C 0.0 **** -0.24
31637 H 28.765912826678452 39.891414311826 133.15800265975074 H 0.0 **** 0.06
31638 H 30.284659399149703 40.119520859603654 134.0577050373796 H 0.0 **** 0.06
31639 H 28.993994364993775 41.343047271266755 134.16281543160383 H 0.0 **** 0.06
31640 H 29.917831138194508 41.15046184872588 132.65334081421474 H 0.0 **** 0.06
31641 C 23.70488521098389 148.79437956890027 155.69269585180882 C 0.0 **** -0.24
31642 H 23.310742858813512 148.58125198288948 154.6998025741805 H 0.0 **** 0.06
31643 H 24.550751696897635 148.13658366502676 155.89691672774572 H 0.0 **** 0.06
31644 H 22.926240237481124 148.62537011241363 156.43626862467403 H 0.0 **** 0.06
31645 H 24.032042587426503 149.83234832314938 155.7380889596024 H 0.0 **** 0.06
31646 C 124.63984392640224 128.77733201784656 7.540671176233218 C 0.0 **** -0.24
31647 H 123.73921676909346 128.24882012484375 7.853686486236114 H 0.0 **** 0.06
31648 H 125.02563803225043 128.32700219592067 6.6254894096393855 H 0.0 **** 0.06
31649 H 125.3928789128668 128.70847554611743 8.326020641103668 H 0.0 **** 0.06
31650 H 124.40038288935072 129.82540869417255 7.358009198379278 H 0.0 **** 0.06
31651 C 135.05772444170918 22.40425664576948 141.94181744063422 C 0.0 **** -0.24
31652 H 134.0819945066773 22.054118479826073 142.27870322373283 H 0.0 **** 0.06
31653 H 135.00786749805673 22.64969138240229 140.87986790178695 H 0.0 **** 0.06
31654 H 135.79895895586935 21.621545277597292 142.10009867200756 H 0.0 **** 0.06
31655 H 135.33966927632628 23.292519862165108 142.5070238057404 H 0.0 **** 0.06
31656 C 142.9550146920867 140.17412596132013 16.941829837987243 C 0.0 **** -0.24
31657 H 142.27600454305482 140.29128294326307 17.785694217273587 H 0.0 **** 0.06
31658 H 143.35977693206596 139.161297683233 16.939353963103017 H 0.0 **** 0.06
31659 H 143.77128497781433 140.89198324548224 17.030748101109545 H 0.0 **** 0.06
31660 H 142.41447074946126 140.35232838167167 16.012337606741127 H 0.0 **** 0.06
31661 C 98.91428727285017 108.87166653764785 121.9311787091754 C 0.0 **** -0.24
31662 H 98.36659135077872 108.73749111410092 120.99722481661216 H 0.0 **** 0.06
31663 H 98.20685392163136 108.9652307509865 122.75592200587526 H 0.0 **** 0.06
31664 H 99.52209706595119 109.77369724071144 121.86891716155166 H 0.0 **** 0.06
31665 H 99.55886991762947 108.00914198807072 122.10035106195964 H 0.0 **** 0.06
31666 C 39.72134752278308 92.45488288015802 69.3939650982498 C 0.0 **** -0.24
31667 H 39.65897682967018 93.40019660462855 69.93421279281814 H 0.0 **** 0.06
31668 H 39.81299173554075 91.63526311383134 70.1074505465305 H 0.0 **** 0.06
31669 H 40.592891140516585 92.46698510807887 68.73997893039804 H 0.0 **** 0.06
31670 H 38.819955541623784 92.31916667696741 68.79692803403843 H 0.0 **** 0.06
31671 C 147.8562140672969 27.609818435199713 53.69001971585749 C 0.0 **** -0.24
31672 H 147.68649880849443 28.092436293119647 54.653336619741424 H 0.0 **** 0.06
31673 H 147.87532340084175 26.528387616143675 53.82398194306211 H 0.0 **** 0.06
31674 H 148.81027026397896 27.943507526147073 53.280003756739404 H 0.0 **** 0.06
31675 H 147.05204673228297 27.87749940240616 53.004152025021995 H 0.0 **** 0.06
31676 C 90.93568172683335 2.734281169863145 136.908012828515 C 0.0 **** -0.24
31677 H 90.10696695549542 3.1017233566921334 136.3033751566028 H 0.0 **** 0.06
31678 H 90.78958206594297 1.6741899542004184 137.1174052909409 H 0.0 **** 0.06
31679 H 90.97517914868264 3.2881739318644314 137.84545584126823 H 0.0 **** 0.06
31680 H 91.87095815577139 2.8721202153088328 136.36473932864868 H 0.0 **** 0.06
31681 C 28.339520938494104 147.72842028155767 100.58126582855543 C 0.0 **** -0.24
31682 H 27.2619165407703 147.68515575510563 100.74281659336687 H 0.0 **** 0.06
31683 H 28.60622022883439 148.70519902829344 100.176534473444 H 0.0 **** 0.06
31684 H 28.63110005400307 146.95010300033323 99.87515072300802 H 0.0 **** 0.06
31685 H 28.855246481423507 147.5725513944712 101.52819807952604 H 0.0 **** 0.06
31686 C 144.8269425560495 106.50534791103847 87.53024015883128 C 0.0 **** -0.24
31687 H 143.77290677279936 106.76687427375823 87.44328521215857 H 0.0 **** 0.06
31688 H 145.10136247329845 105.82719892395339 86.72112744203929 H 0.0 **** 0.06
31689 H 145.00209778752674 106.01697442301558 88.48882226330937 H 0.0 **** 0.06
31690 H 145.43233318437368 107.40936650539997 87.46730188396054 H 0.0 **** 0.06
31691 C 132.40208908419996 124.00949389375847 112.72963012753762 C 0.0 **** -0.24
31692 H 132.84433805397623 124.55033735724521 111.8931321545764 H 0.0 **** 0.06
31693 H 133.1326316958026 123.92607778464173 113.53518084845878 H 0.0 **** 0.06
31694 H 132.1081673158069 123.01265054328542 112.40201911215122 H 0.0 **** 0.06
31695 H 131.5251600926331 124.54792820565854 113.08870769361845 H 0.0 **** 0.06
31696 C 148.03222177924752 129.15432249412794 126.42818748135983 C 0.0 **** -0.24
31697 H 147.09571448921932 129.60708673292493 126.75381504463036 H 0.0 **** 0.06
31698 H 147.83312431409198 128.43977230068475 125.62951928293478 H 0.0 **** 0.06
31699 H 148.49811084064672 128.638993779771 127.26881665514907 H 0.0 **** 0.06
31700 H 148.7036841705809 129.93164525239092 126.06197948945766 H 0.0 **** 0.06
31701 C 79.73546042469138 76.6696526610495 104.06433564452205 C 0.0 **** -0.24
31702 H 78.68350132050557 76.94975013190651 104.10887873573974 H 0.0 **** 0.06
31703 H 80.28332271321972 77.18898271903146 104.85246695929386 H 0.0 **** 0.06
31704 H 80.14396535949038 76.94869834914206 103.09329039364287 H 0.0 **** 0.06
31705 H 79.83217711399584 75.59294064425669 104.20398444689503 H 0.0 **** 0.06
31706 C 47.746122687425625 130.6849166394187 60.48555771518994 C 0.0 **** -0.24
31707 H 47.49064369437471 129.98982439690855 59.68582155477554 H 0.0 **** 0.06
31708 H 46.87051006367278 130.85489868343655 61.11315261105551 H 0.0 **** 0.06
31709 H 48.073450222972454 131.6309379292919 60.05392351289606 H 0.0 **** 0.06
31710 H 48.54988676868271 130.26400554803803 61.08933318203276 H 0.0 **** 0.06
31711 C 36.527679175272624 69.03670753133298 32.765368401458716 C 0.0 **** -0.24
31712 H 36.250005748588706 70.0001267752202 33.1921546215587 H 0.0 **** 0.06
31713 H 36.08717835136383 68.93883901616348 31.773567805356663 H 0.0 **** 0.06
31714 H 36.16200153897529 68.23582295176516 33.407712869704824 H 0.0 **** 0.06
31715 H 37.61397975971181 68.97345382500848 32.68794267461857 H 0.0 **** 0.06
31716 C 125.39832217216427 130.66005116318792 87.90191634053274 C 0.0 **** -0.24
31717 H 125.0748764428182 129.92891470377378 88.6424175154061 H 0.0 **** 0.06
31718 H 125.58398403763927 131.61622402874485 88.39257389815222 H 0.0 **** 0.06
31719 H 124.61960499206963 130.78347884210467 87.14858847945648 H 0.0 **** 0.06
31720 H 126.31419776257421 130.31282440367164 87.42380636617983 H 0.0 **** 0.06
31721 C 96.50659753874508 32.87448692447021 5.777413462509855 C 0.0 **** -0.24
31722 H 97.50941966347587 33.27764847281193 5.631772584024247 H 0.0 **** 0.06
31723 H 96.26189776872374 32.20357660222855 4.953148289309411 H 0.0 **** 0.06
31724 H 95.78709509038521 33.692665174345 5.806896422957607 H 0.0 **** 0.06
31725 H 96.47011322108312 32.323501507013404 6.717475509743167 H 0.0 **** 0.06
31726 C 55.97108799242008 128.81642570540518 59.801478838486204 C 0.0 **** -0.24
31727 H 54.933239583166696 128.98795201646226 59.515370318745994 H 0.0 **** 0.06
31728 H 56.625181981123845 129.4117328822125 59.164798327057895 H 0.0 **** 0.06
31729 H 56.21022217302921 127.75974644985611 59.68288939364754 H 0.0 **** 0.06
31730 H 56.113308975859525 129.1067569231506 60.8427673046059 H 0.0 **** 0.06
31731 C 103.84559084523168 62.33101964829871 74.94210067109753 C 0.0 **** -0.24
31732 H 104.42170850801035 61.455523044200774 75.24403254031195 H 0.0 **** 0.06
31733 H 102.81193547049794 62.214347663801874 75.26871191683306 H 0.0 **** 0.06
31734 H 103.87518789261945 62.42915876458403 73.85743603906468 H 0.0 **** 0.06
31735 H 104.27340735209835 63.22196106758423 75.4009514860264 H 0.0 **** 0.06
31736 C 130.90411288039746 37.56640936999656 89.34103384684516 C 0.0 **** -0.24
31737 H 130.9012346412306 37.84660904625159 88.28719535800052 H 0.0 **** 0.06
31738 H 129.91191219735924 37.215721036141574 89.62567604325118 H 0.0 **** 0.06
31739 H 131.17087049989277 38.43333718276257 89.94635049494775 H 0.0 **** 0.06
31740 H 131.63127670582793 36.77200590196753 89.5041948678262 H 0.0 **** 0.06
31741 C 151.3091435270815 86.54231045746076 60.35439924973235 C 0.0 **** -0.24
31742 H 151.60811927778374 86.24701362990939 59.348459903565384 H 0.0 **** 0.06
31743 H 151.99204155566926 86.10050161295962 61.0798252544359 H 0.0 **** 0.06
31744 H 150.2948885913183 86.19307936005671 60.54895579884234 H 0.0 **** 0.06
31745 H 151.34173015713552 87.62819593737507 60.43817561068232 H 0.0 **** 0.06
31746 C 118.2953760853743 54.158656353529366 134.84327932550013 C 0.0 **** -0.24
31747 H 118.94745302906614 54.6912795933612 134.15202772876052 H 0.0 **** 0.06
31748 H 118.65401491284393 53.13641073770066 134.9658182188788 H 0.0 **** 0.06
31749 H 117.28065382190903 54.14225286734285 134.4464137274161 H 0.0 **** 0.06
31750 H 118.29957946129508 54.66370840955864 135.80897151708936 H 0.0 **** 0.06
31751 C 65.14183078697556 95.10438554647014 29.36390814584078 C 0.0 **** -0.24
31752 H 66.0476441634301 95.31254613714952 29.93445525808832 H 0.0 **** 0.06
31753 H 65.05497575665696 95.82186812977018 28.547414639298154 H 0.0 **** 0.06
31754 H 64.27316856599802 95.19149444407729 30.01803177325047 H 0.0 **** 0.06
31755 H 65.19212533500331 94.09465670053285 28.958471672694515 H 0.0 **** 0.06
31756 C 53.072246538372696 1.9714379062384637 71.41922916011288 C 0.0 **** -0.24
31757 H 53.9764354110912 1.7093756394419302 70.87018042968873 H 0.0 **** 0.06
31758 H 52.19721457947827 1.6516288639285222 70.85255381191644 H 0.0 **** 0.06
31759 H 53.036195028703716 3.050940226082787 71.56655433980916 H 0.0 **** 0.06
31760 H 53.08004973567033 1.4721751658246376 72.38885771932036 H 0.0 **** 0.06
31761 C 119.35400608397113 117.698947297377 103.94808525345178 C 0.0 **** -0.24
31762 H 118.57963920458631 117.43707802759383 103.22554863599561 H 0.0 **** 0.06
31763 H 119.47288434244642 118.78228886133667 103.9764348844742 H 0.0 **** 0.06
31764 H 120.29564274310714 117.23693020785157 103.65306448791387 H 0.0 **** 0.06
31765 H 119.06573925598109 117.33822257680526 104.9348641271103 H 0.0 **** 0.06
31766 C 98.89835618705416 51.04739287887283 99.47060993385224 C 0.0 **** -0.24
31767 H 98.27203426332534 50.92339825226912 98.58787168740736 H 0.0 **** 0.06
31768 H 99.90793598066205 50.699170322249884 99.25109824445559 H 0.0 **** 0.06
31769 H 98.48402937552245 50.4664687256801 100.29465185950579 H 0.0 **** 0.06
31770 H 98.92980254492298 52.10100528079656 99.74802064432265 H 0.0 **** 0.06
31771 C 121.66945694046893 149.0568793377394 109.2920707283859 C 0.0 **** -0.24
31772 H 120.62124687435801 149.35795517612524 109.28033555297004 H 0.0 **** 0.06
31773 H 122.1366424103112 149.40397298689834 110.21339390149781 H 0.0 **** 0.06
31774 H 122.18238119729722 149.49533586174456 108.43687881520428 H 0.0 **** 0.06
31775 H 121.73459423258606 147.96978823836758 109.23774049844992 H 0.0 **** 0.06
31776 C 41.51402989152453 6.765446928539745 108.66349844966716 C 0.0 **** -0.24
31777 H 40.96362607060293 6.494271392486979 107.76255886461043 H 0.0 **** 0.06
31778 H 42.093255656113925 5.90841551802032 109.00730704406844 H 0.0 **** 0.06
31779 H 40.811127323064824 7.065876014134318 109.44110120424737 H 0.0 **** 0.06
31780 H 42.18597015194085 7.5943863711485164 108.44276255745676 H 0.0 **** 0.06
31781 C 127.98937054718614 2.5268219111929646 113.32623363655414 C 0.0 **** -0.24
31782 H 127.91954196943881 3.611397712199043 113.24569197947339 H 0.0 **** 0.06
31783 H 128.6180892493078 2.1432999507228843 112.52060935808036 H 0.0 **** 0.06
31784 H 126.99335662364727 2.090673803221712 113.2486400208437 H 0.0 **** 0.06
31785 H 128.42891685154308 2.261164820218891 114.28763367097629 H 0.0 **** 0.06
31786 C 15.204578050325345 154.0653988609282 51.43554417609718 C 0.0 **** -0.24
31787 H 15.855166532793525 154.87996046505143 51.11954948836872 H 0.0 **** 0.06
31788 H 15.775017711268923 153.35764418492982 52.03780293544523 H 0.0 **** 0.06
31789 H 14.807169642527143 153.55644174611436 50.55676552351734 H 0.0 **** 0.06
31790 H 14.38176777824222 154.46477883004934 52.02723963779478 H 0.0 **** 0.06
31791 C 59.96489125932875 152.9672735657458 78.29123999169008 C 0.0 **** -0.24
31792 H 60.186336757967396 153.18802561154433 77.24705509612211 H 0.0 **** 0.06
31793 H 58.896833225244904 153.0962966034155 78.47133390841753 H 0.0 **** 0.06
31794 H 60.52589320924005 153.64613223622928 78.93349569431206 H 0.0 **** 0.06
31795 H 60.24941821157813 151.938264658155 78.5139029536893 H 0.0 **** 0.06
31796 C 14.687353465406233 40.55535589390166 73.35719631575043 C 0.0 **** -0.24
31797 H 15.63364945846945 41.045915746429216 73.58561610939155 H 0.0 **** 0.06
31798 H 13.902289394908763 41.3047274735282 73.26297705942828 H 0.0 **** 0.06
31799 H 14.434623276740894 39.8623198962467 74.16028925072219 H 0.0 **** 0.06
31800 H 14.780171165122965 40.00577139220667 72.41973460109669 H 0.0 **** 0.06
31801 C 53.09710536352243 4.539865989337528 59.03125714445969 C 0.0 **** -0.24
31802 H 52.73021298067155 3.8768467274958596 59.814110946346545 H 0.0 **** 0.06
31803 H 53.85605892002245 5.203832589786259 59.444002217038275 H 0.0 **** 0.06
31804 H 52.26947359322014 5.131394522645394 58.638605455081574 H 0.0 **** 0.06
31805 H 53.53155083540831 3.9451094358439036 58.22671845733282 H 0.0 **** 0.06
31806 C 151.1911305092137 120.51385351276515 18.384056355601274 C 0.0 **** -0.24
31807 H 150.29240581549257 120.90218603321254 18.864430675753226 H 0.0 **** 0.06
31808 H 152.04544500246058 121.13465879947749 18.656868131371 H 0.0 **** 0.06
31809 H 151.06073000217623 120.52892051256798 17.302249835959003 H 0.0 **** 0.06
31810 H 151.36492511170522 119.49008664110373 18.71486217140523 H 0.0 **** 0.06
31811 C 140.49702283617347 109.59586103036652 153.6379152079656 C 0.0 **** -0.24
31812 H 140.00456665091633 109.38493495443977 152.68843493928105 H 0.0 **** 0.06
31813 H 140.98885238754315 108.69288002140625 154.0000487068254 H 0.0 **** 0.06
31814 H 139.7571770427199 109.92420182796364 154.3666896138533 H 0.0 **** 0.06
31815 H 141.23916483599345 110.38161401588512 153.49470491467065 H 0.0 **** 0.06
31816 C 78.51794488302944 4.813449433588751 54.141431742044375 C 0.0 **** -0.24
31817 H 77.4778135792328 5.018666735676433 53.88988577501971 H 0.0 **** 0.06
31818 H 78.79755858819257 5.384022629671101 55.027263602906544 H 0.0 **** 0.06
31819 H 79.15651925217844 5.101211960219345 53.306902449991554 H 0.0 **** 0.06
31820 H 78.64000703144426 3.748922327240308 54.341867639547104 H 0.0 **** 0.06
31821 C 35.93786934715962 74.84354019037892 41.84423243861559 C 0.0 **** -0.24
31822 H 35.90925708361519 73.7945267384697 41.54932602818306 H 0.0 **** 0.06
31823 H 36.75460472988863 75.34415061464858 41.32444769435779 H 0.0 **** 0.06
31824 H 36.09514661303956 74.91281479235681 42.92094622904 H 0.0 **** 0.06
31825 H 34.992842076735684 75.32035502069652 41.58292272457999 H 0.0 **** 0.06
31826 C 90.88164397366424 33.77086792168464 144.00584098865986 C 0.0 **** -0.24
31827 H 89.93809131108134 34.302352586698845 144.13208327343105 H 0.0 **** 0.06
31828 H 91.63483418117768 34.45633619703446 143.6162637140493 H 0.0 **** 0.06
31829 H 90.74334900087926 32.94657712169973 143.30687903194033 H 0.0 **** 0.06
31830 H 91.20906922974027 33.380044235455216 144.9698992130062 H 0.0 **** 0.06
31831 C 103.90679927466157 10.251386484576003 126.99581692151553 C 0.0 **** -0.24
31832 H 103.01748849533179 9.645754447293932 127.17044752056229 H 0.0 **** 0.06
31833 H 104.71312590004091 9.615082704685136 126.62971915375844 H 0.0 **** 0.06
31834 H 104.21297757744075 10.724422768950461 127.9297008768035 H 0.0 **** 0.06
31835 H 103.68409462728833 11.018850403742995 126.25532356861864 H 0.0 **** 0.06
31836 C 87.02445265124692 100.71379171751913 156.7224674123031 C 0.0 **** -0.24
31837 H 87.87872747133858 100.05557480694411 156.5681182594666 H 0.0 **** 0.06
31838 H 86.16629735812063 100.12482305609448 157.0480639720134 H 0.0 **** 0.06
31839 H 86.78370036494141 101.22086730344624 155.78774586001873 H 0.0 **** 0.06
31840 H 87.26883447041587 101.45384516748005 157.48497519067746 H 0.0 **** 0.06
31841 C 73.20455123985431 103.17635337049256 65.95594187761924 C 0.0 **** -0.24
31842 H 72.30613822426791 103.68320967321631 66.30842225870185 H 0.0 **** 0.06
31843 H 73.3827077616943 102.2897853325826 66.56558118186314 H 0.0 **** 0.06
31844 H 74.05756635571976 103.84984905687043 66.03632489990844 H 0.0 **** 0.06
31845 H 73.07067420907785 102.88129114209823 64.91520420959665 H 0.0 **** 0.06
31846 C 74.11164870445113 77.89587088860117 144.29774604629492 C 0.0 **** -0.24
31847 H 73.32336174553575 77.29854947556112 144.75571380191087 H 0.0 **** 0.06
31848 H 74.73162655354889 78.33823224729004 145.077356563016 H 0.0 **** 0.06
31849 H 73.66389823167631 78.68828848071453 143.69646191627947 H 0.0 **** 0.06
31850 H 74.7257958385466 77.25983745342894 143.6608909513396 H 0.0 **** 0.06
31851 C 1.6732968866323858 30.83277931553871 149.09745634348977 C 0.0 **** -0.24
31852 H 0.6958055269174395 31.281730346196298 148.92350733124383 H 0.0 **** 0.06
31853 H 2.1074933149140804 31.249373518340164 150.00714829806657 H 0.0 **** 0.06
31854 H 2.327869072563516 31.046436926660483 148.25231827282585 H 0.0 **** 0.06
31855 H 1.5634909247921485 29.75460730446988 149.2085166671518 H 0.0 **** 0.06
31856 C 78.67531588709461 114.61175035980614 84.38390885223505 C 0.0 **** -0.24
31857 H 78.30984977290574 114.0944221276452 83.49603457249074 H 0.0 **** 0.06
31858 H 79.55549894932284 114.09664919924535 84.76724709261228 H 0.0 **** 0.06
31859 H 77.89656741914138 114.6196499551503 85.14585048872355 H 0.0 **** 0.06
31860 H 78.93919372554151 115.6376468730366 84.12332381170619 H 0.0 **** 0.06
31861 C 91.61542264546179 120.82575151496258 28.820329233573375 C 0.0 **** -0.24
31862 H 91.71729979775267 119.74139610193339 28.78172817257942 H 0.0 **** 0.06
31863 H 90.56708779958024 121.09656641055017 28.6958743998793 H 0.0 **** 0.06
31864 H 92.20452927985394 121.27559619241424 28.020918936969622 H 0.0 **** 0.06
31865 H 91.97265238960097 121.19064112176932 29.784044544992327 H 0.0 **** 0.06
31866 C 103.85715527706134 79.46861612197489 149.91997958403743 C 0.0 **** -0.24
31867 H 103.3669531390521 78.81576640113698 150.64222800295983 H 0.0 **** 0.06
31868 H 104.93187266942152 79.28894178334063 149.9397865608952 H 0.0 **** 0.06
31869 H 103.65748353954365 80.5084934028143 150.1779216270595 H 0.0 **** 0.06
31870 H 103.47180889606892 79.26105439023274 148.9221509729851 H 0.0 **** 0.06
31871 C 90.76980649261394 14.350995033888957 92.78153404821235 C 0.0 **** -0.24
31872 H 90.29625490197012 15.119691503785347 92.17004870055489 H 0.0 **** 0.06
31873 H 91.77968913657547 14.166093361609256 92.41402742110108 H 0.0 **** 0.06
31874 H 90.18773010806522 13.431641620547701 92.7240794601697 H 0.0 **** 0.06
31875 H 90.81582270422157 14.688738690529298 93.81759024867166 H 0.0 **** 0.06
31876 C 51.370973017875826 104.44041755052037 119.71135454636489 C 0.0 **** -0.24
31877 H 52.09443392548215 105.25554539239745 119.71963590927457 H 0.0 **** 0.06
31878 H 51.3917175554715 103.94707572627765 118.73880108720287 H 0.0 **** 0.06
31879 H 50.37387776868849 104.8376156688547 119.89747101839957 H 0.0 **** 0.06
31880 H 51.62682977422327 103.72102367474561 120.48933812431726 H 0.0 **** 0.06
31881 C 142.32787245541164 107.38069475489901 77.54367975527191 C 0.0 **** -0.24
31882 H 142.30104870056812 106.85516547469162 78.49898189515886 H 0.0 **** 0.06
31883 H 142.69187289412287 106.70546490880487 76.76914569262817 H 0.0 **** 0.06
31884 H 142.99302214266368 108.2404963645423 77.62052856759249 H 0.0 **** 0.06
31885 H 141.32335703166365 107.71920227770549 77.28855407667061 H 0.0 **** 0.06
31886 C 5.46062265549353 74.77867238973707 144.74888516353047 C 0.0 **** -0.24
31887 H 4.8711944391238475 75.56199376094565 144.27230287290794 H 0.0 **** 0.06
31888 H 6.392966486039278 74.64154757032475 144.20074334751882 H 0.0 **** 0.06
31889 H 4.895737142527814 73.84725502376563 144.74433856492098 H 0.0 **** 0.06
31890 H 5.681771674300052 75.0652212940798 145.77655508918016 H 0.0 **** 0.06
31891 C 71.61586342573551 138.8148812208716 152.20199718347754 C 0.0 **** -0.24
31892 H 70.7876381159018 138.52442230982766 151.55456442753112 H 0.0 **** 0.06
31893 H 71.26190862289593 138.89793246245324 153.2295204951803 H 0.0 **** 0.06
31894 H 72.01207487356211 139.77640221498436 151.87467080912614 H 0.0 **** 0.06
31895 H 72.4006597577582 138.0607494318238 152.14732893863754 H 0.0 **** 0.06
31896 C 129.41937569344174 21.58943780839894 4.481057848788957 C 0.0 **** -0.24
31897 H 130.2022420618408 20.948581642804015 4.885703705906479 H 0.0 **** 0.06
31898 H 129.60033624037243 21.75756002935617 3.418967032921625 H 0.0 **** 0.06
31899 H 129.423468212029 22.544087848836966 5.006017071330575 H 0.0 **** 0.06
31900 H 128.45033225231282 21.106906655076898 4.612944938915447 H 0.0 **** 0.06
31901 C 80.21290350941455 78.46051298157565 137.81903292389904 C 0.0 **** -0.24
31902 H 80.90154008917666 78.12010170757947 138.59149163088114 H 0.0 **** 0.06
31903 H 80.05496089268487 79.5341832083267 137.92073367903046 H 0.0 **** 0.06
31904 H 79.26020802057367 77.94206856143857 137.92696975071985 H 0.0 **** 0.06
31905 H 80.63366393626787 78.24563383211654 136.8362616807839 H 0.0 **** 0.06
31906 C 57.104402418231984 131.21126697486778 102.75459416266507 C 0.0 **** -0.24
31907 H 58.12561992728874 131.17332241620244 103.13233434488968 H 0.0 **** 0.06
31908 H 56.6581514486673 132.17258146779528 103.01098491560786 H 0.0 **** 0.06
31909 H 56.52034917952312 130.40817517529183 103.20556432875348 H 0.0 **** 0.06
31910 H 57.11291149071474 131.09090181519946 101.67187192023339 H 0.0 **** 0.06
31911 C 11.549764880536088 13.425932237637717 62.12759242961937 C 0.0 **** -0.24
31912 H 11.551344177112298 12.850809151146649 61.201520822646785 H 0.0 **** 0.06
31913 H 12.126030398422074 12.894603466073832 62.88534204256206 H 0.0 **** 0.06
31914 H 10.524825326885775 13.555230763383172 62.47316358876418 H 0.0 **** 0.06
31915 H 11.998969721580693 14.403447995376432 61.94824173865135 H 0.0 **** 0.06
31916 C 53.36337858360287 3.0769977486116318 75.58818024830973 C 0.0 **** -0.24
31917 H 53.507881265488095 2.546430988063719 76.53027186684899 H 0.0 **** 0.06
31918 H 52.785798232341875 2.452806396408846 74.9058175965506 H 0.0 **** 0.06
31919 H 54.33337409573417 3.2993679379881655 75.14526623334731 H 0.0 **** 0.06
31920 H 52.826114146572024 4.006938867487463 75.7735773946366 H 0.0 **** 0.06
31921 C 39.20790970122913 62.41641747584657 103.2128181597083 C 0.0 **** -0.24
31922 H 39.58881476554315 62.09201289704927 102.24365681035677 H 0.0 **** 0.06
31923 H 38.57422302493863 63.29321192269782 103.07764278650144 H 0.0 **** 0.06
31924 H 40.04396741198903 62.668296871481346 103.86576070475049 H 0.0 **** 0.06
31925 H 38.62567602961758 61.61175029743606 103.6614275028641 H 0.0 **** 0.06
31926 C 104.18865438583252 44.36490506120482 39.59194292832008 C 0.0 **** -0.24
31927 H 103.67784243928894 45.01359773935316 38.87970092905631 H 0.0 **** 0.06
31928 H 103.49947051155029 44.089156196931384 40.39027545947836 H 0.0 **** 0.06
31929 H 105.04231626864633 44.894021153104845 40.01608233734116 H 0.0 **** 0.06
31930 H 104.53460518599341 43.46579270537181 39.08211974000024 H 0.0 **** 0.06
31931 C 58.03989559658284 128.34294873327246 143.29293105148162 C 0.0 **** -0.24
31932 H 57.4801144515794 128.30717792418926 142.35763578654843 H 0.0 **** 0.06
31933 H 57.8448421932612 129.29092585277297 143.79565589205055 H 0.0 **** 0.06
31934 H 59.10495471048087 128.2550414051691 143.08155221399602 H 0.0 **** 0.06
31935 H 57.72652691271631 127.51941652059391 143.93500227175073 H 0.0 **** 0.06
31936 C 90.2808410989528 55.49008749759341 148.80092962181965 C 0.0 **** -0.24
31937 H 91.18272255985606 56.00584419135667 149.13073947094585 H 0.0 **** 0.06
31938 H 89.45858589433801 56.20409141765488 148.73460825765125 H 0.0 **** 0.06
31939 H 90.02639124592835 54.709094040692506 149.51754958254907 H 0.0 **** 0.06
31940 H 90.4541589769245 55.04378913923057 147.82244543064252 H 0.0 **** 0.06
31941 C 149.00995319400374 63.927860201232534 91.22720873659978 C 0.0 **** -0.24
31942 H 148.33747235848483 64.78575756851825 91.251236360353 H 0.0 **** 0.06
31943 H 148.46854471340242 63.05348033503924 90.86531317842048 H 0.0 **** 0.06
31944 H 149.3860223814167 63.73355009914752 92.2318679998948 H 0.0 **** 0.06
31945 H 149.8450220670897 64.14104307182771 90.56126455555 H 0.0 **** 0.06
31946 C 0.5080711569028722 32.933912686581095 27.153300819031756 C 0.0 **** -0.24
31947 H 1.4703346101616717 33.43284543809568 27.03961345151322 H 0.0 **** 0.06
31948 H -0.2950697254143506 33.6543940994103 26.99804640771987 H 0.0 **** 0.06
31949 H 0.4325651115102005 32.51582297758097 28.156776520092876 H 0.0 **** 0.06
31950 H 0.42539158160974466 32.13283547055147 26.418519855328952 H 0.0 **** 0.06
31951 C 153.29563282280606 72.5075817513594 119.42844056735186 C 0.0 **** -0.24
31952 H 153.18141048092608 72.86893223638761 118.40638295714888 H 0.0 **** 0.06
31953 H 152.4540616566385 71.86320925385048 119.68299259103156 H 0.0 **** 0.06
31954 H 153.32386733870035 73.35661395899379 120.11223573422939 H 0.0 **** 0.06
31955 H 154.22451699246923 71.9429389404273 119.51153919033482 H 0.0 **** 0.06
31956 C 97.76929710863769 90.68407129974068 139.74279436104914 C 0.0 **** -0.24
31957 H 98.26508245680043 91.1185773058679 138.87414821664632 H 0.0 **** 0.06
31958 H 98.29300061212706 90.98647518108835 140.64985732260962 H 0.0 **** 0.06
31959 H 97.77970957893965 89.59705597027809 139.66088016564268 H 0.0 **** 0.06
31960 H 96.73782961104543 91.03509258153633 139.78464597910462 H 0.0 **** 0.06
31961 C 76.17592004157973 75.50964708382193 92.85518087410716 C 0.0 **** -0.24
31962 H 76.55102622668977 74.72366312031637 93.51057482226916 H 0.0 **** 0.06
31963 H 76.97128281767868 75.83205654663765 92.18312293961564 H 0.0 **** 0.06
31964 H 75.84164227653145 76.35522880616652 93.45671442567551 H 0.0 **** 0.06
31965 H 75.33931686335845 75.12713330794523 92.27106874279411 H 0.0 **** 0.06
31966 C 145.86486392259843 8.55390134814045 95.43877967737996 C 0.0 **** -0.24
31967 H 146.15872575792008 7.755193107990543 96.12066608842451 H 0.0 **** 0.06
31968 H 144.78033031010074 8.559915082285059 95.33134439768378 H 0.0 **** 0.06
31969 H 146.32641645342898 8.387148851087296 94.46515985481017 H 0.0 **** 0.06
31970 H 146.19646036049824 9.5117260312471 95.83842992121944 H 0.0 **** 0.06
31971 C 114.44090576984262 37.914372254946045 54.85473253007906 C 0.0 **** -0.24
31972 H 114.8201651911631 36.91325291753077 55.06232604997635 H 0.0 **** 0.06
31973 H 113.88479384797456 37.9049927202594 53.91736588752259 H 0.0 **** 0.06
31974 H 115.27593347509215 38.609577788177546 54.77625562404927 H 0.0 **** 0.06
31975 H 113.78148787623341 38.22747234113331 55.6646091072286 H 0.0 **** 0.06
31976 C 151.53871117124717 140.23043498718266 34.350884562146305 C 0.0 **** -0.24
31977 H 150.87974629234824 139.39467556259154 34.114222008421436 H 0.0 **** 0.06
31978 H 151.08647904744677 140.83950050004609 35.133508337761796 H 0.0 **** 0.06
31979 H 151.68851279232385 140.83785044792342 33.458359156359634 H 0.0 **** 0.06
31980 H 152.49956111112002 139.8479357579294 34.696206768180375 H 0.0 **** 0.06
31981 C 28.78530137143335 131.67573306907553 53.177427958266264 C 0.0 **** -0.24
31982 H 29.244873733988527 130.76034932514943 53.54919601952747 H 0.0 **** 0.06
31983 H 28.00633134701542 131.9977304008391 53.86887072934633 H 0.0 **** 0.06
31984 H 28.347111342911546 131.4899914477253 52.19661287207509 H 0.0 **** 0.06
31985 H 29.542889061817846 132.45486110258824 53.09503221211611 H 0.0 **** 0.06
31986 C 21.168952289398305 68.12725832613232 134.79068530048235 C 0.0 **** -0.24
31987 H 20.116512271800957 67.9405399457699 135.0031609739284 H 0.0 **** 0.06
31988 H 21.670175878590385 67.18052820519995 134.58317447282525 H 0.0 **** 0.06
31989 H 21.634153425007582 68.60358782043204 135.65308471641873 H 0.0 **** 0.06
31990 H 21.25385596265943 68.78125420374825 133.9232174871433 H 0.0 **** 0.06
31991 C 61.76747393953838 79.0131070864161 129.60880873747067 C 0.0 **** -0.24
31992 H 62.70035658180501 79.01937642543857 129.04434406262698 H 0.0 **** 0.06
31993 H 61.97879854802642 78.79998742132493 130.65745865175444 H 0.0 **** 0.06
31994 H 61.10624072503879 78.24457914412176 129.20834386585406 H 0.0 **** 0.06
31995 H 61.28611005379818 79.98788814630566 129.5253138801964 H 0.0 **** 0.06
31996 C 149.57253551075897 74.6529356912074 122.54595575241575 C 0.0 **** -0.24
31997 H 149.38956176253342 75.68186936915987 122.85379455334129 H 0.0 **** 0.06
31998 H 148.68695716059506 74.05022498939309 122.74902590700191 H 0.0 **** 0.06
31999 H 150.41957268738432 74.25268451484038 123.10377894331276 H 0.0 **** 0.06
32000 H 149.794788704573 74.6256994675519 121.4798420940379 H 0.0 **** 0.06
32001 C 101.67811636918395 108.25279434419332 46.03079792062209 C 0.0 **** -0.24
32002 H 101.79922996899501 107.65612472904303 46.93435007982845 H 0.0 **** 0.06
32003 H 102.37986297687621 109.08655748848906 46.04911140597437 H 0.0 **** 0.06
32004 H 100.65842424184251 108.63644085200605 45.983142593725574 H 0.0 **** 0.06
32005 H 101.87328409879228 107.63215792285041 45.15611874015144 H 0.0 **** 0.06
32006 C 100.36096547483545 129.101537960078 63.43864729616904 C 0.0 **** -0.24
32007 H 99.94898959875967 128.38612032438795 64.149287926049 H 0.0 **** 0.06
32008 H 101.33291646790845 128.74990989803405 63.09203128931715 H 0.0 **** 0.06
32009 H 100.47652497580195 130.0705692714218 63.92369262966544 H 0.0 **** 0.06
32010 H 99.6850365470094 129.19800230038854 62.58837650365166 H 0.0 **** 0.06
32011 C 107.01759964742543 71.58793134395631 9.054953851126754 C 0.0 **** -0.24
32012 H 106.52626749016092 71.97667418768975 9.94581316689414 H 0.0 **** 0.06
32013 H 106.27042508757513 71.38489467591484 8.287260563516213 H 0.0 **** 0.06
32014 H 107.54331345589289 70.66511350071653 9.303588011452518 H 0.0 **** 0.06
32015 H 107.72972245580873 72.32344668974298 8.683206767449406 H 0.0 **** 0.06
32016 C 148.9243866383644 55.91776567140644 53.03030559247313 C 0.0 **** -0.24
32017 H 149.65214226242654 56.22808116680582 52.279695336543426 H 0.0 **** 0.06
32018 H 147.92516608827611 56.21656112392283 52.71345193323242 H 0.0 **** 0.06
32019 H 149.1610217191544 56.39140244825418 53.982631001951916 H 0.0 **** 0.06
32020 H 148.96098649978757 54.83379162537675 53.14484131993129 H 0.0 **** 0.06
32021 C 87.20188595823292 70.87960515840805 59.2814020709929 C 0.0 **** -0.24
32022 H 87.63459141207089 70.03718307403392 59.8207643647075 H 0.0 **** 0.06
32023 H 87.07573054110527 70.61328741386473 58.23187058074555 H 0.0 **** 0.06
32024 H 87.86565579513196 71.74072744273764 59.360697065344425 H 0.0 **** 0.06
32025 H 86.23195287592745 71.12811051552245 59.71252570042722 H 0.0 **** 0.06
32026 C 3.569809612614648 141.7838440579115 139.4696027983734 C 0.0 **** -0.24
32027 H 2.9249155021311424 142.3010544179549 138.75903984756673 H 0.0 **** 0.06
32028 H 4.4199489586893606 142.42081231750453 139.71704824979238 H 0.0 **** 0.06
32029 H 3.9276176343656743 140.8549847760766 139.02589398443823 H 0.0 **** 0.06
32030 H 3.006198171362513 141.56123250712506 140.37526437432226 H 0.0 **** 0.06
32031 C 1.0017973790149313 138.18771249443972 42.76288187358591 C 0.0 **** -0.24
32032 H 0.8694965539153827 139.21134115271843 43.11182241204426 H 0.0 **** 0.06
32033 H 1.4409201248615204 138.19754077450105 41.76509266574283 H 0.0 **** 0.06
32034 H 0.03348921689865847 137.68747753286675 42.72916264390631 H 0.0 **** 0.06
32035 H 1.6621479225577787 137.65325538117355 43.44501997511111 H 0.0 **** 0.06
32036 C 63.96940138453333 39.54452758235641 13.858905865893178 C 0.0 **** -0.24
32037 H 63.82442737474082 39.28572973805947 14.906280575327472 H 0.0 **** 0.06
32038 H 63.29867149246985 38.947510090028516 13.240094720463041 H 0.0 **** 0.06
32039 H 65.00222456988368 39.34208464955745 13.574482213303206 H 0.0 **** 0.06
32040 H 63.75407074045998 40.60299228979858 13.712366278394121 H 0.0 **** 0.06
32041 C 113.9580063399539 62.35820880239251 133.64300821946858 C 0.0 **** -0.24
32042 H 113.9551099209167 62.831515236164535 132.66064508248635 H 0.0 **** 0.06
32043 H 112.95273690745927 62.00641430345337 133.87851984267814 H 0.0 **** 0.06
32044 H 114.27450139019373 63.08224851177596 134.39370193085577 H 0.0 **** 0.06
32045 H 114.64701554902388 61.51436091342481 133.63774703084155 H 0.0 **** 0.06
32046 C 81.74232814817768 74.34580765448261 32.39270658794578 C 0.0 **** -0.24
32047 H 81.12104416890895 73.45017692193677 32.38931823116047 H 0.0 **** 0.06
32048 H 81.5585501600773 74.91870691193579 31.484013157653962 H 0.0 **** 0.06
32049 H 82.79290823168745 74.05836362996841 32.43608971782017 H 0.0 **** 0.06
32050 H 81.4970299813095 74.95467272887218 33.26346306034061 H 0.0 **** 0.06
32051 C 57.281323213956796 144.60663268787548 87.15486885618517 C 0.0 **** -0.24
32052 H 57.050537031636594 145.42787195298723 87.83182632093292 H 0.0 **** 0.06
32053 H 56.39038904834091 143.9965395013948 87.00531185933261 H 0.0 **** 0.06
32054 H 58.07487567500465 143.99364055340004 87.58302166582865 H 0.0 **** 0.06
32055 H 57.611065456573925 145.00851645189186 86.19592140159949 H 0.0 **** 0.06
32056 C 74.9292774324102 136.40170566187032 52.571387121742916 C 0.0 **** -0.24
32057 H 74.2483836190988 135.88128288817768 51.89892569105595 H 0.0 **** 0.06
32058 H 75.35946496843633 135.68947619374558 53.27648823870149 H 0.0 **** 0.06
32059 H 74.38271466809556 137.16953174718907 53.11921914743898 H 0.0 **** 0.06
32060 H 75.7271589857117 136.8681092953724 51.993181829003035 H 0.0 **** 0.06
32061 C 125.66965025854734 64.03864940841771 61.59495209356433 C 0.0 **** -0.24
32062 H 125.45461349735899 64.98975589743432 62.08052727925616 H 0.0 **** 0.06
32063 H 125.15670719336794 63.997323338237635 60.6343037580113 H 0.0 **** 0.06
32064 H 125.32382435690175 63.22114394310677 62.22758858652412 H 0.0 **** 0.06
32065 H 126.74474267228419 63.945810521267305 61.43755148894931 H 0.0 **** 0.06
32066 C 34.11749305071311 122.29611126129957 112.16142563802076 C 0.0 **** -0.24
32067 H 34.46080700636065 121.47935041075364 112.7961050070523 H 0.0 **** 0.06
32068 H 34.122183427734115 123.22541633363123 112.73205843709896 H 0.0 **** 0.06
32069 H 33.10489412480348 122.08630396821398 111.81620107220597 H 0.0 **** 0.06
32070 H 34.78120692534236 122.3932392326859 111.3024362833474 H 0.0 **** 0.06
32071 C 124.91333339909484 53.807184848454696 38.84400647065961 C 0.0 **** -0.24
32072 H 124.99595951678866 52.72122550929565 38.88001879646683 H 0.0 **** 0.06
32073 H 124.74670857758427 54.12489468303161 37.8148765996129 H 0.0 **** 0.06
32074 H 125.83522778411917 54.2537114142949 39.217386249147694 H 0.0 **** 0.06
32075 H 124.07663792236654 54.12912597165126 39.46445975809603 H 0.0 **** 0.06
32076 C 89.10447364621496 40.77559042874611 85.22579674630906 C 0.0 **** -0.24
32077 H 88.21165778006304 40.52983480424632 85.80106771259321 H 0.0 **** 0.06
32078 H 89.03766131442549 40.31748637456542 84.23935443385272 H 0.0 **** 0.06
32079 H 89.985554461471 40.398067812650936 85.74384781825567 H 0.0 **** 0.06
32080 H 89.18141847180777 41.85810562135407 85.11930235605872 H 0.0 **** 0.06
32081 C 149.24259887643137 70.02431877143576 112.89340467462847 C 0.0 **** -0.24
32082 H 149.45397574925533 71.00665468518599 113.31531062048265 H 0.0 **** 0.06
32083 H 148.59499368421194 70.13459517662768 112.02324013772511 H 0.0 **** 0.06
32084 H 148.74499936990682 69.40721850551812 113.64169918379963 H 0.0 **** 0.06
32085 H 150.17654706226128 69.54969484267149 112.59381235693525 H 0.0 **** 0.06
32086 C 10.696430651319588 137.2551267037357 129.47338273065685 C 0.0 **** -0.24
32087 H 9.79181433186966 137.85051159074197 129.59849001984304 H 0.0 **** 0.06
32088 H 10.645764107768457 136.71242883122164 128.52977233879463 H 0.0 **** 0.06
32089 H 10.780067777514432 136.54641786515214 130.29770081600566 H 0.0 **** 0.06
32090 H 11.56599056931168 137.91219930930527 129.46916320357968 H 0.0 **** 0.06
32091 C 154.23266989826607 116.84334452511807 20.44490998409401 C 0.0 **** -0.24
32092 H 154.90737806045968 117.67777471880517 20.63622077542516 H 0.0 **** 0.06
32093 H 153.20957819131525 117.21254632673767 20.375793776164016 H 0.0 **** 0.06
32094 H 154.3048844401933 116.1232428775205 21.260043931039718 H 0.0 **** 0.06
32095 H 154.50940436858514 116.36063833264681 19.507549093081195 H 0.0 **** 0.06
32096 C 106.38938183093374 149.05075921313298 28.662571995279443 C 0.0 **** -0.24
32097 H 105.95220762316107 148.41890127976646 29.435341635485692 H 0.0 **** 0.06
32098 H 107.46875128628683 148.90147553533487 28.640197357238144 H 0.0 **** 0.06
32099 H 106.17017222549852 150.09596374323954 28.881784962704693 H 0.0 **** 0.06
32100 H 105.96521571181243 148.78661304625282 27.69422879505106 H 0.0 **** 0.06
32101 C 29.522493998500252 73.38784968825865 50.65451261452772 C 0.0 **** -0.24
32102 H 30.4918169530879 72.95318237107375 50.90146412777489 H 0.0 **** 0.06
32103 H 28.827732489917423 73.21605900119454 51.47740939917911 H 0.0 **** 0.06
32104 H 29.135722644205515 72.92106309991925 49.74883118061034 H 0.0 **** 0.06
32105 H 29.636040471976557 74.45931103080335 50.49052953175335 H 0.0 **** 0.06
32106 C 137.79897090351017 60.873501297008545 55.63476999699827 C 0.0 **** -0.24
32107 H 137.75969127914976 61.251426970379526 54.61330538357919 H 0.0 **** 0.06
32108 H 138.77114074451248 61.10325988231202 56.0700646563222 H 0.0 **** 0.06
32109 H 137.64872845687654 59.79387048549265 55.62804742474141 H 0.0 **** 0.06
32110 H 137.01502260762226 61.34577058925538 56.22721026588748 H 0.0 **** 0.06
32111 C 52.13184819607521 52.29332268697743 100.79154353729596 C 0.0 **** -0.24
32112 H 53.123852458217925 52.69759153030543 100.5897641500227 H 0.0 **** 0.06
32113 H 51.70492268921112 51.901651269846525 99.86885466847248 H 0.0 **** 0.06
32114 H 51.49121015635747 53.082965909146196 101.18239787058216 H 0.0 **** 0.06
32115 H 52.21016681770443 51.491522666255094 101.52624933853282 H 0.0 **** 0.06
32116 C 151.52572881743416 120.25008185707497 62.184192977934515 C 0.0 **** -0.24
32117 H 151.27177627107926 120.77724208796951 61.26398490305496 H 0.0 **** 0.06
32118 H 151.8468917449517 119.2358753670618 61.94429658361838 H 0.0 **** 0.06
32119 H 150.65100417177547 120.21057580924924 62.83296082647706 H 0.0 **** 0.06
32120 H 152.33246539064177 120.7770940695799 62.69325278536883 H 0.0 **** 0.06
32121 C 1.56586724377998 152.70107054540836 156.31872347399985 C 0.0 **** -0.24
32122 H 2.0893386612450477 151.94345342148011 155.73414097931538 H 0.0 **** 0.06
32123 H 0.795884653731374 153.16578494408185 155.70262119359086 H 0.0 **** 0.06
32124 H 2.275324519054834 153.46025884811215 156.64795920467634 H 0.0 **** 0.06
32125 H 1.1042174409106487 152.23401575081243 157.18824168775342 H 0.0 **** 0.06
32126 C 137.36313049107991 76.06182356436625 93.01583816999862 C 0.0 **** -0.24
32127 H 137.36953193072077 77.14642136324963 93.1224885164869 H 0.0 **** 0.06
32128 H 137.82697871580197 75.78767364552166 92.06861417357314 H 0.0 **** 0.06
32129 H 136.3342783753404 75.70120578258928 93.03488647421185 H 0.0 **** 0.06
32130 H 137.92082129282971 75.61239669276176 93.83728391817354 H 0.0 **** 0.06
32131 C 2.0392655212717727 18.12812857339543 98.40679639110746 C 0.0 **** -0.24
32132 H 2.0127241626447585 17.36743187640127 99.18658850504956 H 0.0 **** 0.06
32133 H 1.0273089785164586 18.480801751643753 98.20812769824435 H 0.0 **** 0.06
32134 H 2.461315315991442 17.700197732156425 97.49649265300803 H 0.0 **** 0.06
32135 H 2.658080121679035 18.963453326394585 98.7359175667862 H 0.0 **** 0.06
32136 C 99.56327014869943 2.8586088964907503 42.93572344938798 C 0.0 **** -0.24
32137 H 99.29384050163667 2.001426993218704 43.552015174683106 H 0.0 **** 0.06
32138 H 100.64880914655414 2.9133635356672016 42.84419892279715 H 0.0 **** 0.06
32139 H 99.19102345155808 3.7711197193064265 43.40131239147581 H 0.0 **** 0.06
32140 H 99.11983585577971 2.748572820844089 41.94626968600687 H 0.0 **** 0.06
32141 C 82.7970172263431 51.08235853073222 74.26871225092077 C 0.0 **** -0.24
32142 H 82.23938002523356 50.196341767205865 73.96879618398964 H 0.0 **** 0.06
32143 H 82.77801814854878 51.17336334101168 75.35547528052541 H 0.0 **** 0.06
32144 H 82.34194430121981 51.96680431194102 73.82196289095555 H 0.0 **** 0.06
32145 H 83.82920557011667 50.994944525347535 73.92944585493103 H 0.0 **** 0.06
32146 C 30.543128041094256 143.17855474515017 98.82974729232512 C 0.0 **** -0.24
32147 H 29.48486784273259 142.91951358114773 98.8202253906466 H 0.0 **** 0.06
32148 H 31.024915107863897 142.7058329675781 99.68694977046756 H 0.0 **** 0.06
32149 H 30.651679630312458 144.2605174670814 98.9029653342199 H 0.0 **** 0.06
32150 H 31.01189525140059 142.82728902740496 97.90992045793789 H 0.0 **** 0.06
32151 C 73.95773859891243 156.06362862576626 16.95377046444878 C 0.0 **** -0.24
32152 H 74.82197156534606 155.93986024565112 16.300958509944174 H 0.0 **** 0.06
32153 H 73.08726254364748 156.33526847194096 16.35706627893353 H 0.0 **** 0.06
32154 H 74.1613401743734 156.85140624097426 17.679867934732314 H 0.0 **** 0.06
32155 H 73.76354601401528 155.12807189013716 17.478173459614233 H 0.0 **** 0.06
32156 C 29.158644576989374 3.8743943734697552 3.6704361059961954 C 0.0 **** -0.24
32157 H 28.708060940070197 4.624818879598024 3.0208938697361383 H 0.0 **** 0.06
32158 H 29.399766180717933 4.3254529045849495 4.6332877370842525 H 0.0 **** 0.06
32159 H 30.069590508012595 3.4934535658682933 3.2086328079049764 H 0.0 **** 0.06
32160 H 28.45579674355602 3.0539926782834925 3.8185836065403933 H 0.0 **** 0.06
32161 C 92.72398375799024 19.513709337881295 146.48979163979917 C 0.0 **** -0.24
32162 H 93.11350218712786 20.52732563444914 146.58965204595 H 0.0 **** 0.06
32163 H 92.33678293864095 19.177066759772714 147.45146776523728 H 0.0 **** 0.06
32164 H 93.52384576406396 18.847715045993738 146.1668287468895 H 0.0 **** 0.06
32165 H 91.92284789206231 19.503649367609995 145.75147344443315 H 0.0 **** 0.06
32166 C 7.60500538433832 146.15816319026231 124.64342717414864 C 0.0 **** -0.24
32167 H 6.703141036489448 145.87069786758835 125.18526396285496 H 0.0 **** 0.06
32168 H 7.5582389972179485 145.76565240715132 123.62781314858405 H 0.0 **** 0.06
32169 H 8.478653604570013 145.75079285088816 125.1512783660673 H 0.0 **** 0.06
32170 H 7.677191967930263 147.2449170887139 124.61026533222672 H 0.0 **** 0.06
32171 C 80.92764334532107 83.60423916532831 112.01162041967176 C 0.0 **** -0.24
32172 H 81.2031861922623 82.7019663783037 111.46669052375348 H 0.0 **** 0.06
32173 H 81.82876576727153 84.15936231465196 112.27501250045283 H 0.0 **** 0.06
32174 H 80.3910274654725 83.3314985186684 112.91954583604168 H 0.0 **** 0.06
32175 H 80.28861495307473 84.22582586703892 111.38419363776892 H 0.0 **** 0.06
32176 C 16.885941830521062 101.58694528881269 60.16184226122991 C 0.0 **** -0.24
32177 H 16.371742241071907 100.74956612594669 59.69160982295645 H 0.0 **** 0.06
32178 H 17.05688893747498 102.36980233576547 59.42246913272146 H 0.0 **** 0.06
32179 H 17.842880696797508 101.24875016985392 60.56088082962674 H 0.0 **** 0.06
32180 H 16.272255446739678 101.97966252368458 60.972409259615006 H 0.0 **** 0.06
32181 C 119.95687807784255 26.35761727732276 62.42763807676859 C 0.0 **** -0.24
32182 H 119.03262036279482 26.9184805945614 62.29247279402085 H 0.0 **** 0.06
32183 H 120.55166832592677 26.82067422941367 63.215008061263646 H 0.0 **** 0.06
32184 H 120.52276846695345 26.35985082314349 61.495845845666025 H 0.0 **** 0.06
32185 H 119.72131921808578 25.330615098692306 62.70598715013372 H 0.0 **** 0.06
32186 C 6.088240393030873 148.58888019554666 26.360759280051354 C 0.0 **** -0.24
32187 H 5.675361217363843 149.5956142461809 26.415822636852774 H 0.0 **** 0.06
32188 H 5.809452559537419 148.03204283776935 27.255665526370755 H 0.0 **** 0.06
32189 H 7.175271238715709 148.64509551038387 26.291704971152832 H 0.0 **** 0.06
32190 H 5.695013392562856 148.0822737020599 25.47940858002054 H 0.0 **** 0.06
32191 C 121.61151692555141 23.032762893392032 33.288314362725146 C 0.0 **** -0.24
32192 H 122.22914346924047 23.920421351047594 33.4217293422912 H 0.0 **** 0.06
32193 H 121.34668433917945 22.92833057848088 32.23569605838156 H 0.0 **** 0.06
32194 H 120.70344103260835 23.13013868368654 33.88362588745247 H 0.0 **** 0.06
32195 H 122.16582640951499 22.151965064327612 33.61321414472491 H 0.0 **** 0.06
32196 C 29.008880535337823 143.8301448860422 26.58446179663688 C 0.0 **** -0.24
32197 H 28.221634206136883 144.09064323469124 25.87712065295314 H 0.0 **** 0.06
32198 H 29.595943350575624 143.00165969693768 26.184791557321944 H 0.0 **** 0.06
32199 H 28.561010806572313 143.53452022631853 27.533043594628083 H 0.0 **** 0.06
32200 H 29.65639215421632 144.69259586184427 26.74080331505678 H 0.0 **** 0.06
32201 C 68.03774206620747 72.28481466513094 115.3926890106553 C 0.0 **** -0.24
32202 H 68.32042292641584 72.03431990342044 114.37015315258556 H 0.0 **** 0.06
32203 H 68.19899769779458 71.41990174456524 116.03654998129919 H 0.0 **** 0.06
32204 H 66.98502113232638 72.568179048235 115.41931548980143 H 0.0 **** 0.06
32205 H 68.64728071322565 73.11853381289899 115.74346350011875 H 0.0 **** 0.06
32206 C 84.66134843944846 145.29573896916864 98.85427508609502 C 0.0 **** -0.24
32207 H 85.22509350269793 145.23593353671163 97.923375263161 H 0.0 **** 0.06
32208 H 83.78834441431752 144.64539834470605 98.79321169027645 H 0.0 **** 0.06
32209 H 84.33800609006586 146.32443548755927 99.01792384491586 H 0.0 **** 0.06
32210 H 85.29394975071256 144.97718850769775 99.68258954602658 H 0.0 **** 0.06
32211 C 77.64479795568977 71.20831320567828 127.178897411166 C 0.0 **** -0.24
32212 H 76.88589248268849 71.87052562646608 127.59521802507668 H 0.0 **** 0.06
32213 H 77.73377971248195 70.3200544690448 127.80487133744596 H 0.0 **** 0.06
32214 H 78.6021376474882 71.72861637967782 127.14794591695879 H 0.0 **** 0.06
32215 H 77.35748999445268 70.91587509909016 126.16919164064517 H 0.0 **** 0.06
32216 C 14.57801330516886 68.67023540496126 55.44599439521011 C 0.0 **** -0.24
32217 H 14.458487458920025 69.75235040853937 55.47872518368092 H 0.0 **** 0.06
32218 H 13.596807285040015 68.19559760871442 55.47894000208993 H 0.0 **** 0.06
32219 H 15.168714524229358 68.34405288286627 56.30225820762013 H 0.0 **** 0.06
32220 H 15.087912337749714 68.38862056062834 54.52499238159976 H 0.0 **** 0.06
32221 C 7.706365596604087 76.78084978730374 58.99370513788625 C 0.0 **** -0.24
32222 H 7.370266661869408 76.07420658301018 59.75250455694254 H 0.0 **** 0.06
32223 H 8.697251850560264 76.49182970447669 58.64114798504443 H 0.0 **** 0.06
32224 H 7.75151459605695 77.78135579890835 59.424052630570145 H 0.0 **** 0.06
32225 H 7.0076208483796165 76.77596401484502 58.157875886604586 H 0.0 **** 0.06
32226 C 124.64248712797847 96.6255163846794 120.47065562655514 C 0.0 **** -0.24
32227 H 123.95303971133772 96.40793432885636 121.28660660010895 H 0.0 **** 0.06
32228 H 124.51977375624848 95.88096427760871 119.68331116622618 H 0.0 **** 0.06
32229 H 125.66635853603206 96.59501063579305 120.84364144205976 H 0.0 **** 0.06
32230 H 124.43024759309053 97.61654443477306 120.07052011399712 H 0.0 **** 0.06
32231 C 66.81607761237666 34.89974248571933 79.04662500461578 C 0.0 **** -0.24
32232 H 65.84718003470329 34.71004178958972 78.58495434929637 H 0.0 **** 0.06
32233 H 67.58198267992861 34.95872965707373 78.27347521059568 H 0.0 **** 0.06
32234 H 67.0548096936968 34.08935111354006 79.7349138013366 H 0.0 **** 0.06
32235 H 66.77882752366307 35.84270688612742 79.59366732252766 H 0.0 **** 0.06
32236 C 98.77913412905608 93.77307058991596 108.45327261546328 C 0.0 **** -0.24
32237 H 98.61319662421671 92.95939343525578 109.16053491449884 H 0.0 **** 0.06
32238 H 98.87191275687759 94.7128524550734 108.99816330430394 H 0.0 **** 0.06
32239 H 97.93754932962207 93.83311042325869 107.76442585545573 H 0.0 **** 0.06
32240 H 99.6958008807524 93.58584481967159 107.89298850386683 H 0.0 **** 0.06
32241 C 44.752696310547975 124.07492201050792 129.95347478845056 C 0.0 **** -0.24
32242 H 45.545084626479394 124.52363832527493 130.55149991857556 H 0.0 **** 0.06
32243 H 43.7857740674812 124.44076200704251 130.29890950570015 H 0.0 **** 0.06
32244 H 44.789156294783155 122.98993271201152 130.05796213980207 H 0.0 **** 0.06
32245 H 44.89095437037386 124.34403768125651 128.90702121234614 H 0.0 **** 0.06
32246 C 116.73697637739036 34.881852048564525 2.3256617181465913 C 0.0 **** -0.24
32247 H 116.5826927993586 35.805795018213544 1.7696234188619258 H 0.0 **** 0.06
32248 H 116.52144186149383 35.05272288073927 3.3811235851372317 H 0.0 **** 0.06
32249 H 117.77168880252538 34.559088281982916 2.2137403427400955 H 0.0 **** 0.06
32250 H 116.07221947845306 34.109843650798275 1.9391491779283854 H 0.0 **** 0.06
32251 C 54.41745568555113 8.268593215942701 79.26757307271025 C 0.0 **** -0.24
32252 H 53.811303177027156 7.3643815749023815 79.20560420681615 H 0.0 **** 0.06
32253 H 55.12065871715761 8.291730501966981 78.4358262409883 H 0.0 **** 0.06
32254 H 54.96586594118379 8.273372229496374 80.20929384222994 H 0.0 **** 0.06
32255 H 53.76846437059187 9.142972325452831 79.22049747500193 H 0.0 **** 0.06
32256 C 34.226981411751126 3.395028669550811 54.99941679756449 C 0.0 **** -0.24
32257 H 35.056559695337036 3.3498157122653254 55.70519887424774 H 0.0 **** 0.06
32258 H 34.53694791654142 3.9434989799530626 54.11002557346143 H 0.0 **** 0.06
32259 H 33.38219720781875 3.902456631761936 55.46401355491193 H 0.0 **** 0.06
32260 H 33.934082595968015 2.3833771614567922 54.71920407584827 H 0.0 **** 0.06
32261 C 153.89936232590028 85.37043955323935 54.00369534127395 C 0.0 **** -0.24
32262 H 154.178009609704 85.21513557221192 55.04548994825794 H 0.0 **** 0.06
32263 H 153.7323656529885 86.43369259463873 53.82762775672721 H 0.0 **** 0.06
32264 H 152.98568061963638 84.8176387546493 53.78602660814204 H 0.0 **** 0.06
32265 H 154.70206465033493 85.01641100940105 53.35677537570187 H 0.0 **** 0.06
32266 C 143.47818213175748 56.690446905819584 35.706372431615776 C 0.0 **** -0.24
32267 H 143.0361269241181 57.196339141716265 34.84745687010136 H 0.0 **** 0.06
32268 H 144.0740791160536 55.84472285421127 35.362111907745444 H 0.0 **** 0.06
32269 H 142.68617573933363 56.33441246360857 36.36468086896275 H 0.0 **** 0.06
32270 H 144.11606512501902 57.38791506128908 36.24940846607221 H 0.0 **** 0.06
32271 C 106.0639852834247 32.57865386833578 119.22275246580693 C 0.0 **** -0.24
32272 H 106.06462586286659 31.98153264805515 118.31080426973534 H 0.0 **** 0.06
32273 H 106.35639463481641 33.60264873370349 118.98638830249683 H 0.0 **** 0.06
32274 H 106.770459462595 32.15328220626492 119.93513707821558 H 0.0 **** 0.06
32275 H 105.06423747181697 32.576869451112515 119.6564733255467 H 0.0 **** 0.06
32276 C 140.11399647221273 8.519768082188897 130.53239645978434 C 0.0 **** -0.24
32277 H 140.19917263924344 8.303139417863846 131.59752590372835 H 0.0 **** 0.06
32278 H 139.70271795759754 7.652455207867938 130.01667171909835 H 0.0 **** 0.06
32279 H 141.1007750534329 8.747673727716737 130.1286530532622 H 0.0 **** 0.06
32280 H 139.4552828999589 9.376612456388017 130.3874383567558 H 0.0 **** 0.06
32281 C 75.71985701285303 114.70840208207204 45.212612584404326 C 0.0 **** -0.24
32282 H 75.05662387952671 114.91660886653244 44.372893330657874 H 0.0 **** 0.06
32283 H 76.75646726707413 114.79349246490699 44.88563781693391 H 0.0 **** 0.06
32284 H 75.53631723685021 113.69801423288305 45.5790457161451 H 0.0 **** 0.06
32285 H 75.53042660839628 115.4243528507522 46.01214199425215 H 0.0 **** 0.06
32286 C 134.21612075039457 47.590832837532346 8.641030150320091 C 0.0 **** -0.24
32287 H 134.63058068192151 47.81184897519421 7.658383498749572 H 0.0 **** 0.06
32288 H 133.25757616029307 48.098809027322886 8.753173689915627 H 0.0 **** 0.06
32289 H 134.9034730048246 47.938840034264416 9.412305426089517 H 0.0 **** 0.06
32290 H 134.0716068010238 46.51562604107171 8.74231541773213 H 0.0 **** 0.06
32291 C 34.9168531369744 64.19647430650764 121.28400221562147 C 0.0 **** -0.24
32292 H 34.668124182245656 63.22336519436243 120.86152830207858 H 0.0 **** 0.06
32293 H 34.51206599093698 64.98292858724318 120.64602984701632 H 0.0 **** 0.06
32294 H 35.999621288511165 64.29992477649728 121.3463220726337 H 0.0 **** 0.06
32295 H 34.48515737350505 64.27982947966211 122.28205301427788 H 0.0 **** 0.06
32296 C 95.85186272048963 74.31133608640522 56.359919175997675 C 0.0 **** -0.24
32297 H 95.4518488793131 75.31376658674719 56.20383673962874 H 0.0 **** 0.06
32298 H 96.49651117809947 74.31123219255818 57.2385408285449 H 0.0 **** 0.06
32299 H 96.42999038447425 74.01140927823869 55.48538786499137 H 0.0 **** 0.06
32300 H 95.02997579436999 73.61197110432403 56.510488584707105 H 0.0 **** 0.06
32301 C 59.16556978923889 0.7006041875599749 75.72805839626103 C 0.0 **** -0.24
32302 H 59.51995955877368 1.3242881527667691 74.90788167959154 H 0.0 **** 0.06
32303 H 58.1875024941113 1.0532513440863909 76.05692927331188 H 0.0 **** 0.06
32304 H 59.87012768719758 0.7559707792755148 76.55754580481795 H 0.0 **** 0.06
32305 H 59.08446043197223 -0.33261196730813936 75.38907557878416 H 0.0 **** 0.06
32306 C 11.116634866620473 69.76796419312753 60.20556147439086 C 0.0 **** -0.24
32307 H 11.529259201264267 69.5907026274783 61.19851321119367 H 0.0 **** 0.06
32308 H 11.871285294068144 70.24195673126026 59.57825974215527 H 0.0 **** 0.06
32309 H 10.247183916615995 70.42091983057583 60.28611998960932 H 0.0 **** 0.06
32310 H 10.817827704990549 68.81862253605922 59.76198245866402 H 0.0 **** 0.06
32311 C 21.357082042009594 3.569482285929837 21.979137748612345 C 0.0 **** -0.24
32312 H 21.541324503899787 3.9123207445534263 22.996870596808876 H 0.0 **** 0.06
32313 H 21.06682052089296 4.416424454015726 21.357261643151126 H 0.0 **** 0.06
32314 H 20.556769410035237 2.8305478485082176 21.982772089879425 H 0.0 **** 0.06
32315 H 22.265461911585774 3.1186360797531734 21.57830310194258 H 0.0 **** 0.06
32316 C 100.4079864676238 38.63562652604719 109.96557542183416 C 0.0 **** -0.24
32317 H 99.52593568191372 39.27319827280459 110.02144433044418 H 0.0 **** 0.06
32318 H 100.1038761519107 37.59001859442924 110.01811735290971 H 0.0 **** 0.06
32319 H 101.07336565444865 38.86284012085309 110.79824593164602 H 0.0 **** 0.06
32320 H 100.92794691154364 38.816500428250066 109.02506203847759 H 0.0 **** 0.06
32321 C 44.836186041975054 137.64180930928427 69.88457616105084 C 0.0 **** -0.24
32322 H 44.43766256932571 137.00342570689128 70.67325930269384 H 0.0 **** 0.06
32323 H 45.91327935410362 137.74958549742462 70.0146837315701 H 0.0 **** 0.06
32324 H 44.36371274560355 138.62280119533847 69.937496702553 H 0.0 **** 0.06
32325 H 44.630180087383906 137.19125547766305 68.91384630614407 H 0.0 **** 0.06
32326 C 101.87665416279248 127.14777460900581 34.1559841541538 C 0.0 **** -0.24
32327 H 102.0967486558385 126.95272971685586 33.10583006332638 H 0.0 **** 0.06
32328 H 102.80772188706464 127.18506901817517 34.72105996695684 H 0.0 **** 0.06
32329 H 101.24434109842565 126.35145952285882 34.54788991396355 H 0.0 **** 0.06
32330 H 101.35722147610198 128.1016256851409 34.24700873291851 H 0.0 **** 0.06
32331 C 20.784651444145226 152.4577117926359 16.160375172609577 C 0.0 **** -0.24
32332 H 20.532337185154944 153.4370931906637 15.752423826076694 H 0.0 **** 0.06
32333 H 21.389386148221206 151.9086739028344 15.438706273841973 H 0.0 **** 0.06
32334 H 19.86897277876531 151.90272733829045 16.36495893461 H 0.0 **** 0.06
32335 H 21.347201787708997 152.58390396627345 17.085107186912637 H 0.0 **** 0.06
32336 C 53.99148226170763 150.00442250770914 28.574931139192927 C 0.0 **** -0.24
32337 H 54.66044679284508 150.21802523086308 27.740757876295675 H 0.0 **** 0.06
32338 H 52.958996041746985 150.02150733682663 28.224318785460355 H 0.0 **** 0.06
32339 H 54.12560841870334 150.7580253999082 29.349386720479743 H 0.0 **** 0.06
32340 H 54.22141932851099 149.0196398951016 28.98159171053004 H 0.0 **** 0.06
32341 C 36.762551188201314 12.687665252804265 69.52062582583716 C 0.0 **** -0.24
32342 H 36.82749283070062 13.07072132816404 70.53988945909452 H 0.0 **** 0.06
32343 H 36.551490530960336 13.510811258833826 68.83712325707336 H 0.0 **** 0.06
32344 H 35.96097806812793 11.95184284493132 69.46092181155495 H 0.0 **** 0.06
32345 H 37.7075909567218 12.220771542321131 69.24770149947392 H 0.0 **** 0.06
32346 C 17.7581072901485 64.31871013111677 31.860664645562224 C 0.0 **** -0.24
32347 H 16.877355517671305 63.93106425508914 31.3499919342334 H 0.0 **** 0.06
32348 H 18.084252420966727 65.23887304144262 31.37509460172879 H 0.0 **** 0.06
32349 H 18.558229169258347 63.579277174105826 31.814821621853355 H 0.0 **** 0.06
32350 H 17.51331844461879 64.52441384772122 32.90269586962643 H 0.0 **** 0.06
32351 C 33.898238768890224 148.74535121967943 142.2558633630716 C 0.0 **** -0.24
32352 H 33.6345922284205 147.80958685610022 142.74758604030075 H 0.0 **** 0.06
32353 H 33.01086938199836 149.37212969034735 142.16993329512508 H 0.0 **** 0.06
32354 H 34.292900236969444 148.534871289356 141.2617656808925 H 0.0 **** 0.06
32355 H 34.655230103166275 149.26460121008446 142.8449085974244 H 0.0 **** 0.06
32356 C 37.725514928422044 154.33106301882606 121.75129333768722 C 0.0 **** -0.24
32357 H 37.46522369899162 153.27700979255926 121.64623145600667 H 0.0 **** 0.06
32358 H 38.28423872050388 154.4767726779483 122.675627195404 H 0.0 **** 0.06
32359 H 36.81383347108252 154.92865902914264 121.77887286886896 H 0.0 **** 0.06
32360 H 38.337434782496075 154.64019135648553 120.90317219444758 H 0.0 **** 0.06
32361 C 40.451719711045314 90.33711318358762 84.64324432021095 C 0.0 **** -0.24
32362 H 40.735397718929846 89.38822699448308 85.09910885879646 H 0.0 **** 0.06
32363 H 40.919510909819735 90.42269615880355 83.66261869884931 H 0.0 **** 0.06
32364 H 40.78362420775153 91.15796952374146 85.27756512803182 H 0.0 **** 0.06
32365 H 39.36775445986373 90.37764950863982 84.53368233431777 H 0.0 **** 0.06
32366 C 141.3427218954186 19.72949563921938 15.150320732200406 C 0.0 **** -0.24
32367 H 142.15521535829131 20.45306378955314 15.086381969752829 H 0.0 **** 0.06
32368 H 140.8253599628943 19.847165185247356 16.102460521856308 H 0.0 **** 0.06
32369 H 141.74855902196052 18.72025548686885 15.078499960381585 H 0.0 **** 0.06
32370 H 140.64108011372244 19.89809098977031 14.33284711313241 H 0.0 **** 0.06
32371 C 79.2800586614064 7.127810194822871 69.9793111757561 C 0.0 **** -0.24
32372 H 79.55960894017156 6.153977977742443 69.57745781714478 H 0.0 **** 0.06
32373 H 79.11736145493938 7.043651462084711 71.05376107887429 H 0.0 **** 0.06
32374 H 78.36410921750799 7.469780934780829 69.49846372761299 H 0.0 **** 0.06
32375 H 80.08058778699805 7.842919877741679 69.78790596067537 H 0.0 **** 0.06
32376 C 116.19769282321833 73.45370146836385 16.436944545950638 C 0.0 **** -0.24
32377 H 116.7262901510009 73.7979787659881 15.547883419120808 H 0.0 **** 0.06
32378 H 115.92288518269085 72.40666891241062 16.314069734682278 H 0.0 **** 0.06
32379 H 115.29730491395297 74.0522652273633 16.57675056876235 H 0.0 **** 0.06
32380 H 116.84417357939769 73.56145838785518 17.307945551788663 H 0.0 **** 0.06
32381 C 99.79505852417431 132.95913879708075 129.990841459406 C 0.0 **** -0.24
32382 H 98.92955138499003 133.3000292933039 129.42187769708957 H 0.0 **** 0.06
32383 H 100.25501892652629 132.11321260768105 129.47874671863505 H 0.0 **** 0.06
32384 H 99.47573797646524 132.65077363984994 130.98688614871685 H 0.0 **** 0.06
32385 H 100.51670963394459 133.77080429697872 130.07505200850198 H 0.0 **** 0.06
32386 C 95.19665450323691 143.07418682649856 73.9359176861663 C 0.0 **** -0.24
32387 H 96.00204654036202 143.64201169016806 73.46957845717478 H 0.0 **** 0.06
32388 H 95.4850458467244 142.02467705931565 74.0040381017202 H 0.0 **** 0.06
32389 H 94.29293406532642 143.1645495831076 73.33270409693353 H 0.0 **** 0.06
32390 H 95.0075512617311 143.46495343838035 74.93516593001686 H 0.0 **** 0.06
32391 C 126.88284493569903 52.87809609665504 15.884897370743914 C 0.0 **** -0.24
32392 H 127.75454003644806 52.60077728078636 15.292550697351714 H 0.0 **** 0.06
32393 H 126.7706198891175 53.96289193885178 15.880399274087722 H 0.0 **** 0.06
32394 H 127.01403414056598 52.531210863348235 16.90966499564533 H 0.0 **** 0.06
32395 H 125.99142153182773 52.41812233437224 15.456789709979546 H 0.0 **** 0.06
32396 C 101.13884060398338 109.25720965405033 1.1128839376984274 C 0.0 **** -0.24
32397 H 101.95642099226346 109.12101467523355 1.8207489715341865 H 0.0 **** 0.06
32398 H 100.18935054358231 109.06646079941227 1.6137344067822426 H 0.0 **** 0.06
32399 H 101.2577349166814 108.56094403861538 0.28228714661173626 H 0.0 **** 0.06
32400 H 101.15134290316057 110.27956076582497 0.734757536213607 H 0.0 **** 0.06
32401 C 115.27759252580847 107.73639231074985 151.76095299876653 C 0.0 **** -0.24
32402 H 114.46219956667176 108.10952956204979 152.38078490422055 H 0.0 **** 0.06
32403 H 115.73325163374398 106.87136011373379 152.24380989021074 H 0.0 **** 0.06
32404 H 116.02621397581373 108.51832887902027 151.63473180910438 H 0.0 **** 0.06
32405 H 114.88885650925334 107.44544228946476 150.78487509284867 H 0.0 **** 0.06
32406 C 83.00002956551191 116.7677785162199 22.956612244697702 C 0.0 **** -0.24
32407 H 82.26803162932305 116.40789854244788 22.233013513428844 H 0.0 **** 0.06
32408 H 82.57027352532953 116.73127815552873 23.957360525586502 H 0.0 **** 0.06
32409 H 83.27471974196152 117.79434094051818 22.715084707190805 H 0.0 **** 0.06
32410 H 83.88820866364728 116.1365881908658 22.918594438054654 H 0.0 **** 0.06
32411 C 17.85711407374467 147.6666981848259 28.785495276218626 C 0.0 **** -0.24
32412 H 16.99510154741384 147.55722690097502 28.126825298646395 H 0.0 **** 0.06
32413 H 17.82060927711123 148.6407592986314 29.27303194998342 H 0.0 **** 0.06
32414 H 18.77321748582736 147.5862500612156 28.20101748898918 H 0.0 **** 0.06
32415 H 17.837589935446005 146.88144151304377 29.54113767533204 H 0.0 **** 0.06
32416 C 15.482400528629235 67.36436461297158 140.69470255180343 C 0.0 **** -0.24
32417 H 14.460750685691082 67.16926784946826 140.37040255713828 H 0.0 **** 0.06
32418 H 16.00186005750995 67.94263516941174 139.93029124408568 H 0.0 **** 0.06
32419 H 16.001958841091486 66.41862589703057 140.8499285926557 H 0.0 **** 0.06
32420 H 15.465755837134743 67.92650113259337 141.62872941300628 H 0.0 **** 0.06
32421 C 16.007421271097144 141.5575482268623 7.896981295308976 C 0.0 **** -0.24
32422 H 16.312533585987296 140.6006985011053 7.473457097343342 H 0.0 **** 0.06
32423 H 16.710578237522554 141.85080796507836 8.676415495597226 H 0.0 **** 0.06
32424 H 15.009009638014959 141.46301692586425 8.324457292292848 H 0.0 **** 0.06
32425 H 15.997267790186072 142.3141835897896 7.112755888025511 H 0.0 **** 0.06
32426 C 38.740158271199164 16.565256179971527 108.97583208602396 C 0.0 **** -0.24
32427 H 38.5774487543099 17.619788864566715 108.74885375195413 H 0.0 **** 0.06
32428 H 38.80686351311931 16.433542366787776 110.05598696713844 H 0.0 **** 0.06
32429 H 39.66743498475205 16.232038135145956 108.50961506951364 H 0.0 **** 0.06
32430 H 37.907333788110634 15.978301019517005 108.58810318297014 H 0.0 **** 0.06
32431 C 78.2125955599943 96.74168815938648 47.176283895188845 C 0.0 **** -0.24
32432 H 78.2772737860326 96.03366914273965 48.002754998187754 H 0.0 **** 0.06
32433 H 78.83026462955104 97.61231088636714 47.395887279855 H 0.0 **** 0.06
32434 H 77.17646910368464 97.05421335837042 47.04653553727506 H 0.0 **** 0.06
32435 H 78.56586451555904 96.26486665403309 46.261327061648785 H 0.0 **** 0.06
32436 C 132.7174407285631 92.32591852609886 99.27660389856634 C 0.0 **** -0.24
32437 H 132.9083000172157 93.39489995385982 99.37344461273403 H 0.0 **** 0.06
32438 H 132.2502550019764 91.95600381402886 100.18989536873882 H 0.0 **** 0.06
32439 H 133.65918353447074 91.80229340212877 99.11118050623783 H 0.0 **** 0.06
32440 H 132.05124660249126 92.15163694513318 98.4316725476015 H 0.0 **** 0.06
32441 C 26.87576492276601 107.62198751667235 111.15531889462049 C 0.0 **** -0.24
32442 H 26.178197026959886 107.33750536987863 110.3682943892269 H 0.0 **** 0.06
32443 H 26.483785545948265 108.48593018786282 111.6921977506198 H 0.0 **** 0.06
32444 H 27.838675694087208 107.87629761768595 110.71098013950213 H 0.0 **** 0.06
32445 H 27.002723796751027 106.78918010396917 111.84680853326073 H 0.0 **** 0.06
32446 C 25.20716630981073 137.13151480269198 113.26945479940406 C 0.0 **** -0.24
32447 H 25.767712982628638 136.30630316329274 112.83022040954722 H 0.0 **** 0.06
32448 H 24.6599317503659 136.77373069145352 114.14252386343742 H 0.0 **** 0.06
32449 H 24.504312165119075 137.52431637639563 112.53471699094837 H 0.0 **** 0.06
32450 H 25.897329329913845 137.9195698319558 113.57055435904647 H 0.0 **** 0.06
32451 C 113.18669786564669 91.22625521922704 151.3096615431884 C 0.0 **** -0.24
32452 H 112.53747329484048 92.09277116985987 151.17929561496462 H 0.0 **** 0.06
32453 H 113.43332465212904 91.11464473274805 152.36589921775453 H 0.0 **** 0.06
32454 H 114.10238885471927 91.36913855109351 150.73541242000312 H 0.0 **** 0.06
32455 H 112.6732506912673 90.33132797445568 150.95933759452765 H 0.0 **** 0.06
32456 C 39.039656986792465 114.45803110207186 68.07353574444758 C 0.0 **** -0.24
32457 H 38.95374056064139 115.41753401611669 67.56273713043095 H 0.0 **** 0.06
32458 H 38.04387114196459 114.07166538211106 68.28963695996487 H 0.0 **** 0.06
32459 H 39.58869368876742 114.59134275840188 69.00554398749932 H 0.0 **** 0.06
32460 H 39.57232547008769 113.75327997246245 67.43588163145074 H 0.0 **** 0.06
32461 C 96.42069615304126 103.05288517508103 115.85095654895446 C 0.0 **** -0.24
32462 H 97.34423097463277 103.07384303419838 116.42807682920863 H 0.0 **** 0.06
32463 H 96.5393433088038 103.6603281411899 114.9532591649812 H 0.0 **** 0.06
32464 H 95.60580984074478 103.45172896290916 116.45459516788759 H 0.0 **** 0.06
32465 H 96.19302894514814 102.0252645281426 115.5665833098601 H 0.0 **** 0.06
32466 C 109.9952347209873 135.2791376232439 67.01732301720244 C 0.0 **** -0.24
32467 H 110.09911993513896 136.17614954423806 66.40748195449453 H 0.0 **** 0.06
32468 H 109.34491955369185 134.5668924811418 66.50753504519932 H 0.0 **** 0.06
32469 H 109.55985117379163 135.54357146900014 67.98028746941893 H 0.0 **** 0.06
32470 H 110.9760955663146 134.82977250038095 67.17173691445407 H 0.0 **** 0.06
32471 C 76.98588351002377 116.31508010402791 63.43525494869374 C 0.0 **** -0.24
32472 H 76.24293042668721 115.52547822833844 63.55066416262997 H 0.0 **** 0.06
32473 H 76.63768569712772 117.03508406727167 62.695183855704585 H 0.0 **** 0.06
32474 H 77.9284610085566 115.87948171223985 63.10386640240054 H 0.0 **** 0.06
32475 H 77.13375726459573 116.81660552985232 64.39149407192076 H 0.0 **** 0.06
32476 C 67.97312668706701 7.292152218413122 26.742229011823895 C 0.0 **** -0.24
32477 H 68.849854560701 7.9400479495231195 26.719271316174115 H 0.0 **** 0.06
32478 H 67.35293168273353 7.551350317820436 27.601808710033993 H 0.0 **** 0.06
32479 H 68.29159761191421 6.253469496476129 26.823905856505036 H 0.0 **** 0.06
32480 H 67.39882704185456 7.425502051265994 25.825114825839336 H 0.0 **** 0.06
32481 C 4.988262314030749 96.08483512296115 133.41630570575126 C 0.0 **** -0.24
32482 H 5.829264815943105 95.70458551859777 133.99576466584304 H 0.0 **** 0.06
32483 H 4.5056682121619644 96.89437303516313 133.96499415273507 H 0.0 **** 0.06
32484 H 4.2713527629858845 95.2814571870618 133.24770484864965 H 0.0 **** 0.06
32485 H 5.347569884441754 96.45859394351713 132.45724934623004 H 0.0 **** 0.06
32486 C 55.58166094210229 43.617325883857376 18.666999113375425 C 0.0 **** -0.24
32487 H 55.66372252145065 43.660591112079175 17.581334956608828 H 0.0 **** 0.06
32488 H 55.30541007233262 44.59932805061318 19.05008245875615 H 0.0 **** 0.06
32489 H 56.538922042360184 43.315474532275005 19.092065719838615 H 0.0 **** 0.06
32490 H 54.81667798904641 42.8908171055042 18.9436284579873 H 0.0 **** 0.06
32491 C 130.02267536426416 154.54758956653012 156.3494974475909 C 0.0 **** -0.24
32492 H 130.93885892867826 154.28327270433 155.82211625677098 H 0.0 **** 0.06
32493 H 129.25008180308637 153.80985367350607 156.12818391751745 H 0.0 **** 0.06
32494 H 129.6874683658343 155.5328668950044 156.02476903655028 H 0.0 **** 0.06
32495 H 130.21256809988827 154.56423108470108 157.42282521140334 H 0.0 **** 0.06
32496 C 17.54003802685361 121.68358413917957 90.53520506899103 C 0.0 **** -0.24
32497 H 18.462384243223283 121.10242274983449 90.56100432134136 H 0.0 **** 0.06
32498 H 17.76280795736787 122.70351823479541 90.2197867573157 H 0.0 **** 0.06
32499 H 17.093496377461094 121.69991941643735 91.52917004315206 H 0.0 **** 0.06
32500 H 16.84444517896563 121.22865215159288 89.83114037296241 H 0.0 **** 0.06
32501 C 97.34118628170336 43.19860253454131 39.97783571177666 C 0.0 **** -0.24
32502 H 97.06461199161191 42.20018130815819 40.31479319872267 H 0.0 **** 0.06
32503 H 96.49089903627515 43.66147007718931 39.47550020909671 H 0.0 **** 0.06
32504 H 98.17944433922315 43.129327259530044 39.28420464807334 H 0.0 **** 0.06
32505 H 97.63004497808464 43.80471147157611 40.83630019571393 H 0.0 **** 0.06
32506 C 68.45447291442333 120.78072374985082 5.24062523638537 C 0.0 **** -0.24
32507 H 68.38862134109127 120.88700090146217 6.323595420604363 H 0.0 **** 0.06
32508 H 69.04680850599141 119.8975767571349 4.998264648896793 H 0.0 **** 0.06
32509 H 68.93011766697639 121.66471488646762 4.817421541019996 H 0.0 **** 0.06
32510 H 67.45224321329898 120.67249800735603 4.8251610282703155 H 0.0 **** 0.06
32511 C 3.0434286060686304 50.9369885836915 102.22739837135053 C 0.0 **** -0.24
32512 H 4.029893207166538 51.17258747327365 101.8276341461294 H 0.0 **** 0.06
32513 H 3.000704693480145 51.22186045615325 103.2786948841753 H 0.0 **** 0.06
32514 H 2.859213865891263 49.86660682383993 102.1323693881965 H 0.0 **** 0.06
32515 H 2.285085306136864 51.48725966414207 101.67020822750838 H 0.0 **** 0.06
32516 C 45.960352122546965 44.724147927446 146.6910249511357 C 0.0 **** -0.24
32517 H 46.52311110397082 45.55222972035787 147.12262147957537 H 0.0 **** 0.06
32518 H 44.89488150286235 44.88767178879948 146.85091540702996 H 0.0 **** 0.06
32519 H 46.262119558221684 43.791829651628134 147.16799948725506 H 0.0 **** 0.06
32520 H 46.1632330794929 44.66699388805817 145.6212602912029 H 0.0 **** 0.06
32521 C 133.8130264597799 107.68953712548414 47.3870500017004 C 0.0 **** -0.24
32522 H 132.83314721938228 107.58070996215945 46.923250517279484 H 0.0 **** 0.06
32523 H 133.98868726863844 108.73854368928623 47.625317033537954 H 0.0 **** 0.06
32524 H 134.58145213163857 107.34060696075657 46.697054780522876 H 0.0 **** 0.06
32525 H 133.85019129182496 107.0968091893172 48.301612778963374 H 0.0 **** 0.06
32526 C 73.82258624664553 62.32524815809313 71.72565853030147 C 0.0 **** -0.24
32527 H 73.08752118785358 61.93633607285102 72.42976249663946 H 0.0 **** 0.06
32528 H 73.30965184177107 62.806145798163016 70.89269608816 H 0.0 **** 0.06
32529 H 74.43490231923958 61.50468765386279 71.35071162595133 H 0.0 **** 0.06
32530 H 74.45953780741591 63.05198835345425 72.22962386661027 H 0.0 **** 0.06
32531 C 106.85211549594295 29.457574285639673 71.88034817226645 C 0.0 **** -0.24
32532 H 107.88181423067691 29.102251691061007 71.84355097736345 H 0.0 **** 0.06
32533 H 106.40974291445094 29.18925762354337 72.84045826205137 H 0.0 **** 0.06
32534 H 106.2799797755972 28.996642299491782 71.07460744321658 H 0.0 **** 0.06
32535 H 106.83718366209528 30.541180152575905 71.76281076962195 H 0.0 **** 0.06
32536 C 120.12853507878503 119.28309616533166 13.008578808244692 C 0.0 **** -0.24
32537 H 119.08565517020088 119.45832927007403 12.743423112556144 H 0.0 **** 0.06
32538 H 120.7538483172251 120.04976851695018 12.549269996689475 H 0.0 **** 0.06
32539 H 120.43445382026846 118.30108045358132 12.647785880248222 H 0.0 **** 0.06
32540 H 120.23988895225898 119.32467199308739 14.091895670249272 H 0.0 **** 0.06
32541 C 84.63428118133766 17.37124323309041 51.31664558111085 C 0.0 **** -0.24
32542 H 85.66407385410693 17.13741364900011 51.58521851541667 H 0.0 **** 0.06
32543 H 84.38914936665023 18.37680974327452 51.65786112062125 H 0.0 **** 0.06
32544 H 83.96356525335104 16.65348113832391 51.787200930700834 H 0.0 **** 0.06
32545 H 84.52111722378828 17.31759296883706 50.232796738268874 H 0.0 **** 0.06
32546 C 117.90251129250773 86.60134969525743 18.87325862276851 C 0.0 **** -0.24
32547 H 118.61437904146202 85.99192538746053 19.430235283918705 H 0.0 **** 0.06
32548 H 118.01928426008776 87.64702762198166 19.15769739441108 H 0.0 **** 0.06
32549 H 116.88807373002145 86.27353860437807 19.09871586461214 H 0.0 **** 0.06
32550 H 118.09068304016638 86.49112150181483 17.804912313500402 H 0.0 **** 0.06
32551 C 74.90559050029134 43.32908816606037 141.26630811087907 C 0.0 **** -0.24
32552 H 75.56334301845322 43.25417760845619 140.39984533975087 H 0.0 **** 0.06
32553 H 73.92822524293521 42.9147282024382 141.0170318043164 H 0.0 **** 0.06
32554 H 74.79540318752595 44.37601158457204 141.5491469090073 H 0.0 **** 0.06
32555 H 75.33605668683333 42.771630960349654 142.09797630496354 H 0.0 **** 0.06
32556 C 110.21255476543705 71.5557376436882 82.47859066350276 C 0.0 **** -0.24
32557 H 109.35530170738066 70.8885795426697 82.57131039876549 H 0.0 **** 0.06
32558 H 110.63076313090532 71.47209902738533 81.47523726984446 H 0.0 **** 0.06
32559 H 110.96876978109721 71.27739838020298 83.21237725711438 H 0.0 **** 0.06
32560 H 109.89466177559602 72.58291142340943 82.65622999237766 H 0.0 **** 0.06
32561 C 117.06320574826775 48.797684920690045 150.16819352413307 C 0.0 **** -0.24
32562 H 116.71889601743779 48.033493722648615 149.47209133307456 H 0.0 **** 0.06
32563 H 117.47501202854237 49.6384053778459 149.609852792382 H 0.0 **** 0.06
32564 H 117.83266477094433 48.37912091167648 150.8162989382865 H 0.0 **** 0.06
32565 H 116.22435097918701 49.140871416457315 150.77478928675893 H 0.0 **** 0.06
32566 C 141.2432259349498 122.42793633558347 128.46780746306143 C 0.0 **** -0.24
32567 H 140.99783285894762 123.24666237122614 127.79176488278331 H 0.0 **** 0.06
32568 H 141.56268189841137 121.56209470258739 127.88702966091746 H 0.0 **** 0.06
32569 H 140.3642779133574 122.16663220887489 129.05643482739268 H 0.0 **** 0.06
32570 H 142.04851815569378 122.73642348457071 129.13380277846113 H 0.0 **** 0.06
32571 C 117.51573981342602 86.79358293027592 137.2003763650123 C 0.0 **** -0.24
32572 H 118.29935820656976 87.49035432885213 136.90295494674737 H 0.0 **** 0.06
32573 H 116.70621047744493 86.82330601233191 136.47036849026918 H 0.0 **** 0.06
32574 H 117.13203079991587 87.07608087248283 138.18157309932707 H 0.0 **** 0.06
32575 H 117.92584616834961 85.78445963269536 137.24878755882295 H 0.0 **** 0.06
32576 C 66.579237650712 80.72734121016936 18.63604969383826 C 0.0 **** -0.24
32577 H 66.22492347084189 80.4878463465028 17.633771627477387 H 0.0 **** 0.06
32578 H 67.06182802147717 81.70508569243032 18.626724427464318 H 0.0 **** 0.06
32579 H 67.29575952345253 79.971454449698 18.958329540496727 H 0.0 **** 0.06
32580 H 65.73584586040478 80.74495073099479 19.325225879191372 H 0.0 **** 0.06
32581 C 12.075925821320759 97.21513960201769 32.6711053331652 C 0.0 **** -0.24
32582 H 12.494964025583577 98.16087974992726 32.32716604508417 H 0.0 **** 0.06
32583 H 12.883644914637351 96.50724631646408 32.85990593787904 H 0.0 **** 0.06
32584 H 11.411703394514568 96.812601353527 31.906161409770874 H 0.0 **** 0.06
32585 H 11.514244352544388 97.38014402920376 33.59077111516526 H 0.0 **** 0.06
32586 C 121.7214203533406 27.212674301022844 30.438556203615576 C 0.0 **** -0.24
32587 H 121.11058585923992 26.314433863715905 30.344359429339647 H 0.0 **** 0.06
32588 H 121.17462208768767 28.066763692450387 30.039609310708272 H 0.0 **** 0.06
32589 H 122.64789603576425 27.080604392190835 29.880013448491127 H 0.0 **** 0.06
32590 H 121.95250974296879 27.386484778149267 31.489812263883096 H 0.0 **** 0.06
32591 C 52.577423251052394 67.40257351531142 92.23080742076714 C 0.0 **** -0.24
32592 H 53.56453122509532 67.84173054304448 92.37759858530065 H 0.0 **** 0.06
32593 H 52.51432912141101 66.98035461604881 91.22696128547562 H 0.0 **** 0.06
32594 H 51.81553002097435 68.17297607058897 92.35011494020584 H 0.0 **** 0.06
32595 H 52.41700643240297 66.61503185231958 92.96712069971473 H 0.0 **** 0.06
32596 C 68.8194683613819 80.30768283809283 2.021051735998107 C 0.0 **** -0.24
32597 H 67.74385851809558 80.4414590628495 1.8997500262016516 H 0.0 **** 0.06
32598 H 69.13033863676708 80.72488860884403 2.9794878198403474 H 0.0 **** 0.06
32599 H 69.34212570403486 80.82030444069966 1.2143696302486227 H 0.0 **** 0.06
32600 H 69.05735628603566 79.24443767079441 1.9917308333879298 H 0.0 **** 0.06
32601 C 25.53719744233183 26.970554029661805 88.36998402035721 C 0.0 **** -0.24
32602 H 26.423744806341887 27.164364172789114 87.7654775285252 H 0.0 **** 0.06
32603 H 24.64728091518873 27.269065817801476 87.81538508810746 H 0.0 **** 0.06
32604 H 25.597311609326283 27.542892831897746 89.29599226662006 H 0.0 **** 0.06
32605 H 25.481177713432174 25.90710731091159 88.60306672373565 H 0.0 **** 0.06
32606 C 98.08100051257853 119.59278108503264 150.45186898363949 C 0.0 **** -0.24
32607 H 98.49662128898413 118.87644916851809 149.74333837760582 H 0.0 **** 0.06
32608 H 98.7721945262795 119.7223371053795 151.28491325432523 H 0.0 **** 0.06
32609 H 97.12601875460315 119.2207379910052 150.8253559414601 H 0.0 **** 0.06
32610 H 97.92819859587726 120.54963767281578 149.9534096649586 H 0.0 **** 0.06
32611 C 16.235441737793302 111.23418830404084 71.60230860312149 C 0.0 **** -0.24
32612 H 17.03814113697655 110.95640956079474 70.91981223760847 H 0.0 **** 0.06
32613 H 15.355858361771105 111.52805806399276 71.02794079483196 H 0.0 **** 0.06
32614 H 16.55838876678854 112.06919055091954 72.22355502337828 H 0.0 **** 0.06
32615 H 15.987706370050681 110.3835227321476 72.23650487745665 H 0.0 **** 0.06
32616 C 112.539386150045 122.27571426484577 29.27240032822573 C 0.0 **** -0.24
32617 H 111.68571953350784 122.87686105051064 28.957934828373766 H 0.0 **** 0.06
32618 H 112.72593870281514 122.43839157389515 30.33471758967528 H 0.0 **** 0.06
32619 H 113.41957233450677 122.56694234414546 28.6995939535974 H 0.0 **** 0.06
32620 H 112.32419405632766 121.22181964054973 29.09913429113226 H 0.0 **** 0.06
32621 C 38.890436652882 90.24631780339767 126.69630839059101 C 0.0 **** -0.24
32622 H 38.19962011586148 89.89748197693453 127.46367840475034 H 0.0 **** 0.06
32623 H 39.40955732355249 89.39331867463643 126.25882136305518 H 0.0 **** 0.06
32624 H 39.61778362162883 90.92486271969382 127.14378119013276 H 0.0 **** 0.06
32625 H 38.33490558347164 90.77177961110534 125.92007919563258 H 0.0 **** 0.06
32626 C 85.34009746632199 67.91104847888231 59.46579813210951 C 0.0 **** -0.24
32627 H 85.05143408536634 68.79424158774087 60.0372516429523 H 0.0 **** 0.06
32628 H 84.61596850588177 67.74182524855647 58.66931059616854 H 0.0 **** 0.06
32629 H 85.36504448686861 67.04450462416246 60.1263312925538 H 0.0 **** 0.06
32630 H 86.32888908324068 68.0663047427523 59.03251491185199 H 0.0 **** 0.06
32631 C 129.00138191482134 144.3926800630346 33.98099763206107 C 0.0 **** -0.24
32632 H 130.04190668202625 144.5772001348176 33.7142614027501 H 0.0 **** 0.06
32633 H 128.4568975292705 145.33683103313942 33.99529344154426 H 0.0 **** 0.06
32634 H 128.95520174652913 143.9315691871219 34.96849035693611 H 0.0 **** 0.06
32635 H 128.55174791156998 143.7238474728142 33.24709852395044 H 0.0 **** 0.06
32636 C 135.14653879395755 118.96991586564413 85.62030303055565 C 0.0 **** -0.24
32637 H 135.62880465508124 118.38767019564607 84.83436262010464 H 0.0 **** 0.06
32638 H 135.8552353304799 119.69695672178575 86.01897524962506 H 0.0 **** 0.06
32639 H 134.82160211119256 118.30323753742168 86.41908700000985 H 0.0 **** 0.06
32640 H 134.28327003703095 119.49112546239697 85.20739231699069 H 0.0 **** 0.06
32641 C 83.18011955494919 90.55677825546427 84.3000920785417 C 0.0 **** -0.24
32642 H 83.68054959734764 90.68485825608109 85.26046335633174 H 0.0 **** 0.06
32643 H 82.30701347068238 91.20776721237219 84.25510524270112 H 0.0 **** 0.06
32644 H 82.86494108738547 89.51864556016007 84.19130909615836 H 0.0 **** 0.06
32645 H 83.86850677122969 90.81383849947076 83.49479539152787 H 0.0 **** 0.06
32646 C 82.64315516150599 111.85334780176372 16.57508226138131 C 0.0 **** -0.24
32647 H 82.60466977511565 111.32625423433224 15.621134696226505 H 0.0 **** 0.06
32648 H 82.70304918960565 111.12910069757255 17.387435944514664 H 0.0 **** 0.06
32649 H 81.74462797512797 112.45824483205242 16.691890265740597 H 0.0 **** 0.06
32650 H 83.52118651667507 112.4987838444366 16.59719385131109 H 0.0 **** 0.06
32651 C 50.47376261102349 133.27105993275688 61.729776127953656 C 0.0 **** -0.24
32652 H 50.27520299456695 132.33452210934652 62.251290910359245 H 0.0 **** 0.06
32653 H 50.60055656912294 134.0725256745602 62.45891033488701 H 0.0 **** 0.06
32654 H 49.63707443336553 133.50573993597652 61.072033131804005 H 0.0 **** 0.06
32655 H 51.38425518487507 133.16963781542086 61.13811614233198 H 0.0 **** 0.06
32656 C 76.9147834649683 14.013031591987016 86.61341410243006 C 0.0 **** -0.24
32657 H 76.79245320758989 14.074650347659784 85.53232294568829 H 0.0 **** 0.06
32658 H 76.11958043637931 13.397458190532902 87.03463520999131 H 0.0 **** 0.06
32659 H 76.86505432567476 15.014871526119585 87.04191670972403 H 0.0 **** 0.06
32660 H 77.88198776908342 13.56614449994813 86.84476546314738 H 0.0 **** 0.06
32661 C 67.68405056356335 105.21282763978758 16.48130957805006 C 0.0 **** -0.24
32662 H 66.75851544086026 105.54070910759725 16.006680045839374 H 0.0 **** 0.06
32663 H 67.4598629246276 104.78596128155482 17.45853251282975 H 0.0 **** 0.06
32664 H 68.35202740105552 106.06545176082045 16.601707706657095 H 0.0 **** 0.06
32665 H 68.16534883582494 104.45992820152424 15.85719894894541 H 0.0 **** 0.06
32666 C 42.38972694720789 39.4777710037564 125.79331669164884 C 0.0 **** -0.24
32667 H 41.67180678518872 38.73277087398424 126.13639557445441 H 0.0 **** 0.06
32668 H 42.64867595188656 39.27918019305457 124.75263671216669 H 0.0 **** 0.06
32669 H 43.28907842796873 39.42589285709573 126.40775975194589 H 0.0 **** 0.06
32670 H 41.95029674319315 40.47162792230904 125.8752506576356 H 0.0 **** 0.06
32671 C 150.05997905909308 29.33503188492557 82.93602231582253 C 0.0 **** -0.24
32672 H 150.6314087538699 28.720892333585027 83.63236160257577 H 0.0 **** 0.06
32673 H 149.98295749475324 28.82097985454766 81.97763727906272 H 0.0 **** 0.06
32674 H 150.56448239725978 30.29111979707443 82.79628342074699 H 0.0 **** 0.06
32675 H 149.06144518885154 29.50664988612229 83.33859536325002 H 0.0 **** 0.06
32676 C 54.96537184093623 57.9210038601704 23.428761774026036 C 0.0 **** -0.24
32677 H 54.934912187153486 57.91425919327102 22.338485459854653 H 0.0 **** 0.06
32678 H 54.22117736185844 58.62157725551822 23.808243240556656 H 0.0 **** 0.06
32679 H 55.95644236260236 58.2284174496873 23.76204958875595 H 0.0 **** 0.06
32680 H 54.74866639049702 56.92137633706878 23.8039646495383 H 0.0 **** 0.06
32681 C 40.02551071096235 33.46970154128451 128.14098549776497 C 0.0 **** -0.24
32682 H 40.762979227125896 32.933413136306626 127.54516710922725 H 0.0 **** 0.06
32683 H 39.05909448353569 33.44058481799914 127.63560382838169 H 0.0 **** 0.06
32684 H 40.34009473800904 34.50561652114919 128.26295138752317 H 0.0 **** 0.06
32685 H 39.93781933338215 32.99837055246857 129.12054000548903 H 0.0 **** 0.06
32686 C 146.97989410422136 123.95531338097722 150.86532827425896 C 0.0 **** -0.24
32687 H 146.7955966947722 123.11970333075597 150.19001354390542 H 0.0 **** 0.06
32688 H 147.10566433561198 123.57917616669862 151.8812216526109 H 0.0 **** 0.06
32689 H 146.13300282937675 124.64124540947155 150.83324847925235 H 0.0 **** 0.06
32690 H 147.8839039483524 124.4793922792144 150.5567960262141 H 0.0 **** 0.06
32691 C 136.90486304826427 5.6090718678857385 133.9244296032499 C 0.0 **** -0.24
32692 H 136.7721429147255 4.6299744345162 134.38557738788893 H 0.0 **** 0.06
32693 H 137.6835268742023 6.157557939796092 134.45616111862415 H 0.0 **** 0.06
32694 H 135.9683460417754 6.163992891330807 133.9757346723222 H 0.0 **** 0.06
32695 H 137.19637068177053 5.482317546739353 132.8822826459692 H 0.0 **** 0.06
32696 C 22.70099288633736 86.01405226619579 86.76926028943132 C 0.0 **** -0.24
32697 H 22.445581409683115 85.25111987611871 86.032823009747 H 0.0 **** 0.06
32698 H 23.770854440091682 86.21608073138071 86.72617433792055 H 0.0 **** 0.06
32699 H 22.436262264256754 85.65983866104614 87.76595639076291 H 0.0 **** 0.06
32700 H 22.148917847761055 86.9279130751396 86.55071914624568 H 0.0 **** 0.06
32701 C 17.25911413509572 87.10894052310734 75.73316574729547 C 0.0 **** -0.24
32702 H 17.66747604211352 87.38729433991713 76.70518293219075 H 0.0 **** 0.06
32703 H 17.77933590012089 86.227348947452 75.35900231880218 H 0.0 **** 0.06
32704 H 17.391870872646635 87.9341601627205 75.03339444732228 H 0.0 **** 0.06
32705 H 16.19604973037157 86.88705105922425 75.83650436885833 H 0.0 **** 0.06
32706 C 50.42792254840046 66.48564722610206 1.0277808796865884 C 0.0 **** -0.24
32707 H 50.19955546767868 65.44874862475842 1.277369515136968 H 0.0 **** 0.06
32708 H 51.465686951155504 66.56096760629794 0.7044365960799155 H 0.0 **** 0.06
32709 H 50.27473986277326 67.11198041709838 1.906543911371955 H 0.0 **** 0.06
32710 H 49.77137549085511 66.81917244049833 0.22520907060697937 H 0.0 **** 0.06
32711 C 52.39648369325609 13.380100980821737 48.14529023880101 C 0.0 **** -0.24
32712 H 51.51088233055678 13.308657112154435 48.77700353024528 H 0.0 **** 0.06
32713 H 52.411860355200304 12.544157903219343 47.44584588399587 H 0.0 **** 0.06
32714 H 53.2904093883848 13.35038359527789 48.76786664608329 H 0.0 **** 0.06
32715 H 52.37071513611588 14.318052110750273 47.59035390088985 H 0.0 **** 0.06
32716 C 99.2772584041935 141.86929058263897 17.755752946076257 C 0.0 **** -0.24
32717 H 98.31253197731633 141.5368316084182 18.139374676735656 H 0.0 **** 0.06
32718 H 99.7066256650473 141.08888804567766 17.127361100301357 H 0.0 **** 0.06
32719 H 99.9476195326808 142.0746245311464 18.589627372294444 H 0.0 **** 0.06
32720 H 99.14016655917113 142.7765910127615 17.16741084520993 H 0.0 **** 0.06
32721 C 107.84882188351816 113.36146485403049 79.40825489287019 C 0.0 **** -0.24
32722 H 107.48549188750843 114.23751877484347 78.8703175940891 H 0.0 **** 0.06
32723 H 107.13897660145523 113.09773548326808 80.1921822884106 H 0.0 **** 0.06
32724 H 108.81704377630939 113.58626166531377 79.85547791056496 H 0.0 **** 0.06
32725 H 107.95278520051062 112.52715540003845 78.71537828224959 H 0.0 **** 0.06
32726 C 61.25621680312685 104.46529935114627 19.703054865343837 C 0.0 **** -0.24
32727 H 61.456842258643775 105.20599169008655 18.92839365866582 H 0.0 **** 0.06
32728 H 60.1845651502108 104.43157700692332 19.903953518936802 H 0.0 **** 0.06
32729 H 61.78840528332148 104.73946662293399 20.613878885739865 H 0.0 **** 0.06
32730 H 61.593384916825755 103.48585898401096 19.36541620485793 H 0.0 **** 0.06
32731 C 149.76115949571079 36.93095106675895 118.13352756032128 C 0.0 **** -0.24
32732 H 149.1949456643496 36.016912843961165 117.9530512104269 H 0.0 **** 0.06
32733 H 149.12984404714337 37.79507440128398 117.9285292387516 H 0.0 **** 0.06
32734 H 150.63237737180748 36.9525932706249 117.47855220902943 H 0.0 **** 0.06
32735 H 150.08692515261117 36.95557137840922 119.17337526320438 H 0.0 **** 0.06
32736 C 27.440853538670915 105.48024579028267 76.9935195901173 C 0.0 **** -0.24
32737 H 28.191963784845917 105.9773413740486 76.37864310645 H 0.0 **** 0.06
32738 H 27.314676288981296 104.4524061687754 76.65364214406654 H 0.0 **** 0.06
32739 H 26.492756714529257 106.01144539536098 76.90669172088343 H 0.0 **** 0.06
32740 H 27.764563055685073 105.48337517548079 78.03417900403963 H 0.0 **** 0.06
32741 C 147.5310149347814 77.33247866748786 79.258391411894 C 0.0 **** -0.24
32742 H 147.62585795734384 77.69707846704316 78.23507108511804 H 0.0 **** 0.06
32743 H 147.8828182225413 78.0981294950598 79.95020420735129 H 0.0 **** 0.06
32744 H 148.12986961334258 76.42958678703087 79.37968861685947 H 0.0 **** 0.06
32745 H 146.48541239315745 77.10642164479904 79.46805835365392 H 0.0 **** 0.06
32746 C 116.09663416399576 65.11748066776312 140.0790197437462 C 0.0 **** -0.24
32747 H 116.69574245979965 65.88151204352428 140.574122731049 H 0.0 **** 0.06
32748 H 116.75413301652122 64.35229093860431 139.66604926425873 H 0.0 **** 0.06
32749 H 115.51831248398025 65.57383985805168 139.27567113044685 H 0.0 **** 0.06
32750 H 115.41907092767173 64.66319961614502 140.80214177125146 H 0.0 **** 0.06
32751 C 52.19044706642677 38.08187714893664 9.957607319476047 C 0.0 **** -0.24
32752 H 52.68890923582609 38.883409477794146 9.411797750008787 H 0.0 **** 0.06
32753 H 52.67560078531119 37.944445506177786 10.923749684947033 H 0.0 **** 0.06
32754 H 52.25373660765183 37.15808317522067 9.38412084177822 H 0.0 **** 0.06
32755 H 51.14310762429358 38.34393358032317 10.110284157521491 H 0.0 **** 0.06
32756 C 78.95935176088041 44.08611605231437 78.56947018119439 C 0.0 **** -0.24
32757 H 78.71772416463197 44.33187385611302 77.53475141714117 H 0.0 **** 0.06
32758 H 79.59413814853639 44.86600716452415 78.98930436847263 H 0.0 **** 0.06
32759 H 79.48513036098186 43.13162254036541 78.60266184701595 H 0.0 **** 0.06
32760 H 78.03881286734789 44.01477892118373 79.14961314721683 H 0.0 **** 0.06
32761 C 31.71204711300262 47.568113982322984 13.98424638226183 C 0.0 **** -0.24
32762 H 31.722721945731614 46.60250464084157 13.479030282483762 H 0.0 **** 0.06
32763 H 31.07029765082516 47.51083370106488 14.864192012050552 H 0.0 **** 0.06
32764 H 31.32867198274971 48.32953819495401 13.303733777252887 H 0.0 **** 0.06
32765 H 32.72487582415343 47.83037874340107 14.288712869864128 H 0.0 **** 0.06
32766 C 19.81683068741512 27.39522520963095 89.41335075598987 C 0.0 **** -0.24
32767 H 18.998225347280254 26.854754845286266 89.88667167601254 H 0.0 **** 0.06
32768 H 19.86229799110143 27.132135357388165 88.35586450431447 H 0.0 **** 0.06
32769 H 20.757007648164063 27.12631159681854 89.89478550746696 H 0.0 **** 0.06
32770 H 19.650179934727106 28.4677702292297 89.51472327878263 H 0.0 **** 0.06
32771 C 64.03663464941587 105.06647201063055 24.17910654039639 C 0.0 **** -0.24
32772 H 63.219966627739836 104.34594296963348 24.12992393811382 H 0.0 **** 0.06
32773 H 64.81627273777622 104.78086023832014 23.47125407366326 H 0.0 **** 0.06
32774 H 64.4486059927529 105.07875110268498 25.18833719664059 H 0.0 **** 0.06
32775 H 63.66187900670178 106.05790474594829 23.926654607441776 H 0.0 **** 0.06
32776 C 131.94882150610226 58.49063463038168 78.3657302825311 C 0.0 **** -0.24
32777 H 131.24845387267797 58.51714967517222 79.20037978595052 H 0.0 **** 0.06
32778 H 131.58833613360764 57.791460474520804 77.61089421930872 H 0.0 **** 0.06
32779 H 132.92682778242204 58.166640361025074 78.723069256602 H 0.0 **** 0.06
32780 H 132.0329354683977 59.486216577893074 77.93007663960978 H 0.0 **** 0.06
32781 C 150.25088260779097 4.437909445690934 7.78042004172633 C 0.0 **** -0.24
32782 H 150.5758830289456 5.417864265366347 7.43350234301203 H 0.0 **** 0.06
32783 H 150.47533345794537 4.335525264994317 8.842578691389512 H 0.0 **** 0.06
32784 H 150.77583186534838 3.662288142706757 7.222206315710835 H 0.0 **** 0.06
32785 H 149.17723517391508 4.333955776075072 7.624037531783216 H 0.0 **** 0.06
32786 C 95.41742411608413 54.454725946239265 156.91838850655256 C 0.0 **** -0.24
32787 H 95.44107136292993 55.5067101514807 157.20184695794387 H 0.0 **** 0.06
32788 H 96.07445311869277 54.29444655023174 156.0636657033394 H 0.0 **** 0.06
32789 H 94.3985861343222 54.17384216932216 156.6525405696434 H 0.0 **** 0.06
32790 H 95.75526095586994 53.84583283128005 157.75658603362578 H 0.0 **** 0.06
32791 C 58.88294860184135 156.7547509860318 128.24024492448814 C 0.0 **** -0.24
32792 H 58.73747289036271 155.6939675129363 128.44139877633262 H 0.0 **** 0.06
32793 H 58.03578135006228 157.1351067710139 127.6688415466287 H 0.0 **** 0.06
32794 H 59.799677570221036 156.8929600293339 127.66633991959787 H 0.0 **** 0.06
32795 H 58.957571939067634 157.29615489660284 129.18310696123763 H 0.0 **** 0.06
32796 C 146.90593458540332 66.26697031000316 50.0893495201139 C 0.0 **** -0.24
32797 H 147.84251715753308 66.59801362930722 50.53885936568753 H 0.0 **** 0.06
32798 H 146.48815405600595 67.07267618307401 49.48587115308524 H 0.0 **** 0.06
32799 H 146.2005392592622 65.99796037187315 50.875532549598006 H 0.0 **** 0.06
32800 H 147.0935272134328 65.39924659571557 49.457168199262696 H 0.0 **** 0.06
32801 C 77.9394667174927 55.13690367499049 7.609074358314956 C 0.0 **** -0.24
32802 H 77.82914449306969 54.14225252706636 8.040617820480634 H 0.0 **** 0.06
32803 H 78.37654396988086 55.8079721318846 8.349163072709104 H 0.0 **** 0.06
32804 H 76.96175538842581 55.513888785983724 7.309909795301451 H 0.0 **** 0.06
32805 H 78.59095693198256 55.08506280184983 6.736080811631837 H 0.0 **** 0.06
32806 C 137.5985121794094 154.0743463412697 5.596311705821051 C 0.0 **** -0.24
32807 H 137.76421633643355 153.50344346810903 4.682517569939563 H 0.0 **** 0.06
32808 H 136.80287085971668 153.60826317857754 6.176309982127577 H 0.0 **** 0.06
32809 H 137.31112641202816 155.0948640366222 5.340128614079674 H 0.0 **** 0.06
32810 H 138.51588731366348 154.09290986827853 6.184144087510418 H 0.0 **** 0.06
32811 C 60.04131101830049 148.04968755810674 87.44521966556377 C 0.0 **** -0.24
32812 H 59.54354710601146 147.08863220807768 87.56854169979079 H 0.0 **** 0.06
32813 H 59.29903094535449 148.81915107917203 87.22952334621063 H 0.0 **** 0.06
32814 H 60.75125372979669 147.98863749885902 86.6204803719271 H 0.0 **** 0.06
32815 H 60.57217027148366 148.30344353314618 88.36276259593156 H 0.0 **** 0.06
32816 C 44.319466094343454 129.38547514217754 104.07112590903654 C 0.0 **** -0.24
32817 H 44.314753208563246 130.35188173171062 104.57497484924136 H 0.0 **** 0.06
32818 H 45.2413601540093 128.85581963984305 104.31070064366025 H 0.0 **** 0.06
32819 H 44.25645920987222 129.53696536493788 102.99345967040296 H 0.0 **** 0.06
32820 H 43.46446497342174 128.79691404479905 104.40583120193531 H 0.0 **** 0.06
32821 C 31.97897478129825 143.75828136897437 1.6043610496035967 C 0.0 **** -0.24
32822 H 32.47535587292799 143.09366524775152 0.8970457704226646 H 0.0 **** 0.06
32823 H 32.72569262767723 144.23115979506636 2.243241448706982 H 0.0 **** 0.06
32824 H 31.286900961392107 143.18273536362804 2.218322989964207 H 0.0 **** 0.06
32825 H 31.430158003681363 144.52576720800533 1.058546700176862 H 0.0 **** 0.06
32826 C 106.39934396122486 94.58048847007524 56.74887356744091 C 0.0 **** -0.24
32827 H 106.657133014818 95.63202249044116 56.8740641053119 H 0.0 **** 0.06
32828 H 105.75558950978511 94.26446223291424 57.57076732581908 H 0.0 **** 0.06
32829 H 107.30981728557093 93.98136725818992 56.74974757567307 H 0.0 **** 0.06
32830 H 105.8754226392082 94.44443562092616 55.803047090213994 H 0.0 **** 0.06
32831 C 87.11852337170176 120.44948636391894 40.623004664055486 C 0.0 **** -0.24
32832 H 87.4152802128759 120.36022984911733 39.577709805455015 H 0.0 **** 0.06
32833 H 86.77312052353103 119.48126236281661 40.986339012906114 H 0.0 **** 0.06
32834 H 86.3132148428189 121.17891586875623 40.71044862434917 H 0.0 **** 0.06
32835 H 87.97140590307608 120.77731812843439 41.2166252211066 H 0.0 **** 0.06
32836 C 0.9815438916869041 27.985537722588184 12.476303316358894 C 0.0 **** -0.24
32837 H 0.5077712561194545 27.00360695599654 12.457457632038313 H 0.0 **** 0.06
32838 H 0.46142951327275483 28.6268988785843 13.187852031519355 H 0.0 **** 0.06
32839 H 0.9329694547076102 28.431077751614062 11.48295430338419 H 0.0 **** 0.06
32840 H 2.0241938427479162 27.87952998769908 12.776006691801854 H 0.0 **** 0.06
32841 C 139.86699339877723 77.65529083616406 105.04420421285865 C 0.0 **** -0.24
32842 H 140.1968829165324 76.95061748910567 105.80734184153134 H 0.0 **** 0.06
32843 H 139.02759964649215 77.22890869256668 104.4944687462227 H 0.0 **** 0.06
32844 H 140.68819923257556 77.85564631088005 104.35525256847815 H 0.0 **** 0.06
32845 H 139.55606119382247 78.58535579652886 105.51982275572784 H 0.0 **** 0.06
32846 C 104.88617029518997 26.531567285319454 118.47295282075765 C 0.0 **** -0.24
32847 H 105.57217798425035 26.487621651726613 117.62615003848146 H 0.0 **** 0.06
32848 H 104.67618858087883 25.519842780423062 118.82192978450996 H 0.0 **** 0.06
32849 H 103.95766003275219 27.010509100066884 118.16301559384203 H 0.0 **** 0.06
32850 H 105.34153937382729 27.10741650827549 119.27873961061249 H 0.0 **** 0.06
32851 C 154.59057342004579 149.8034039913273 45.75537912723257 C 0.0 **** -0.24
32852 H 155.30393561526583 150.42325588382602 46.29790162360504 H 0.0 **** 0.06
32853 H 153.88680475857805 150.44132378554716 45.22084692651117 H 0.0 **** 0.06
32854 H 154.0469613134865 149.17329455681354 46.460632775824195 H 0.0 **** 0.06
32855 H 155.12403102264742 149.17395342309678 45.04371234294331 H 0.0 **** 0.06
32856 C 1.01955885187391 132.660098456881 156.44503174704886 C 0.0 **** -0.24
32857 H 1.3702873482470181 131.62917785655796 156.49634373147478 H 0.0 **** 0.06
32858 H 0.42475225821405616 132.88496864297989 157.33153175061005 H 0.0 **** 0.06
32859 H 0.40689543125918703 132.79142077178145 155.55308631380728 H 0.0 **** 0.06
32860 H 1.875566195113322 133.33239299414254 156.40075863392548 H 0.0 **** 0.06
32861 C 68.65887727609946 131.99793939623515 49.16458192544917 C 0.0 **** -0.24
32862 H 68.00728982600012 131.77709136724926 48.31942892246259 H 0.0 **** 0.06
32863 H 69.67787147819638 132.14784777860103 48.80907955582357 H 0.0 **** 0.06
32864 H 68.6366160262703 131.16542591687545 49.86723574368948 H 0.0 **** 0.06
32865 H 68.31119815928157 132.9029205457549 49.663079699346866 H 0.0 **** 0.06
32866 C 67.7089324254711 137.41075886150406 144.837624859039 C 0.0 **** -0.24
32867 H 67.53527017241622 138.4866361625855 144.87906358235648 H 0.0 **** 0.06
32868 H 67.54477484744028 137.05493079559943 143.82068860944523 H 0.0 **** 0.06
32869 H 67.02086159082174 136.90514907795287 145.51603033062648 H 0.0 **** 0.06
32870 H 68.73534550255937 137.1970617047639 145.1361921026411 H 0.0 **** 0.06
32871 C 119.84452447172556 128.27989334845824 37.62321818810935 C 0.0 **** -0.24
32872 H 119.45687804292125 128.01742050091832 36.63767214735883 H 0.0 **** 0.06
32873 H 120.80654631302353 128.78114286963478 37.51242290351435 H 0.0 **** 0.06
32874 H 119.97304088689766 127.37384524945077 38.21503321900383 H 0.0 **** 0.06
32875 H 119.14249394697619 128.9454827111735 38.12356961656812 H 0.0 **** 0.06
32876 C 95.4455744638422 127.75362151764195 108.90770155433965 C 0.0 **** -0.24
32877 H 95.16183683568539 128.78234412556267 109.13024914920003 H 0.0 **** 0.06
32878 H 96.24338377678609 127.44330974015016 109.58213432145944 H 0.0 **** 0.06
32879 H 95.79468429192737 127.68852125896258 107.87679322626776 H 0.0 **** 0.06
32880 H 94.58179670997148 127.10175907204292 109.04038551178085 H 0.0 **** 0.06
32881 C 112.37417559629019 0.5582754142363875 156.0945501201348 C 0.0 **** -0.24
32882 H 112.9312791247166 0.8670023798225905 156.97918337482255 H 0.0 **** 0.06
32883 H 113.06077127513085 0.11933228557310471 155.36963148804892 H 0.0 **** 0.06
32884 H 111.88408142666047 1.4260340208124198 155.6526877120715 H 0.0 **** 0.06
32885 H 111.62278954697148 -0.1790509847000301 156.37686988913285 H 0.0 **** 0.06
32886 C 75.79120736147954 141.26506113830337 44.04408471853267 C 0.0 **** -0.24
32887 H 75.8513786573019 141.9307071234221 43.182234062126696 H 0.0 **** 0.06
32888 H 76.72638719924402 141.30833038084492 44.60202925235727 H 0.0 **** 0.06
32889 H 75.61772012884873 140.24491826504843 43.702618254436075 H 0.0 **** 0.06
32890 H 74.96857727206498 141.5776340903356 44.68688759729329 H 0.0 **** 0.06
32891 C 118.72934887346462 96.90216711636813 153.76323550361727 C 0.0 **** -0.24
32892 H 117.92179204586772 96.34247968538224 154.2338538001933 H 0.0 **** 0.06
32893 H 118.31903776368118 97.77804491326961 153.25995370166328 H 0.0 **** 0.06
32894 H 119.23532565189616 96.26768601681964 153.03502541715955 H 0.0 **** 0.06
32895 H 119.44136111408896 97.22144284048396 154.5239859470631 H 0.0 **** 0.06
32896 C 133.70243089674565 124.05284611648808 88.78058560569241 C 0.0 **** -0.24
32897 H 134.72936880322106 123.89410022262454 88.45041902412311 H 0.0 **** 0.06
32898 H 133.14068958078155 124.55332237232385 87.99078693641462 H 0.0 **** 0.06
32899 H 133.70054752504498 124.67282146988573 89.67742154621567 H 0.0 **** 0.06
32900 H 133.24026800959382 123.09138435564195 89.00156609807067 H 0.0 **** 0.06
32901 C 139.4770311597545 153.3895641963708 58.35666878564612 C 0.0 **** -0.24
32902 H 138.63230302449762 153.89939533931675 57.89231408572296 H 0.0 **** 0.06
32903 H 140.36170955968254 153.50875521261247 57.732300099907704 H 0.0 **** 0.06
32904 H 139.24637697773704 152.32889697943955 58.46321183803762 H 0.0 **** 0.06
32905 H 139.66446711600025 153.82070559513326 59.33988214770224 H 0.0 **** 0.06
32906 C 147.4407444964871 120.37338028333757 103.41651368041067 C 0.0 **** -0.24
32907 H 147.61947591541679 121.04930098761976 102.58025836437452 H 0.0 **** 0.06
32908 H 146.9677720267841 119.46127040502743 103.05015410118318 H 0.0 **** 0.06
32909 H 146.78619320238386 120.85617448789081 104.1412177480367 H 0.0 **** 0.06
32910 H 148.38962807640874 120.12464678567319 103.89231225883219 H 0.0 **** 0.06
32911 C 115.64168051277962 131.8943413497655 22.934193903033247 C 0.0 **** -0.24
32912 H 114.86269110742309 131.1459859470139 23.078028358447227 H 0.0 **** 0.06
32913 H 115.30342599370827 132.85083681897817 23.332665944758617 H 0.0 **** 0.06
32914 H 115.85438382441656 131.99863688882675 21.870560323667405 H 0.0 **** 0.06
32915 H 116.54583570113796 131.58232962493082 23.456813981109804 H 0.0 **** 0.06
32916 C 38.62693795788948 28.096197593894857 39.30462390077078 C 0.0 **** -0.24
32917 H 38.906294624138894 28.881616928305675 40.00687242685781 H 0.0 **** 0.06
32918 H 38.09099373148521 27.30820610005128 39.83360958991135 H 0.0 **** 0.06
32919 H 39.525001361895946 27.68098370092747 38.84715781505483 H 0.0 **** 0.06
32920 H 37.984873836022004 28.514815300891087 38.52886518281427 H 0.0 **** 0.06
32921 C 11.638819198380475 29.65745235367325 152.47183627667704 C 0.0 **** -0.24
32922 H 12.404848798276305 30.035611432129826 151.7949219306827 H 0.0 **** 0.06
32923 H 11.136743411327757 30.495822390805984 152.9561267895536 H 0.0 **** 0.06
32924 H 12.103659680107711 29.024686976798705 153.22742144848817 H 0.0 **** 0.06
32925 H 10.911244093402956 29.074189454501266 151.90706858828412 H 0.0 **** 0.06
32926 C 117.83689516836239 37.897510567848954 21.549215295731813 C 0.0 **** -0.24
32927 H 117.24356872723797 37.50967135522198 20.721125836035583 H 0.0 **** 0.06
32928 H 117.75305018997187 37.223999804837845 22.402358868492655 H 0.0 **** 0.06
32929 H 117.46884658369851 38.8851219896453 21.828155446221672 H 0.0 **** 0.06
32930 H 118.88045253801852 37.970763614021095 21.245215894520527 H 0.0 **** 0.06
32931 C 124.49629102943658 0.07196787950041283 134.38529857698683 C 0.0 **** -0.24
32932 H 124.51478786957244 1.1564315127184877 134.27306134855974 H 0.0 **** 0.06
32933 H 123.56057687215883 -0.22759518464105 134.85991709495136 H 0.0 **** 0.06
32934 H 125.33531372835677 -0.2433101201525325 135.00569552214728 H 0.0 **** 0.06
32935 H 124.57206121648295 -0.3961763233130178 133.40423408780322 H 0.0 **** 0.06
32936 C 156.721243345569 126.60425981470824 141.3304494220343 C 0.0 **** -0.24
32937 H 157.00823872402657 125.67801277826636 140.83152479058916 H 0.0 **** 0.06
32938 H 155.74061848553094 126.91970001884029 140.9739216713131 H 0.0 **** 0.06
32939 H 157.45522840121453 127.37822026263343 141.1091627547777 H 0.0 **** 0.06
32940 H 156.6810908683841 126.43813019968088 142.40750858410004 H 0.0 **** 0.06
32941 C 57.82066362000886 4.114651707535671 15.330027429670963 C 0.0 **** -0.24
32942 H 58.62274590726224 4.028184060231894 16.06431625775258 H 0.0 **** 0.06
32943 H 57.71534423829303 5.157164792821163 15.028446609459792 H 0.0 **** 0.06
32944 H 56.886379033393 3.767566835981029 15.771181677073002 H 0.0 **** 0.06
32945 H 58.05950652609906 3.505627689327582 14.45796808900775 H 0.0 **** 0.06
32946 C 91.53100067986222 24.013645586406426 87.31805844442505 C 0.0 **** -0.24
32947 H 92.41267587511956 24.63288819055083 87.15800825269065 H 0.0 **** 0.06
32948 H 90.90739891163338 24.031682742946316 86.42438279920992 H 0.0 **** 0.06
32949 H 90.964042344149 24.400532838298943 88.16448573214294 H 0.0 **** 0.06
32950 H 91.8391445379059 22.98865712744805 87.52623797883768 H 0.0 **** 0.06
32951 C 24.91812747770811 48.43210319017996 52.585796836660705 C 0.0 **** -0.24
32952 H 24.52861457824673 48.91093278284488 51.68807218258979 H 0.0 **** 0.06
32953 H 24.154811087866335 48.442732668236346 53.36429076569959 H 0.0 **** 0.06
32954 H 25.79869748260552 48.97344195464393 52.93400443512385 H 0.0 **** 0.06
32955 H 25.191565346182188 47.40148672351603 52.358959645531 H 0.0 **** 0.06
32956 C 116.43069651363618 113.7297151502297 140.25518405284242 C 0.0 **** -0.24
32957 H 115.75935117821916 113.84242698772114 139.4037639681535 H 0.0 **** 0.06
32958 H 117.4500439489039 113.96048228820779 139.9477658298033 H 0.0 **** 0.06
32959 H 116.38412779249637 112.70420219962652 140.62112694766978 H 0.0 **** 0.06
32960 H 116.12712612973633 114.41208199517222 141.04922951000867 H 0.0 **** 0.06
32961 C 112.50125990920202 69.78259798451977 60.49295147382496 C 0.0 **** -0.24
32962 H 111.84129153286904 69.46950461952976 59.6846663017957 H 0.0 **** 0.06
32963 H 112.89921083043993 70.77333537095909 60.273494949751964 H 0.0 **** 0.06
32964 H 113.32444813378362 69.07286042728376 60.58487793155494 H 0.0 **** 0.06
32965 H 111.94189984158629 69.81241971399426 61.42751748030841 H 0.0 **** 0.06
32966 C 70.16762504243069 101.87912951979958 100.12982899507206 C 0.0 **** -0.24
32967 H 70.38312137433594 101.86403147815498 101.19771570107069 H 0.0 **** 0.06
32968 H 70.34770853983694 102.88007388909385 99.73723125435707 H 0.0 **** 0.06
32969 H 69.12445165586959 101.60674663422655 99.96680584074859 H 0.0 **** 0.06
32970 H 70.81307282088254 101.16596873437636 99.61811472291335 H 0.0 **** 0.06
32971 C 70.24338440366135 88.3131284306571 69.33739356536398 C 0.0 **** -0.24
32972 H 70.99706799305973 89.09830173323432 69.38750911917154 H 0.0 **** 0.06
32973 H 69.3656801449886 88.68455523557267 68.80799669189724 H 0.0 **** 0.06
32974 H 69.95985507858212 88.0168154812409 70.34760960622907 H 0.0 **** 0.06
32975 H 70.65020349025731 87.45224543014658 68.80679167774002 H 0.0 **** 0.06
32976 C 82.73582276048008 77.21807507252078 86.55681615896833 C 0.0 **** -0.24
32977 H 83.01804116517656 76.23068100074545 86.921719404546 H 0.0 **** 0.06
32978 H 81.94993775750305 77.11672840989849 85.80736613752379 H 0.0 **** 0.06
32979 H 83.60459200446762 77.70273514653076 86.11019068066176 H 0.0 **** 0.06
32980 H 82.36990072248909 77.82167530067596 87.38767566131573 H 0.0 **** 0.06
32981 C 122.26026517218203 22.624642070168207 81.13015322243656 C 0.0 **** -0.24
32982 H 121.70990983757453 22.609680583096385 80.18938500841593 H 0.0 **** 0.06
32983 H 122.35880003077678 21.607409854225978 81.51011400409033 H 0.0 **** 0.06
32984 H 121.72052657288923 23.233297208451226 81.8566302593701 H 0.0 **** 0.06
32985 H 123.25032237784795 23.049653492127284 80.96524206491432 H 0.0 **** 0.06
32986 C 32.782134531980844 63.92880540180964 0.9082206293936963 C 0.0 **** -0.24
32987 H 32.893038232728344 62.84513687654092 0.8585054372531999 H 0.0 **** 0.06
32988 H 32.029595090600516 64.18190026639621 1.6549441695393057 H 0.0 **** 0.06
32989 H 32.4715806885936 64.30668566275108 -0.06489520524678483 H 0.0 **** 0.06
32990 H 33.73596508662234 64.37839171217703 1.1856140657713752 H 0.0 **** 0.06
32991 C 128.40806944620772 34.05095527727997 134.1733521864409 C 0.0 **** -0.24
32992 H 128.31079560975195 33.34411857335124 133.34894308517892 H 0.0 **** 0.06
32993 H 128.58216513939107 33.50504376449419 135.1008434241748 H 0.0 **** 0.06
32994 H 127.49121884144633 34.633811684706245 134.2607652511643 H 0.0 **** 0.06
32995 H 129.24686798770418 34.71995498919392 133.98093580085882 H 0.0 **** 0.06
32996 C 9.295694528341755 30.501235357309838 22.419933724906286 C 0.0 **** -0.24
32997 H 10.362633390221845 30.71729135261222 22.35521912398474 H 0.0 **** 0.06
32998 H 9.083143098524545 30.007328218174223 23.368527592872738 H 0.0 **** 0.06
32999 H 9.005987175557976 29.848385529180177 21.59753456997069 H 0.0 **** 0.06
33000 H 8.732407097884334 31.432710512608253 22.36183911499296 H 0.0 **** 0.06
33001 C 88.8171811850907 153.30431154115854 108.66803904914546 C 0.0 **** -0.24
33002 H 88.35191593393512 154.13013062661352 108.13043442251141 H 0.0 **** 0.06
33003 H 89.87626990100296 153.2547781554714 108.41208347387821 H 0.0 **** 0.06
33004 H 88.33095612682206 152.36936219587784 108.38824696708436 H 0.0 **** 0.06
33005 H 88.7087094546144 153.46273620729872 109.74030493577264 H 0.0 **** 0.06
33006 C 87.90560025711784 92.86491480360058 52.021743175881 C 0.0 **** -0.24
33007 H 87.2737612420969 92.14304415717663 52.54043956207988 H 0.0 **** 0.06
33008 H 88.59196249317017 92.3367525867489 51.359447740592145 H 0.0 **** 0.06
33009 H 88.47437709766751 93.44086671062098 52.75102771868137 H 0.0 **** 0.06
33010 H 87.27971796233044 93.53798949563526 51.434908858018105 H 0.0 **** 0.06
33011 C 21.809044029520294 139.01502553789024 33.23137108826773 C 0.0 **** -0.24
33012 H 22.24773570039281 138.05184263402828 32.970528250119884 H 0.0 **** 0.06
33013 H 21.665595962204407 139.0684916839116 34.31038762271063 H 0.0 **** 0.06
33014 H 20.847047466277047 139.1234318309975 32.7295589836256 H 0.0 **** 0.06
33015 H 22.47790339406839 139.81541481552406 32.91308212383459 H 0.0 **** 0.06
33016 C 113.05990782479454 27.848228728162532 49.63655066904208 C 0.0 **** -0.24
33017 H 113.80907415828908 27.676973981268354 48.86412768994623 H 0.0 **** 0.06
33018 H 112.5222715764916 26.920606833123564 49.832756054102646 H 0.0 **** 0.06
33019 H 112.3577073475354 28.61116978200863 49.29927906384681 H 0.0 **** 0.06
33020 H 113.55089015113386 28.185059771710286 50.55035749868247 H 0.0 **** 0.06
33021 C 156.3022084107596 97.21152326032052 124.08677432609909 C 0.0 **** -0.24
33022 H 155.79483638632072 96.46523421275643 123.47552073372083 H 0.0 **** 0.06
33023 H 156.70499835308914 96.7360492542877 124.98189970872158 H 0.0 **** 0.06
33024 H 155.59221889261596 97.98695616661644 124.37583208876237 H 0.0 **** 0.06
33025 H 157.11532060453362 97.65878582406867 123.51525930316524 H 0.0 **** 0.06
33026 C 81.41067305117971 96.47946094645386 15.210856878596616 C 0.0 **** -0.24
33027 H 82.31158715430402 96.58198100581751 15.81556844497647 H 0.0 **** 0.06
33028 H 80.99094575631727 95.48284962755201 15.352851933974193 H 0.0 **** 0.06
33029 H 81.6605910068119 96.62229327237262 14.159769537649233 H 0.0 **** 0.06
33030 H 80.68038601425837 97.22759921322057 15.516499798875088 H 0.0 **** 0.06
33031 C 80.80776141766393 19.215873312907163 148.13995946387035 C 0.0 **** -0.24
33032 H 80.73103296219712 19.311577759644635 149.22300243239454 H 0.0 **** 0.06
33033 H 81.31314873747402 20.091578854128443 147.7326670196523 H 0.0 **** 0.06
33034 H 79.80765332412867 19.141686787223158 147.7104459017374 H 0.0 **** 0.06
33035 H 81.37595812660639 18.32009363499524 147.89314196583507 H 0.0 **** 0.06
33036 C 0.46861465373465805 60.46718379007309 17.27765674869932 C 0.0 **** -0.24
33037 H 0.2144918072046167 61.171413761929216 16.484795202962616 H 0.0 **** 0.06
33038 H 1.313767189611447 59.85445227212014 16.961710557034692 H 0.0 **** 0.06
33039 H -0.38872384310223396 59.82673486135977 17.481907830032114 H 0.0 **** 0.06
33040 H 0.735276875391893 61.016742934323844 18.17986717050063 H 0.0 **** 0.06
33041 C 142.47840013642312 78.88922274536753 58.37164403562495 C 0.0 **** -0.24
33042 H 141.64898490977714 78.27305939830791 58.71628403043931 H 0.0 **** 0.06
33043 H 143.36887036713767 78.26992165812106 58.259297986061895 H 0.0 **** 0.06
33044 H 142.67263425120598 79.67705268858151 59.100122444531294 H 0.0 **** 0.06
33045 H 142.22419250282434 79.33748700275669 57.411530353737135 H 0.0 **** 0.06
33046 C 143.01274572814182 19.55799517516826 32.23387941791517 C 0.0 **** -0.24
33047 H 143.75768684718318 20.335676834143428 32.40183962788965 H 0.0 **** 0.06
33048 H 142.60772470953705 19.231501355480106 33.19168494565315 H 0.0 **** 0.06
33049 H 143.47875834465003 18.712436113576707 31.727521046971383 H 0.0 **** 0.06
33050 H 142.20811106987566 19.95418360901875 31.61435825917006 H 0.0 **** 0.06
33051 C 120.42537659840951 66.15073365283973 67.90663683113334 C 0.0 **** -0.24
33052 H 121.27423794215304 65.8562059032787 67.2891325705187 H 0.0 **** 0.06
33053 H 119.79671661417115 65.2811620218952 68.09890872604521 H 0.0 **** 0.06
33054 H 119.84439383742335 66.91219735089525 67.3869285299719 H 0.0 **** 0.06
33055 H 120.78810181078774 66.55269471522197 68.8524530833497 H 0.0 **** 0.06
33056 C 83.75577807783759 108.45049643345304 58.344757695186615 C 0.0 **** -0.24
33057 H 83.87835073096737 108.28805475226456 57.274023690478316 H 0.0 **** 0.06
33058 H 82.86854275831664 107.92043649767454 58.693139195100144 H 0.0 **** 0.06
33059 H 83.64176704615221 109.51682668477285 58.53946503076324 H 0.0 **** 0.06
33060 H 84.63379270709 108.07734053565885 58.872066581253335 H 0.0 **** 0.06
33061 C 29.952892963358067 2.0226322736091333 35.923280313220104 C 0.0 **** -0.24
33062 H 30.999608234293646 1.923817119106559 35.63352969984804 H 0.0 **** 0.06
33063 H 29.328796449111394 2.0352654492519946 35.02858389481915 H 0.0 **** 0.06
33064 H 29.815794660768972 2.9514631976668966 36.47606400341783 H 0.0 **** 0.06
33065 H 29.669176291766234 1.1791485381659186 36.551773489246955 H 0.0 **** 0.06
33066 C 97.6256496619053 152.05185602200103 101.78617352806485 C 0.0 **** -0.24
33067 H 98.64854842767272 152.4071836058281 101.65397610821653 H 0.0 **** 0.06
33068 H 96.99350516255481 152.87915163789455 102.10938704821508 H 0.0 **** 0.06
33069 H 97.6097066577363 151.26482733656826 102.53985537543234 H 0.0 **** 0.06
33070 H 97.25356528426735 151.65732403912548 100.84081571656931 H 0.0 **** 0.06
33071 C 72.59124261709047 119.96273999099303 112.53375561411127 C 0.0 **** -0.24
33072 H 72.93425179153516 119.97127363851543 113.56851769586802 H 0.0 **** 0.06
33073 H 71.51714177046729 120.14514710411454 112.50694752186803 H 0.0 **** 0.06
33074 H 72.80647918405131 118.99240046426472 112.08819188221088 H 0.0 **** 0.06
33075 H 73.10714030237604 120.74251633148405 111.97416819165232 H 0.0 **** 0.06
33076 C 81.63180122318809 104.72799399877083 111.80395451691089 C 0.0 **** -0.24
33077 H 81.31985954480278 105.63517182739515 112.3214614707727 H 0.0 **** 0.06
33078 H 80.77684984784345 104.06075245620845 111.694015692027 H 0.0 **** 0.06
33079 H 82.40966664506294 104.23022389829335 112.38305553316104 H 0.0 **** 0.06
33080 H 82.02108502246155 104.98734001549387 110.82005086403171 H 0.0 **** 0.06
33081 C 80.72534439606179 156.69026547143005 128.57659994430747 C 0.0 **** -0.24
33082 H 81.5288106916247 157.01845279183127 129.2362897783917 H 0.0 **** 0.06
33083 H 80.28064623578058 155.77596432805018 128.97240887581813 H 0.0 **** 0.06
33084 H 81.12777854778328 156.49699730433133 127.58228569027627 H 0.0 **** 0.06
33085 H 79.9640630691591 157.46741527918442 128.515521628407 H 0.0 **** 0.06
33086 C 76.39460225161403 79.84665330525364 155.3243338869442 C 0.0 **** -0.24
33087 H 76.55514552408292 80.5567083640003 156.13644249229762 H 0.0 **** 0.06
33088 H 76.73851200586716 80.2839787751561 154.38695872803294 H 0.0 **** 0.06
33089 H 75.33211858052587 79.61443612985315 155.25036559256597 H 0.0 **** 0.06
33090 H 76.95328399113187 78.933051389816 155.52583550515203 H 0.0 **** 0.06
33091 C 135.7574796461596 123.12076746985014 114.42942563407713 C 0.0 **** -0.24
33092 H 136.8058806304369 123.14157358648782 114.13383958028352 H 0.0 **** 0.06
33093 H 135.19829856693667 122.485757664581 113.74165912841686 H 0.0 **** 0.06
33094 H 135.3523179998375 124.1323749624213 114.40263018027183 H 0.0 **** 0.06
33095 H 135.67367860449423 122.72382476135095 115.4417465240294 H 0.0 **** 0.06
33096 C 149.79789449937698 95.8648267876054 63.61613830091534 C 0.0 **** -0.24
33097 H 149.4757300863502 95.14881064990077 62.86008297744206 H 0.0 **** 0.06
33098 H 150.88490462335952 95.94342008854224 63.60239967879886 H 0.0 **** 0.06
33099 H 149.46932533528502 95.52765731609382 64.59918139259895 H 0.0 **** 0.06
33100 H 149.3604433488894 96.8406358529068 63.40251511428238 H 0.0 **** 0.06
33101 C 71.69152060856254 93.65141208874292 13.335147242048095 C 0.0 **** -0.24
33102 H 72.53744625411383 94.31496130211744 13.151256060032694 H 0.0 **** 0.06
33103 H 71.40120660749938 93.71537369180271 14.38322086724449 H 0.0 **** 0.06
33104 H 71.97553992089047 92.62642144278634 13.096268853338557 H 0.0 **** 0.06
33105 H 70.85312219702166 93.9515121545534 12.705646040899467 H 0.0 **** 0.06
33106 C 151.39180561410512 124.41922589313543 56.740766598546585 C 0.0 **** -0.24
33107 H 150.9169844287183 125.22030259453061 57.3071000915411 H 0.0 **** 0.06
33108 H 150.679882013934 124.01196612347417 56.02210884051104 H 0.0 **** 0.06
33109 H 151.71077435183958 123.63216742576543 57.422669467168106 H 0.0 **** 0.06
33110 H 152.25825023912284 124.81360544580889 56.20947556224269 H 0.0 **** 0.06
33111 C 58.18796471235319 58.395200874165624 35.16043743755381 C 0.0 **** -0.24
33112 H 58.716622697073845 57.64143364985219 35.74333996421939 H 0.0 **** 0.06
33113 H 58.54562575497535 59.386433645039745 35.43888283639461 H 0.0 **** 0.06
33114 H 57.118848895033835 58.32549271237389 35.361138244520305 H 0.0 **** 0.06
33115 H 58.36988897453003 58.22835624502369 34.099025601857136 H 0.0 **** 0.06
33116 C 27.447039031163968 67.50353815604197 112.48225343866743 C 0.0 **** -0.24
33117 H 27.64187256282733 67.9187674260461 111.49269178402396 H 0.0 **** 0.06
33118 H 27.424345329682637 68.30948266755927 113.21596531730567 H 0.0 **** 0.06
33119 H 28.235089054477612 66.79658181569093 112.74163648408826 H 0.0 **** 0.06
33120 H 26.485209084846247 66.98972137499878 112.47694541228394 H 0.0 **** 0.06
33121 C 7.762348054372524 150.44851556505887 114.73730201738664 C 0.0 **** -0.24
33122 H 6.979310889550277 151.08488915368633 115.14790532969153 H 0.0 **** 0.06
33123 H 7.765424308473342 149.4928672531487 115.26123665186464 H 0.0 **** 0.06
33124 H 8.728958624862145 150.93591455637718 114.86268895255336 H 0.0 **** 0.06
33125 H 7.574586577130788 150.28143803045268 113.67655963394895 H 0.0 **** 0.06
33126 C 124.44407089573684 78.07968811769923 119.46802746351739 C 0.0 **** -0.24
33127 H 124.6493379434965 78.88126159084642 118.75821545328881 H 0.0 **** 0.06
33128 H 124.36771960970424 77.13274942953124 118.93437003844048 H 0.0 **** 0.06
33129 H 123.50482739064807 78.28433020819418 119.98290993405436 H 0.0 **** 0.06
33130 H 125.25321181080676 78.0239364693009 120.19702022178882 H 0.0 **** 0.06
33131 C 79.83529719102575 49.26487715483296 95.19048562388934 C 0.0 **** -0.24
33132 H 79.64000084788734 48.50056897247998 94.43718550703329 H 0.0 **** 0.06
33133 H 79.92799894719903 50.23634280453376 94.70607101744531 H 0.0 **** 0.06
33134 H 80.76199808859337 49.02914378548485 95.71401203830092 H 0.0 **** 0.06
33135 H 79.01140594611286 49.2907142303207 95.90310775859228 H 0.0 **** 0.06
33136 C 139.00499926386505 44.82130318548013 153.33063820893977 C 0.0 **** -0.24
33137 H 138.14812859542377 45.49544308529187 153.318774487365 H 0.0 **** 0.06
33138 H 139.3258778630007 44.66060928204263 154.3603522942328 H 0.0 **** 0.06
33139 H 139.82159179020022 45.26267634145074 152.75931163646712 H 0.0 **** 0.06
33140 H 138.72205102092113 43.86794287859084 152.88471436071887 H 0.0 **** 0.06
33141 C 122.092692755315 65.27863693561221 113.16689759205521 C 0.0 **** -0.24
33142 H 121.71059588198915 66.28143665863735 112.97327321781638 H 0.0 **** 0.06
33143 H 121.26050945018739 64.60833176485318 113.38230789882427 H 0.0 **** 0.06
33144 H 122.76843935305732 65.3066749661414 114.02109138847639 H 0.0 **** 0.06
33145 H 122.63085058859576 64.9197252312697 112.28912015283585 H 0.0 **** 0.06
33146 C 107.58042428630351 69.73292525386528 116.65765513008499 C 0.0 **** -0.24
33147 H 108.0540943540003 69.20664343046205 115.8286076052676 H 0.0 **** 0.06
33148 H 107.23099053224645 69.00993574029631 117.39476223712201 H 0.0 **** 0.06
33149 H 106.73481719209529 70.3106784567188 116.2854703290708 H 0.0 **** 0.06
33150 H 108.3039766204217 70.40456171764268 117.12130391950502 H 0.0 **** 0.06
33151 C 117.87587711569644 134.7164564695707 21.198543433991887 C 0.0 **** -0.24
33152 H 117.23552343343924 134.04093019031112 20.631819461303735 H 0.0 **** 0.06
33153 H 117.60163944301935 135.748235063071 20.975834329330183 H 0.0 **** 0.06
33154 H 118.91606283602074 134.54873811387785 20.92167370255143 H 0.0 **** 0.06
33155 H 117.74789386157893 134.52846411358396 22.264854764047442 H 0.0 **** 0.06
33156 C 42.88892399919614 64.07866555647738 150.10321570218724 C 0.0 **** -0.24
33157 H 43.69431052825479 63.351168079546014 150.2071995990524 H 0.0 **** 0.06
33158 H 43.218199115336816 64.89635967335032 149.46223918662736 H 0.0 **** 0.06
33159 H 42.6249787675264 64.47107937092746 151.08599392221203 H 0.0 **** 0.06
33160 H 42.018382739487265 63.596432454171136 149.65962716464588 H 0.0 **** 0.06
33161 C 23.87244222343074 6.979048823082337 54.92340419121693 C 0.0 **** -0.24
33162 H 22.884810492766263 7.441286720154608 54.957877843191554 H 0.0 **** 0.06
33163 H 23.86877964094532 6.071603200089385 55.52797075179478 H 0.0 **** 0.06
33164 H 24.613075037486 7.675876691821827 55.31609062322154 H 0.0 **** 0.06
33165 H 24.119859956926234 6.728119512506197 53.89171061625052 H 0.0 **** 0.06
33166 C 85.94236293147358 32.627216427409394 130.9132409680915 C 0.0 **** -0.24
33167 H 85.29499968613356 31.84861228122446 130.51018629196702 H 0.0 **** 0.06
33168 H 85.56584423949242 32.94275563392256 131.88629767611863 H 0.0 **** 0.06
33169 H 85.95184294833216 33.479263229553794 130.23310416902288 H 0.0 **** 0.06
33170 H 86.95381252196192 32.23777203156999 131.02311096449807 H 0.0 **** 0.06
33171 C 4.108527199507385 21.519627297211912 141.87974692578902 C 0.0 **** -0.24
33172 H 4.15780082833745 22.59675301582439 142.03967494149558 H 0.0 **** 0.06
33173 H 4.039005014534467 21.31330876906074 140.8120709558631 H 0.0 **** 0.06
33174 H 3.2312387456159932 21.117244953746706 142.3867292774343 H 0.0 **** 0.06
33175 H 5.006668398227582 21.05123553464486 142.28288614517086 H 0.0 **** 0.06
33176 C 124.47891300810505 78.35305995552574 12.860720781425925 C 0.0 **** -0.24
33177 H 124.89370719864098 77.47424490610842 13.35494601006053 H 0.0 **** 0.06
33178 H 124.38320810949745 79.16329291494424 13.582620186982865 H 0.0 **** 0.06
33179 H 123.4975797077766 78.11081171401474 12.453507820774632 H 0.0 **** 0.06
33180 H 125.14209406993143 78.66170391263881 12.052393824203307 H 0.0 **** 0.06
33181 C 148.55187057190884 45.09970001856034 123.06281885184863 C 0.0 **** -0.24
33182 H 148.05919960839094 44.341184343449854 123.67073492179749 H 0.0 **** 0.06
33183 H 149.5227535351827 45.339647601962085 123.49774889290559 H 0.0 **** 0.06
33184 H 147.9352830938793 45.997733966286404 123.03120292479649 H 0.0 **** 0.06
33185 H 148.69094905809953 44.71908176373735 122.05050337783679 H 0.0 **** 0.06
33186 C 36.01069686960979 133.25862571423193 81.13989853984128 C 0.0 **** -0.24
33187 H 35.849637235793224 134.30981789948814 81.38063590926146 H 0.0 **** 0.06
33188 H 36.609250423828286 133.18218702974036 80.23248935885795 H 0.0 **** 0.06
33189 H 35.04802900361419 132.77184844459418 80.98295859136323 H 0.0 **** 0.06
33190 H 36.53274463233416 132.77351018631478 81.96371992742374 H 0.0 **** 0.06
33191 C 111.83902752545958 70.85717926510176 6.609316954604708 C 0.0 **** -0.24
33192 H 111.05338119029898 70.55072775845542 5.91741519923815 H 0.0 **** 0.06
33193 H 112.6733048232415 70.15846156108881 6.542394229389743 H 0.0 **** 0.06
33194 H 111.44674003203193 70.86031310523626 7.625858318770327 H 0.0 **** 0.06
33195 H 112.18193177699146 71.85840315191842 6.3488115475704205 H 0.0 **** 0.06
33196 C 153.96452851545757 130.54887381079516 5.1283084372025485 C 0.0 **** -0.24
33197 H 153.9123158542478 131.39760263167284 4.446899694718894 H 0.0 **** 0.06
33198 H 153.83111599968038 129.62397965042976 4.56586678551173 H 0.0 **** 0.06
33199 H 153.1778174718417 130.6357945287195 5.877219091952583 H 0.0 **** 0.06
33200 H 154.93671704977646 130.53789376195897 5.620260199900116 H 0.0 **** 0.06
33201 C 21.109435515723874 87.23184007800273 23.061843810606206 C 0.0 **** -0.24
33202 H 21.78413417228444 86.37825825459277 23.12838304250465 H 0.0 **** 0.06
33203 H 21.594201680209892 88.11150743000888 23.486286756977336 H 0.0 **** 0.06
33204 H 20.195895435444328 87.01758759825617 23.617325671314347 H 0.0 **** 0.06
33205 H 20.86324321789212 87.42032068092308 22.017577542893434 H 0.0 **** 0.06
33206 C 85.52235410100761 81.33751517340916 6.979879275376959 C 0.0 **** -0.24
33207 H 84.93257242278821 82.13898181463657 7.4249056460311635 H 0.0 **** 0.06
33208 H 86.56941737398267 81.46063370101282 7.255652703506058 H 0.0 **** 0.06
33209 H 85.42523133162427 81.3755503585848 5.894350279508899 H 0.0 **** 0.06
33210 H 85.16086735589045 80.37506788646786 7.3435099395347265 H 0.0 **** 0.06
33211 C 122.6873255590041 22.92422393524558 148.29051223570687 C 0.0 **** -0.24
33212 H 122.19295815346054 23.8097422556838 147.89025748618263 H 0.0 **** 0.06
33213 H 123.02881130831419 22.296382426868036 147.46707236613148 H 0.0 **** 0.06
33214 H 121.9846188081792 22.364016838132102 148.90841509624627 H 0.0 **** 0.06
33215 H 123.54223718827807 23.227171790969777 148.89569766175563 H 0.0 **** 0.06
33216 C 146.2084958726582 108.141340520783 118.67721737564098 C 0.0 **** -0.24
33217 H 145.289189897595 108.72102681439212 118.75804424587325 H 0.0 **** 0.06
33218 H 146.08689052975598 107.37136368120373 117.91402569353967 H 0.0 **** 0.06
33219 H 146.42596471277247 107.67073845262188 119.6365284297341 H 0.0 **** 0.06
33220 H 147.03091237861577 108.80052431906104 118.4004368447667 H 0.0 **** 0.06
33221 C 68.38882144841193 145.95618551008238 3.561521325370279 C 0.0 **** -0.24
33222 H 68.84869010290504 144.9918788523082 3.3451624477835935 H 0.0 **** 0.06
33223 H 68.27426532339354 146.51860164430659 2.6353169036553368 H 0.0 **** 0.06
33224 H 69.02150850159529 146.51374320899168 4.250974097007941 H 0.0 **** 0.06
33225 H 67.40996030454261 145.79748562711833 4.013601923467803 H 0.0 **** 0.06
33226 C 33.055410638946796 70.69633223979243 133.48272601495665 C 0.0 **** -0.24
33227 H 33.60785450595199 69.95598644849643 132.90361844919505 H 0.0 **** 0.06
33228 H 33.757596071547596 71.32205804499664 134.03431511045903 H 0.0 **** 0.06
33229 H 32.39227913297947 70.18836515139809 134.18286579361188 H 0.0 **** 0.06
33230 H 32.46619667070263 71.31819149686366 132.80860314611374 H 0.0 **** 0.06
33231 C 60.72891323965712 113.98668492521779 24.370355884362425 C 0.0 **** -0.24
33232 H 61.516504790045815 113.74954611081012 23.65431088502902 H 0.0 **** 0.06
33233 H 61.09328111571938 113.80745408405062 25.382193839330284 H 0.0 **** 0.06
33234 H 59.862542136819684 113.35428558642258 24.178825650349552 H 0.0 **** 0.06
33235 H 60.44620985059572 115.033404598184 24.2654018903213 H 0.0 **** 0.06
33236 C 102.14239062337138 150.42602156948107 55.4793950935987 C 0.0 **** -0.24
33237 H 101.12597712644045 150.36827944142354 55.87064203176038 H 0.0 **** 0.06
33238 H 102.58589143135323 151.38099733277818 55.76045199470613 H 0.0 **** 0.06
33239 H 102.1175050578476 150.3419032951439 54.39234746961492 H 0.0 **** 0.06
33240 H 102.73763730997631 149.6118459763236 55.89353417228787 H 0.0 **** 0.06
33241 C 114.43575252973785 76.27718970461704 12.00771033639387 C 0.0 **** -0.24
33242 H 115.1013423929417 76.58962075154098 11.203605481994316 H 0.0 **** 0.06
33243 H 113.42809674093711 76.145611895946 11.613982321528738 H 0.0 **** 0.06
33244 H 114.42552732470831 77.03833584370778 12.787696658215083 H 0.0 **** 0.06
33245 H 114.78941980078706 75.33318093352487 12.425294644257576 H 0.0 **** 0.06
33246 C 108.31706624082223 147.84069735030266 127.27983159562268 C 0.0 **** -0.24
33247 H 108.42593944369206 147.1608923841759 126.43469284398014 H 0.0 **** 0.06
33248 H 107.2592338787732 147.9534587996904 127.52109551746224 H 0.0 **** 0.06
33249 H 108.73595915234979 148.8135039917874 127.01980720934642 H 0.0 **** 0.06
33250 H 108.84580329990273 147.43611628400703 128.1420467122802 H 0.0 **** 0.06
33251 C 36.23229273750748 108.83336913258086 18.843353255543803 C 0.0 **** -0.24
33252 H 37.219720271435975 108.77942041114505 19.300733884575976 H 0.0 **** 0.06
33253 H 35.56575962601947 108.12249740990853 19.332332494269338 H 0.0 **** 0.06
33254 H 36.30932776047554 108.59163739495006 17.783549959924443 H 0.0 **** 0.06
33255 H 35.83394620143211 109.84189245984516 18.958189815126417 H 0.0 **** 0.06
33256 C 23.65677932430873 47.529975074166146 21.128628520369574 C 0.0 **** -0.24
33257 H 22.716679316238185 47.27237485719246 21.61729180045367 H 0.0 **** 0.06
33258 H 23.539493297934968 47.441400820119156 20.048614511983942 H 0.0 **** 0.06
33259 H 24.438425996828357 46.84997906008164 21.466085989231743 H 0.0 **** 0.06
33260 H 23.930291688489916 48.55413550227945 21.38250068746848 H 0.0 **** 0.06
33261 C 153.4662296772104 66.89480571159271 130.4189110554475 C 0.0 **** -0.24
33262 H 152.43328796094056 66.68175682833711 130.1444930514346 H 0.0 **** 0.06
33263 H 153.86713434131187 66.06381704408763 130.9998421846332 H 0.0 **** 0.06
33264 H 153.50197801638262 67.80678604455177 131.01572143934095 H 0.0 **** 0.06
33265 H 154.06064589004 67.02805988865406 129.51534017135057 H 0.0 **** 0.06
33266 C 50.79734563215895 81.2579697385902 39.199411157611905 C 0.0 **** -0.24
33267 H 50.89246434992201 81.48177073106605 38.13709048947027 H 0.0 **** 0.06
33268 H 51.36647345325966 81.98589651740524 39.77724831914375 H 0.0 **** 0.06
33269 H 51.1830094200281 80.25734987609303 39.395153362403505 H 0.0 **** 0.06
33270 H 49.74718854216593 81.30522366510301 39.487646868707714 H 0.0 **** 0.06
33271 C 64.0452667774012 138.4516809886576 115.08206819299568 C 0.0 **** -0.24
33272 H 64.09971013938005 137.4394466202862 114.68132491189391 H 0.0 **** 0.06
33273 H 64.3205249030295 138.43903568129906 116.13775366049737 H 0.0 **** 0.06
33274 H 63.02806213189149 138.82985987933603 114.97597325692345 H 0.0 **** 0.06
33275 H 64.73223238735089 139.09708258411467 114.53495970985875 H 0.0 **** 0.06
33276 C 141.7525748326995 49.221733733176634 48.46282521580467 C 0.0 **** -0.24
33277 H 141.8161278219513 49.13089628928856 49.5472426872045 H 0.0 **** 0.06
33278 H 141.60978161822038 50.26776899753989 48.19349463332138 H 0.0 **** 0.06
33279 H 140.90995420042026 48.63353383756484 48.097963520340414 H 0.0 **** 0.06
33280 H 142.67451819994352 48.85306622245794 48.01214640041326 H 0.0 **** 0.06
33281 C 139.05105571063575 113.56492477748408 110.60748768908292 C 0.0 **** -0.24
33282 H 140.0239444951859 113.93208639349514 110.28405862285831 H 0.0 **** 0.06
33283 H 138.64660683339622 114.23115095842557 111.3705044007911 H 0.0 **** 0.06
33284 H 139.15910372643276 112.56224250367718 111.02136878674554 H 0.0 **** 0.06
33285 H 138.37231660587364 113.53396750096952 109.75495114586022 H 0.0 **** 0.06
33286 C 74.98967263796074 75.37212726939293 71.99414001838056 C 0.0 **** -0.24
33287 H 75.81558714156206 74.87964500032913 72.50798254111828 H 0.0 **** 0.06
33288 H 74.21717943162946 75.63381314709784 72.71697845553652 H 0.0 **** 0.06
33289 H 74.57406239436152 74.69674102874558 71.24608772469077 H 0.0 **** 0.06
33290 H 75.3523097759341 76.27639963882359 71.50589884584275 H 0.0 **** 0.06
33291 C 44.339339406024706 144.75161226433687 79.46764276900605 C 0.0 **** -0.24
33292 H 44.266865337189415 145.69146008017918 78.92047071292093 H 0.0 **** 0.06
33293 H 43.39358708410656 144.2137000352209 79.390911406909 H 0.0 **** 0.06
33294 H 44.55575161329574 144.95767175273076 80.51591845663678 H 0.0 **** 0.06
33295 H 45.138960417124096 144.144708112497 79.0432617478075 H 0.0 **** 0.06
33296 C 111.69428333857361 155.7612397432116 137.79678281077827 C 0.0 **** -0.24
33297 H 112.32427683779092 156.42136794160845 138.3919488246175 H 0.0 **** 0.06
33298 H 110.78567528195093 155.5275569887119 138.3520948449143 H 0.0 **** 0.06
33299 H 112.23676618883006 154.83996432864743 137.5813258942403 H 0.0 **** 0.06
33300 H 111.43299335719125 156.2552718184849 136.86091555091764 H 0.0 **** 0.06
33301 C 89.41682403976915 22.586087610757318 157.00373991914358 C 0.0 **** -0.24
33302 H 89.16319373785882 23.070530768880488 156.06154348342693 H 0.0 **** 0.06
33303 H 90.10462226969884 21.761174423815824 156.81427608703092 H 0.0 **** 0.06
33304 H 88.5106515817244 22.20292129105524 157.47140184004647 H 0.0 **** 0.06
33305 H 89.89159999259024 23.308713792475743 157.66719139161756 H 0.0 **** 0.06
33306 C 49.64900975832194 53.88347994191241 124.05761424780097 C 0.0 **** -0.24
33307 H 48.80987521187805 54.513772601376075 123.76426799027648 H 0.0 **** 0.06
33308 H 50.55028641663495 54.21532764159407 123.54163926935674 H 0.0 **** 0.06
33309 H 49.437708665495904 52.84818849002795 123.7897408950031 H 0.0 **** 0.06
33310 H 49.79896486715293 53.95610781655773 125.13511290199499 H 0.0 **** 0.06
33311 C 73.31021096859176 51.97810188458388 138.551103579706 C 0.0 **** -0.24
33312 H 73.78121602566411 52.95948063330252 138.6054418935173 H 0.0 **** 0.06
33313 H 73.04292847723185 51.759676462951845 137.5168898217846 H 0.0 **** 0.06
33314 H 72.41099830218631 51.97272378257631 139.16773665695604 H 0.0 **** 0.06
33315 H 74.00408930782872 51.220849909961586 138.91548518506167 H 0.0 **** 0.06
33316 C 81.82536409002769 23.863803676561105 93.17425274027265 C 0.0 **** -0.24
33317 H 81.11263061822434 23.802660290092263 93.99680253358427 H 0.0 **** 0.06
33318 H 81.63398557986382 24.766423691908813 92.59368056137228 H 0.0 **** 0.06
33319 H 81.7148876793609 22.98893926101826 92.5331568782799 H 0.0 **** 0.06
33320 H 82.83867989057904 23.896602894283433 93.57355581504845 H 0.0 **** 0.06
33321 C 150.5421182077145 74.34456859417526 47.901547144988 C 0.0 **** -0.24
33322 H 150.13339076700387 73.45788506197556 47.41771366137398 H 0.0 **** 0.06
33323 H 150.853258489304 74.09328448560188 48.9164475115098 H 0.0 **** 0.06
33324 H 149.7808234556239 75.12293446732701 47.93758176837872 H 0.0 **** 0.06
33325 H 151.40261623684006 74.70268764882331 47.33623169174747 H 0.0 **** 0.06
33326 C 123.8493199227965 118.74020964393446 89.21748000390721 C 0.0 **** -0.24
33327 H 122.9679488423726 119.37561751722245 89.30927626171541 H 0.0 **** 0.06
33328 H 123.5525479403284 117.75979639928732 88.84508112268782 H 0.0 **** 0.06
33329 H 124.32043628814807 118.6317543335548 90.19456623196317 H 0.0 **** 0.06
33330 H 124.55446311871185 119.19601624298923 88.5229837383676 H 0.0 **** 0.06
33331 C 74.2789481488739 117.14227288281616 151.8272023680426 C 0.0 **** -0.24
33332 H 74.45838188394737 117.05506946883087 152.89838430498818 H 0.0 **** 0.06
33333 H 74.82627382866036 118.00108131724498 151.43686483572495 H 0.0 **** 0.06
33334 H 73.21317649206492 117.27841106135874 151.64652362378052 H 0.0 **** 0.06
33335 H 74.61986584963933 116.23606864330459 151.32706873473353 H 0.0 **** 0.06
33336 C 140.38272485515756 141.28286612615818 147.38835232575983 C 0.0 **** -0.24
33337 H 139.85183466503003 140.33866100528797 147.26187304718442 H 0.0 **** 0.06
33338 H 140.04100990529543 141.77137466363976 148.30174874846477 H 0.0 **** 0.06
33339 H 140.1829367226579 141.92922537426375 146.5337359823951 H 0.0 **** 0.06
33340 H 141.4535699108594 141.09133243247015 147.45773809803185 H 0.0 **** 0.06
33341 C 14.690291172556996 111.78693970658658 58.109304284832206 C 0.0 **** -0.24
33342 H 15.10204314625171 112.74355561070747 58.43057829198551 H 0.0 **** 0.06
33343 H 13.614277128201216 111.88214479137137 57.96992573383608 H 0.0 **** 0.06
33344 H 14.893759403797759 111.03090497146188 58.868667095760486 H 0.0 **** 0.06
33345 H 15.15514180354188 111.4896199626837 57.16848358910346 H 0.0 **** 0.06
33346 C 52.23036773394659 141.63153430040646 31.84402900873365 C 0.0 **** -0.24
33347 H 52.484181619596015 140.5789914368034 31.969853103065894 H 0.0 **** 0.06
33348 H 51.77786655842699 142.0075262743811 32.76276317104563 H 0.0 **** 0.06
33349 H 51.525697561480214 141.74023118467025 31.020540360004453 H 0.0 **** 0.06
33350 H 53.13495019779363 142.19950737533657 31.626348444471866 H 0.0 **** 0.06
33351 C 153.95449205086553 149.0331622249137 37.96324989254026 C 0.0 **** -0.24
33352 H 153.51839184457268 149.8797569095306 37.432843703385345 H 0.0 **** 0.06
33353 H 154.9043846019868 148.76594719655833 37.50087350782758 H 0.0 **** 0.06
33354 H 153.27382124098094 148.18334835718696 37.91316689459774 H 0.0 **** 0.06
33355 H 154.12057391383564 149.3047645743905 39.00614618571126 H 0.0 **** 0.06
33356 C 85.16126784371724 40.55447106403312 21.195779919842494 C 0.0 **** -0.24
33357 H 84.83154160988202 41.55638209019793 21.470397058415614 H 0.0 **** 0.06
33358 H 84.43680981438575 40.10826758363365 20.51426565107488 H 0.0 **** 0.06
33359 H 85.24347128287958 39.94113766799481 22.09288437245678 H 0.0 **** 0.06
33360 H 86.13272766024235 40.61401231838579 20.70581735979141 H 0.0 **** 0.06
33361 C 52.67465048335039 48.599422624203356 30.604612609301142 C 0.0 **** -0.24
33362 H 51.87782592310822 48.29956230555956 31.28562295976588 H 0.0 **** 0.06
33363 H 52.319936691400116 48.52167231139157 29.57627768039734 H 0.0 **** 0.06
33364 H 53.535302893856795 47.94515880434142 30.741914969768892 H 0.0 **** 0.06
33365 H 52.963801880171516 49.62938299215219 30.81310907109372 H 0.0 **** 0.06
33366 C 25.247781815137415 116.3784600853454 133.1873314077837 C 0.0 **** -0.24
33367 H 25.52157307764287 115.32462737775283 133.2404882336746 H 0.0 **** 0.06
33368 H 25.054336761686102 116.75474973814566 134.19113503990275 H 0.0 **** 0.06
33369 H 24.35146330140433 116.49065875748705 132.57657099623208 H 0.0 **** 0.06
33370 H 26.06556074513641 116.94294846889728 132.73848490547974 H 0.0 **** 0.06
33371 C 131.94040154483486 121.5778561569956 104.9162237729264 C 0.0 **** -0.24
33372 H 132.0760108490428 122.34100204970561 105.68252862802314 H 0.0 **** 0.06
33373 H 132.2965252850966 120.61846019715306 105.291944354767 H 0.0 **** 0.06
33374 H 132.50545282566551 121.85325935847969 104.02565664901834 H 0.0 **** 0.06
33375 H 130.88190829329466 121.49957591679406 104.66628789945531 H 0.0 **** 0.06
33376 C 29.090479388488234 136.91704889088754 131.72809576125354 C 0.0 **** -0.24
33377 H 29.10757024105048 136.9939652925355 132.81478679763262 H 0.0 **** 0.06
33378 H 28.68829762844129 137.83893753674585 131.3057323040233 H 0.0 **** 0.06
33379 H 28.46195427500021 136.07718297681208 131.4328652036408 H 0.0 **** 0.06
33380 H 30.10449868667814 136.76051885495252 131.35918262022295 H 0.0 **** 0.06
33381 C 43.3844882913248 74.60686310041099 136.47898700502466 C 0.0 **** -0.24
33382 H 43.09418550752629 75.23281137624437 135.63519750541985 H 0.0 **** 0.06
33383 H 44.305885079930306 74.99154468200167 136.91644753696815 H 0.0 **** 0.06
33384 H 43.54363784137348 73.58545272456091 136.13517761900053 H 0.0 **** 0.06
33385 H 42.593293974033045 74.61908865985284 137.2292148288288 H 0.0 **** 0.06
33386 C 141.67722933158694 10.877422985395967 133.85014442333713 C 0.0 **** -0.24
33387 H 140.63005514773943 11.06917207622255 133.61889100353332 H 0.0 **** 0.06
33388 H 141.94596308455058 9.875431566044973 133.51329269366607 H 0.0 **** 0.06
33389 H 141.8310607990845 10.95221020996911 134.9263313959489 H 0.0 **** 0.06
33390 H 142.3018167421163 11.61192757809198 133.34175260604272 H 0.0 **** 0.06
33391 C 128.09404753698448 77.79329810870722 78.08772213975296 C 0.0 **** -0.24
33392 H 128.355029904074 77.37300115591181 77.11651910064563 H 0.0 **** 0.06
33393 H 128.57376790543793 78.7654839084693 78.20381189427145 H 0.0 **** 0.06
33394 H 128.43380582217344 77.12214201707909 78.87674526393747 H 0.0 **** 0.06
33395 H 127.01235708816104 77.91137164104087 78.1523757347415 H 0.0 **** 0.06
33396 C 0.11596876200039219 87.86628317561284 83.22052745891882 C 0.0 **** -0.24
33397 H 0.6135266306119433 88.81810052010782 83.03814451495205 H 0.0 **** 0.06
33398 H -0.3935159363419416 87.54324945205285 82.31195370300338 H 0.0 **** 0.06
33399 H -0.6112817242023993 87.98439707556989 84.02285872371135 H 0.0 **** 0.06
33400 H 0.8556509194882835 87.11944220158306 83.50749698486071 H 0.0 **** 0.06
33401 C 144.46601237640817 68.51786997420237 39.61799315269798 C 0.0 **** -0.24
33402 H 144.93520782899543 67.86947385059443 38.87788047708693 H 0.0 **** 0.06
33403 H 143.42660606412392 68.21982692795598 39.75404284470545 H 0.0 **** 0.06
33404 H 144.504960051874 69.55137925308838 39.271949279042644 H 0.0 **** 0.06
33405 H 144.99706158890805 68.43141726208023 40.5653480474661 H 0.0 **** 0.06
33406 C 30.72175208361906 76.17151101037558 92.84233058998355 C 0.0 **** -0.24
33407 H 29.632671661225828 76.19501832319582 92.86917992940161 H 0.0 **** 0.06
33408 H 31.06084454957856 75.13557363591713 92.80766407203933 H 0.0 **** 0.06
33409 H 31.117858634426128 76.65432610004575 93.73551133891456 H 0.0 **** 0.06
33410 H 31.07538951692824 76.69892040437702 91.9559296678355 H 0.0 **** 0.06
33411 C 24.274948195265353 71.49390880022737 124.60007727101267 C 0.0 **** -0.24
33412 H 24.73364506570809 71.20956333250903 123.65369813578131 H 0.0 **** 0.06
33413 H 23.965653331049367 72.53802228232183 124.55478502485236 H 0.0 **** 0.06
33414 H 24.997276464505006 71.3630936880049 125.40663166546055 H 0.0 **** 0.06
33415 H 23.40511310010214 70.86404667153985 124.78595699085669 H 0.0 **** 0.06
33416 C 35.82637095547011 60.974391419599826 98.35587669451178 C 0.0 **** -0.24
33417 H 35.146028315069486 60.149018086407594 98.14521954179264 H 0.0 **** 0.06
33418 H 35.81076307308746 61.68008120840956 97.52459273267456 H 0.0 **** 0.06
33419 H 36.83796509292057 60.58707652835845 98.48462919388871 H 0.0 **** 0.06
33420 H 35.51205069349669 61.48021442836887 99.26813405271531 H 0.0 **** 0.06
33421 C 27.64141017003068 153.2635313670815 76.96856898802478 C 0.0 **** -0.24
33422 H 26.566544809919606 153.14713875763056 77.10719758938657 H 0.0 **** 0.06
33423 H 27.852853430416133 154.26629569194608 76.59800710404785 H 0.0 **** 0.06
33424 H 27.99587852271999 152.5271790046486 76.24687024465184 H 0.0 **** 0.06
33425 H 28.148795265505363 153.11315816492322 77.92155741422503 H 0.0 **** 0.06
33426 C 31.52197921574954 152.97496846960678 122.37115435507906 C 0.0 **** -0.24
33427 H 32.08971364485252 153.46157760028908 121.57731313554615 H 0.0 **** 0.06
33428 H 32.00012790436742 153.1699432739485 123.33219150196294 H 0.0 **** 0.06
33429 H 31.493777150251034 151.90061699515442 122.19104826645474 H 0.0 **** 0.06
33430 H 30.505589469955822 153.36803008515042 122.38356841954152 H 0.0 **** 0.06
33431 C 143.2353811173343 81.25589899823805 106.88698819203454 C 0.0 **** -0.24
33432 H 143.3520537297969 82.24671844536367 106.4472928268426 H 0.0 **** 0.06
33433 H 142.28220195850048 80.83029433066628 106.57293113302096 H 0.0 **** 0.06
33434 H 143.25726262496332 81.3359661473348 107.97351987624513 H 0.0 **** 0.06
33435 H 144.04886118370257 80.61260609520899 106.55255573036716 H 0.0 **** 0.06
33436 C 69.24168508119698 155.1121057750026 91.18246928349458 C 0.0 **** -0.24
33437 H 68.87185467086444 154.76070276158026 90.2193192148249 H 0.0 **** 0.06
33438 H 70.25865586533693 155.48759290015033 91.06514263316731 H 0.0 **** 0.06
33439 H 69.23788804613102 154.28821887263427 91.89585810700265 H 0.0 **** 0.06
33440 H 68.59889215182692 155.9130229698265 91.54799024470137 H 0.0 **** 0.06
33441 C 144.87549722673305 130.72629314931586 15.41393882889517 C 0.0 **** -0.24
33442 H 144.55907382433037 131.60347367884708 14.848628954558421 H 0.0 **** 0.06
33443 H 145.3171612570353 131.04418260006017 16.358959404196987 H 0.0 **** 0.06
33444 H 145.61338080732367 130.1697547274115 14.836145201469385 H 0.0 **** 0.06
33445 H 144.01276632324448 130.09048818023192 15.610468903936244 H 0.0 **** 0.06
33446 C 62.32727885704439 3.172115564705713 95.12351808796926 C 0.0 **** -0.24
33447 H 61.27794057388975 2.8847506223283617 95.19343406569774 H 0.0 **** 0.06
33448 H 62.91258468343038 2.3237307514948427 94.76730325665982 H 0.0 **** 0.06
33449 H 62.68735765080868 3.4760460532037456 96.10611931586848 H 0.0 **** 0.06
33450 H 62.42963319046581 4.00329298925535 94.42579081162407 H 0.0 **** 0.06
33451 C 131.5501434784456 88.49530718746495 126.39578184911267 C 0.0 **** -0.24
33452 H 132.05031940523548 89.44932281571951 126.22791610709373 H 0.0 **** 0.06
33453 H 132.19286182579674 87.84886241874919 126.9941571396015 H 0.0 **** 0.06
33454 H 131.34489415649824 88.0188406237349 125.4373586710741 H 0.0 **** 0.06
33455 H 130.61219499665958 88.66616334321576 126.92571160364457 H 0.0 **** 0.06
33456 C 32.0170798983429 116.52517758491581 4.606853477305407 C 0.0 **** -0.24
33457 H 32.96741847072869 116.98395976698379 4.333569403417755 H 0.0 **** 0.06
33458 H 32.20293268828574 115.6078381591347 5.165232184725539 H 0.0 **** 0.06
33459 H 31.45322404100284 116.29331993446255 3.7033091936459073 H 0.0 **** 0.06
33460 H 31.443905529238094 117.21690053445576 5.224538015818297 H 0.0 **** 0.06
33461 C 101.03803603771378 85.15655381618228 56.014933290115096 C 0.0 **** -0.24
33462 H 100.78068936273438 84.11793849981035 56.22170507631847 H 0.0 **** 0.06
33463 H 100.64715565902539 85.43965523479693 55.03679125581294 H 0.0 **** 0.06
33464 H 102.12213169146143 85.27059166135535 56.020988127094256 H 0.0 **** 0.06
33465 H 100.60089216082481 85.79785388889329 56.78083416279975 H 0.0 **** 0.06
33466 C 108.61666971913394 77.52045006810593 132.83708847211147 C 0.0 **** -0.24
33467 H 109.09327955568949 78.42900327701858 133.20274232975817 H 0.0 **** 0.06
33468 H 108.74301247114016 76.72326870519815 133.5692114358022 H 0.0 **** 0.06
33469 H 109.07538747507135 77.22394589594695 131.89351177361357 H 0.0 **** 0.06
33470 H 107.55378982484848 77.7053022324117 132.6810286016 H 0.0 **** 0.06
33471 C 62.44649833350525 42.59974050581059 103.55073013798028 C 0.0 **** -0.24
33472 H 63.11717618771985 43.35513019130303 103.13946701366086 H 0.0 **** 0.06
33473 H 62.70936524665221 42.409432869856744 104.59180443643231 H 0.0 **** 0.06
33474 H 62.54291321549613 41.67835740569603 102.97668134757993 H 0.0 **** 0.06
33475 H 61.41881386100847 42.956513147512624 103.49419227543916 H 0.0 **** 0.06
33476 C 65.17095265004318 67.82258682160503 82.30508162861277 C 0.0 **** -0.24
33477 H 65.70972818495004 66.8923941326907 82.12450987862792 H 0.0 **** 0.06
33478 H 65.74974824780207 68.45049540064579 82.9831599240507 H 0.0 **** 0.06
33479 H 64.20284005161409 67.60000462249639 82.75288047479307 H 0.0 **** 0.06
33480 H 65.02389651395185 68.34610392639294 81.36096300744552 H 0.0 **** 0.06
33481 C 79.41872928212607 112.62518747960748 48.48143189578313 C 0.0 **** -0.24
33482 H 79.79124697083417 111.62155596602817 48.27736814563404 H 0.0 **** 0.06
33483 H 80.08179780894616 113.12230147032538 49.18906560141063 H 0.0 **** 0.06
33484 H 78.41636631071137 112.56076754455056 48.90466140018599 H 0.0 **** 0.06
33485 H 79.38567421842772 113.19586440736656 47.55241793773477 H 0.0 **** 0.06
33486 C 145.96562104666964 16.43865443016972 116.81991986316723 C 0.0 **** -0.24
33487 H 146.70648821021965 16.9057977539768 117.46972034993428 H 0.0 **** 0.06
33488 H 144.9655298613166 16.65311328592452 117.19661827092023 H 0.0 **** 0.06
33489 H 146.12542580330805 15.359925577834247 116.80605567411226 H 0.0 **** 0.06
33490 H 146.06738463551653 16.834651355591063 115.80997370249202 H 0.0 **** 0.06
33491 C 110.93012128154892 126.66868137842029 55.053698861068256 C 0.0 **** -0.24
33492 H 110.61269472883656 127.29273018831928 54.21858741852476 H 0.0 **** 0.06
33493 H 110.26986898170178 126.8366885209639 55.90484055780591 H 0.0 **** 0.06
33494 H 111.95288858969921 126.92650002307211 55.330576606923785 H 0.0 **** 0.06
33495 H 110.88630795331737 125.62034712810306 54.760829748325904 H 0.0 **** 0.06
33496 C 103.37490970025799 145.15506929536457 125.99482153777234 C 0.0 **** -0.24
33497 H 102.33370022132043 145.09780163719847 126.31111078145682 H 0.0 **** 0.06
33498 H 103.42111046205544 145.22140972944254 124.90743378034506 H 0.0 **** 0.06
33499 H 103.90570369656511 144.26284918256437 126.3275912613696 H 0.0 **** 0.06
33500 H 103.83912442109092 146.03821663225284 126.43315032791776 H 0.0 **** 0.06
33501 C 82.25129417674029 23.682657194493515 118.08696812200026 C 0.0 **** -0.24
33502 H 83.1306084971443 23.17493742103474 118.48356191136679 H 0.0 **** 0.06
33503 H 82.56458051409598 24.50198637013108 117.43975559790607 H 0.0 **** 0.06
33504 H 81.65820405694683 24.077908571834428 118.91179121602192 H 0.0 **** 0.06
33505 H 81.65054945925134 22.975048260734695 117.5144717524276 H 0.0 **** 0.06
33506 C 139.599311060427 120.16682593530936 71.34294202176305 C 0.0 **** -0.24
33507 H 139.98825859155858 119.19430380126937 71.64175991207051 H 0.0 **** 0.06
33508 H 140.29906691982933 120.94720067787557 71.64473950729705 H 0.0 **** 0.06
33509 H 138.63574111046614 120.33675609773906 71.82438609536361 H 0.0 **** 0.06
33510 H 139.4731495273616 120.1912579193426 70.26068742759743 H 0.0 **** 0.06
33511 C 90.8656241658527 28.96365023619859 149.2043877644992 C 0.0 **** -0.24
33512 H 90.1502329992158 28.18081977360106 149.45763593811876 H 0.0 **** 0.06
33513 H 91.19130495226187 28.83667326364821 148.1712306642583 H 0.0 **** 0.06
33514 H 91.72816005357708 28.896557616365158 149.86795623594224 H 0.0 **** 0.06
33515 H 90.3927709167645 29.938758288631362 149.31939101362786 H 0.0 **** 0.06
33516 C 77.36355243441557 108.99753255163982 67.44373084594463 C 0.0 **** -0.24
33517 H 78.21474454047137 108.35451991315021 67.666395165409 H 0.0 **** 0.06
33518 H 76.55982976086472 108.79410810533066 68.15108720365413 H 0.0 **** 0.06
33519 H 77.01432117771219 108.79998362545622 66.43027950464648 H 0.0 **** 0.06
33520 H 77.66531425861425 110.04151856262213 67.52716151006871 H 0.0 **** 0.06
33521 C 6.940002272025701 4.4836764823436965 26.44006445908832 C 0.0 **** -0.24
33522 H 7.641775508663173 5.312888366823955 26.354305353154984 H 0.0 **** 0.06
33523 H 6.414946968049215 4.549096450153371 27.393224382099334 H 0.0 **** 0.06
33524 H 7.483107160442962 3.540707034859679 26.38739251059394 H 0.0 **** 0.06
33525 H 6.219034744780586 4.532895593641626 25.623628915404595 H 0.0 **** 0.06
33526 C 47.10309849631639 70.73343208597427 155.81938261316841 C 0.0 **** -0.24
33527 H 46.57407103915794 71.63078155794877 155.49791635210948 H 0.0 **** 0.06
33528 H 48.175675806876185 70.87750154176902 155.6861887603737 H 0.0 **** 0.06
33529 H 46.77334767479201 69.88322186094928 155.22263088327801 H 0.0 **** 0.06
33530 H 46.88990996070774 70.54432444088457 156.87125599107975 H 0.0 **** 0.06
33531 C 145.79776226343898 22.051198806280127 119.8997542877641 C 0.0 **** -0.24
33532 H 146.39168556056995 21.75238191852077 119.03633015247084 H 0.0 **** 0.06
33533 H 144.74980662027366 22.130291128508105 119.61071269448865 H 0.0 **** 0.06
33534 H 146.14735925632795 23.017278016126056 120.26418340506018 H 0.0 **** 0.06
33535 H 145.90238537106927 21.305566497569856 120.68845649056163 H 0.0 **** 0.06
33536 C 124.78071381487946 105.2277130824263 116.7858912454185 C 0.0 **** -0.24
33537 H 124.32831800099241 106.002325092957 116.16678953522057 H 0.0 **** 0.06
33538 H 124.83781570718655 105.57605507293204 117.81821773164847 H 0.0 **** 0.06
33539 H 125.7841048466437 105.0095078284379 116.42075351312292 H 0.0 **** 0.06
33540 H 124.17242173876734 104.32532861000595 116.73989525865613 H 0.0 **** 0.06
33541 C 85.28389902348842 105.55915895407851 144.98883799260017 C 0.0 **** -0.24
33542 H 85.85925282576586 104.72591100891835 144.58614392081876 H 0.0 **** 0.06
33543 H 84.66200249252041 105.20760840673832 145.81233942026964 H 0.0 **** 0.06
33544 H 84.64931450002936 105.97420407824428 144.20549086997596 H 0.0 **** 0.06
33545 H 85.96412716163806 106.33037382244198 145.3511417310966 H 0.0 **** 0.06
33546 C 77.23582217001668 156.01837333934873 5.457602256857314 C 0.0 **** -0.24
33547 H 76.96579671875011 156.59031746335197 6.3460969894476875 H 0.0 **** 0.06
33548 H 77.94050996085818 155.23326258633935 5.731910291976959 H 0.0 **** 0.06
33549 H 77.6967872963103 156.68191015949736 4.726436962297271 H 0.0 **** 0.06
33550 H 76.34025263707788 155.57064158851807 5.028617279172352 H 0.0 **** 0.06
33551 C 145.97309274570318 80.57865184201889 63.6406460210885 C 0.0 **** -0.24
33552 H 145.15186283239564 81.16366111540212 64.05438294455332 H 0.0 **** 0.06
33553 H 146.775749686576 80.5108644040598 64.37510866524401 H 0.0 **** 0.06
33554 H 146.34611887138828 81.06437088338504 62.73926698001415 H 0.0 **** 0.06
33555 H 145.6190429079759 79.57852588332575 63.39478145774413 H 0.0 **** 0.06
33556 C 80.64628751256717 95.5404029760056 90.63761970968967 C 0.0 **** -0.24
33557 H 81.30487774111576 94.95811428915117 91.28232078624131 H 0.0 **** 0.06
33558 H 81.24645475630638 96.1415786205837 89.95436294508053 H 0.0 **** 0.06
33559 H 80.02547638218064 96.19557222310064 91.24840646173203 H 0.0 **** 0.06
33560 H 80.00956908187347 94.8661552825282 90.06471364106844 H 0.0 **** 0.06
33561 C 91.24509943502818 45.40825993103607 120.43723139019228 C 0.0 **** -0.24
33562 H 91.36514905329562 44.32523959143808 120.45761994385605 H 0.0 **** 0.06
33563 H 91.20136028713789 45.749534673926775 119.40338997158811 H 0.0 **** 0.06
33564 H 92.09097233102491 45.87638640734724 120.93996023712943 H 0.0 **** 0.06
33565 H 90.32218379599652 45.68041283412161 120.94947664003236 H 0.0 **** 0.06
33566 C 2.1736953296716024 29.57097453149001 75.69708680926266 C 0.0 **** -0.24
33567 H 1.7834936174097038 29.70676250376161 76.70607092326696 H 0.0 **** 0.06
33568 H 2.6231183582286235 30.501954952174202 75.35340232141226 H 0.0 **** 0.06
33569 H 1.359939799494441 29.290237944491764 75.02835773079255 H 0.0 **** 0.06
33570 H 2.9272517681644104 28.782881378649677 75.70270604006373 H 0.0 **** 0.06
33571 C 137.30731456281393 38.02646538342178 114.22360140522245 C 0.0 **** -0.24
33572 H 138.02390684897642 37.82625761202898 115.0202374692311 H 0.0 **** 0.06
33573 H 136.65019156420766 38.84292535634724 114.52378495278815 H 0.0 **** 0.06
33574 H 136.71393966084162 37.13096532690872 114.03588197892655 H 0.0 **** 0.06
33575 H 137.84209068218115 38.30491834094403 113.31611692083227 H 0.0 **** 0.06
33576 C 56.860644759399236 39.29423941783472 138.28584129487035 C 0.0 **** -0.24
33577 H 56.554302267580226 40.13261301383517 138.9113624046155 H 0.0 **** 0.06
33578 H 57.61506773383064 38.706843407023754 138.8101805040838 H 0.0 **** 0.06
33579 H 57.27625049911097 39.67131994285103 137.35242672711712 H 0.0 **** 0.06
33580 H 55.99551292974945 38.66648139280721 138.0713501187189 H 0.0 **** 0.06
33581 C 112.81858226335667 140.2150763602193 144.94918022124745 C 0.0 **** -0.24
33582 H 112.18888789486896 140.10213973822914 145.83195029744982 H 0.0 **** 0.06
33583 H 112.1926021848751 140.2285345957006 144.05571530295074 H 0.0 **** 0.06
33584 H 113.51581897041596 139.3786397868136 144.89156480625354 H 0.0 **** 0.06
33585 H 113.37628782544913 141.14872348114216 145.01692389449505 H 0.0 **** 0.06
33586 C 55.073221015008386 143.16249699091517 111.91459905164545 C 0.0 **** -0.24
33587 H 55.835861100081246 143.9382518300411 111.99229232808632 H 0.0 **** 0.06
33588 H 54.111498808381384 143.62261704337826 111.6841892906567 H 0.0 **** 0.06
33589 H 55.00251819263738 142.62626756951255 112.86062007143731 H 0.0 **** 0.06
33590 H 55.34298861855845 142.46655633104547 111.12077055502415 H 0.0 **** 0.06
33591 C 14.00316526263174 92.38775022751084 25.229062150467456 C 0.0 **** -0.24
33592 H 13.050745551226157 91.88057105639707 25.37770130505234 H 0.0 **** 0.06
33593 H 14.182692530568545 93.073463868636 26.056805720012846 H 0.0 **** 0.06
33594 H 13.975775176128593 92.94555979211334 24.293088358703727 H 0.0 **** 0.06
33595 H 14.804569436007341 91.64953261906489 25.187543338617047 H 0.0 **** 0.06
33596 C 39.65873615719423 63.93525488597572 5.169800646811034 C 0.0 **** -0.24
33597 H 38.799232776082064 64.27732439279941 5.746558890244238 H 0.0 **** 0.06
33598 H 39.65213074778906 64.41481876996318 4.189985570063818 H 0.0 **** 0.06
33599 H 39.60478385461755 62.85359266975877 5.045576342740837 H 0.0 **** 0.06
33600 H 40.5760540914323 64.19598556225446 5.696090432698348 H 0.0 **** 0.06
33601 C 141.39105129773253 116.1173179844356 61.583709832715726 C 0.0 **** -0.24
33602 H 140.98310823283833 116.4532466500778 62.53657657564372 H 0.0 **** 0.06
33603 H 142.4651155012112 115.95991104227016 61.68317248066927 H 0.0 **** 0.06
33604 H 141.20366058886611 116.87455320512743 60.82168342259166 H 0.0 **** 0.06
33605 H 140.91136695552603 115.18292415131907 61.29292510838252 H 0.0 **** 0.06
33606 C 52.25935440644949 97.85679249499876 63.118159839024656 C 0.0 **** -0.24
33607 H 52.97419242102772 98.57086166164923 62.70759370162705 H 0.0 **** 0.06
33608 H 52.111851737852746 97.04224398224976 62.407490840382195 H 0.0 **** 0.06
33609 H 51.30942166985318 98.35748175657687 63.29941838147653 H 0.0 **** 0.06
33610 H 52.644829301702515 97.45591246821269 64.05584048540317 H 0.0 **** 0.06
33611 C 59.2662223443229 117.82309367384244 131.02799057612214 C 0.0 **** -0.24
33612 H 59.47526171926964 118.89213803565417 131.06237591219647 H 0.0 **** 0.06
33613 H 59.32185723366635 117.40972946277435 132.03539440913886 H 0.0 **** 0.06
33614 H 59.999823046043105 117.329852172649 130.39076339221367 H 0.0 **** 0.06
33615 H 58.265925409880026 117.66139779005806 130.62402867878598 H 0.0 **** 0.06
33616 C 18.69164676889548 108.87469488798291 116.45960273315562 C 0.0 **** -0.24
33617 H 18.839374056485447 109.42234179210953 115.52791864375634 H 0.0 **** 0.06
33618 H 19.122374358771516 109.44091280421236 117.28579865793303 H 0.0 **** 0.06
33619 H 19.179782000978363 107.90269547582142 116.39022116821901 H 0.0 **** 0.06
33620 H 17.624831311209903 108.734403892268 116.63213350911072 H 0.0 **** 0.06
33621 C 23.496745564433354 81.7630360053497 124.96251543278807 C 0.0 **** -0.24
33622 H 23.232333691918967 81.2089282621969 125.86293512869615 H 0.0 **** 0.06
33623 H 22.919636631481694 81.38255141812576 124.11965872275887 H 0.0 **** 0.06
33624 H 24.561124191061054 81.64050893306641 124.76007790506644 H 0.0 **** 0.06
33625 H 23.274549700402247 82.82083831088627 125.10843664626869 H 0.0 **** 0.06
33626 C 46.92415442361667 130.28998080340116 134.52775100428894 C 0.0 **** -0.24
33627 H 47.10966602310104 129.70023781262765 133.62941846090516 H 0.0 **** 0.06
33628 H 46.313029174670135 129.71204971289959 135.22083270747095 H 0.0 **** 0.06
33629 H 46.39977701653115 131.20674111084966 134.2572707642235 H 0.0 **** 0.06
33630 H 47.873989049897546 130.54026855746068 134.9997964252504 H 0.0 **** 0.06
33631 C 90.76512179958449 17.263975556455648 57.42275943615766 C 0.0 **** -0.24
33632 H 90.42151550357146 17.020928032409984 58.428113243543066 H 0.0 **** 0.06
33633 H 89.981090653735 17.80367464751859 56.89168531531834 H 0.0 **** 0.06
33634 H 91.00158919885867 16.343711826545075 56.88737774898195 H 0.0 **** 0.06
33635 H 91.65710919814248 17.88770666811388 57.48442518580882 H 0.0 **** 0.06
33636 C 43.8642010994168 67.7219313874694 128.61946081598387 C 0.0 **** -0.24
33637 H 43.213587115895464 67.30773551977404 127.84908174925103 H 0.0 **** 0.06
33638 H 43.2801918583382 68.35962245073421 129.28374088791023 H 0.0 **** 0.06
33639 H 44.65370596225898 68.31007043159264 128.15012591113094 H 0.0 **** 0.06
33640 H 44.309921669420916 66.9092176617832 129.1936813925755 H 0.0 **** 0.06
33641 C 78.05259044077854 89.15999793675557 110.86676478173935 C 0.0 **** -0.24
33642 H 78.2088020695816 88.69526282439223 109.89354391517331 H 0.0 **** 0.06
33643 H 78.81300965434201 89.92394360804178 111.02979334567705 H 0.0 **** 0.06
33644 H 78.12614759375549 88.40257837264241 111.64722466142986 H 0.0 **** 0.06
33645 H 77.06389006092923 89.61737054443134 110.89620133817304 H 0.0 **** 0.06
33646 C 84.22846238696985 124.17566273161314 103.76030880629465 C 0.0 **** -0.24
33647 H 84.87733039001625 124.15577433613323 102.88494178379197 H 0.0 **** 0.06
33648 H 84.71976266790318 124.72420246097938 104.56453072902876 H 0.0 **** 0.06
33649 H 84.0256746318675 123.15520957207475 104.08689138273395 H 0.0 **** 0.06
33650 H 83.28917896046602 124.66863154166721 103.5050028240231 H 0.0 **** 0.06
33651 C 117.69580879606873 46.08018410701868 58.660527206373956 C 0.0 **** -0.24
33652 H 117.98599936831512 47.10875951658943 58.87174672965534 H 0.0 **** 0.06
33653 H 117.13828404426407 45.67846244772596 59.50646959322654 H 0.0 **** 0.06
33654 H 118.5888088448787 45.4777635612902 58.49496435068045 H 0.0 **** 0.06
33655 H 117.07011806085977 46.055463749328965 57.76754359790493 H 0.0 **** 0.06
33656 C 155.72245796738497 128.44611772772993 153.12764998674677 C 0.0 **** -0.24
33657 H 155.1767308155466 129.37792721967392 152.97929023011284 H 0.0 **** 0.06
33658 H 155.36534895526881 127.70004570529177 152.41682342216654 H 0.0 **** 0.06
33659 H 155.55897615521047 128.08771998376875 154.143699890413 H 0.0 **** 0.06
33660 H 156.78628927372762 128.61951219038534 152.96927718793933 H 0.0 **** 0.06
33661 C 108.47356658797072 1.4216173081221548 62.16892585881783 C 0.0 **** -0.24
33662 H 109.36156636728286 1.6267104008787037 62.76681538502338 H 0.0 **** 0.06
33663 H 108.2835447086883 0.34764252976187393 62.1592005586687 H 0.0 **** 0.06
33664 H 108.63280584708279 1.7720754046803862 61.14950365525641 H 0.0 **** 0.06
33665 H 107.61738575402488 1.9392456295124418 62.602255978871796 H 0.0 **** 0.06
33666 C 36.86225833328491 119.207692400901 68.19606328461182 C 0.0 **** -0.24
33667 H 36.05376743592983 118.58638252397098 67.80974579398858 H 0.0 **** 0.06
33668 H 37.82127487548124 118.77761220152094 67.90569284176904 H 0.0 **** 0.06
33669 H 36.798018542575676 119.25227381364031 69.28344428100768 H 0.0 **** 0.06
33670 H 36.77450984792124 120.21358006513553 67.78525811569612 H 0.0 **** 0.06
33671 C 34.41380395668017 153.79613748279712 140.27386856562055 C 0.0 **** -0.24
33672 H 34.28542473552653 153.09052124197333 139.45381788008214 H 0.0 **** 0.06
33673 H 35.22241318390161 154.48724711220797 140.03403466865774 H 0.0 **** 0.06
33674 H 34.65941274570676 153.25152471811055 141.18592610343353 H 0.0 **** 0.06
33675 H 33.489382473511256 154.35352779042705 140.42165423542656 H 0.0 **** 0.06
33676 C 19.25040655978654 100.73426730775128 78.73652657836358 C 0.0 **** -0.24
33677 H 19.05647672452551 99.8139613307822 79.28628357612097 H 0.0 **** 0.06
33678 H 20.120481095554624 100.59562529705158 78.09299768211486 H 0.0 **** 0.06
33679 H 19.443318509256414 101.54407317517922 79.44023327237768 H 0.0 **** 0.06
33680 H 18.382155777914136 100.98272064618305 78.12565571590034 H 0.0 **** 0.06
33681 C 55.48003539929378 66.91293051966812 26.673155375117233 C 0.0 **** -0.24
33682 H 55.97275000018122 66.01125310734916 27.037005398721135 H 0.0 **** 0.06
33683 H 55.49089419964895 66.91724988329119 25.58249587197119 H 0.0 **** 0.06
33684 H 56.00765916725619 67.79032187573559 27.04642500997656 H 0.0 **** 0.06
33685 H 54.449063455589 66.93078463807777 27.025997748373157 H 0.0 **** 0.06
33686 C 117.55001621465321 81.8266552320226 155.2248396773261 C 0.0 **** -0.24
33687 H 118.59610891124562 81.58926562512198 155.420821684987 H 0.0 **** 0.06
33688 H 116.96398412423854 81.65788478484819 156.12857393812897 H 0.0 **** 0.06
33689 H 117.17753365253982 81.18780957661181 154.42427698167887 H 0.0 **** 0.06
33690 H 117.46542407431254 82.8719343184622 154.92558642029815 H 0.0 **** 0.06
33691 C 151.13819430795877 61.48618088388832 135.97849902976864 C 0.0 **** -0.24
33692 H 150.45361965849185 60.72025806365966 135.61353948956946 H 0.0 **** 0.06
33693 H 150.87318866066767 61.752360523455835 137.0016808677105 H 0.0 **** 0.06
33694 H 151.06649682087968 62.36956090769753 135.34244011814712 H 0.0 **** 0.06
33695 H 152.1580145480591 61.10348207233659 135.95460478886528 H 0.0 **** 0.06
33696 C 45.30422974911602 147.75983580316807 83.53871837091161 C 0.0 **** -0.24
33697 H 46.305381374204345 147.86639993710816 83.11969185962306 H 0.0 **** 0.06
33698 H 44.97124277200851 148.72056637689116 83.93213942669483 H 0.0 **** 0.06
33699 H 45.325437832215286 147.02484711781682 84.34314456984794 H 0.0 **** 0.06
33700 H 44.61800906267503 147.42727695283673 82.75986572005442 H 0.0 **** 0.06
33701 C 105.83590119146021 129.54597921668397 77.83083276039855 C 0.0 **** -0.24
33702 H 106.8551161810546 129.30006413921487 78.12636482675151 H 0.0 **** 0.06
33703 H 105.85394893921978 130.1019740774736 76.8931074878067 H 0.0 **** 0.06
33704 H 105.36961447897431 130.15409124290062 78.60589735860927 H 0.0 **** 0.06
33705 H 105.26492678784564 128.6271372237125 77.69720157146514 H 0.0 **** 0.06
33706 C 126.61271570512497 31.43171364740141 97.26099670947565 C 0.0 **** -0.24
33707 H 127.48580929067197 31.398099121737204 97.91295018744705 H 0.0 **** 0.06
33708 H 126.7836240238073 32.15378724254228 96.46258595085061 H 0.0 **** 0.06
33709 H 125.73897252443356 31.72994100311564 97.83980405757238 H 0.0 **** 0.06
33710 H 126.44432557979894 30.444277013472487 96.83004153373784 H 0.0 **** 0.06
33711 C 59.46517903923814 5.163406577662272 147.69537149428874 C 0.0 **** -0.24
33712 H 59.460306635815186 5.6170953780646755 148.6869442020425 H 0.0 **** 0.06
33713 H 60.39060879974295 5.4224219943017715 147.18149366214013 H 0.0 **** 0.06
33714 H 58.61437316720111 5.533063050689066 147.12298951319744 H 0.0 **** 0.06
33715 H 59.39367021617949 4.07940289685871 147.7923417341547 H 0.0 **** 0.06
33716 C 46.39297208862122 41.20535517976219 48.876193662224125 C 0.0 **** -0.24
33717 H 46.983469207931506 42.04905663610583 48.51977725155075 H 0.0 **** 0.06
33718 H 45.86322552291614 41.49073053779432 49.78417279191791 H 0.0 **** 0.06
33719 H 47.053325126338706 40.36462155117573 49.08896232675073 H 0.0 **** 0.06
33720 H 45.673421261986405 40.916218944819235 48.1101417583601 H 0.0 **** 0.06
33721 C 89.17407322814958 29.79106473778505 25.25950062995539 C 0.0 **** -0.24
33722 H 89.76032180576412 28.89530882957682 25.05784849248503 H 0.0 **** 0.06
33723 H 89.65092546239367 30.650407779569818 24.787550240230367 H 0.0 **** 0.06
33724 H 89.11667001674498 29.953315881398083 26.336409237723835 H 0.0 **** 0.06
33725 H 88.16960593121647 29.66520710125647 24.856891717627278 H 0.0 **** 0.06
33726 C 81.09695524642693 7.536526925431005 4.2186857720367925 C 0.0 **** -0.24
33727 H 80.64344572272988 8.052521288862906 5.065411598228366 H 0.0 **** 0.06
33728 H 81.9129725855298 6.90703618853761 4.571824193546462 H 0.0 **** 0.06
33729 H 81.48327589260249 8.270166050523606 3.5107417901277813 H 0.0 **** 0.06
33730 H 80.34655421721693 6.917971692793635 3.7268490361497015 H 0.0 **** 0.06
33731 C 29.617667058907955 10.356952819175774 84.39158422005397 C 0.0 **** -0.24
33732 H 28.760397614344186 11.014187572620528 84.5416884890833 H 0.0 **** 0.06
33733 H 29.566607860831624 9.917155431010315 83.39562845698765 H 0.0 **** 0.06
33734 H 29.604342933580256 9.564701063165444 85.13997134450128 H 0.0 **** 0.06
33735 H 30.537568294254612 10.934079351981723 84.48778904289946 H 0.0 **** 0.06
33736 C 77.68723656302558 155.08100333741606 39.614257294877234 C 0.0 **** -0.24
33737 H 77.72736359521873 155.151102311248 38.52746218473601 H 0.0 **** 0.06
33738 H 76.78190326962923 155.56971864075678 39.976462626203045 H 0.0 **** 0.06
33739 H 78.56199683777889 155.57234062413227 40.042737016868614 H 0.0 **** 0.06
33740 H 77.67792619220128 154.03290820978577 39.91121107611443 H 0.0 **** 0.06
33741 C 10.890829994031222 71.25006064824203 66.57396467933098 C 0.0 **** -0.24
33742 H 10.083730241593365 70.83100507633822 65.97482277665397 H 0.0 **** 0.06
33743 H 10.916851928441282 70.755806000098 67.54501301293344 H 0.0 **** 0.06
33744 H 10.722789243514526 72.31780887877545 66.71307139918783 H 0.0 **** 0.06
33745 H 11.840902908531305 71.09545561953053 66.06192128886393 H 0.0 **** 0.06
33746 C 128.6086651997386 82.18818168491077 42.5847640987308 C 0.0 **** -0.24
33747 H 128.29058018301043 82.43837250710816 41.5733694676355 H 0.0 **** 0.06
33748 H 128.15818462287064 82.8864308105199 43.290349732879605 H 0.0 **** 0.06
33749 H 129.69545970342864 82.25386941409047 42.650700089016595 H 0.0 **** 0.06
33750 H 128.29127646034414 81.1729166616612 42.824662040735745 H 0.0 **** 0.06
33751 C 139.02307014806556 130.27139097444757 36.635829423029236 C 0.0 **** -0.24
33752 H 140.03808021368968 129.96131350217348 36.88539347813946 H 0.0 **** 0.06
33753 H 138.9767184406012 131.3594806157866 36.59397116043169 H 0.0 **** 0.06
33754 H 138.33475741887517 129.90676154213728 37.3984477036538 H 0.0 **** 0.06
33755 H 138.74384803865797 129.8579469226369 35.667158853582805 H 0.0 **** 0.06
33756 C 12.130417073832056 71.74630936823831 52.198613074114576 C 0.0 **** -0.24
33757 H 11.496266828210707 70.8612406870592 52.15739976312034 H 0.0 **** 0.06
33758 H 12.910365938411474 71.67025229274947 51.440286762078614 H 0.0 **** 0.06
33759 H 12.588263219280812 71.81968506860966 53.185335731144136 H 0.0 **** 0.06
33760 H 11.526901776232513 72.63504525497461 52.011536854158635 H 0.0 **** 0.06
33761 C 106.13538847422215 115.74293787766517 151.31173099906573 C 0.0 **** -0.24
33762 H 105.92589156258758 116.59325802648975 151.9611541111524 H 0.0 **** 0.06
33763 H 105.25409863139431 115.10315254137574 151.25510376783498 H 0.0 **** 0.06
33764 H 106.97231955620866 115.174018677879 151.71721095335263 H 0.0 **** 0.06
33765 H 106.38906830567309 116.10211277493569 150.31404185497695 H 0.0 **** 0.06
33766 C 81.354375552881 62.3009321117426 66.25129101804501 C 0.0 **** -0.24
33767 H 81.16005619983261 61.54563899103454 67.01256097723157 H 0.0 **** 0.06
33768 H 80.73272295793566 63.176374644969485 66.44171981376076 H 0.0 **** 0.06
33769 H 81.11883748153375 61.89472660976833 65.26747874590167 H 0.0 **** 0.06
33770 H 82.40595530053446 62.58711725961987 66.28439373417207 H 0.0 **** 0.06
33771 C 52.20373788805264 71.41707037985486 110.83685527927578 C 0.0 **** -0.24
33772 H 51.31616503300694 71.2145433761682 111.43790184531359 H 0.0 **** 0.06
33773 H 52.56427207120436 70.48681843941219 110.39684831449118 H 0.0 **** 0.06
33774 H 52.98067767736251 71.84522776737504 111.47019759235387 H 0.0 **** 0.06
33775 H 51.95145513067759 72.12085904283074 110.04409643988045 H 0.0 **** 0.06
33776 C 53.05144948524307 153.48782266718354 1.5470739845198516 C 0.0 **** -0.24
33777 H 54.13064944033992 153.34099626738254 1.5193413246954037 H 0.0 **** 0.06
33778 H 52.674029650639 153.22208660898326 2.535059977281442 H 0.0 **** 0.06
33779 H 52.579737399390154 152.8567572220893 0.7951187192407758 H 0.0 **** 0.06
33780 H 52.82247591311065 154.5334579546825 1.3396549816913002 H 0.0 **** 0.06
33781 C 27.750098595358168 24.26952528842792 16.239917209415893 C 0.0 **** -0.24
33782 H 27.54462927442998 23.400296370351043 16.864974110235636 H 0.0 **** 0.06
33783 H 28.552853267191693 24.85673568605084 16.6862394782556 H 0.0 **** 0.06
33784 H 26.85120000881804 24.881738833019114 16.16307582477137 H 0.0 **** 0.06
33785 H 28.050172868876132 23.938630548690682 15.245756374439168 H 0.0 **** 0.06
33786 C 129.7670892778799 147.13963701507043 124.26870882120711 C 0.0 **** -0.24
33787 H 129.67744974626405 146.58749789129342 123.33333146186642 H 0.0 **** 0.06
33788 H 130.7924103476153 147.49363899592504 124.38439820640859 H 0.0 **** 0.06
33789 H 129.51185213440476 146.4854070648176 125.1017567263478 H 0.0 **** 0.06
33790 H 129.0880184374515 147.99200648270144 124.25358437726273 H 0.0 **** 0.06
33791 C 110.70271527542108 155.5163793030015 60.55530934478743 C 0.0 **** -0.24
33792 H 111.22485836850278 156.47203240101433 60.523823181702795 H 0.0 **** 0.06
33793 H 110.40269407866752 155.2993032763069 61.58063366503782 H 0.0 **** 0.06
33794 H 111.36546571406781 154.72923833883291 60.19542792330488 H 0.0 **** 0.06
33795 H 109.81821984452453 155.56486695625466 59.920429482141785 H 0.0 **** 0.06
33796 C 90.4956584235911 136.3782218534276 24.132200593963148 C 0.0 **** -0.24
33797 H 90.45561116025382 135.41103397683094 24.63161669911966 H 0.0 **** 0.06
33798 H 91.47338457587028 136.50694324542144 23.666262728232084 H 0.0 **** 0.06
33799 H 90.33390834722724 137.17094962324398 24.861734845702244 H 0.0 **** 0.06
33800 H 89.72031879209248 136.42441776810455 23.36685485844498 H 0.0 **** 0.06
33801 C 27.60371160908045 106.61285985360229 86.20706457654941 C 0.0 **** -0.24
33802 H 27.302309631508876 105.61092271247207 86.51225873847694 H 0.0 **** 0.06
33803 H 28.46629739534552 106.54699611476622 85.54375513965152 H 0.0 **** 0.06
33804 H 27.86674583284423 107.19639520944992 87.08903404278408 H 0.0 **** 0.06
33805 H 26.7779694485275 107.0959072171035 85.68364998562157 H 0.0 **** 0.06
33806 C 142.6570639943245 138.8333890481978 119.03215043437717 C 0.0 **** -0.24
33807 H 143.3326694459348 138.242622958194 119.65074672593823 H 0.0 **** 0.06
33808 H 142.33256705011306 138.23903174363028 118.17856929113884 H 0.0 **** 0.06
33809 H 143.1757335635422 139.7247813273488 118.67856682255768 H 0.0 **** 0.06
33810 H 141.7887668893772 139.128366356181 119.62183867006456 H 0.0 **** 0.06
33811 C 104.54536654200199 44.61120650839132 63.07111924753265 C 0.0 **** -0.24
33812 H 104.40817712151009 45.65163533687519 63.36714562178673 H 0.0 **** 0.06
33813 H 104.378134072858 44.51450178546685 61.99875870089173 H 0.0 **** 0.06
33814 H 103.83354790828575 43.98457080071995 63.60837206535946 H 0.0 **** 0.06
33815 H 105.5601459425926 44.29551325589637 63.31158584030523 H 0.0 **** 0.06
33816 C 7.202626648260633 37.34944455529157 95.49670581454615 C 0.0 **** -0.24
33817 H 8.047337622044694 36.68240043787648 95.66458714345686 H 0.0 **** 0.06
33818 H 6.785430451562547 37.65686036161149 96.4562956059716 H 0.0 **** 0.06
33819 H 6.439446376936047 36.83003980118242 94.91765985179745 H 0.0 **** 0.06
33820 H 7.539171829754338 38.22957884933302 94.94816442236367 H 0.0 **** 0.06
33821 C 50.21260398854196 60.96550880424496 132.84768894297213 C 0.0 **** -0.24
33822 H 49.912425177370636 59.998787943382894 132.44377296175776 H 0.0 **** 0.06
33823 H 51.26281326154415 60.92692712324606 133.13978937350154 H 0.0 **** 0.06
33824 H 49.60123303167643 61.20093248945474 133.71925760711852 H 0.0 **** 0.06
33825 H 50.07470057245996 61.73519193237138 132.0885603713386 H 0.0 **** 0.06
33826 C 116.54185972648129 153.73355808371844 59.35408460772908 C 0.0 **** -0.24
33827 H 115.73244271552768 153.29017724355054 59.93336362351019 H 0.0 **** 0.06
33828 H 116.50289911850602 153.3602718319732 58.33026668072881 H 0.0 **** 0.06
33829 H 117.49837905767846 153.46521083782812 59.80235928782929 H 0.0 **** 0.06
33830 H 116.4343574022502 154.81795013244496 59.3508004712121 H 0.0 **** 0.06
33831 C 156.99818603851364 32.8451517341028 70.05755122709056 C 0.0 **** -0.24
33832 H 156.1456155476738 33.415130189902825 69.68821697331646 H 0.0 **** 0.06
33833 H 157.9178061352269 33.39007698617877 69.84712551554986 H 0.0 **** 0.06
33834 H 157.02798240241577 31.87419567215089 69.56313826907785 H 0.0 **** 0.06
33835 H 156.89920402162863 32.70077427318468 71.1335277086273 H 0.0 **** 0.06
33836 C 7.514486185441569 111.15515477393932 90.52253950223542 C 0.0 **** -0.24
33837 H 8.188806301290327 111.6082120862532 89.79542524542 H 0.0 **** 0.06
33838 H 7.038996279322021 111.93768700638056 91.11347884847567 H 0.0 **** 0.06
33839 H 8.08035028548187 110.49564552455858 91.18092013543938 H 0.0 **** 0.06
33840 H 6.750686030883855 110.57856929745655 89.99936149178666 H 0.0 **** 0.06
33841 C 95.1406243343076 9.062496025784071 25.01324063370177 C 0.0 **** -0.24
33842 H 95.96508628511475 9.081590837542933 25.725250125891876 H 0.0 **** 0.06
33843 H 94.97947528309675 8.040245974478779 24.67105284098301 H 0.0 **** 0.06
33844 H 95.38257678915369 9.697909706655992 24.160836879452177 H 0.0 **** 0.06
33845 H 94.2353004879514 9.431648442342919 25.495744433603818 H 0.0 **** 0.06
33846 C 101.652164987933 64.786741492078 150.2956178948284 C 0.0 **** -0.24
33847 H 102.28497282624845 65.52075124407223 150.79433684315808 H 0.0 **** 0.06
33848 H 101.04698817237731 65.28453907009643 149.53789349434902 H 0.0 **** 0.06
33849 H 101.0006770496321 64.31147445645989 151.0284523632222 H 0.0 **** 0.06
33850 H 102.27839216130111 64.0307969631381 149.82162414651242 H 0.0 **** 0.06
33851 C 21.5024645284074 4.181000569607704 34.39297128841452 C 0.0 **** -0.24
33852 H 20.870984063112232 4.802393862024587 33.7590261596852 H 0.0 **** 0.06
33853 H 21.65486148115572 3.212741710468322 33.91547192419636 H 0.0 **** 0.06
33854 H 21.018282252072744 4.037261242923137 35.35912097377497 H 0.0 **** 0.06
33855 H 22.464770287591726 4.670371209986399 34.53901111955252 H 0.0 **** 0.06
33856 C 102.90646668543843 138.66786586968283 69.4383459766903 C 0.0 **** -0.24
33857 H 103.22093514175685 138.75809885282746 70.4785379301559 H 0.0 **** 0.06
33858 H 103.63839530989071 138.07666818577002 68.88832557064734 H 0.0 **** 0.06
33859 H 102.83351365837086 139.6606991345959 68.99368019584855 H 0.0 **** 0.06
33860 H 101.93493178536346 138.17634203289845 69.39433570025297 H 0.0 **** 0.06
33861 C 121.36177437854631 111.06692602479741 137.11023716564057 C 0.0 **** -0.24
33862 H 120.57738740262901 110.3497321783107 136.87087407050936 H 0.0 **** 0.06
33863 H 120.96409020256458 112.07906336273432 137.03642677473815 H 0.0 **** 0.06
33864 H 122.1884325398325 110.94939730602418 136.40877512655572 H 0.0 **** 0.06
33865 H 121.72008501935183 110.88912259936295 138.12419973805473 H 0.0 **** 0.06
33866 C 83.70019820640998 117.24134537312285 58.95649263771615 C 0.0 **** -0.24
33867 H 84.44191281573553 116.55434328575926 59.36397790506993 H 0.0 **** 0.06
33868 H 83.81028896460366 118.217248159942 59.42809353680224 H 0.0 **** 0.06
33869 H 82.70098578808968 116.85311297252026 59.15176626766936 H 0.0 **** 0.06
33870 H 83.84818418795534 117.338907025408 57.88054162747224 H 0.0 **** 0.06
33871 C 40.097549102016444 103.94461685993207 52.114203172789445 C 0.0 **** -0.24
33872 H 39.99193072678213 104.16324445178441 51.05137326124024 H 0.0 **** 0.06
33873 H 39.19725890660675 103.44584481110303 52.47257820856137 H 0.0 **** 0.06
33874 H 40.240280248194836 104.87550930804099 52.663562582850474 H 0.0 **** 0.06
33875 H 40.95901319930391 103.29536160933418 52.26733993265127 H 0.0 **** 0.06
33876 C 42.44274941485284 120.6752411833329 125.92925783257915 C 0.0 **** -0.24
33877 H 41.765091294031095 119.83007654882039 126.047460468668 H 0.0 **** 0.06
33878 H 41.94903652920709 121.58657983562597 126.2665664706649 H 0.0 **** 0.06
33879 H 42.71546224640542 120.77706842209085 124.87777522720573 H 0.0 **** 0.06
33880 H 43.34093847715303 120.50624819014217 126.52243690936375 H 0.0 **** 0.06
33881 C 71.26396202877156 76.28133429952345 19.266448376657486 C 0.0 **** -0.24
33882 H 71.73005205629873 77.04268267838398 18.639613901705573 H 0.0 **** 0.06
33883 H 70.17887008344006 76.37207792888296 19.201319323892676 H 0.0 **** 0.06
33884 H 71.57890087927538 76.41988986272554 20.300201012675046 H 0.0 **** 0.06
33885 H 71.56742391749587 75.29200852569187 18.922958798364107 H 0.0 **** 0.06
33886 C 151.52156123120835 105.75179085875537 33.48097144307201 C 0.0 **** -0.24
33887 H 151.1746073701827 106.71102900430786 33.09746283436658 H 0.0 **** 0.06
33888 H 150.68347910284066 105.21487343614079 33.92738913832818 H 0.0 **** 0.06
33889 H 152.28908640427176 105.91838988061157 34.23590157382864 H 0.0 **** 0.06
33890 H 151.93687257137202 105.16252841941788 32.66334442329543 H 0.0 **** 0.06
33891 C 156.74812473208496 148.33791531979438 42.43626777672466 C 0.0 **** -0.24
33892 H 156.629009818592 147.5027468071589 43.12577399988476 H 0.0 **** 0.06
33893 H 155.90668136057963 148.3596276497434 41.74310233701436 H 0.0 **** 0.06
33894 H 157.67611450175534 148.21903686032445 41.87848599547192 H 0.0 **** 0.06
33895 H 156.77859263123025 149.27181907585486 42.99916671353742 H 0.0 **** 0.06
33896 C 125.72990691506511 39.59750061410506 123.56721909333326 C 0.0 **** -0.24
33897 H 126.1857046854647 40.46628786144467 123.09160075506604 H 0.0 **** 0.06
33898 H 126.5087214447568 38.895845063614615 123.86384014338309 H 0.0 **** 0.06
33899 H 125.0509799386714 39.11361839727377 122.8647457154113 H 0.0 **** 0.06
33900 H 125.1739363294604 39.916597646298015 124.44933217786097 H 0.0 **** 0.06
33901 C 138.781417157988 98.45463946303781 32.1750234569977 C 0.0 **** -0.24
33902 H 138.99076694543072 97.6350526400667 31.487699099288548 H 0.0 **** 0.06
33903 H 138.2220368942504 98.07675551929586 33.03055902127603 H 0.0 **** 0.06
33904 H 138.19256995851495 99.21569136085867 31.662852918320787 H 0.0 **** 0.06
33905 H 139.72002433558765 98.89017097325686 32.51694819133819 H 0.0 **** 0.06
33906 C 116.8393646432819 115.34566034517042 58.89452780955648 C 0.0 **** -0.24
33907 H 116.90146571215297 115.63703139950138 59.942805455008795 H 0.0 **** 0.06
33908 H 117.81936194301795 115.0136947113545 58.55138820341277 H 0.0 **** 0.06
33909 H 116.51660630277445 116.20040650244005 58.298668944576264 H 0.0 **** 0.06
33910 H 116.12109798700374 114.53440509943533 58.784570801112736 H 0.0 **** 0.06
33911 C 29.227486620957357 124.04473918986507 72.21873579010767 C 0.0 **** -0.24
33912 H 28.25799088180753 123.64342976864764 71.9227468598201 H 0.0 **** 0.06
33913 H 29.91874198512472 123.98269543043783 71.37770945639537 H 0.0 **** 0.06
33914 H 29.618824392964036 123.4669006118633 73.05586719450861 H 0.0 **** 0.06
33915 H 29.113121186747577 125.08648947451157 72.5183364616019 H 0.0 **** 0.06
33916 C 39.18587187260188 148.52078832525203 116.79285500456808 C 0.0 **** -0.24
33917 H 39.39264163018176 148.9237563246361 117.78412273751519 H 0.0 **** 0.06
33918 H 40.05966857718802 148.65501581570578 116.15529562047811 H 0.0 **** 0.06
33919 H 38.33430832274267 149.04367995442624 116.35751658960237 H 0.0 **** 0.06
33920 H 38.955627794685526 147.45797958721695 116.87471439745326 H 0.0 **** 0.06
33921 C 125.80314640434871 114.85124432956894 85.79800380876523 C 0.0 **** -0.24
33922 H 124.93804586980671 115.33461450846647 85.34519151516622 H 0.0 **** 0.06
33923 H 126.56908173890533 114.69229583995997 85.03862700679258 H 0.0 **** 0.06
33924 H 125.50447714223581 113.89133881038356 86.21854478989827 H 0.0 **** 0.06
33925 H 126.20124604818533 115.48576585373303 86.58971257690814 H 0.0 **** 0.06
33926 C 155.84495632747866 112.37898558994631 132.78313319296515 C 0.0 **** -0.24
33927 H 155.90211164700625 112.59155436946104 131.7148319680572 H 0.0 **** 0.06
33928 H 155.9589303093195 113.30614740790456 133.34431457867748 H 0.0 **** 0.06
33929 H 156.63984114255535 111.68660346637695 133.0582709017917 H 0.0 **** 0.06
33930 H 154.87727782753296 111.93085142632988 133.01201484879243 H 0.0 **** 0.06
33931 C 79.67390575282153 62.905423934394776 147.4471158006198 C 0.0 **** -0.24
33932 H 80.04948349247493 61.956825958581376 147.8322118255516 H 0.0 **** 0.06
33933 H 78.62078320189526 62.799607400712034 147.1861475388138 H 0.0 **** 0.06
33934 H 80.24163937344012 63.18687407963236 146.56053190419465 H 0.0 **** 0.06
33935 H 79.78539613630706 63.675903134066914 148.20963947177708 H 0.0 **** 0.06
33936 C 107.38880619737388 50.84480950411205 7.664076578938904 C 0.0 **** -0.24
33937 H 107.81888186622014 51.7202081913926 7.177958576751195 H 0.0 **** 0.06
33938 H 106.83042095221107 51.15745429716128 8.546940017577583 H 0.0 **** 0.06
33939 H 108.18824398615534 50.16573321736922 7.961060249981614 H 0.0 **** 0.06
33940 H 106.71884759748046 50.33657580345749 6.97065416290485 H 0.0 **** 0.06
33941 C 133.52150966915048 82.25350004660615 118.47046519198337 C 0.0 **** -0.24
33942 H 133.1719320473845 81.48697820046996 119.16148139261124 H 0.0 **** 0.06
33943 H 132.87629935356236 83.12982370906737 118.54376053610103 H 0.0 **** 0.06
33944 H 133.49349950361895 81.86536863564878 117.45260219082392 H 0.0 **** 0.06
33945 H 134.54377714234056 82.53369958879624 118.72512204018518 H 0.0 **** 0.06
33946 C 31.635678529840163 65.96401067894328 75.82349378381232 C 0.0 **** -0.24
33947 H 31.317582995876506 66.20565559463222 76.83864436492723 H 0.0 **** 0.06
33948 H 32.67425143439644 65.63272980903889 75.83852690204378 H 0.0 **** 0.06
33949 H 31.54575166263652 66.84979615014902 75.19504735504734 H 0.0 **** 0.06
33950 H 31.005393415174694 65.16927256718094 75.42521164851098 H 0.0 **** 0.06
33951 C 38.28449179898638 23.974027843652266 146.73168025582908 C 0.0 **** -0.24
33952 H 38.49018266249777 23.205701570019443 147.4767478137266 H 0.0 **** 0.06
33953 H 39.01682411463 24.775782131572612 146.82527034659358 H 0.0 **** 0.06
33954 H 37.28312992760232 24.375995218640213 146.8921961960304 H 0.0 **** 0.06
33955 H 38.34574110168671 23.53913121263301 145.73434676261468 H 0.0 **** 0.06
33956 C 33.39172202793429 109.62038419053658 79.36225762623673 C 0.0 **** -0.24
33957 H 34.32607086313408 110.04873866528027 79.72501562925538 H 0.0 **** 0.06
33958 H 33.353011564234066 108.5627495908268 79.62264813632362 H 0.0 **** 0.06
33959 H 33.33828661894961 109.73069079379479 78.27925218968545 H 0.0 **** 0.06
33960 H 32.55114573281435 110.13886940404961 79.82245455842087 H 0.0 **** 0.06
33961 C 132.0225818409191 35.548974252940155 109.67091081885462 C 0.0 **** -0.24
33962 H 132.50606796722528 36.36887095927517 110.201786716262 H 0.0 **** 0.06
33963 H 132.74950926247152 35.05655627437892 109.02362897384461 H 0.0 **** 0.06
33964 H 131.20402979110384 35.939822576839475 109.06668752143776 H 0.0 **** 0.06
33965 H 131.6314007435579 34.82960614631526 110.39086677003138 H 0.0 **** 0.06
33966 C 33.46972600270277 112.51463048509724 25.6482617159333 C 0.0 **** -0.24
33967 H 32.88669243239917 113.28891247740593 26.145952274337276 H 0.0 **** 0.06
33968 H 33.00892662981033 111.54210447857476 25.825644986419377 H 0.0 **** 0.06
33969 H 34.48540012571169 112.51313440309728 26.044432794073998 H 0.0 **** 0.06
33970 H 33.49757699693376 112.71343603621072 24.576838199872327 H 0.0 **** 0.06
33971 C 46.88090246751112 23.64460740461047 134.25423260089354 C 0.0 **** -0.24
33972 H 46.55176405633527 23.205757574652978 135.19590525632688 H 0.0 **** 0.06
33973 H 46.35317772088494 23.1682314109473 133.42708858434847 H 0.0 **** 0.06
33974 H 47.954344114120545 23.49008217970689 134.13741773649315 H 0.0 **** 0.06
33975 H 46.66576989732641 24.712792327230602 134.2558430070978 H 0.0 **** 0.06
33976 C 78.99639279381546 146.64405974591176 57.45567476506109 C 0.0 **** -0.24
33977 H 78.23315263998902 147.40560218704854 57.29250221305058 H 0.0 **** 0.06
33978 H 78.55608923937683 145.79496271427755 57.978439226673245 H 0.0 **** 0.06
33979 H 79.8040709218717 147.0623540313754 58.05591270697933 H 0.0 **** 0.06
33980 H 79.39075979627185 146.31482574993365 56.49372655846611 H 0.0 **** 0.06
33981 C 111.63236277602631 24.604397416381346 101.2622674328454 C 0.0 **** -0.24
33982 H 111.14429162191287 24.95828044528389 102.1709780893424 H 0.0 **** 0.06
33983 H 111.30925046593596 25.21293670180495 100.41685268964194 H 0.0 **** 0.06
33984 H 111.36084677605014 23.563587884580386 101.08655674992373 H 0.0 **** 0.06
33985 H 112.71343082575184 24.684358073959174 101.37664767088249 H 0.0 **** 0.06
33986 C 13.69862963974262 70.26081574844079 29.827182590898133 C 0.0 **** -0.24
33987 H 13.396541978834932 70.92202968919798 29.014867474872858 H 0.0 **** 0.06
33988 H 14.20648868407855 69.3878853939666 29.41488595320783 H 0.0 **** 0.06
33989 H 12.817424336064846 69.93997506522908 30.382065565556786 H 0.0 **** 0.06
33990 H 14.376124426534886 70.79243303761746 30.49494416802594 H 0.0 **** 0.06
33991 C 144.1590878532368 101.2931814970039 69.26628532909223 C 0.0 **** -0.24
33992 H 143.33986451849836 101.32729772444975 68.54819419503089 H 0.0 **** 0.06
33993 H 144.40408989093947 102.30655232167055 69.58527947305316 H 0.0 **** 0.06
33994 H 145.03249578986237 100.83728039095638 68.79865676936512 H 0.0 **** 0.06
33995 H 143.860570103954 100.70175849395969 70.13113307021595 H 0.0 **** 0.06
33996 C 120.1371003809024 140.75648634707332 130.21209935176887 C 0.0 **** -0.24
33997 H 120.38806067219632 140.28953728889414 129.2587540635823 H 0.0 **** 0.06
33998 H 121.04272553079726 140.87856404019266 130.80568571707965 H 0.0 **** 0.06
33999 H 119.43221365157824 140.12346404593075 130.75036333011178 H 0.0 **** 0.06
34000 H 119.68578385061677 141.73087625560925 130.03102948872632 H 0.0 **** 0.06
34001 C 14.970316137006392 22.823481396972483 37.37969988242192 C 0.0 **** -0.24
34002 H 15.882160899286504 23.363667618587783 37.63442453374786 H 0.0 **** 0.06
34003 H 14.756675610963356 22.087211538794406 38.154650266990785 H 0.0 **** 0.06
34004 H 15.103067846538522 22.316360316315667 36.423482910076885 H 0.0 **** 0.06
34005 H 14.139669015819322 23.525318246682275 37.306058431435645 H 0.0 **** 0.06
34006 C 81.35712959639712 101.90593847381062 12.127126763380744 C 0.0 **** -0.24
34007 H 80.30376530632005 102.18549447700208 12.14939307179418 H 0.0 **** 0.06
34008 H 81.45151132955772 100.87369898377118 11.788957549925101 H 0.0 **** 0.06
34009 H 81.77939462718263 102.00092145386832 13.127110824330884 H 0.0 **** 0.06
34010 H 81.89280419971307 102.56349040802063 11.442102048629977 H 0.0 **** 0.06
34011 C 115.2987593542364 28.915043403928856 35.270461279630865 C 0.0 **** -0.24
34012 H 114.25255045856302 28.697653332447253 35.059243098834 H 0.0 **** 0.06
34013 H 115.36212248966727 29.680816928835945 36.04336469078228 H 0.0 **** 0.06
34014 H 115.78556573229376 29.272089001400687 34.36350117683796 H 0.0 **** 0.06
34015 H 115.79541776967254 28.0074708771577 35.6155862462324 H 0.0 **** 0.06
34016 C 40.60610157641281 44.154164122364946 57.87935812055315 C 0.0 **** -0.24
34017 H 39.524731431429245 44.142514214439615 57.7442635288386 H 0.0 **** 0.06
34018 H 40.83901849856659 44.259599952850806 58.939090951886456 H 0.0 **** 0.06
34019 H 41.03196974134869 44.992605997745585 57.327537295228794 H 0.0 **** 0.06
34020 H 41.029173405705706 43.22129223046062 57.50537955955325 H 0.0 **** 0.06
34021 C 74.98391186397686 123.4263520853646 146.04551782270087 C 0.0 **** -0.24
34022 H 75.77148710533993 123.11224674903328 146.7314061441708 H 0.0 **** 0.06
34023 H 75.42826105529105 123.94757061255218 145.19754629228794 H 0.0 **** 0.06
34024 H 74.29635789879768 124.09418534181434 146.5635563587688 H 0.0 **** 0.06
34025 H 74.44187708589897 122.55068353079572 145.6897151760611 H 0.0 **** 0.06
34026 C 59.32227107753906 56.994485808828685 77.11575215873692 C 0.0 **** -0.24
34027 H 60.290135229337665 56.55578629635315 76.87141137391986 H 0.0 **** 0.06
34028 H 59.11023833059653 57.811222768977984 76.42450793298083 H 0.0 **** 0.06
34029 H 59.34328898713255 57.377180701104194 78.1357715276962 H 0.0 **** 0.06
34030 H 58.54644375127967 56.234146652050555 77.02912664941327 H 0.0 **** 0.06
34031 C 59.21442926884471 13.983713954562234 128.52961176022802 C 0.0 **** -0.24
34032 H 59.81133480297056 13.72238619982489 129.40388533660916 H 0.0 **** 0.06
34033 H 59.17176093509701 13.132091367262625 127.85050789599258 H 0.0 **** 0.06
34034 H 59.668921011479924 14.832691607103207 128.02069544640585 H 0.0 **** 0.06
34035 H 58.20413784031713 14.247328070786452 128.8458941767977 H 0.0 **** 0.06
34036 C 15.825775346117211 129.76132432379177 33.56436924065871 C 0.0 **** -0.24
34037 H 16.038155689020698 129.06185302917805 34.37248875342148 H 0.0 **** 0.06
34038 H 15.278557681625443 130.6177370846995 33.95850587428843 H 0.0 **** 0.06
34039 H 15.225117996392214 129.26411862338728 32.80300146018043 H 0.0 **** 0.06
34040 H 16.763203471917507 130.10069501435078 33.12227111073251 H 0.0 **** 0.06
34041 C 85.13986356357839 128.21067646336365 84.31215422871163 C 0.0 **** -0.24
34042 H 85.12764627194247 127.32699285093253 83.67549841446976 H 0.0 **** 0.06
34043 H 84.66130665734113 129.04049245729914 83.79172038421058 H 0.0 **** 0.06
34044 H 86.17090639744652 128.47442536438 84.54748348623012 H 0.0 **** 0.06
34045 H 84.59954550626026 128.00061242644517 85.23563633142338 H 0.0 **** 0.06
34046 C 140.93849082997312 128.3698095430102 74.1930316015088 C 0.0 **** -0.24
34047 H 140.5314243912103 128.05443195954444 73.23125687067466 H 0.0 **** 0.06
34048 H 141.64338127861672 129.18633482061114 74.03712589079834 H 0.0 **** 0.06
34049 H 141.45126092509278 127.53083319823958 74.66212450615302 H 0.0 **** 0.06
34050 H 140.12666522132204 128.70699354398687 74.83713934581712 H 0.0 **** 0.06
34051 C 139.4731081765794 147.173165166484 1.6874466381623847 C 0.0 **** -0.24
34052 H 139.4277514556662 148.1134817601451 2.237075740841874 H 0.0 **** 0.06
34053 H 139.8460189317554 146.38659989954317 2.344465179375902 H 0.0 **** 0.06
34054 H 140.14374579688734 147.2828552667788 0.8357607193038916 H 0.0 **** 0.06
34055 H 138.47637807250507 146.9100655082658 1.3344206970865002 H 0.0 **** 0.06
34056 C 113.57387342374311 90.57113005797815 115.46640640418529 C 0.0 **** -0.24
34057 H 113.31802633415809 91.30742186609174 116.22716671713103 H 0.0 **** 0.06
34058 H 112.83072174037962 90.5986405201088 114.66860475768395 H 0.0 **** 0.06
34059 H 113.58900410905791 89.57672957146617 115.91468585735781 H 0.0 **** 0.06
34060 H 114.55722700718253 90.79944144717216 115.05587955291863 H 0.0 **** 0.06
34061 C 11.557472217519944 74.29099350247486 132.45035113152306 C 0.0 **** -0.24
34062 H 10.513976879161874 74.33002301502685 132.13777658481033 H 0.0 **** 0.06
34063 H 11.664600450788896 73.58105288411718 133.2702081413975 H 0.0 **** 0.06
34064 H 11.875288182182544 75.27934583120908 132.78034706145374 H 0.0 **** 0.06
34065 H 12.175662513422083 73.97243612013779 131.61116902044938 H 0.0 **** 0.06
34066 C 31.506419186521384 19.91833033382194 9.209646435302808 C 0.0 **** -0.24
34067 H 32.173971325289784 20.7768680702523 9.13381253797548 H 0.0 **** 0.06
34068 H 31.40367002897196 19.451482245813672 8.229738192315551 H 0.0 **** 0.06
34069 H 30.528420505865682 20.248218505408758 9.559281999945355 H 0.0 **** 0.06
34070 H 31.920657825258814 19.197700874575 9.914017196402519 H 0.0 **** 0.06
34071 C 68.72039777015515 27.699027801500222 15.201142890384745 C 0.0 **** -0.24
34072 H 68.64553558706052 28.14883948986494 14.211816996656609 H 0.0 **** 0.06
34073 H 67.72469703518881 27.427062058966158 15.553036892256529 H 0.0 **** 0.06
34074 H 69.16715320499293 28.413575355414082 15.89307935649137 H 0.0 **** 0.06
34075 H 69.34335788289236 26.806270088728354 15.147710406256238 H 0.0 **** 0.06
34076 C 74.76784919336917 33.63572176007955 145.98322720429178 C 0.0 **** -0.24
34077 H 74.63292389153523 33.09360958133851 146.9192198441915 H 0.0 **** 0.06
34078 H 74.94408746800971 34.68983957177301 146.19722808755088 H 0.0 **** 0.06
34079 H 73.87085399565196 33.533710481729486 145.3728273608213 H 0.0 **** 0.06
34080 H 75.62211448854305 33.22478796186161 145.44610537588548 H 0.0 **** 0.06
34081 C 65.78623071526646 92.2776231314472 13.48268376266418 C 0.0 **** -0.24
34082 H 65.7113899448007 93.32984893384541 13.209362759427677 H 0.0 **** 0.06
34083 H 65.26298181313585 92.10908412656782 14.424291369193497 H 0.0 **** 0.06
34084 H 66.83566714375577 92.00628788137054 13.596195993982036 H 0.0 **** 0.06
34085 H 65.33565944965054 91.66680154784768 12.7011256002761 H 0.0 **** 0.06
34086 C 23.95515482425259 140.19206804036793 110.10997351951255 C 0.0 **** -0.24
34087 H 23.435577114509442 139.72067765027012 110.94389423407483 H 0.0 **** 0.06
34088 H 24.051914901152486 141.26155793122942 110.30057408986198 H 0.0 **** 0.06
34089 H 23.385702212309752 140.03634017938612 109.19266643448395 H 0.0 **** 0.06
34090 H 24.945701565889806 139.7500900720754 110.00182407107786 H 0.0 **** 0.06
34091 C 64.78608516421826 16.91838908651198 36.979330216929526 C 0.0 **** -0.24
34092 H 64.61585420705653 16.571855150815907 37.99807517262518 H 0.0 **** 0.06
34093 H 64.20755768571676 16.30665347896297 36.2857588547235 H 0.0 **** 0.06
34094 H 65.8466225366988 16.83486960287638 36.739603948669725 H 0.0 **** 0.06
34095 H 64.474751086196 17.959069381964355 36.89174443184041 H 0.0 **** 0.06
34096 C 23.691059846873088 49.635109599337056 149.76500468318923 C 0.0 **** -0.24
34097 H 24.339911849821924 48.940686192654994 149.23076513088583 H 0.0 **** 0.06
34098 H 23.433471613998748 50.46806517997 149.11037960459532 H 0.0 **** 0.06
34099 H 24.210068464785913 50.012197499508545 150.64667098465094 H 0.0 **** 0.06
34100 H 22.78109130915682 49.11813252717856 150.07194553167048 H 0.0 **** 0.06
34101 C 66.4778989279946 111.56046519824712 51.80071161177908 C 0.0 **** -0.24
34102 H 66.21326252925553 112.49029252356455 52.3031778887277 H 0.0 **** 0.06
34103 H 66.7914708632407 111.7763696095327 50.779424877636814 H 0.0 **** 0.06
34104 H 65.61255931665846 110.8975007929371 51.78276047086571 H 0.0 **** 0.06
34105 H 67.29418177791501 111.07699413190419 52.336783142710416 H 0.0 **** 0.06
34106 C 129.87952180125149 0.12497028686868816 32.76306184592295 C 0.0 **** -0.24
34107 H 129.07944702005332 0.6769270434245129 32.268714004074525 H 0.0 **** 0.06
34108 H 130.74335694853352 0.06863739661633872 32.10124004833091 H 0.0 **** 0.06
34109 H 129.5333269092489 -0.8815238927250846 32.99820273253323 H 0.0 **** 0.06
34110 H 130.15926930792855 0.637308237958564 33.68329921238603 H 0.0 **** 0.06
34111 C 97.61965963892905 45.53555083945871 153.97363673260236 C 0.0 **** -0.24
34112 H 97.87143440097385 44.53863863982535 153.614839942277 H 0.0 **** 0.06
34113 H 98.37865574915799 46.244004935172114 153.63974690894915 H 0.0 **** 0.06
34114 H 97.57987182313245 45.53088085843939 155.0628992316864 H 0.0 **** 0.06
34115 H 96.64826549204906 45.83036101633495 153.5771017014446 H 0.0 **** 0.06
34116 C 17.440196265079976 115.53353214581317 29.78201007405002 C 0.0 **** -0.24
34117 H 18.282056040933128 115.79245920304469 29.139467013106014 H 0.0 **** 0.06
34118 H 17.205592994027427 114.47592573219164 29.664755544751415 H 0.0 **** 0.06
34119 H 16.573079702727796 116.13208087881715 29.50408754980006 H 0.0 **** 0.06
34120 H 17.70208732744726 115.73491207605342 30.822035532306558 H 0.0 **** 0.06
34121 C 97.82384082660072 56.33054770291017 20.51186574666425 C 0.0 **** -0.24
34122 H 98.52890903509126 57.1096467905262 20.80246533230075 H 0.0 **** 0.06
34123 H 98.20604471041617 55.35949053747481 20.828538895436523 H 0.0 **** 0.06
34124 H 97.7022120547983 56.33746561439909 19.428385115905776 H 0.0 **** 0.06
34125 H 96.86097090199634 56.51654745064252 20.987450929865524 H 0.0 **** 0.06
34126 C 67.47142492761861 155.94137900575896 107.28658753683884 C 0.0 **** -0.24
34127 H 67.13994005190906 156.12516892908678 108.30896503015354 H 0.0 **** 0.06
34128 H 68.56103788925597 155.90200496166136 107.2595876070409 H 0.0 **** 0.06
34129 H 67.1206351984824 156.74514904633577 106.64055587715855 H 0.0 **** 0.06
34130 H 67.06431860679915 154.99132239199866 106.93844447388479 H 0.0 **** 0.06
34131 C 13.17745837011023 153.92095149117483 17.940118563182523 C 0.0 **** -0.24
34132 H 12.175096319932436 153.49353800754966 17.901405106077675 H 0.0 **** 0.06
34133 H 13.256381380340827 154.58373285797848 18.802086487284498 H 0.0 **** 0.06
34134 H 13.366619460874574 154.48638099183262 17.027846552998255 H 0.0 **** 0.06
34135 H 13.910196925549172 153.1186621899629 18.029772197710372 H 0.0 **** 0.06
34136 C 139.29571556263886 38.10552594160083 47.173354520321624 C 0.0 **** -0.24
34137 H 138.849270277172 37.732212805036454 46.2521723708159 H 0.0 **** 0.06
34138 H 139.36233580289976 39.19365565587083 47.129193283392084 H 0.0 **** 0.06
34139 H 140.2943449097312 37.68461392503298 47.29017562973888 H 0.0 **** 0.06
34140 H 138.6763712829407 37.81365889832159 48.021130400871456 H 0.0 **** 0.06
34141 C 156.60514446267814 74.31053192064742 42.2974399948603 C 0.0 **** -0.24
34142 H 156.5195905786496 75.39729362769899 42.27267661924435 H 0.0 **** 0.06
34143 H 155.77217224335246 73.86916411276408 41.75014901790769 H 0.0 **** 0.06
34144 H 156.58320652758786 73.96851974825545 43.33138681159903 H 0.0 **** 0.06
34145 H 157.54500627327374 74.01042899035436 41.83460561464557 H 0.0 **** 0.06
34146 C 148.5828185180257 106.33007897224678 153.90146947620062 C 0.0 **** -0.24
34147 H 148.1376850309337 105.35462052481626 153.70771283022762 H 0.0 **** 0.06
34148 H 148.3100677792099 106.66211319343472 154.90343154966126 H 0.0 **** 0.06
34149 H 148.21482163829177 107.04816921060973 153.1686295359441 H 0.0 **** 0.06
34150 H 149.66702711080654 106.25607133091751 153.8247737967352 H 0.0 **** 0.06
34151 C 64.0558112035697 94.14878903132058 45.06666822926695 C 0.0 **** -0.24
34152 H 63.78515532992287 94.12598812053608 44.01099631462998 H 0.0 **** 0.06
34153 H 64.77809054220552 93.35747901718139 45.27260938628186 H 0.0 **** 0.06
34154 H 63.16428086902462 93.99446142595474 45.673589383858 H 0.0 **** 0.06
34155 H 64.49798578678525 95.11498248158489 45.307523978123754 H 0.0 **** 0.06
34156 C 119.74495507472453 143.30762330943543 62.9888573932825 C 0.0 **** -0.24
34157 H 120.09315990683042 142.8600448660174 63.91952789917275 H 0.0 **** 0.06
34158 H 120.35571665653747 144.18006277480873 62.75456618112145 H 0.0 **** 0.06
34159 H 118.70419669755036 143.61009538179127 63.098785883193614 H 0.0 **** 0.06
34160 H 119.82859029821468 142.57772796337412 62.18274347344118 H 0.0 **** 0.06
34161 C 65.75412146289443 7.202447233551084 78.86250159640544 C 0.0 **** -0.24
34162 H 66.03125653920193 8.210295335032356 78.55357114865073 H 0.0 **** 0.06
34163 H 64.87186576064093 7.24887274461156 79.50130143586439 H 0.0 **** 0.06
34164 H 66.57887700597867 6.751225698588314 79.41352797550394 H 0.0 **** 0.06
34165 H 65.53343881723342 6.600341004083333 77.9806019660801 H 0.0 **** 0.06
34166 C 137.74228566082365 9.623581164542138 80.84001453309209 C 0.0 **** -0.24
34167 H 137.15807088663172 10.205284407679223 81.55340301217814 H 0.0 **** 0.06
34168 H 137.22585306375402 8.68738395556418 80.62532436720518 H 0.0 **** 0.06
34169 H 138.72301761649254 9.409301122864477 81.26496343994741 H 0.0 **** 0.06
34170 H 137.86198664278362 10.19275317454133 79.91855723883339 H 0.0 **** 0.06
34171 C 77.26742530042004 115.69472451113097 53.44401917352866 C 0.0 **** -0.24
34172 H 77.18509290179352 115.43842400050352 52.38760679779085 H 0.0 **** 0.06
34173 H 76.83152639361924 116.67836060791831 53.61425956834907 H 0.0 **** 0.06
34174 H 78.31883412653684 115.70701121383252 53.73290707530589 H 0.0 **** 0.06
34175 H 76.736533622776 114.95236417930988 54.04017254580248 H 0.0 **** 0.06
34176 C 133.99238811922234 7.186728897860299 63.92242226999639 C 0.0 **** -0.24
34177 H 134.81770817771186 7.899106600248217 63.93122574276725 H 0.0 **** 0.06
34178 H 133.82590221207303 6.812192954833385 64.9328582994408 H 0.0 **** 0.06
34179 H 134.2371039958797 6.355297235469614 63.26274648289669 H 0.0 **** 0.06
34180 H 133.08995835399097 7.681441242979581 63.56443503762344 H 0.0 **** 0.06
34181 C 105.7848102206795 114.41807654598843 132.8452035028996 C 0.0 **** -0.24
34182 H 104.95310684384452 114.99343099916267 133.253072906498 H 0.0 **** 0.06
34183 H 105.91436527253717 114.66487071435758 131.79157795801407 H 0.0 **** 0.06
34184 H 105.57379192944836 113.35355033845845 132.94695272976298 H 0.0 **** 0.06
34185 H 106.69610208104831 114.66224315132631 133.390722036736 H 0.0 **** 0.06
34186 C 136.43127624188526 20.409265191651002 51.905882187272596 C 0.0 **** -0.24
34187 H 136.49231728735165 20.40681387975178 52.99469424178858 H 0.0 **** 0.06
34188 H 136.9734077219308 19.550689254470115 51.510175888931485 H 0.0 **** 0.06
34189 H 136.87197442372548 21.32813208763673 51.520394989741476 H 0.0 **** 0.06
34190 H 135.38621850282982 20.351366445434564 51.6013600493128 H 0.0 **** 0.06
34191 C 119.97860646515106 73.04955958852523 77.44879467057422 C 0.0 **** -0.24
34192 H 119.18146105977196 72.57395280469609 78.02149276775441 H 0.0 **** 0.06
34193 H 120.5339382028766 73.7289272470402 78.0958147103634 H 0.0 **** 0.06
34194 H 119.54698812836726 73.6077442301567 76.61891748804098 H 0.0 **** 0.06
34195 H 120.65230037189555 72.28522944893597 77.06075517998136 H 0.0 **** 0.06
34196 C 13.587237315116226 21.87964600487038 50.230255720649026 C 0.0 **** -0.24
34197 H 12.959283456592118 21.87420728601569 51.12090493723316 H 0.0 **** 0.06
34198 H 14.634910556085629 21.812347835455967 50.52354126350802 H 0.0 **** 0.06
34199 H 13.423754915232223 22.804403109419923 49.67627242100701 H 0.0 **** 0.06
34200 H 13.330887158196418 21.02876726664715 49.59900644843525 H 0.0 **** 0.06
34201 C 103.4263665252161 124.91903822935319 37.56424721506508 C 0.0 **** -0.24
34202 H 103.58115299255788 124.0497659112126 36.92477675369314 H 0.0 **** 0.06
34203 H 102.36072832442825 125.13969429093743 37.6255562381474 H 0.0 **** 0.06
34204 H 103.9512212923354 125.77681402824606 37.14411293611862 H 0.0 **** 0.06
34205 H 103.81241654858401 124.7089631095838 38.56214426519149 H 0.0 **** 0.06
34206 C 80.12721282604686 29.378334429206717 137.62983150006423 C 0.0 **** -0.24
34207 H 79.77705385680008 28.585993859222896 138.29194917213718 H 0.0 **** 0.06
34208 H 80.64696852035885 28.936314782582627 136.77950254191646 H 0.0 **** 0.06
34209 H 80.80956936455523 30.031462073691287 138.1737014307242 H 0.0 **** 0.06
34210 H 79.275418278952 29.95712690112171 137.27402823407448 H 0.0 **** 0.06
34211 C 102.60444147123307 0.651030229348379 135.87705721623135 C 0.0 **** -0.24
34212 H 103.4273684746109 -0.06330681665230031 135.88325270578324 H 0.0 **** 0.06
34213 H 102.56265352801155 1.1642452715375953 136.83906129119148 H 0.0 **** 0.06
34214 H 101.66609970125232 0.1238916129754557 135.70503318291813 H 0.0 **** 0.06
34215 H 102.76290242058018 1.3813480159830647 135.08266639577832 H 0.0 **** 0.06
34216 C 48.90760685214019 108.63840024398023 48.11570740538944 C 0.0 **** -0.24
34217 H 49.4732419872914 109.57054109316051 48.123057757444826 H 0.0 **** 0.06
34218 H 49.44504151745707 107.88253784958276 48.688521247833066 H 0.0 **** 0.06
34219 H 48.7836245935552 108.2973310367368 47.087781885748115 H 0.0 **** 0.06
34220 H 47.927266282018365 108.8050231207876 48.56373966107542 H 0.0 **** 0.06
34221 C 52.86112614840236 69.89399323541613 31.267974192818883 C 0.0 **** -0.24
34222 H 52.40466400734552 69.38183051745321 30.421420999133602 H 0.0 **** 0.06
34223 H 53.864270548282605 70.22236668730625 30.995524438859846 H 0.0 **** 0.06
34224 H 52.91982208217938 69.21102911695436 32.1157639595566 H 0.0 **** 0.06
34225 H 52.25548530578381 70.7585382113615 31.539419987611126 H 0.0 **** 0.06
34226 C 77.60406244818603 5.291529549254847 31.77214534357367 C 0.0 **** -0.24
34227 H 78.33726774931964 4.594386219735554 31.365857448108585 H 0.0 **** 0.06
34228 H 77.21863348553184 5.921341551868011 30.969357651370807 H 0.0 **** 0.06
34229 H 78.07828462017514 5.916692732540241 32.52839661240541 H 0.0 **** 0.06
34230 H 76.78286826402784 4.73427725499252 32.222965334670484 H 0.0 **** 0.06
34231 C 56.46599414042507 106.48529851872848 15.623555452885384 C 0.0 **** -0.24
34232 H 55.64048018577648 105.79350148286363 15.788216354627181 H 0.0 **** 0.06
34233 H 56.102508980016665 107.36383234346835 15.089756283265572 H 0.0 **** 0.06
34234 H 57.23866842258154 105.99402965105918 15.033307216250108 H 0.0 **** 0.06
34235 H 56.880926223100886 106.7900480450565 16.58394846672857 H 0.0 **** 0.06
34236 C 21.382018787711388 97.93131317283559 37.95595813131361 C 0.0 **** -0.24
34237 H 20.607008784268494 98.17794870734082 37.23114433648966 H 0.0 **** 0.06
34238 H 20.978335415941544 98.02161070580416 38.96417722767002 H 0.0 **** 0.06
34239 H 22.221563711453655 98.61589076866551 37.837697881355595 H 0.0 **** 0.06
34240 H 21.721924282236245 96.90863084419749 37.79058037551253 H 0.0 **** 0.06
34241 C 125.1605507980121 7.670957683105087 79.75181896759635 C 0.0 **** -0.24
34242 H 124.40148007037051 7.71381841700088 80.53292924203404 H 0.0 **** 0.06
34243 H 125.9364188534614 6.960744764048002 80.0396888658596 H 0.0 **** 0.06
34244 H 125.60229425511558 8.65885759211966 79.61976529443568 H 0.0 **** 0.06
34245 H 124.7019228003169 7.349742100412982 78.81648822999036 H 0.0 **** 0.06
34246 C 24.353220398243764 124.17509368688998 56.153589971760255 C 0.0 **** -0.24
34247 H 23.736561156116124 125.06584238109157 56.038677940060836 H 0.0 **** 0.06
34248 H 24.362445068507384 123.61624872521018 55.21734325590609 H 0.0 **** 0.06
34249 H 23.944035889965903 123.548635861406 56.94722172214148 H 0.0 **** 0.06
34250 H 25.371242076980025 124.4683436405138 56.41264410123449 H 0.0 **** 0.06
34251 C 13.89066201677582 149.5306664027812 121.91540007888078 C 0.0 **** -0.24
34252 H 14.718946328426483 150.09475675309142 121.48786433506258 H 0.0 **** 0.06
34253 H 12.953173761080848 150.0435064868322 121.70281020014998 H 0.0 **** 0.06
34254 H 14.025378364747098 149.44979219663253 122.9948418778779 H 0.0 **** 0.06
34255 H 13.867047630832076 148.53232048828892 121.4771587000749 H 0.0 **** 0.06
34256 C 154.36603611674178 109.5132822096745 93.92776633765084 C 0.0 **** -0.24
34257 H 153.59469523618685 109.20463109071197 93.22169875919562 H 0.0 **** 0.06
34258 H 154.17484801295615 110.53770974313794 94.24969499257571 H 0.0 **** 0.06
34259 H 155.3421790929528 109.46000774446598 93.44563420451709 H 0.0 **** 0.06
34260 H 154.3518536797252 108.85079406519209 94.79321476919228 H 0.0 **** 0.06
34261 C 4.904652522662161 109.28766407217883 146.47166614590282 C 0.0 **** -0.24
34262 H 5.695247841076878 108.81756901414703 145.88712244557226 H 0.0 **** 0.06
34263 H 4.021173598342671 109.41963720251759 145.8470176404425 H 0.0 **** 0.06
34264 H 5.246564749794629 110.25883115351046 146.82918984207183 H 0.0 **** 0.06
34265 H 4.656867391414437 108.65399389236474 147.32358593236137 H 0.0 **** 0.06
34266 C 149.65210885458788 49.52858502997168 52.30367051041385 C 0.0 **** -0.24
34267 H 150.00965493375762 50.13361191375543 53.13719493140111 H 0.0 **** 0.06
34268 H 150.28752554480766 48.64846431187107 52.19562938171043 H 0.0 **** 0.06
34269 H 149.6870871257338 50.1172038834616 51.38698297696283 H 0.0 **** 0.06
34270 H 148.6261014305406 49.215387890429554 52.495948895413264 H 0.0 **** 0.06
34271 C 122.67803280649366 96.90789361350886 151.9217767740804 C 0.0 **** -0.24
34272 H 122.83439815907911 97.58042437722463 151.07825977671024 H 0.0 **** 0.06
34273 H 123.56403621040323 96.91187426098043 152.55750456838723 H 0.0 **** 0.06
34274 H 122.50016546739056 95.89707837902176 151.55290486356353 H 0.0 **** 0.06
34275 H 121.81559378093482 97.2419012395502 152.4976261180762 H 0.0 **** 0.06
34276 C 140.19212648803853 73.3804627367282 121.71924615692092 C 0.0 **** -0.24
34277 H 139.42736057445887 73.81647708202419 121.0767072472944 H 0.0 **** 0.06
34278 H 139.91267265668387 72.35800869214005 121.97382219833446 H 0.0 **** 0.06
34279 H 140.2811747341304 73.97143363477565 122.63127439491393 H 0.0 **** 0.06
34280 H 141.148248132473 73.37683638399353 121.194653016232 H 0.0 **** 0.06
34281 C 11.376562097228884 6.955967838352819 46.27614341831497 C 0.0 **** -0.24
34282 H 11.427254277164764 7.06294285853042 45.19256309324027 H 0.0 **** 0.06
34283 H 10.920857672630632 7.847055979648502 46.70832403490954 H 0.0 **** 0.06
34284 H 12.383054085996946 6.832421302647077 46.67588558587386 H 0.0 **** 0.06
34285 H 10.776378141396776 6.082016246522386 46.527842606552554 H 0.0 **** 0.06
34286 C 91.2331921004282 94.70010364372204 117.24310774034217 C 0.0 **** -0.24
34287 H 90.73579251298258 95.66312634639517 117.35902840562721 H 0.0 **** 0.06
34288 H 92.19833676311843 94.72730713397215 117.74832492264659 H 0.0 **** 0.06
34289 H 91.38292220009546 94.4950565244613 116.18313168198557 H 0.0 **** 0.06
34290 H 90.61400477898123 93.91741425767121 117.6810130334627 H 0.0 **** 0.06
34291 C 50.829709718643414 18.620010758922263 150.4821920337156 C 0.0 **** -0.24
34292 H 49.91171507490222 18.945493367280676 149.99167535259176 H 0.0 **** 0.06
34293 H 50.6635782811244 18.558424056731894 151.55799690249546 H 0.0 **** 0.06
34294 H 51.62358817864437 19.337547614083405 150.2777330296284 H 0.0 **** 0.06
34295 H 51.117357579963524 17.640366271401263 150.10115392302737 H 0.0 **** 0.06
34296 C 142.60305572142056 21.689718287923284 141.877566954124 C 0.0 **** -0.24
34297 H 141.86753542328648 21.434000194243822 142.6407195213389 H 0.0 **** 0.06
34298 H 142.1130521255546 21.737427874259282 140.90431827521826 H 0.0 **** 0.06
34299 H 143.3823703823639 20.927577212622936 141.855604936576 H 0.0 **** 0.06
34300 H 143.04618477424054 22.657749112306533 142.10977938448607 H 0.0 **** 0.06
34301 C 144.29167599814002 108.38858320612171 62.34890001742292 C 0.0 **** -0.24
34302 H 144.9488338602298 108.03509460044141 61.55399999873265 H 0.0 **** 0.06
34303 H 143.30342125159908 107.94344929288327 62.227030921809416 H 0.0 **** 0.06
34304 H 144.21100494496423 109.47354892975478 62.29688872826995 H 0.0 **** 0.06
34305 H 144.70367271362682 108.09966625528382 63.315165681384485 H 0.0 **** 0.06
34306 C 12.410646416244013 46.184286856743526 37.64870221742041 C 0.0 **** -0.24
34307 H 13.377430256410307 46.365530549008625 38.119912837965686 H 0.0 **** 0.06
34308 H 12.5645057470038 45.77124915484583 36.651818657265935 H 0.0 **** 0.06
34309 H 11.863223283558384 47.12396465591415 37.572424887480054 H 0.0 **** 0.06
34310 H 11.839981073359574 45.47866715065635 38.2512422736785 H 0.0 **** 0.06
34311 C 54.019413426872575 80.2173001289724 135.96646445726884 C 0.0 **** -0.24
34312 H 53.637712802804685 81.07252297183499 136.52547004049978 H 0.0 **** 0.06
34313 H 54.552370367745766 80.56987360844397 135.08297278324716 H 0.0 **** 0.06
34314 H 53.18850210809279 79.58248963219842 135.66133721750379 H 0.0 **** 0.06
34315 H 54.70022737602051 79.64622336430145 136.59808094056928 H 0.0 **** 0.06
34316 C 146.95531435404183 142.7577599911549 24.42618660883585 C 0.0 **** -0.24
34317 H 147.15711444159945 143.68850540529243 23.89490193192387 H 0.0 **** 0.06
34318 H 147.52421782429235 142.7397537373197 25.35607493860033 H 0.0 **** 0.06
34319 H 147.24915287160653 141.91361488019504 23.80276812092535 H 0.0 **** 0.06
34320 H 145.89121948436076 142.69225151518157 24.64987024890621 H 0.0 **** 0.06
34321 C 120.41210597449508 77.8268513842099 124.43967388841685 C 0.0 **** -0.24
34322 H 121.15248460450674 78.61604395569309 124.56451054377823 H 0.0 **** 0.06
34323 H 119.41138076569139 78.25388330264215 124.50438451097835 H 0.0 **** 0.06
34324 H 120.54084413756003 77.08081623585338 125.22389497665489 H 0.0 **** 0.06
34325 H 120.54421642171143 77.3551975683163 123.46512874882916 H 0.0 **** 0.06
34326 C 48.13081473514157 131.12627353236698 106.97855841133185 C 0.0 **** -0.24
34327 H 47.28160936636709 131.80890577949964 107.02528278948961 H 0.0 **** 0.06
34328 H 49.043005972456484 131.69390641322593 106.79495632205015 H 0.0 **** 0.06
34329 H 47.977870764981574 130.4125055492249 106.17010122270909 H 0.0 **** 0.06
34330 H 48.21936823967316 130.59304659019725 107.92447063646318 H 0.0 **** 0.06
34331 C 129.6998752189064 115.16176073224766 94.141865939173 C 0.0 **** -0.24
34332 H 129.49463143561894 114.2836406516965 94.75425861487933 H 0.0 **** 0.06
34333 H 128.92783518073483 115.91190293945768 94.31216129536223 H 0.0 **** 0.06
34334 H 129.70737772918977 114.87744073181888 93.09013855734382 H 0.0 **** 0.06
34335 H 130.6721027145025 115.5733843250819 94.41365519504969 H 0.0 **** 0.06
34336 C 84.92822519618954 123.9174657491909 147.01230088154858 C 0.0 **** -0.24
34337 H 84.78728019271634 122.83726263486089 147.03101918161806 H 0.0 **** 0.06
34338 H 84.00792512447379 124.39808832435229 146.68008198324455 H 0.0 **** 0.06
34339 H 85.73714073198454 124.16584800501461 146.32415218371733 H 0.0 **** 0.06
34340 H 85.18267372854774 124.26802863187369 148.01289835533186 H 0.0 **** 0.06
34341 C 67.85152353984012 145.4197066957961 67.8074283941051 C 0.0 **** -0.24
34342 H 68.05994999325603 144.7008342393167 68.59895251327251 H 0.0 **** 0.06
34343 H 66.77887371447622 145.44957266952952 67.61645446507424 H 0.0 **** 0.06
34344 H 68.37412176332435 145.12133898745657 66.89846113029205 H 0.0 **** 0.06
34345 H 68.19402079863238 146.40752092994705 68.11482279932386 H 0.0 **** 0.06
34346 C 15.956351358852189 107.51715038674381 125.9305201775768 C 0.0 **** -0.24
34347 H 16.676989252401903 107.96266020033413 126.61571334517936 H 0.0 **** 0.06
34348 H 14.9536285100585 107.60326445423725 126.35058203803857 H 0.0 **** 0.06
34349 H 16.198548228855152 106.46559571189671 125.78144950399297 H 0.0 **** 0.06
34350 H 15.99515581054785 108.03890439676259 124.97362745626043 H 0.0 **** 0.06
34351 C 29.79754835503668 143.20558692090043 50.239936421400984 C 0.0 **** -0.24
34352 H 29.26799396811066 143.67227079479483 51.07032125573045 H 0.0 **** 0.06
34353 H 30.771517695005038 142.85532138662683 50.581711861871966 H 0.0 **** 0.06
34354 H 29.934009694146447 143.93549172463545 49.44100087778155 H 0.0 **** 0.06
34355 H 29.216975474401394 142.3622220501172 49.86631563746336 H 0.0 **** 0.06
34356 C 98.53584194578951 137.6193309830489 97.7161155470466 C 0.0 **** -0.24
34357 H 97.64048129562434 137.0693709967148 97.42534930215236 H 0.0 **** 0.06
34358 H 99.41393342870833 136.99184626679568 97.56078050310619 H 0.0 **** 0.06
34359 H 98.4673683329338 137.89516572342643 98.76847776410146 H 0.0 **** 0.06
34360 H 98.62117155461033 138.5206684032902 97.10852982621354 H 0.0 **** 0.06
34361 C 118.98245988168954 79.64304239311424 84.88711298514154 C 0.0 **** -0.24
34362 H 119.29101012476873 79.84652340014799 85.91265133448364 H 0.0 **** 0.06
34363 H 117.99238293446255 79.18634637657757 84.89012660306415 H 0.0 **** 0.06
34364 H 119.69563776923614 78.963479672454 84.42105240383505 H 0.0 **** 0.06
34365 H 118.9504326161706 80.5773314044443 84.3262262032535 H 0.0 **** 0.06
34366 C 131.1496846777182 26.854857066887774 114.95474512768855 C 0.0 **** -0.24
34367 H 130.81290226870306 27.888592096368882 114.86885443342227 H 0.0 **** 0.06
34368 H 131.40868664449823 26.474335901508283 113.96640191075944 H 0.0 **** 0.06
34369 H 130.35091299607802 26.247563591649936 115.38094475128948 H 0.0 **** 0.06
34370 H 132.02442614620122 26.810226917910995 115.6025407296488 H 0.0 **** 0.06
34371 C 83.29452539565206 31.1186699181913 86.7061845886099 C 0.0 **** -0.24
34372 H 83.48426146314537 31.152394785371882 87.77904363391524 H 0.0 **** 0.06
34373 H 83.04042280905831 30.099294701659403 86.41370424488474 H 0.0 **** 0.06
34374 H 84.18758423289287 31.43832654475392 86.16940417004606 H 0.0 **** 0.06
34375 H 82.46672811510722 31.784945709439853 86.46293181628211 H 0.0 **** 0.06
34376 C 154.69372354860747 49.03418406467125 25.501385046234162 C 0.0 **** -0.24
34377 H 153.78096327184005 48.58404665447699 25.892599415856075 H 0.0 **** 0.06
34378 H 155.4731355361613 48.27410667252764 25.435856212879408 H 0.0 **** 0.06
34379 H 155.0194947760295 49.83387593073235 26.16666822064264 H 0.0 **** 0.06
34380 H 154.50090912288337 49.4428374798116 24.509253670089272 H 0.0 **** 0.06
34381 C 16.497121712767182 16.543451741856302 36.41844578654292 C 0.0 **** -0.24
34382 H 17.34040002656986 16.010012803377947 36.85782293184161 H 0.0 **** 0.06
34383 H 15.583835788834378 15.96870979383624 36.57250157852104 H 0.0 **** 0.06
34384 H 16.668872624534536 16.67422816742686 35.349472512307784 H 0.0 **** 0.06
34385 H 16.397622301560176 17.518996049996815 36.89240335839179 H 0.0 **** 0.06
34386 C 96.92798502777978 86.85749588619939 131.93198976391974 C 0.0 **** -0.24
34387 H 96.09271017347658 87.52129820064306 132.15854246496224 H 0.0 **** 0.06
34388 H 97.41617265675819 86.55941454381924 132.8601670328313 H 0.0 **** 0.06
34389 H 97.64261328455689 87.37800626002861 131.29562192441637 H 0.0 **** 0.06
34390 H 96.55809406890864 85.97229525630385 131.41572901960828 H 0.0 **** 0.06
34391 C 124.42998200928436 60.88258782523596 93.0562725116195 C 0.0 **** -0.24
34392 H 124.6738088784253 59.82609682607699 92.94708973122948 H 0.0 **** 0.06
34393 H 124.3255505649506 61.12385304013043 94.11407818349872 H 0.0 **** 0.06
34394 H 123.49301972166914 61.094595428315756 92.54093657349092 H 0.0 **** 0.06
34395 H 125.22798089968877 61.485840773306705 92.62208435019762 H 0.0 **** 0.06
34396 C 82.34184718370446 85.49967552273267 96.38115082553317 C 0.0 **** -0.24
34397 H 81.63452000610975 85.45351051075156 97.2085640792987 H 0.0 **** 0.06
34398 H 82.27478581381962 84.58302262388091 95.79438175891755 H 0.0 **** 0.06
34399 H 83.3528492051713 85.60838195828084 96.77188148217958 H 0.0 **** 0.06
34400 H 82.10324649285148 86.35445871167099 95.74763120602765 H 0.0 **** 0.06
34401 C 39.387697606873175 73.87344127372121 35.83641145188959 C 0.0 **** -0.24
34402 H 39.7198390111743 73.1140832673418 36.544610710109296 H 0.0 **** 0.06
34403 H 38.82447773945614 74.64151280318409 36.36664647908991 H 0.0 **** 0.06
34404 H 38.7528814789265 73.41149978875967 35.08054492487846 H 0.0 **** 0.06
34405 H 40.25511870280194 74.3262230204018 35.35541558331124 H 0.0 **** 0.06
34406 C 109.23829008526072 127.76506248234949 87.75040937610218 C 0.0 **** -0.24
34407 H 108.53109436299063 128.224038112451 88.44151375494202 H 0.0 **** 0.06
34408 H 109.68886779591195 128.53755455100548 87.12626881413425 H 0.0 **** 0.06
34409 H 108.71543913075642 127.04681238478457 87.12021869680324 H 0.0 **** 0.06
34410 H 110.01785641476069 127.25363712294643 88.31604012760468 H 0.0 **** 0.06
34411 C 111.95095856604081 33.35621695542801 71.29542445886888 C 0.0 **** -0.24
34412 H 112.70794974287872 33.49388100305981 70.52236968201221 H 0.0 **** 0.06
34413 H 111.74722209801513 32.29323301011465 71.41831548378461 H 0.0 **** 0.06
34414 H 111.03589988309358 33.87086016632742 71.00255308984168 H 0.0 **** 0.06
34415 H 112.31361355145424 33.76875096733801 72.23650346543062 H 0.0 **** 0.06
34416 C 73.37691067460264 95.00085390932435 5.154606877883538 C 0.0 **** -0.24
34417 H 73.2997839889826 96.08394830893958 5.250516582616598 H 0.0 **** 0.06
34418 H 74.02600346933423 94.75694219431962 4.312407759117008 H 0.0 **** 0.06
34419 H 72.3863953854044 94.58031602909635 4.98375023122054 H 0.0 **** 0.06
34420 H 73.79678331649956 94.58409239770262 6.070109187500492 H 0.0 **** 0.06
34421 C 139.8633592599619 125.45721437826408 27.847078562547466 C 0.0 **** -0.24
34422 H 140.5383492666325 126.18696211358328 28.295089086214006 H 0.0 **** 0.06
34423 H 140.43606735006296 124.59567978900712 27.505008045941253 H 0.0 **** 0.06
34424 H 139.34737209375874 125.91127767865216 27.00201502407583 H 0.0 **** 0.06
34425 H 139.13196563237966 125.13698906733502 28.589764777671235 H 0.0 **** 0.06
34426 C 62.77777377193769 53.97963082183108 3.3842930027948626 C 0.0 **** -0.24
34427 H 63.5057129868395 54.33070292201627 2.6525303582710364 H 0.0 **** 0.06
34428 H 62.83136068206481 52.89295827659487 3.4564727838060776 H 0.0 **** 0.06
34429 H 61.77601154061473 54.27350146182117 3.070737340672281 H 0.0 **** 0.06
34430 H 62.998940732854805 54.41974533343087 4.356196822208716 H 0.0 **** 0.06
34431 C 17.63096266376352 31.601574739093174 77.80239402569498 C 0.0 **** -0.24
34432 H 18.453884565170085 31.876503741593353 77.14172292981263 H 0.0 **** 0.06
34433 H 17.882482331892334 31.87136228905287 78.82784280009201 H 0.0 **** 0.06
34434 H 17.459217508495783 30.527304633663 77.74023301722693 H 0.0 **** 0.06
34435 H 16.729065970571874 32.13275838652773 77.49738914896022 H 0.0 **** 0.06
34436 C 143.37601551804195 67.86445296884813 117.8599628703397 C 0.0 **** -0.24
34437 H 142.730437723465 68.67327721918099 118.20095449239545 H 0.0 **** 0.06
34438 H 142.7664841166291 67.00410885938601 117.58313591490025 H 0.0 **** 0.06
34439 H 144.05923318389517 67.58363575850439 118.6606425453221 H 0.0 **** 0.06
34440 H 143.94840604439906 68.19745938157064 116.99397701768692 H 0.0 **** 0.06
34441 C 88.1272741013869 152.24492444326148 19.271030899375027 C 0.0 **** -0.24
34442 H 88.17031248346721 151.83224572285297 20.27890769651237 H 0.0 **** 0.06
34443 H 87.22186718506816 151.8964085746289 18.77443179790101 H 0.0 **** 0.06
34444 H 89.0005789293726 151.9166186116288 18.707132291473357 H 0.0 **** 0.06
34445 H 88.11734033109417 153.3330964248209 19.324131701071096 H 0.0 **** 0.06
34446 C 129.8170257518711 107.49677526656846 116.23009658885424 C 0.0 **** -0.24
34447 H 130.06840379593234 106.43765064669817 116.28138764250674 H 0.0 **** 0.06
34448 H 129.81753245704738 107.81885139599673 115.18836610149246 H 0.0 **** 0.06
34449 H 130.55391715537482 108.07203606782112 116.78972030961948 H 0.0 **** 0.06
34450 H 128.82830383243936 107.65696212847031 116.65905903278342 H 0.0 **** 0.06
34451 C 19.176675892960503 108.53199232490152 4.18755429429784 C 0.0 **** -0.24
34452 H 18.398668535231707 107.98384757592913 3.6552624675711343 H 0.0 **** 0.06
34453 H 18.807579755824264 108.82234571424465 5.171893497079267 H 0.0 **** 0.06
34454 H 19.443749905319493 109.42406216250015 3.6222477386787375 H 0.0 **** 0.06
34455 H 20.055495679996397 107.89651282420596 4.301120522604094 H 0.0 **** 0.06
34456 C 17.27671934080672 130.15142658589355 109.55561884749591 C 0.0 **** -0.24
34457 H 18.33557962811227 129.95316710893422 109.71705209188286 H 0.0 **** 0.06
34458 H 16.712621359446786 129.2241063993912 109.66211511382085 H 0.0 **** 0.06
34459 H 17.131112408913964 130.55249008461942 108.55254887699931 H 0.0 **** 0.06
34460 H 16.926245645388377 130.87645286415864 110.29071597064689 H 0.0 **** 0.06
34461 C 57.039104583838565 154.43798928657205 53.800816232255585 C 0.0 **** -0.24
34462 H 58.04386398259791 154.57239952179353 54.20073258858707 H 0.0 **** 0.06
34463 H 56.308593036778404 154.57468324288368 54.59885153754027 H 0.0 **** 0.06
34464 H 56.9427060066034 153.43292769812047 53.38876013709768 H 0.0 **** 0.06
34465 H 56.8598422196235 155.17189184926045 53.01493601710047 H 0.0 **** 0.06
34466 C 28.88975081356105 16.396559028010486 22.075055474619063 C 0.0 **** -0.24
34467 H 29.434552097160974 16.230379984728096 23.004842969120034 H 0.0 **** 0.06
34468 H 28.489540305540373 17.411203169940997 22.064733647301637 H 0.0 **** 0.06
34469 H 28.06989864289011 15.681545592211798 22.001150801380845 H 0.0 **** 0.06
34470 H 29.565012208652774 16.26310736516084 21.229494480673765 H 0.0 **** 0.06
34471 C 85.79018699906129 147.773189553222 34.60302422638796 C 0.0 **** -0.24
34472 H 85.96592436354129 148.19652565839664 33.61326130287758 H 0.0 **** 0.06
34473 H 86.61237308290944 148.04738690577346 35.265225538645126 H 0.0 **** 0.06
34474 H 85.72991039363576 146.68824098962645 34.52882883554511 H 0.0 **** 0.06
34475 H 84.85443114071259 148.1635216755508 35.00339715908972 H 0.0 **** 0.06
34476 C 57.51555762272773 0.13096675000511482 63.159788836789645 C 0.0 **** -0.24
34477 H 57.381006810092174 -0.330436353272205 62.18096251993158 H 0.0 **** 0.06
34478 H 58.58062765797254 0.19762597612765376 63.3852241682585 H 0.0 **** 0.06
34479 H 57.020345016735064 -0.4761281421074557 63.91776967129029 H 0.0 **** 0.06
34480 H 57.081112364749345 1.1300267053467792 63.15306903988352 H 0.0 **** 0.06
34481 C 5.89739220451969 91.96066918930444 0.1527996725274754 C 0.0 **** -0.24
34482 H 6.586286348368361 92.0300691373028 0.9953726465282458 H 0.0 **** 0.06
34483 H 5.569746186713466 92.96065348543488 -0.1307618787874283 H 0.0 **** 0.06
34484 H 5.032503069773455 91.36108492855902 0.4392298000010726 H 0.0 **** 0.06
34485 H 6.401693228653798 91.48965603680415 -0.690618811734705 H 0.0 **** 0.06
34486 C 54.08813039515057 20.732643910345303 109.2836469242125 C 0.0 **** -0.24
34487 H 54.82551989457242 20.902400236126454 110.06750096087286 H 0.0 **** 0.06
34488 H 53.927822087596624 21.657638742129848 108.72930272125679 H 0.0 **** 0.06
34489 H 53.1487983876838 20.40967539930142 109.73186380672523 H 0.0 **** 0.06
34490 H 54.4503934884513 19.959952657160187 108.60444562980503 H 0.0 **** 0.06
34491 C 119.67900413952322 72.59067521432783 86.22741425921957 C 0.0 **** -0.24
34492 H 119.39630995808722 72.30723801239282 87.24164009678921 H 0.0 **** 0.06
34493 H 118.79291477489312 72.59990273533418 85.59286153869667 H 0.0 **** 0.06
34494 H 120.39789611402176 71.87072386681422 85.83673274392444 H 0.0 **** 0.06
34495 H 120.12884180443689 73.58371940463181 86.23928858572377 H 0.0 **** 0.06
34496 C 7.931782555001831 0.31577328037286634 63.00559333764386 C 0.0 **** -0.24
34497 H 8.395257566735438 0.2957700475270144 62.01927013843169 H 0.0 **** 0.06
34498 H 8.284191750685608 -0.53433756870254 63.5894391759457 H 0.0 **** 0.06
34499 H 6.848672971519818 0.2610645986530926 62.89882610302709 H 0.0 **** 0.06
34500 H 8.200600240461654 1.242941193024592 63.513855528033105 H 0.0 **** 0.06
34501 C 69.38777759399098 133.24804374610738 57.14397518402487 C 0.0 **** -0.24
34502 H 69.34806791076807 133.04136009458313 58.21376894990826 H 0.0 **** 0.06
34503 H 70.33509742345572 132.8881361595321 56.7395120581387 H 0.0 **** 0.06
34504 H 69.30744290215867 134.32257020225376 56.97906033188275 H 0.0 **** 0.06
34505 H 68.56250293826277 132.73986495497573 56.644951399074614 H 0.0 **** 0.06
34506 C 79.55471943528192 10.871849924395121 40.383678896768046 C 0.0 **** -0.24
34507 H 79.3221917750248 10.540008774988443 41.3957500513808 H 0.0 **** 0.06
34508 H 78.64647010374256 10.862382167139465 39.78090431845732 H 0.0 **** 0.06
34509 H 80.2918420720415 10.20169143247466 39.942672720389766 H 0.0 **** 0.06
34510 H 79.9581415981205 11.883776079950309 40.41834415612263 H 0.0 **** 0.06
34511 C 92.5561610471518 120.65413986327377 115.91477387653008 C 0.0 **** -0.24
34512 H 93.63077980232512 120.4783828264766 115.9512516931316 H 0.0 **** 0.06
34513 H 92.23329657742347 120.72291516389737 114.87581469868896 H 0.0 **** 0.06
34514 H 92.32329312603393 121.58591963969002 116.42994243350624 H 0.0 **** 0.06
34515 H 92.03640147995706 119.82923985261635 116.40319446411452 H 0.0 **** 0.06
34516 C 156.23823870980561 65.15140370925077 60.61226614564839 C 0.0 **** -0.24
34517 H 157.10282766321643 64.50732148154334 60.45512715504816 H 0.0 **** 0.06
34518 H 156.49338694198929 65.9323836670455 61.329916770737725 H 0.0 **** 0.06
34519 H 155.40959567234853 64.55873472916907 60.99903719926178 H 0.0 **** 0.06
34520 H 155.9479794062766 65.60826132013302 59.66533405646189 H 0.0 **** 0.06
34521 C 32.88563701816881 29.59171131576869 81.84595206305413 C 0.0 **** -0.24
34522 H 33.084106796679976 28.75572904833706 82.51662341710379 H 0.0 **** 0.06
34523 H 33.63536471956195 30.368567624398622 82.0009145413293 H 0.0 **** 0.06
34524 H 31.895248389254334 29.99665654077836 82.05389051328802 H 0.0 **** 0.06
34525 H 32.92828711223308 29.247177431328737 80.81275022380737 H 0.0 **** 0.06
34526 C 106.89368549052638 90.15500409022493 98.62483525356463 C 0.0 **** -0.24
34527 H 107.14905076055582 89.0983986470867 98.53778226197156 H 0.0 **** 0.06
34528 H 106.07263072625211 90.38611574101154 97.94492922640123 H 0.0 **** 0.06
34529 H 107.76170476881303 90.76074293827537 98.36568156716045 H 0.0 **** 0.06
34530 H 106.59046462574558 90.37221990990773 99.6490090984067 H 0.0 **** 0.06
34531 C 92.33578610822987 79.00798419982073 86.4450496859921 C 0.0 **** -0.24
34532 H 93.2391513124067 78.70124815802626 85.91825089552987 H 0.0 **** 0.06
34533 H 91.6459396309703 78.16581853899024 86.50401175049325 H 0.0 **** 0.06
34534 H 91.86230736198304 79.82918793730994 85.90626309210711 H 0.0 **** 0.06
34535 H 92.59645342480373 79.33689674294209 87.4515161746429 H 0.0 **** 0.06
34536 C 66.74541307329494 66.03825448898931 125.91349551966543 C 0.0 **** -0.24
34537 H 67.52082528800473 66.16181776062098 126.66985965357198 H 0.0 **** 0.06
34538 H 67.18918811989037 66.11965406142286 124.92179926899807 H 0.0 **** 0.06
34539 H 65.99065337837283 66.81508786811747 126.03853709963381 H 0.0 **** 0.06
34540 H 66.28095686176027 65.0587368965185 126.02619590697832 H 0.0 **** 0.06
34541 C 100.32141288279558 76.78343386081225 80.0587826739561 C 0.0 **** -0.24
34542 H 100.83766881088798 76.97957044939565 79.11919610691146 H 0.0 **** 0.06
34543 H 99.99153782174261 77.72713143094094 80.49534546678285 H 0.0 **** 0.06
34544 H 101.00060079046301 76.28219902068031 80.74838189919444 H 0.0 **** 0.06
34545 H 99.45666865782025 76.14603200979128 79.87314865101803 H 0.0 **** 0.06
34546 C 95.18157442982759 25.689262646469473 59.84708588786822 C 0.0 **** -0.24
34547 H 94.89617374518933 24.744840037452562 59.384185205636 H 0.0 **** 0.06
34548 H 94.37914146852472 26.028769416096786 60.50313787876472 H 0.0 **** 0.06
34549 H 95.35785660557823 26.435072008021137 59.071884193830726 H 0.0 **** 0.06
34550 H 96.09157724735213 25.54809048633284 60.429860243854236 H 0.0 **** 0.06
34551 C 65.76750421247868 26.851394288262526 79.24951341167264 C 0.0 **** -0.24
34552 H 66.0675273972237 27.8146717712159 79.66240959745397 H 0.0 **** 0.06
34553 H 66.21999089231896 26.721140676943747 78.26636312883801 H 0.0 **** 0.06
34554 H 64.6823413479686 26.81802857836567 79.1585743065815 H 0.0 **** 0.06
34555 H 66.10236159343796 26.053238112507103 79.91207957969795 H 0.0 **** 0.06
34556 C 99.75190639583072 118.02880871599912 56.15966057633716 C 0.0 **** -0.24
34557 H 99.43786674474781 118.82182607915458 55.481260091327954 H 0.0 **** 0.06
34558 H 98.95706925713857 117.28837311785436 56.244505670311696 H 0.0 **** 0.06
34559 H 99.95946564720403 118.45292421896671 57.142618308303355 H 0.0 **** 0.06
34560 H 100.65217381149508 117.5534106625192 55.77135796906538 H 0.0 **** 0.06
34561 C 24.096897724062984 119.00797225114762 76.9336964260987 C 0.0 **** -0.24
34562 H 25.07684389182387 119.27523737430438 76.53733477695111 H 0.0 **** 0.06
34563 H 23.817895125741757 119.7132025943853 77.71680905895788 H 0.0 **** 0.06
34564 H 24.13504975167038 118.00015508799272 77.34668147021596 H 0.0 **** 0.06
34565 H 23.359736521287687 119.04460957343117 76.13160931206741 H 0.0 **** 0.06
34566 C 18.470840913700535 20.300660092947396 49.91272273658092 C 0.0 **** -0.24
34567 H 19.445162842400762 20.666590953706134 50.236135855951105 H 0.0 **** 0.06
34568 H 18.25592754868989 19.354610956574447 50.40965225800667 H 0.0 **** 0.06
34569 H 18.47878875641802 20.150199862913553 48.832934683458305 H 0.0 **** 0.06
34570 H 17.7032969782817 21.029838232803968 50.17223038731231 H 0.0 **** 0.06
34571 C 142.30516999908326 127.37126312528886 65.1135429333444 C 0.0 **** -0.24
34572 H 143.07390327324308 128.14383149601656 65.12796285580875 H 0.0 **** 0.06
34573 H 141.89944079927133 127.2814396047475 64.1053865695098 H 0.0 **** 0.06
34574 H 141.50595770337267 127.64118667408468 65.80326942250626 H 0.0 **** 0.06
34575 H 142.74111431997187 126.41895356332145 65.41621062714388 H 0.0 **** 0.06
34576 C 11.886534260750068 3.110694105951694 102.26181404538887 C 0.0 **** -0.24
34577 H 12.562078007689593 3.7027701684323233 101.64369166096147 H 0.0 **** 0.06
34578 H 11.11490792138801 3.757892483661408 102.67899713502185 H 0.0 **** 0.06
34579 H 12.448507276322403 2.6462366703995883 103.07156972662175 H 0.0 **** 0.06
34580 H 11.42131091219116 2.335790059411295 101.65175367330066 H 0.0 **** 0.06
34581 C 4.3099262771193025 45.81499080101021 141.1485889152353 C 0.0 **** -0.24
34582 H 3.725997650026585 46.06785717732278 140.2639541852937 H 0.0 **** 0.06
34583 H 4.543071336614446 44.75063957733204 141.1376116880822 H 0.0 **** 0.06
34584 H 3.7342132703692528 46.0522388652886 142.04325900136766 H 0.0 **** 0.06
34585 H 5.235186294063908 46.39071154520873 141.14901221565523 H 0.0 **** 0.06
34586 C 68.76746820586457 31.99879065708467 135.61398979601603 C 0.0 **** -0.24
34587 H 69.28128228306905 32.510446251781474 136.42826882790956 H 0.0 **** 0.06
34588 H 69.16010328909475 30.985582929713843 135.51807564753068 H 0.0 **** 0.06
34589 H 68.93073801603464 32.54184649191254 134.68414790751666 H 0.0 **** 0.06
34590 H 67.6996071943731 31.956932459233755 135.82869523361083 H 0.0 **** 0.06
34591 C 117.71190453201002 84.4356916817938 151.76851348973338 C 0.0 **** -0.24
34592 H 118.28655653131268 84.30839808176427 152.68578176054305 H 0.0 **** 0.06
34593 H 116.68789796241221 84.09852101149991 151.93118547933236 H 0.0 **** 0.06
34594 H 118.1664752112154 83.84856641465984 150.9704044140188 H 0.0 **** 0.06
34595 H 117.70784453241718 85.48918677137408 151.48686243027768 H 0.0 **** 0.06
34596 C 58.833533647689194 43.26390497616944 59.67666604133967 C 0.0 **** -0.24
34597 H 57.83888499099936 43.1488069374667 60.108052388718136 H 0.0 **** 0.06
34598 H 58.81646545922864 44.06041886533629 58.93181503690664 H 0.0 **** 0.06
34599 H 59.13268949442494 42.328996359614536 59.202332463154335 H 0.0 **** 0.06
34600 H 59.54446505142293 43.51601231293259 60.46381222634989 H 0.0 **** 0.06
34601 C 103.33010161043705 60.58589695485878 145.74095181908098 C 0.0 **** -0.24
34602 H 103.80272594919848 59.64538312811992 145.45727478917522 H 0.0 **** 0.06
34603 H 103.22271144478998 60.62538923697369 146.82465120698012 H 0.0 **** 0.06
34604 H 102.3473116633574 60.65248916562523 145.2742044886632 H 0.0 **** 0.06
34605 H 103.94827835593009 61.418410514869436 145.4054531688133 H 0.0 **** 0.06
34606 C 102.37651011646447 113.34571189077013 82.27410770023147 C 0.0 **** -0.24
34607 H 102.97547310198222 113.01997637109383 83.12533412606102 H 0.0 **** 0.06
34608 H 101.44105716703488 112.78506104816705 82.25363481340224 H 0.0 **** 0.06
34609 H 102.92846812131496 113.16714202668385 81.35159655215747 H 0.0 **** 0.06
34610 H 102.16032225833767 114.40938178506372 82.36847825897215 H 0.0 **** 0.06
34611 C 78.76978396873658 0.6060478146549997 29.085450780535204 C 0.0 **** -0.24
34612 H 78.73353576956643 1.4341689390877264 29.79381521193021 H 0.0 **** 0.06
34613 H 79.77209368097371 0.5358009225492424 28.661059054736178 H 0.0 **** 0.06
34614 H 78.04797529455492 0.7783576664052703 28.28759791391832 H 0.0 **** 0.06
34615 H 78.52690257076682 -0.32259239164443443 29.600648434068574 H 0.0 **** 0.06
34616 C 31.461524900160043 59.084842032516306 77.83609855011822 C 0.0 **** -0.24
34617 H 30.580335655298086 59.417752303450754 78.3842672539754 H 0.0 **** 0.06
34618 H 32.34128347943039 59.174951477290364 78.47268458225511 H 0.0 **** 0.06
34619 H 31.589911413204277 59.701705782112086 76.94662359770756 H 0.0 **** 0.06
34620 H 31.332042897209533 58.04396503378632 77.53954137752629 H 0.0 **** 0.06
34621 C 28.903678857970675 107.68348482685373 81.27193250111787 C 0.0 **** -0.24
34622 H 29.712115945519713 107.23659581517377 80.69408448645817 H 0.0 **** 0.06
34623 H 28.415149262657422 108.45648466323958 80.67805895928163 H 0.0 **** 0.06
34624 H 29.309387909685455 108.12608196373851 82.18205646747231 H 0.0 **** 0.06
34625 H 28.17742798381491 106.91420504842533 81.535036991503 H 0.0 **** 0.06
34626 C 51.74950748176441 53.15600390596133 92.58798781846566 C 0.0 **** -0.24
34627 H 51.415160617038865 54.18689488585785 92.46682400964484 H 0.0 **** 0.06
34628 H 50.96465651330415 52.574745421549494 93.07211921283874 H 0.0 **** 0.06
34629 H 52.64957791961909 53.13542393920528 93.2025977347807 H 0.0 **** 0.06
34630 H 51.96818397779653 52.728480457755154 91.6088422715334 H 0.0 **** 0.06
34631 C 60.3663956847646 18.83851135815413 27.170313853283304 C 0.0 **** -0.24
34632 H 59.47379862001554 18.326963045325293 26.81116423008629 H 0.0 **** 0.06
34633 H 60.59510970010817 19.675699098788897 26.511636980385383 H 0.0 **** 0.06
34634 H 61.204803332639884 18.142062892448635 27.17854911293427 H 0.0 **** 0.06
34635 H 60.190738934450124 19.207529410567474 28.180619768631985 H 0.0 **** 0.06
34636 C 0.21887009764535037 89.04070507860013 153.64254099151958 C 0.0 **** -0.24
34637 H 0.3843789458601705 90.01455014201667 153.18115470829662 H 0.0 **** 0.06
34638 H -0.1335463527047942 88.33634376921401 152.88835965040357 H 0.0 **** 0.06
34639 H -0.528115220073321 89.1346012039657 154.43031576943918 H 0.0 **** 0.06
34640 H 1.15345961867801 88.67780563482887 154.0698009580671 H 0.0 **** 0.06
34641 C 115.97115640070858 122.37437329517373 88.97849027795759 C 0.0 **** -0.24
34642 H 116.19672902772372 122.28879985970211 90.04169809625853 H 0.0 **** 0.06
34643 H 116.3270112568543 121.48422881027356 88.4596851219123 H 0.0 **** 0.06
34644 H 116.4686915186645 123.2556036088666 88.57204267870999 H 0.0 **** 0.06
34645 H 114.89392162709198 122.46976370201158 88.84163053533638 H 0.0 **** 0.06
34646 C 69.02323066745765 8.857896679128686 77.0704792218921 C 0.0 **** -0.24
34647 H 69.36631528262006 8.092616739589175 76.3739878409598 H 0.0 **** 0.06
34648 H 69.8518489170778 9.164429261371168 77.70921332785315 H 0.0 **** 0.06
34649 H 68.21988849544266 8.4540935116691 77.68711286158187 H 0.0 **** 0.06
34650 H 68.65611231432175 9.718848794693827 76.51255251134444 H 0.0 **** 0.06
34651 C 14.983607806983315 86.03634024173843 111.61619504065185 C 0.0 **** -0.24
34652 H 14.901883604660952 85.69955812633921 112.64915757644862 H 0.0 **** 0.06
34653 H 14.21115389613766 86.77841984815302 111.41320612541115 H 0.0 **** 0.06
34654 H 14.855138316771615 85.18589614175004 110.94578611325828 H 0.0 **** 0.06
34655 H 15.965930028183692 86.48019961781154 111.45614329205362 H 0.0 **** 0.06
34656 C 155.41721570247367 91.46547087859398 5.202254105649558 C 0.0 **** -0.24
34657 H 156.10350810973878 92.24057518388327 5.5431495664390695 H 0.0 **** 0.06
34658 H 155.93343244916764 90.5051335019273 5.18600315401909 H 0.0 **** 0.06
34659 H 155.06777216169715 91.70657844282306 4.197922959005496 H 0.0 **** 0.06
34660 H 154.5655767595207 91.409771624271 5.880227831501543 H 0.0 **** 0.06
34661 C 11.061282805592697 113.47794842821764 100.75309332438555 C 0.0 **** -0.24
34662 H 11.7388673846786 113.03357186414877 100.02386339686 H 0.0 **** 0.06
34663 H 11.29479655566189 113.09420574486768 101.74629096669402 H 0.0 **** 0.06
34664 H 10.033217110315945 113.22235333856742 100.49594792547735 H 0.0 **** 0.06
34665 H 11.18045363898085 114.56192963912235 100.7452348108174 H 0.0 **** 0.06
34666 C 74.55361852441408 115.17603943908631 142.91869042372497 C 0.0 **** -0.24
34667 H 75.0468312044747 115.83329296022714 143.6343290956286 H 0.0 **** 0.06
34668 H 74.17391360750787 115.76738317187414 142.08479566178488 H 0.0 **** 0.06
34669 H 73.72496096965074 114.66276550676974 143.40732753246374 H 0.0 **** 0.06
34670 H 75.26754238690242 114.44115343152498 142.54716662251417 H 0.0 **** 0.06
34671 C 53.1096637268048 77.6974081587831 41.12640327914869 C 0.0 **** -0.24
34672 H 53.71154340180743 76.82753742041291 41.39071644375633 H 0.0 **** 0.06
34673 H 52.52117086914123 77.47419643489468 40.2360037161759 H 0.0 **** 0.06
34674 H 53.76510959836273 78.5446503832606 40.925879020020375 H 0.0 **** 0.06
34675 H 52.44188035283554 77.9412300897842 41.95210532714242 H 0.0 **** 0.06
34676 C 14.296697438493425 80.12255080041685 103.81008946586252 C 0.0 **** -0.24
34677 H 14.708414945040658 81.06622192217179 103.4528974112174 H 0.0 **** 0.06
34678 H 13.308545859999668 80.29540845210614 104.2376364157505 H 0.0 **** 0.06
34679 H 14.954400447904334 79.70439742424796 104.5718546289973 H 0.0 **** 0.06
34680 H 14.215013794240036 79.42402411203159 102.97707209938312 H 0.0 **** 0.06
34681 C 56.22868316300014 30.616311616237283 154.71095322478854 C 0.0 **** -0.24
34682 H 57.27105045149597 30.317518025841082 154.82904450728455 H 0.0 **** 0.06
34683 H 55.59115767295344 29.733071918103462 154.755456822706 H 0.0 **** 0.06
34684 H 56.099740297012204 31.10994986536184 153.74756197613948 H 0.0 **** 0.06
34685 H 55.9558057231568 31.30393285275062 155.51122792556288 H 0.0 **** 0.06
34686 C 152.31443275438713 123.77482866386345 136.31091322213607 C 0.0 **** -0.24
34687 H 151.2720948111132 123.6294542834408 136.0252007627925 H 0.0 **** 0.06
34688 H 152.41366391727934 123.66720967824602 137.39102201298007 H 0.0 **** 0.06
34689 H 152.63546564236157 124.77403611583753 136.01473412167937 H 0.0 **** 0.06
34690 H 152.93457631733855 123.0305274507399 135.8114251493433 H 0.0 **** 0.06
34691 C 69.42846353992879 81.44262454716481 17.013403584094647 C 0.0 **** -0.24
34692 H 69.22011996684043 81.56176337158283 18.076699671884114 H 0.0 **** 0.06
34693 H 68.49398040020385 81.47800467488689 16.453787496514735 H 0.0 **** 0.06
34694 H 69.91585038409238 80.48244396563295 16.844776835412176 H 0.0 **** 0.06
34695 H 70.08414454878142 82.24587606619993 16.67871559243315 H 0.0 **** 0.06
34696 C 87.07481454014646 156.4948034667335 1.3225786801453978 C 0.0 **** -0.24
34697 H 86.09347093842021 156.9359833425915 1.501700921941051 H 0.0 **** 0.06
34698 H 87.38830320694979 155.93581924866777 2.204634342923839 H 0.0 **** 0.06
34699 H 87.7960797511852 157.28595930868977 1.118545374812328 H 0.0 **** 0.06
34700 H 87.01931136825021 155.82286402188586 0.4670546305503649 H 0.0 **** 0.06
34701 C 131.87377878060056 20.58344322471128 83.7715746938942 C 0.0 **** -0.24
34702 H 131.4198022471623 20.775604584485784 84.74384420248487 H 0.0 **** 0.06
34703 H 132.56360212529728 21.392781726871917 83.52749542432485 H 0.0 **** 0.06
34704 H 131.09507698475517 20.52657925913988 83.01172757964656 H 0.0 **** 0.06
34705 H 132.41890948228064 19.640023833860397 83.80594112291084 H 0.0 **** 0.06
34706 C 94.38261197445945 90.62115521019399 37.57929030210846 C 0.0 **** -0.24
34707 H 94.85724085876774 90.3258805469157 38.515439857653405 H 0.0 **** 0.06
34708 H 94.08580150147509 91.66899777000435 37.63726639474302 H 0.0 **** 0.06
34709 H 93.50261971321743 90.00267691506397 37.407841094165406 H 0.0 **** 0.06
34710 H 95.08585786843685 90.48818443192454 36.75738784764823 H 0.0 **** 0.06
34711 C 91.76676534163025 139.71956667564245 134.9329694101516 C 0.0 **** -0.24
34712 H 92.07224716823958 138.83285252861577 135.48803024663047 H 0.0 **** 0.06
34713 H 90.73298524380829 139.96385479506193 135.17843776328786 H 0.0 **** 0.06
34714 H 91.85101614641314 139.52553059746083 133.86421900118964 H 0.0 **** 0.06
34715 H 92.41158735897676 140.55624155737127 135.2023546150551 H 0.0 **** 0.06
34716 C 63.28020587630789 151.60332609964638 88.69419935220168 C 0.0 **** -0.24
34717 H 62.61296607500532 151.06317695500593 89.36511334624765 H 0.0 **** 0.06
34718 H 62.81258125527151 151.69664808974608 87.71396065890737 H 0.0 **** 0.06
34719 H 64.21907826704262 151.05748421309607 88.59924699105457 H 0.0 **** 0.06
34720 H 63.477327256144065 152.59594690133315 89.099788793327 H 0.0 **** 0.06
34721 C 90.00116743366956 94.144616128674 152.0102293765986 C 0.0 **** -0.24
34722 H 89.79813104055438 93.99960361454058 150.94918495539892 H 0.0 **** 0.06
34723 H 89.08514633364263 94.4515425726104 152.51628294615375 H 0.0 **** 0.06
34724 H 90.76037864166352 94.91798520337484 152.13160616123693 H 0.0 **** 0.06
34725 H 90.36036197419514 93.21140982593643 152.44333089949075 H 0.0 **** 0.06
34726 C 143.95973807156412 65.66444191840812 130.52430658209062 C 0.0 **** -0.24
34727 H 144.79278306559672 65.08059483334156 130.13404736177222 H 0.0 **** 0.06
34728 H 143.71658221621942 65.3228026174036 131.53022828712977 H 0.0 **** 0.06
34729 H 143.09232489727498 65.5373216524246 129.87649989958118 H 0.0 **** 0.06
34730 H 144.23889695468324 66.71837623286817 130.55569928212293 H 0.0 **** 0.06
34731 C 114.99729402077689 22.196084816590947 141.90557566221335 C 0.0 **** -0.24
34732 H 113.92542315268203 22.262449266906877 141.7200325107212 H 0.0 **** 0.06
34733 H 115.33808869267968 23.107322300367912 142.3983493937479 H 0.0 **** 0.06
34734 H 115.5234815515444 22.07653795372878 140.95801250777015 H 0.0 **** 0.06
34735 H 115.20305338680213 21.337628800996242 142.54562335658574 H 0.0 **** 0.06
34736 C 33.2036883768381 94.3128333190112 148.95927654369984 C 0.0 **** -0.24
34737 H 33.39868040783722 94.14738744176694 150.01890310239264 H 0.0 **** 0.06
34738 H 33.40456830666875 93.39616801444436 148.40598222720962 H 0.0 **** 0.06
34739 H 33.85060600296703 95.10952483474591 148.59157028128243 H 0.0 **** 0.06
34740 H 32.160789322756614 94.59980587499807 148.8230120910207 H 0.0 **** 0.06
34741 C 140.41618425670993 69.04819136342363 32.75391395421633 C 0.0 **** -0.24
34742 H 139.8382873084053 68.14048602424546 32.92437734613722 H 0.0 **** 0.06
34743 H 141.27884274634727 68.81792542589221 32.128384888612345 H 0.0 **** 0.06
34744 H 140.75667751720744 69.44647145451881 33.710096470227 H 0.0 **** 0.06
34745 H 139.7918532222729 69.78778825171722 32.254259253970645 H 0.0 **** 0.06
34746 C 4.245817488022908 52.20188237756065 148.58895643593019 C 0.0 **** -0.24
34747 H 4.095631226802624 51.33178231893626 147.9494740975186 H 0.0 **** 0.06
34748 H 4.404139109436585 51.8739059606099 149.6170699781125 H 0.0 **** 0.06
34749 H 3.3652472573270416 52.842934555078045 148.54264381973073 H 0.0 **** 0.06
34750 H 5.1186297060438335 52.75766122894869 148.2460841909355 H 0.0 **** 0.06
34751 C 82.82865845520081 10.697316036594508 16.479115941257163 C 0.0 **** -0.24
34752 H 83.78819189046686 11.193004091880972 16.331607935655256 H 0.0 **** 0.06
34753 H 82.13166181932482 11.389161507601905 16.951333246590934 H 0.0 **** 0.06
34754 H 82.96507798123864 9.825057962462608 17.11773257836566 H 0.0 **** 0.06
34755 H 82.43085479644145 10.382143039343532 15.513876623824814 H 0.0 **** 0.06
34756 C 5.166491831894604 131.66076194180266 75.48605588786639 C 0.0 **** -0.24
34757 H 4.411791526644748 130.94947405768025 75.15046883975913 H 0.0 **** 0.06
34758 H 5.437666579300185 132.31871919212975 74.66111701300957 H 0.0 **** 0.06
34759 H 6.049686718986237 131.11917134848034 75.82567937216857 H 0.0 **** 0.06
34760 H 4.7652632051661215 132.2533861709675 76.30809528946432 H 0.0 **** 0.06
34761 C 138.1426556824542 135.6574527029069 76.76566894943377 C 0.0 **** -0.24
34762 H 138.60126635861783 135.78792074556142 77.74657824954915 H 0.0 **** 0.06
34763 H 137.1361975248934 136.07729328110787 76.77777590323774 H 0.0 **** 0.06
34764 H 138.0913132426373 134.595450045208 76.52753043832325 H 0.0 **** 0.06
34765 H 138.7420074831916 136.17025944597546 76.01391146910154 H 0.0 **** 0.06
34766 C 45.315640314234 29.19619822333957 128.17346564270673 C 0.0 **** -0.24
34767 H 46.3753641217143 29.10205795017913 128.41053046731167 H 0.0 **** 0.06
34768 H 44.940337351063036 28.241099019508802 127.80385920477568 H 0.0 **** 0.06
34769 H 45.18084510761214 29.960390290846703 127.40751497112109 H 0.0 **** 0.06
34770 H 44.76655726142961 29.48023381609778 129.0703202589229 H 0.0 **** 0.06
34771 C 77.11272200849197 136.2865017931423 40.52872587744622 C 0.0 **** -0.24
34772 H 76.59924400328725 136.57971371583406 39.61314749653559 H 0.0 **** 0.06
34773 H 76.95540121678438 135.22266722920332 40.70878110937707 H 0.0 **** 0.06
34774 H 76.7158333752168 136.86054950500215 41.366246815132286 H 0.0 **** 0.06
34775 H 78.17978304085025 136.4847756407425 40.425416042469976 H 0.0 **** 0.06
34776 C 43.34660161874946 48.355039177522485 16.466876592628452 C 0.0 **** -0.24
34777 H 43.93681338541214 47.44227379781603 16.37993906346931 H 0.0 **** 0.06
34778 H 42.29562168904704 48.126957387351354 16.286877748234424 H 0.0 **** 0.06
34779 H 43.691921625630286 49.08252802068165 15.733041658118914 H 0.0 **** 0.06
34780 H 43.462394527444886 48.76734526315852 17.469590604256148 H 0.0 **** 0.06
34781 C 92.11304862498491 127.73869602271775 45.13918791614944 C 0.0 **** -0.24
34782 H 92.56703058774096 127.57891412750946 46.117716826598794 H 0.0 **** 0.06
34783 H 91.90441485831707 126.77448928578686 44.67392450398471 H 0.0 **** 0.06
34784 H 92.79896853115065 128.30537021863813 44.50914432718629 H 0.0 **** 0.06
34785 H 91.18385774248668 128.29540482154437 45.25653038629736 H 0.0 **** 0.06
34786 C 21.008338308527755 15.185794596744188 68.33632956726605 C 0.0 **** -0.24
34787 H 20.82855655283909 16.24630571372876 68.15896448077328 H 0.0 **** 0.06
34788 H 20.206137331967085 14.779957571466383 68.9524615051932 H 0.0 **** 0.06
34789 H 21.96095560263221 15.060585496915962 68.85096306810514 H 0.0 **** 0.06
34790 H 21.037904630200835 14.658755542888485 67.38265596453009 H 0.0 **** 0.06
34791 C 90.34664168339557 45.345728382524385 21.279239452398258 C 0.0 **** -0.24
34792 H 91.14994695679712 45.940878046386786 21.712696674206768 H 0.0 **** 0.06
34793 H 89.42556172401333 45.929664146633684 21.27287977925897 H 0.0 **** 0.06
34794 H 90.20042922058752 44.44450697539111 21.87531208844962 H 0.0 **** 0.06
34795 H 90.60944629364502 45.06887160288633 20.258635853097246 H 0.0 **** 0.06
34796 C 80.00893764275196 19.812108485747615 19.248813598874847 C 0.0 **** -0.24
34797 H 79.85370144163306 18.85700912682782 19.74999878212367 H 0.0 **** 0.06
34798 H 80.94982492683096 20.24925839053097 19.584746310659398 H 0.0 **** 0.06
34799 H 79.18716264996351 20.48653534921533 19.49091886567348 H 0.0 **** 0.06
34800 H 80.04522920453138 19.65527235773135 18.170948111093395 H 0.0 **** 0.06
34801 C 59.13783135632215 4.8957016126590815 156.322881470019 C 0.0 **** -0.24
34802 H 58.32073922255202 5.320771765027473 155.73902487999914 H 0.0 **** 0.06
34803 H 59.20206408659807 3.824606009410445 156.12937679474317 H 0.0 **** 0.06
34804 H 58.95188108360583 5.063059974475664 157.38327446822223 H 0.0 **** 0.06
34805 H 60.07522985412065 5.37270255900512 156.0377923511775 H 0.0 **** 0.06
34806 C 54.12447128138791 119.26770141520088 8.678120223534052 C 0.0 **** -0.24
34807 H 53.268349015547244 118.85371468069205 8.146915678390883 H 0.0 **** 0.06
34808 H 54.40768611551965 120.21860953145632 8.226017572531674 H 0.0 **** 0.06
34809 H 54.961479676322156 118.57236382387423 8.615428526415116 H 0.0 **** 0.06
34810 H 53.86175928230983 119.42633957820782 9.724266019396396 H 0.0 **** 0.06
34811 C 85.1907121920944 68.18937680859312 44.334300786385484 C 0.0 **** -0.24
34812 H 84.90825446853972 67.79213124994078 43.35912065605544 H 0.0 **** 0.06
34813 H 84.87969396600496 69.23245795995956 44.405033378068765 H 0.0 **** 0.06
34814 H 86.27289636031304 68.12330765949878 44.45333445918163 H 0.0 **** 0.06
34815 H 84.70314498231039 67.61002952177796 45.11812640266169 H 0.0 **** 0.06
34816 C 139.18156457280594 130.46831763132525 125.907255819103 C 0.0 **** -0.24
34817 H 139.2137112490949 131.2668028904512 126.64759865065378 H 0.0 **** 0.06
34818 H 138.83699110311187 130.87011780855005 124.95476939404062 H 0.0 **** 0.06
34819 H 138.49657706142162 129.68938471323509 126.24305383732326 H 0.0 **** 0.06
34820 H 140.1797601911787 130.04619573802574 125.78449452161578 H 0.0 **** 0.06
34821 C 72.32597124397047 35.989949061186934 135.41289013952075 C 0.0 **** -0.24
34822 H 72.72207822310097 36.35573704204418 134.46596033133653 H 0.0 **** 0.06
34823 H 72.76800812259134 35.01973746840795 135.64071803697487 H 0.0 **** 0.06
34824 H 71.24383101901697 35.88882440899329 135.33971937571266 H 0.0 **** 0.06
34825 H 72.57174025219557 36.69599009478827 136.20643367391986 H 0.0 **** 0.06
34826 C 98.07427773364645 9.663604993903448 122.24642173415553 C 0.0 **** -0.24
34827 H 98.99407768658648 9.770885032765108 122.82306961176046 H 0.0 **** 0.06
34828 H 97.2217801097074 9.639122288106648 122.92506970126276 H 0.0 **** 0.06
34829 H 98.11117506023245 8.736278901530483 121.67461793762602 H 0.0 **** 0.06
34830 H 97.97332503319177 10.507164533071204 121.56416188637657 H 0.0 **** 0.06
34831 C 49.2464694197446 49.81038515474175 16.073994348088547 C 0.0 **** -0.24
34832 H 48.48495322151838 49.73187070692039 15.29779189553824 H 0.0 **** 0.06
34833 H 49.93819785702547 48.971421770317505 15.990012671610486 H 0.0 **** 0.06
34834 H 48.77018780506066 49.792159819590395 17.05356225643601 H 0.0 **** 0.06
34835 H 49.79316805700411 50.74598162373627 15.953000369123231 H 0.0 **** 0.06
34836 C 13.580630327908608 140.9506799303552 71.15848615704822 C 0.0 **** -0.24
34837 H 13.048718326264506 141.0852851097683 70.21726955002077 H 0.0 **** 0.06
34838 H 12.947315590052298 140.40573702936246 71.85895983138718 H 0.0 **** 0.06
34839 H 13.829937790046081 141.92599574332542 71.57709521392164 H 0.0 **** 0.06
34840 H 14.496282421732701 140.3862564560502 70.98223901726524 H 0.0 **** 0.06
34841 C 21.249599594289634 56.8404848198353 39.79769179965268 C 0.0 **** -0.24
34842 H 21.119934959995533 56.646332205266845 40.86193870910617 H 0.0 **** 0.06
34843 H 22.296850617158782 57.0710981103241 39.59571021282056 H 0.0 **** 0.06
34844 H 20.628849949152254 57.68726396096844 39.5046190436708 H 0.0 **** 0.06
34845 H 20.95554085741844 55.958315158293175 39.228870365934796 H 0.0 **** 0.06
34846 C 7.073528810157143 114.89583615749416 128.88362889880312 C 0.0 **** -0.24
34847 H 7.58883287428668 115.49782441258384 129.6312354078222 H 0.0 **** 0.06
34848 H 7.229257232723427 113.83790464191804 129.09893866174616 H 0.0 **** 0.06
34849 H 7.470328401522522 115.12766959147729 127.89459348179918 H 0.0 **** 0.06
34850 H 6.0073277449038756 115.11846887791779 128.90935040380901 H 0.0 **** 0.06
34851 C 2.8063356697431026 1.0809274457728009 133.70135910996868 C 0.0 **** -0.24
34852 H 2.3724896233606465 0.7977948846207994 132.7426134633488 H 0.0 **** 0.06
34853 H 2.0549692461370164 1.5936010128696978 134.30322955449415 H 0.0 **** 0.06
34854 H 3.653694542414776 1.744930549835118 133.53487354903453 H 0.0 **** 0.06
34855 H 3.143800285362193 0.1861547988712573 134.22587723551044 H 0.0 **** 0.06
34856 C 51.336406533491186 43.85466149818045 43.02743907464925 C 0.0 **** -0.24
34857 H 51.259072233752704 44.93141329659721 43.17579546447371 H 0.0 **** 0.06
34858 H 51.413757524977996 43.63992598736739 41.96132971135418 H 0.0 **** 0.06
34859 H 50.44925522336649 43.36842589413769 43.43226142665378 H 0.0 **** 0.06
34860 H 52.221886824503486 43.47936947934802 43.53894682208583 H 0.0 **** 0.06
34861 C 107.84699626700198 134.68355803012935 4.486019377856167 C 0.0 **** -0.24
34862 H 108.39673116072855 133.77607751149964 4.732900482218838 H 0.0 **** 0.06
34863 H 108.54442905923487 135.44718672583986 4.138958218970743 H 0.0 **** 0.06
34864 H 107.32460310555588 135.04421068262147 5.371498731412316 H 0.0 **** 0.06
34865 H 107.12330731006655 134.46742570524376 3.700107943530611 H 0.0 **** 0.06
34866 C 38.54075849041925 120.61670375511171 98.44296156936917 C 0.0 **** -0.24
34867 H 37.719534964703655 120.09272593993522 98.93183050502245 H 0.0 **** 0.06
34868 H 39.06826119208665 119.92982256556759 97.78096246896234 H 0.0 **** 0.06
34869 H 39.23052623674346 120.995792009825 99.19761463614287 H 0.0 **** 0.06
34870 H 38.144843688454785 121.44978534405847 97.86195277881336 H 0.0 **** 0.06
34871 C 130.308428380081 80.44312932779332 18.359385604897966 C 0.0 **** -0.24
34872 H 129.92183998419705 80.0720544350275 19.308084438600417 H 0.0 **** 0.06
34873 H 130.84078300237775 79.64235559492427 17.846484402821318 H 0.0 **** 0.06
34874 H 130.99060190931482 81.27331385211252 18.544503476901582 H 0.0 **** 0.06
34875 H 129.48044702617858 80.7862068901733 17.73849160717225 H 0.0 **** 0.06
34876 C 45.53821769967638 42.360590476606035 43.739266003814976 C 0.0 **** -0.24
34877 H 46.06139083891706 43.31599903764538 43.787412060196516 H 0.0 **** 0.06
34878 H 46.007324300863644 41.72783506103741 42.9847513883642 H 0.0 **** 0.06
34879 H 44.495431371668786 42.52974036464002 43.47506232057668 H 0.0 **** 0.06
34880 H 45.592380544949506 41.86836334373419 44.71051083448202 H 0.0 **** 0.06
34881 C 15.443173576686263 61.72916752092874 112.95057239521695 C 0.0 **** -0.24
34882 H 14.457595334150199 61.28872299849462 112.80492291295964 H 0.0 **** 0.06
34883 H 15.742709842248189 62.25807029461282 112.04594952190403 H 0.0 **** 0.06
34884 H 16.165115986263515 60.940784049934734 113.16695718862029 H 0.0 **** 0.06
34885 H 15.407855888822553 62.428892065203826 113.78660944585168 H 0.0 **** 0.06
34886 C 96.23696309957069 38.41764218874701 109.94866877314313 C 0.0 **** -0.24
34887 H 95.58852269611464 37.617017631633104 110.30378004547664 H 0.0 **** 0.06
34888 H 96.66849942884807 38.135850199879485 108.98738453082821 H 0.0 **** 0.06
34889 H 97.03661034552312 38.58506627578481 110.67068618990582 H 0.0 **** 0.06
34890 H 95.65586877157264 39.33214768326687 109.83261390416128 H 0.0 **** 0.06
34891 C 64.3144414915696 11.175245757884369 35.26069306571486 C 0.0 **** -0.24
34892 H 64.0566134905967 11.498771077671591 34.252920910721286 H 0.0 **** 0.06
34893 H 65.29887165929205 11.56215019087901 35.525061926897195 H 0.0 **** 0.06
34894 H 64.32883144885074 10.08644848645531 35.300216149378116 H 0.0 **** 0.06
34895 H 63.573988755368646 11.554431549589879 35.96437447314406 H 0.0 **** 0.06
34896 C 22.191762902594206 36.71290166271652 143.5471107774007 C 0.0 **** -0.24
34897 H 21.284310705584716 37.28462850141064 143.7385593789718 H 0.0 **** 0.06
34898 H 22.92041497643268 36.91132231012408 144.3332882904798 H 0.0 **** 0.06
34899 H 22.608702429675304 37.00568961739407 142.58335908506308 H 0.0 **** 0.06
34900 H 21.95442283852779 35.64905714032075 143.5313562515865 H 0.0 **** 0.06
34901 C 80.30975021680693 136.28672043929288 118.75887093093604 C 0.0 **** -0.24
34902 H 80.34522052967623 135.492488123138 118.01305757465502 H 0.0 **** 0.06
34903 H 79.46917255872549 136.11656617602728 119.4316416198364 H 0.0 **** 0.06
34904 H 80.18711025298715 137.24787884359426 118.25943460996274 H 0.0 **** 0.06
34905 H 81.2383194710237 136.28936937989192 119.32911629246746 H 0.0 **** 0.06
34906 C 94.78665275805952 91.12963273439902 66.0037835129655 C 0.0 **** -0.24
34907 H 95.37175995356674 91.33570181094646 66.90023305834458 H 0.0 **** 0.06
34908 H 95.44653399348351 90.76676715540549 65.21543713342209 H 0.0 **** 0.06
34909 H 94.29354290310258 92.04357982476313 65.67319154923013 H 0.0 **** 0.06
34910 H 94.03565245339189 90.3714771069553 66.22776182933191 H 0.0 **** 0.06
34911 C 100.73641015534194 70.25020905065554 98.7405907996739 C 0.0 **** -0.24
34912 H 99.96204041303507 71.00688684719887 98.86864509260337 H 0.0 **** 0.06
34913 H 100.9093898682171 69.74284668271477 99.68878385094256 H 0.0 **** 0.06
34914 H 101.65913189003531 70.72785942978729 98.41046900223893 H 0.0 **** 0.06
34915 H 100.41456714254834 69.52609552534375 97.99209808048644 H 0.0 **** 0.06
34916 C 99.70976295141584 92.1726106971455 116.1008298523379 C 0.0 **** -0.24
34917 H 98.85852111397955 92.23716552555248 116.77856186378808 H 0.0 **** 0.06
34918 H 100.2365006159081 91.23252055855852 116.26816386464374 H 0.0 **** 0.06
34919 H 100.38702106083689 93.00657273558198 116.28643012051641 H 0.0 **** 0.06
34920 H 99.35728363502841 92.2132257534638 115.07008331356606 H 0.0 **** 0.06
34921 C 25.02162519396876 142.64024951697382 20.76434617477338 C 0.0 **** -0.24
34922 H 24.99377470475602 143.62428251785008 21.231596698890826 H 0.0 **** 0.06
34923 H 24.806619280277914 141.87618900642516 21.512169484058347 H 0.0 **** 0.06
34924 H 26.010785091550844 142.46626994582203 20.340456464791146 H 0.0 **** 0.06
34925 H 24.27370134353083 142.59269297156598 19.972197833785742 H 0.0 **** 0.06
34926 C 143.3260662350395 83.56723330550143 138.70458085220827 C 0.0 **** -0.24
34927 H 142.9539238732342 83.90893906732781 139.67057718537902 H 0.0 **** 0.06
34928 H 144.3560758941964 83.9025465909032 138.57456991457815 H 0.0 **** 0.06
34929 H 142.7059047618764 83.98010778791289 137.90967013867018 H 0.0 **** 0.06
34930 H 143.28987832422848 82.47906990718465 138.66645626177703 H 0.0 **** 0.06
34931 C 22.76843651431477 66.2351765924792 140.45823196471866 C 0.0 **** -0.24
34932 H 22.289809833903405 65.57870680464467 139.73173586648227 H 0.0 **** 0.06
34933 H 23.00385030001999 67.18942685407421 139.98629290131944 H 0.0 **** 0.06
34934 H 23.686836556164593 65.77106891835078 140.8178124183799 H 0.0 **** 0.06
34935 H 22.09228997525551 66.40073572185881 141.2977864578091 H 0.0 **** 0.06
34936 C 128.07115116276537 139.28247892359957 73.89526819391605 C 0.0 **** -0.24
34937 H 128.10933275200728 140.3435657886202 74.14042422879874 H 0.0 **** 0.06
34938 H 128.79126628421426 139.0663761102423 73.1053583930588 H 0.0 **** 0.06
34939 H 127.06814635381681 139.0239681910769 73.55430887386274 H 0.0 **** 0.06
34940 H 128.31641282516415 138.69670264596215 74.78052550320726 H 0.0 **** 0.06
34941 C 0.7180237126744373 96.26594567624221 8.775458582395174 C 0.0 **** -0.24
34942 H -0.10800500369714428 96.11431448145018 9.470377437835396 H 0.0 **** 0.06
34943 H 0.3532848963111519 96.1704582096576 7.752145604697887 H 0.0 **** 0.06
34944 H 1.4886993724219906 95.51697817726983 8.958443261963112 H 0.0 **** 0.06
34945 H 1.1362923091103312 97.26079589018471 8.9212530729327 H 0.0 **** 0.06
34946 C 149.85979764784022 61.909591001406355 32.39897957008059 C 0.0 **** -0.24
34947 H 149.44427461946748 62.881813094405544 32.66285163446238 H 0.0 **** 0.06
34948 H 149.0510727455507 61.2293326823137 32.12947564492899 H 0.0 **** 0.06
34949 H 150.4071013204154 61.505351433016344 33.2495168566498 H 0.0 **** 0.06
34950 H 150.5363371990847 62.02210661576275 31.551670211233493 H 0.0 **** 0.06
34951 C 104.9900662728029 69.57907663755111 1.215480557163687 C 0.0 **** -0.24
34952 H 104.79199255163415 68.56453723989219 0.8708122279298891 H 0.0 **** 0.06
34953 H 106.05653539715605 69.78837942299447 1.1349348731686746 H 0.0 **** 0.06
34954 H 104.67803459761474 69.6764037749686 2.255816736822908 H 0.0 **** 0.06
34955 H 104.43325662844326 70.28660230180552 0.601167019580771 H 0.0 **** 0.06
34956 C 69.40611209771691 25.377708217676656 140.85361119851632 C 0.0 **** -0.24
34957 H 69.43556154728628 26.26351706201271 140.21997166599232 H 0.0 **** 0.06
34958 H 69.92163002767774 24.55686086911473 140.3536845938824 H 0.0 **** 0.06
34959 H 68.36939538063291 25.097049261521505 141.03757219117637 H 0.0 **** 0.06
34960 H 69.898200290732 25.591967628507575 141.80231230312717 H 0.0 **** 0.06
34961 C 135.5928745871627 50.22557421160849 98.01449940452156 C 0.0 **** -0.24
34962 H 136.35982645756178 49.509556514295866 98.31059258553846 H 0.0 **** 0.06
34963 H 134.83995204607666 50.29620562173881 98.80082223254992 H 0.0 **** 0.06
34964 H 135.1227964761179 49.89173275200005 97.08896650354933 H 0.0 **** 0.06
34965 H 136.04844243863874 51.203024775758706 97.85923200782392 H 0.0 **** 0.06
34966 C 134.76804581258037 73.80090926767312 61.9801450358472 C 0.0 **** -0.24
34967 H 135.1233363567621 73.96155544328622 60.961760952863145 H 0.0 **** 0.06
34968 H 134.88194063930928 74.7213193682999 62.55393936078768 H 0.0 **** 0.06
34969 H 135.35148860835193 73.00722007658385 62.44744757508285 H 0.0 **** 0.06
34970 H 133.7166899076283 73.51386506269284 61.95690579137495 H 0.0 **** 0.06
34971 C 131.45068169887188 116.16862763772741 52.02636970910142 C 0.0 **** -0.24
34972 H 132.28585756065942 116.64214184598785 52.543246165671434 H 0.0 **** 0.06
34973 H 130.58737728584308 116.12958904858664 52.691241256957014 H 0.0 **** 0.06
34974 H 131.73069178366282 115.15659202561363 51.73535954181122 H 0.0 **** 0.06
34975 H 131.19958598503288 116.74616876703936 51.1368075405601 H 0.0 **** 0.06
34976 C 56.844237103512654 22.83796541831979 52.68246890084339 C 0.0 **** -0.24
34977 H 57.31546074194239 22.222893948779927 51.91655832864724 H 0.0 **** 0.06
34978 H 57.60818788947398 23.229960663600714 53.35429597133049 H 0.0 **** 0.06
34979 H 56.1368944776288 22.232579531286397 53.2502778874326 H 0.0 **** 0.06
34980 H 56.31561226377812 23.66570826918553 52.20966743714777 H 0.0 **** 0.06
34981 C 150.46900616048043 47.99416316865927 133.4271882280253 C 0.0 **** -0.24
34982 H 149.94645490865136 47.19744189243845 133.95628657188158 H 0.0 **** 0.06
34983 H 149.92484828354446 48.24249516121071 132.51620848997487 H 0.0 **** 0.06
34984 H 151.47471227650144 47.661162723393076 133.17126524375368 H 0.0 **** 0.06
34985 H 150.52990889938638 48.8748926121755 134.06623921525983 H 0.0 **** 0.06
34986 C 121.14053065648078 30.932246256366852 107.4873330112262 C 0.0 **** -0.24
34987 H 121.04079426600528 29.848044119632448 107.54524736829337 H 0.0 **** 0.06
34988 H 121.73561086398293 31.287669045168684 108.3279606495458 H 0.0 **** 0.06
34989 H 120.1519315788362 31.389911042128688 107.52119261946497 H 0.0 **** 0.06
34990 H 121.63320499541273 31.201326988528706 106.55237672101798 H 0.0 **** 0.06
34991 C 0.8939664809533099 94.20697908918021 62.371935901494695 C 0.0 **** -0.24
34992 H 1.1998845113473067 94.70615556721127 63.29152204932137 H 0.0 **** 0.06
34993 H 0.4538279092475648 93.23902632490163 62.613946627274274 H 0.0 **** 0.06
34994 H 1.7623814131377173 94.06226623703333 61.730240236396824 H 0.0 **** 0.06
34995 H 0.15776386726724922 94.82247770318311 61.85342371221118 H 0.0 **** 0.06
34996 C 107.26375856336485 83.92791786546218 41.26114472691904 C 0.0 **** -0.24
34997 H 106.47819983097956 84.30884415717503 40.608782635014535 H 0.0 **** 0.06
34998 H 106.82273212039728 83.28367309334071 42.02242329207405 H 0.0 **** 0.06
34999 H 107.77501993905109 84.76195345751724 41.740877024019824 H 0.0 **** 0.06
35000 H 107.9790613297054 83.35447909389293 40.67123404618599 H 0.0 **** 0.06
35001 C 129.25540267337686 146.64079343299326 86.13649194556706 C 0.0 **** -0.24
35002 H 128.86920563412235 146.14156968582066 87.0240448193519 H 0.0 **** 0.06
35003 H 130.0305118497517 146.02423805466358 85.68147557545734 H 0.0 **** 0.06
35004 H 129.67727667077799 147.60630536912868 86.4178702383627 H 0.0 **** 0.06
35005 H 128.44528190029138 146.79261516723193 85.42220193975356 H 0.0 **** 0.06
35006 C 108.95666343180449 43.275817459048625 111.46082778208257 C 0.0 **** -0.24
35007 H 108.84833804818913 44.350251878090276 111.31551111366905 H 0.0 **** 0.06
35008 H 109.5260952399442 42.85289146163669 110.63332268811273 H 0.0 **** 0.06
35009 H 107.97073767868551 42.813154059775684 111.49851916938393 H 0.0 **** 0.06
35010 H 109.48245410462397 43.08783626181567 112.39747816596413 H 0.0 **** 0.06
35011 C 30.440159850169493 7.424386276774612 90.00461668340995 C 0.0 **** -0.24
35012 H 30.395105934456296 6.5950201226648915 90.71052149334159 H 0.0 **** 0.06
35013 H 31.03982233310336 8.229673542206882 90.4300682434824 H 0.0 **** 0.06
35014 H 29.432140955076648 7.786839276923843 89.8057841777894 H 0.0 **** 0.06
35015 H 30.894729076170165 7.084453004363411 89.07414859933834 H 0.0 **** 0.06
35016 C 82.81752289387515 30.215252523777167 1.781541061599814 C 0.0 **** -0.24
35017 H 81.92308130280207 29.611384459826752 1.9358306760058177 H 0.0 **** 0.06
35018 H 82.5313816870273 31.196724341398976 1.4020730307392526 H 0.0 **** 0.06
35019 H 83.46785518802912 29.72136107794502 1.0597240413164997 H 0.0 **** 0.06
35020 H 83.34552585723878 30.33002860197712 2.7272465842646234 H 0.0 **** 0.06
35021 C 56.7962230663954 131.98462709428577 73.05121375821375 C 0.0 **** -0.24
35022 H 57.44855732151096 131.1654909786754 72.74794699850042 H 0.0 **** 0.06
35023 H 55.77412606816752 131.61764883984497 73.14857073976532 H 0.0 **** 0.06
35024 H 56.83048159955338 132.77277486725455 72.29990352260802 H 0.0 **** 0.06
35025 H 57.13361720798102 132.38108819355512 74.00883605305376 H 0.0 **** 0.06
35026 C 132.5385384149718 156.58538002963144 115.57909214080333 C 0.0 **** -0.24
35027 H 132.42678016482907 156.51241748836821 114.49670899546025 H 0.0 **** 0.06
35028 H 131.5773812520011 156.8357581604474 116.02736030801431 H 0.0 **** 0.06
35029 H 133.26510843827603 157.36314590588034 115.81735242395514 H 0.0 **** 0.06
35030 H 132.88651956207786 155.630083656902 115.97264219809828 H 0.0 **** 0.06
35031 C 56.21735233859113 59.54632194643116 87.32243818871893 C 0.0 **** -0.24
35032 H 56.885621831670335 59.5022099687223 88.18209316061231 H 0.0 **** 0.06
35033 H 55.531292421748475 60.384984144188365 87.43785549789433 H 0.0 **** 0.06
35034 H 55.65056403101022 58.617804302316216 87.2552469413413 H 0.0 **** 0.06
35035 H 56.80521731112901 59.6803761006326 86.41277010371476 H 0.0 **** 0.06
35036 C 35.10895174516659 81.68966344573249 83.24431403197944 C 0.0 **** -0.24
35037 H 35.83440736468532 81.61874688618553 84.05470508265542 H 0.0 **** 0.06
35038 H 34.653513020679725 80.71390587215453 83.07741474051954 H 0.0 **** 0.06
35039 H 35.61176773608901 82.01808012452568 82.33432817675923 H 0.0 **** 0.06
35040 H 34.336211591172 82.41057050887193 83.5117936402094 H 0.0 **** 0.06
35041 C 3.182052663560018 4.071728929385472 38.55570467058817 C 0.0 **** -0.24
35042 H 3.529056174854432 5.102938191876206 38.61286809968652 H 0.0 **** 0.06
35043 H 3.8074134011098693 3.516064574070924 37.8568307560036 H 0.0 **** 0.06
35044 H 2.1484604373539398 4.055435917834359 38.2098501899967 H 0.0 **** 0.06
35045 H 3.242455784486207 3.61288032861421 39.54287340734976 H 0.0 **** 0.06
35046 C 139.8150438375444 124.30746535415732 61.80764918032271 C 0.0 **** -0.24
35047 H 139.23059955355603 123.40699059157244 61.616437828985255 H 0.0 **** 0.06
35048 H 139.4928546885083 124.75650297908503 62.747056987948824 H 0.0 **** 0.06
35049 H 139.66379899536216 125.01669956254274 60.99323372068967 H 0.0 **** 0.06
35050 H 140.87179081509214 124.04805943037825 61.87160278074141 H 0.0 **** 0.06
35051 C 156.26949673524223 80.99907103123168 39.4292258318649 C 0.0 **** -0.24
35052 H 155.75469059769327 80.47637160681174 38.622462138923595 H 0.0 **** 0.06
35053 H 156.48383952381621 82.02209319740494 39.12039662218416 H 0.0 **** 0.06
35054 H 157.20314650746624 80.48479339907347 39.65722428153907 H 0.0 **** 0.06
35055 H 155.6358227375021 81.01209466299127 40.315874190974796 H 0.0 **** 0.06
35056 C 100.6508134827206 109.25770039286544 125.59291538288376 C 0.0 **** -0.24
35057 H 100.86768221963553 108.95440625331338 126.61688816993417 H 0.0 **** 0.06
35058 H 101.08621659618927 110.23906482566827 125.4043506636372 H 0.0 **** 0.06
35059 H 99.57150390915962 109.30378180424697 125.44811546687869 H 0.0 **** 0.06
35060 H 101.07896835750694 108.53092870372649 124.90136492199879 H 0.0 **** 0.06
35061 C 75.65835563414323 137.36306834667278 75.17630196394535 C 0.0 **** -0.24
35062 H 75.4605161621071 138.4013401107731 74.90780988739601 H 0.0 **** 0.06
35063 H 76.23609782808057 137.33008487736555 76.09985581194908 H 0.0 **** 0.06
35064 H 76.22269882136 136.8832867889521 74.37675828795278 H 0.0 **** 0.06
35065 H 74.71379598673524 136.83868225455404 75.3195009729996 H 0.0 **** 0.06
35066 C 85.77747313553688 18.0297013142783 34.145922896811356 C 0.0 **** -0.24
35067 H 84.89056239018304 18.655961361715413 34.24457566276012 H 0.0 **** 0.06
35068 H 86.63422938561197 18.652233077906914 33.8867885249953 H 0.0 **** 0.06
35069 H 85.61445243113295 17.291838909438724 33.360269030311926 H 0.0 **** 0.06
35070 H 85.96941704512496 17.519328811931985 35.08871558502163 H 0.0 **** 0.06
35071 C 79.74783616031604 7.20714255465316 124.50521431609401 C 0.0 **** -0.24
35072 H 80.2727175780156 7.158159325727183 123.55075696382319 H 0.0 **** 0.06
35073 H 78.8960223697216 7.88144618585801 124.41628427213696 H 0.0 **** 0.06
35074 H 80.42670676254681 7.578343491799643 125.27305039550113 H 0.0 **** 0.06
35075 H 79.39762572646586 6.212277599049941 124.7789569294181 H 0.0 **** 0.06
35076 C 143.86043362580958 84.62420078173326 114.40546120177483 C 0.0 **** -0.24
35077 H 143.31915470903002 85.56669793976455 114.32210703790547 H 0.0 **** 0.06
35078 H 144.60449977106964 84.561956696888 113.61040399251083 H 0.0 **** 0.06
35079 H 143.16017766988008 83.79402241365983 114.3148348615292 H 0.0 **** 0.06
35080 H 144.35872646855483 84.57640880370512 115.3741669718829 H 0.0 **** 0.06
35081 C 93.84785469403519 25.648618476183287 89.60504378281826 C 0.0 **** -0.24
35082 H 93.08592693090031 25.118800408004518 90.17632528368767 H 0.0 **** 0.06
35083 H 94.75869292199212 25.726436927626366 90.19917062164359 H 0.0 **** 0.06
35084 H 93.48805008523891 26.648117751210748 89.35911383133794 H 0.0 **** 0.06
35085 H 94.05910958972913 25.101822522680266 88.68617751413205 H 0.0 **** 0.06
35086 C 95.8523597010145 112.84833310444492 95.10085494482513 C 0.0 **** -0.24
35087 H 96.03998460211918 112.64860067047664 96.1564649887802 H 0.0 **** 0.06
35088 H 95.07346522161694 113.6052152763271 95.00760558294964 H 0.0 **** 0.06
35089 H 95.52860198511836 111.93059620136319 94.6100774154464 H 0.0 **** 0.06
35090 H 96.76749126633277 113.20900396962526 94.63150389530021 H 0.0 **** 0.06
35091 C 28.177745998558436 67.41860913317197 83.79574695803373 C 0.0 **** -0.24
35092 H 27.898228000567173 67.91851392278704 84.72240035399692 H 0.0 **** 0.06
35093 H 27.879112333365015 68.03327275186342 82.94654307074326 H 0.0 **** 0.06
35094 H 27.67547933289225 66.4524796313712 83.73997352598701 H 0.0 **** 0.06
35095 H 29.257408898456703 67.26899702811517 83.77430109295642 H 0.0 **** 0.06
35096 C 70.58128229515131 149.8295337857613 26.772014039385482 C 0.0 **** -0.24
35097 H 71.44142892380614 149.18422141246373 26.58892268377494 H 0.0 **** 0.06
35098 H 69.72616743026259 149.21915731238516 27.063377760983087 H 0.0 **** 0.06
35099 H 70.34157315147024 150.380325728201 25.862342427641522 H 0.0 **** 0.06
35100 H 70.81804018708772 150.53181822743005 27.5709952151646 H 0.0 **** 0.06
35101 C 55.2720897671762 21.90845698483389 96.05909769639388 C 0.0 **** -0.24
35102 H 54.61650844969856 21.212150000965067 95.53729088085892 H 0.0 **** 0.06
35103 H 56.28032823676135 21.49630465905895 96.10177467167256 H 0.0 **** 0.06
35104 H 54.90095744768385 22.06799980529388 97.07205406221946 H 0.0 **** 0.06
35105 H 55.289687753009545 22.85886260462337 95.52515654005168 H 0.0 **** 0.06
35106 C 139.2736351363174 132.82519590272142 87.89806788808994 C 0.0 **** -0.24
35107 H 138.7943953339403 131.8649978507021 87.70512849607401 H 0.0 **** 0.06
35108 H 138.7186543408543 133.35829017878393 88.66981620869583 H 0.0 **** 0.06
35109 H 139.28165796260507 133.41719672751793 86.98229315399375 H 0.0 **** 0.06
35110 H 140.29675443611922 132.66008436753026 88.2331689066296 H 0.0 **** 0.06
35111 C 89.73359938254336 37.69006499778419 103.10297237537674 C 0.0 **** -0.24
35112 H 89.45480960863858 38.592650877043155 102.5595833350992 H 0.0 **** 0.06
35113 H 90.66564462652897 37.29556609413683 102.69894523258353 H 0.0 **** 0.06
35114 H 88.94553847865865 36.943784227339336 102.99459457700283 H 0.0 **** 0.06
35115 H 89.86563708138988 37.92746150846796 104.1579271463965 H 0.0 **** 0.06
35116 C 96.81953660267916 147.00798864343062 78.91883909376578 C 0.0 **** -0.24
35117 H 95.92045938944679 146.93844298363894 79.53086215330711 H 0.0 **** 0.06
35118 H 97.49339942722484 147.75061098820112 79.3479144593123 H 0.0 **** 0.06
35119 H 96.5478817018235 147.30533304980497 77.90636807489932 H 0.0 **** 0.06
35120 H 97.31625988094868 146.03850583560182 78.89223615475454 H 0.0 **** 0.06
35121 C 115.65907974982623 34.50872830734244 133.9217751072995 C 0.0 **** -0.24
35122 H 116.0481091337055 35.273103037684336 133.2488916921712 H 0.0 **** 0.06
35123 H 114.58176171595152 34.4153117721732 133.78058759341923 H 0.0 **** 0.06
35124 H 115.86698730701578 34.79274202443554 134.95304728512502 H 0.0 **** 0.06
35125 H 116.13873437528132 33.55467002137442 133.70377536159762 H 0.0 **** 0.06
35126 C 155.94009423248767 156.25992278949354 134.67275441576962 C 0.0 **** -0.24
35127 H 155.08539278516378 156.93434697547343 134.71628712629266 H 0.0 **** 0.06
35128 H 156.73149295977004 156.71362163147927 134.07684078180927 H 0.0 **** 0.06
35129 H 155.63587248667324 155.31767507899855 134.21652304202513 H 0.0 **** 0.06
35130 H 156.3058241950654 156.07318588457946 135.68238533349376 H 0.0 **** 0.06
35131 C 122.11501392026457 114.91594339963831 75.29155846590187 C 0.0 **** -0.24
35132 H 123.11138498242417 114.90487559891523 74.85200549335364 H 0.0 **** 0.06
35133 H 121.53375078582025 114.08160308525044 74.89717017252606 H 0.0 **** 0.06
35134 H 121.61912254941711 115.8541468157232 75.04476961928275 H 0.0 **** 0.06
35135 H 122.19580187876414 114.82184673281898 76.37533928075688 H 0.0 **** 0.06
35136 C 55.71075024209665 102.44167582717414 141.2803630863557 C 0.0 **** -0.24
35137 H 55.290001303521194 101.49575725617812 140.93808237360764 H 0.0 **** 0.06
35138 H 54.90897244332052 103.16862831485618 141.4138739347953 H 0.0 **** 0.06
35139 H 56.41918531355276 102.81308858302587 140.54090386679508 H 0.0 **** 0.06
35140 H 56.223823128420406 102.28678644629836 142.2305910754766 H 0.0 **** 0.06
35141 C 148.6602977401597 1.2169852165613655 136.10724595174605 C 0.0 **** -0.24
35142 H 148.10738521773078 0.9747017422670794 137.0140772965372 H 0.0 **** 0.06
35143 H 149.25606938524595 0.3556808145777772 135.80443320836923 H 0.0 **** 0.06
35144 H 149.31806091628337 2.0656850670205777 136.29730612754963 H 0.0 **** 0.06
35145 H 147.96010266777415 1.4711640672214585 135.31164577850765 H 0.0 **** 0.06
35146 C 88.75175562535694 5.769695974832416 121.1828536792948 C 0.0 **** -0.24
35147 H 87.77985755431298 5.433348231099842 121.54279531190474 H 0.0 **** 0.06
35148 H 89.53766871914905 5.177274205460549 121.65310444342498 H 0.0 **** 0.06
35149 H 88.88918974527263 6.821212399690978 121.4349979705508 H 0.0 **** 0.06
35150 H 88.80112910860882 5.6454800756797 120.10092375938274 H 0.0 **** 0.06
35151 C 144.4653757772762 123.92417760523416 146.36413729674163 C 0.0 **** -0.24
35152 H 143.927465358122 124.37445612979327 147.1982214006206 H 0.0 **** 0.06
35153 H 143.76397955448368 123.69762461121472 145.56024563928923 H 0.0 **** 0.06
35154 H 144.9464131823518 123.00429018143238 146.6966501765295 H 0.0 **** 0.06
35155 H 145.22122680401966 124.61999756140527 146.0016204754386 H 0.0 **** 0.06
35156 C 42.604330347919486 109.7951561642203 83.1259483444142 C 0.0 **** -0.24
35157 H 43.03544857125691 109.77896882329425 82.12551109866608 H 0.0 **** 0.06
35158 H 42.07475593045841 108.85908532642695 83.30663047919519 H 0.0 **** 0.06
35159 H 41.90711570896849 110.62890193326443 83.2084311244061 H 0.0 **** 0.06
35160 H 43.398962389912086 109.91093908577493 83.86253430767806 H 0.0 **** 0.06
35161 C 6.3865847816865156 50.79286105598089 111.16864209589806 C 0.0 **** -0.24
35162 H 5.487451028808316 50.60003429525399 110.5839490260638 H 0.0 **** 0.06
35163 H 6.362186526884237 50.1949175407339 112.08061578245224 H 0.0 **** 0.06
35164 H 6.430858580526291 51.85114555598943 111.42803842391834 H 0.0 **** 0.06
35165 H 7.265842990527226 50.525346831946166 110.58196515115787 H 0.0 **** 0.06
35166 C 1.8827054693769014 53.53963894929046 112.35757908697082 C 0.0 **** -0.24
35167 H 0.8952265368184804 53.0805147236466 112.31078192716745 H 0.0 **** 0.06
35168 H 2.1980517200530514 53.82536597080035 111.35422547400611 H 0.0 **** 0.06
35169 H 2.5951532664210006 52.82804284713866 112.77388038106915 H 0.0 **** 0.06
35170 H 1.8415521762163536 54.42517687835641 112.99139896463777 H 0.0 **** 0.06
35171 C 19.968877880665616 112.12516670739132 13.029218162367364 C 0.0 **** -0.24
35172 H 19.859357900714997 111.89360201588528 14.08863065731812 H 0.0 **** 0.06
35173 H 19.11880898277724 111.71864419885299 12.479887624283982 H 0.0 **** 0.06
35174 H 20.889482326570658 111.68045804943182 12.65378071897915 H 0.0 **** 0.06
35175 H 20.00553258439021 113.20584137190207 12.894844259553615 H 0.0 **** 0.06
35176 C 106.08694275917458 131.41466520946636 95.08579749487524 C 0.0 **** -0.24
35177 H 105.49582140976855 131.94306221614724 95.83391167813832 H 0.0 **** 0.06
35178 H 106.96009249838818 132.01255203158286 94.82228546321471 H 0.0 **** 0.06
35179 H 105.47972775533702 131.24536013064193 94.19626704687033 H 0.0 **** 0.06
35180 H 106.41116893486276 130.4556745380236 95.49089868702464 H 0.0 **** 0.06
35181 C 153.39708678717756 88.89841768133864 70.47767950505474 C 0.0 **** -0.24
35182 H 153.59732597707782 89.25169659158253 71.48951247999685 H 0.0 **** 0.06
35183 H 153.58102153721362 89.70581123508624 69.76879281979407 H 0.0 **** 0.06
35184 H 152.35775627157943 88.57892953887581 70.40408559199513 H 0.0 **** 0.06
35185 H 154.05274574784218 88.0571910028689 70.2507242121815 H 0.0 **** 0.06
35186 C 7.79503633202944 19.002749041363764 27.354282016194205 C 0.0 **** -0.24
35187 H 8.231443081022462 18.39040877072096 26.56383576104794 H 0.0 **** 0.06
35188 H 6.757158792785106 19.227951671750724 27.108589799489266 H 0.0 **** 0.06
35189 H 8.357866003893406 19.9317104519966 27.446402227539494 H 0.0 **** 0.06
35190 H 7.836348858476413 18.45851495650973 28.29806706810617 H 0.0 **** 0.06
35191 C 90.46732868325023 15.600077482990478 105.27171249619045 C 0.0 **** -0.24
35192 H 90.96330436162552 15.453855957750243 106.23081417760972 H 0.0 **** 0.06
35193 H 90.09639723995224 16.623224332504186 105.20646620534905 H 0.0 **** 0.06
35194 H 89.63285171443565 14.904020482788631 105.18490511641096 H 0.0 **** 0.06
35195 H 91.1767614169874 15.419209158918754 104.46466448539206 H 0.0 **** 0.06
35196 C 6.625539413282183 36.33278426029091 140.395040519092 C 0.0 **** -0.24
35197 H 6.269382216119823 37.36010669379925 140.462747963073 H 0.0 **** 0.06
35198 H 7.644443974839675 36.32658500662063 140.00593926792138 H 0.0 **** 0.06
35199 H 5.977335514199922 35.767182793887685 139.724637354253 H 0.0 **** 0.06
35200 H 6.610498618350249 35.876606526843034 141.38453043752546 H 0.0 **** 0.06
35201 C 128.38016830657608 12.409586605173274 104.74310728957317 C 0.0 **** -0.24
35202 H 127.45675566874728 11.868276723390125 104.53863879780664 H 0.0 **** 0.06
35203 H 128.43696724156024 13.286884852366484 104.09959404087817 H 0.0 **** 0.06
35204 H 129.23313126106203 11.758918717244285 104.54778652701083 H 0.0 **** 0.06
35205 H 128.3933956494825 12.723041490470848 105.78697641116236 H 0.0 **** 0.06
35206 C 62.73522060121432 21.123549962099275 155.92559447878804 C 0.0 **** -0.24
35207 H 62.971611540600435 20.16982227015305 155.4541080273794 H 0.0 **** 0.06
35208 H 62.83689742942936 21.02866565415019 157.00700443071207 H 0.0 **** 0.06
35209 H 61.71118991148681 21.40546607423437 155.67955151262322 H 0.0 **** 0.06
35210 H 63.420008073937154 21.88838985749058 155.56063052100953 H 0.0 **** 0.06
35211 C 28.131052204777575 122.85172663482575 154.269110729234 C 0.0 **** -0.24
35212 H 28.719052799958774 123.24764566830657 155.09691449751583 H 0.0 **** 0.06
35213 H 28.69786561227636 122.07122991376053 153.7620376739304 H 0.0 **** 0.06
35214 H 27.907844869263045 123.65423720897422 153.56571329432595 H 0.0 **** 0.06
35215 H 27.199250418222448 122.43467650190996 154.65286498944778 H 0.0 **** 0.06
35216 C 66.32261927591969 66.69876664668489 78.06400762926695 C 0.0 **** -0.24
35217 H 66.48262820789199 65.62128474067902 78.01478787743855 H 0.0 **** 0.06
35218 H 67.24066864070272 67.21603687140723 77.78571903703259 H 0.0 **** 0.06
35219 H 66.04134195475592 66.97742467999544 79.07898615248308 H 0.0 **** 0.06
35220 H 65.52436447597847 66.97811356624864 77.37555844454067 H 0.0 **** 0.06
35221 C 22.478932344024372 125.1037493329474 64.59696499088975 C 0.0 **** -0.24
35222 H 22.496959233939634 126.02033335027828 65.1859925104307 H 0.0 **** 0.06
35223 H 23.266423282190374 124.43399670400122 64.94426910744994 H 0.0 **** 0.06
35224 H 22.641275537733833 125.3427135346496 63.54645681204478 H 0.0 **** 0.06
35225 H 21.510084872418133 124.61752026102779 64.71310091440591 H 0.0 **** 0.06
35226 C 138.2275013794209 31.789054980417013 154.10624584082058 C 0.0 **** -0.24
35227 H 138.9047524199691 31.12913375913753 154.64939933289452 H 0.0 **** 0.06
35228 H 137.22619991775525 31.358151080311217 154.1031011616946 H 0.0 **** 0.06
35229 H 138.57767890083517 31.90428494790102 153.08121833888265 H 0.0 **** 0.06
35230 H 138.20302376626336 32.76368503334556 154.59357711823833 H 0.0 **** 0.06
35231 C 23.96245375921228 1.1689040417166332 71.24388678862738 C 0.0 **** -0.24
35232 H 23.404718130218157 1.9557164493139716 70.73590462626032 H 0.0 **** 0.06
35233 H 24.08328124000718 1.430411710421513 72.29563350931784 H 0.0 **** 0.06
35234 H 24.94344620694892 1.0621364881267823 70.77991458279564 H 0.0 **** 0.06
35235 H 23.417853981340272 0.22807399055679767 71.16363362219067 H 0.0 **** 0.06
35236 C 59.73536863604153 55.74947725873142 89.75737869551887 C 0.0 **** -0.24
35237 H 59.43185522381816 56.70301324307262 90.19157734140595 H 0.0 **** 0.06
35238 H 58.848622543725355 55.166546418026996 89.50523443936362 H 0.0 **** 0.06
35239 H 60.34032252287858 55.19922075609354 90.47635169092615 H 0.0 **** 0.06
35240 H 60.31909279923087 55.93192596761243 88.85443446636776 H 0.0 **** 0.06
35241 C 67.87665681029262 109.94761921721523 55.03253852882864 C 0.0 **** -0.24
35242 H 68.64848254796374 110.54907121648328 54.55156325200383 H 0.0 **** 0.06
35243 H 68.06611356459337 108.89154152580402 54.840646068746906 H 0.0 **** 0.06
35244 H 66.90096362080078 110.22169380376668 54.630996999896695 H 0.0 **** 0.06
35245 H 67.89179477217209 110.131007386408 56.10759775591447 H 0.0 **** 0.06
35246 C 107.35632172016334 154.99086610389082 64.20373537276579 C 0.0 **** -0.24
35247 H 106.44594006168133 154.46000383175038 63.92581605582001 H 0.0 **** 0.06
35248 H 108.01232959877713 155.06546399305273 63.33651655077952 H 0.0 **** 0.06
35249 H 107.86480183214489 154.44705647327226 64.99947321412391 H 0.0 **** 0.06
35250 H 107.10037250496397 155.99118574594996 64.5543780919022 H 0.0 **** 0.06
35251 C 106.28727471935161 67.5738338381986 94.52824743856688 C 0.0 **** -0.24
35252 H 105.96186316882762 68.2476895978472 95.32116699839514 H 0.0 **** 0.06
35253 H 106.27339686589244 68.10109414492021 93.5744756430804 H 0.0 **** 0.06
35254 H 105.61306596237011 66.71771547407167 94.48033476098738 H 0.0 **** 0.06
35255 H 107.29968891485657 67.22717758898335 94.73804888620937 H 0.0 **** 0.06
35256 C 83.01004657378317 142.4323188018123 66.20308805820878 C 0.0 **** -0.24
35257 H 83.47315603605995 142.05297348988535 67.11393076046807 H 0.0 **** 0.06
35258 H 82.01539095745295 142.81443202659034 66.4340109416263 H 0.0 **** 0.06
35259 H 82.92927041066758 141.62599745729412 65.47342320085613 H 0.0 **** 0.06
35260 H 83.62149586590542 143.23479394280147 65.79071313728537 H 0.0 **** 0.06
35261 C 14.472744346431938 39.21404717100482 78.89857189264087 C 0.0 **** -0.24
35262 H 14.850099332486138 38.87844352428638 77.93294460581663 H 0.0 **** 0.06
35263 H 15.083095301914966 38.786817669454734 79.6955125444107 H 0.0 **** 0.06
35264 H 13.43909254556641 38.88741540337901 79.01819779862768 H 0.0 **** 0.06
35265 H 14.517695574860454 40.302105618931094 78.94905835659813 H 0.0 **** 0.06
35266 C 9.890037470539482 12.239589924632611 10.517169493629211 C 0.0 **** -0.24
35267 H 9.136853122204343 12.970357554187501 10.813035517789046 H 0.0 **** 0.06
35268 H 10.78295018468225 12.759784578138948 10.167786982557345 H 0.0 **** 0.06
35269 H 9.495237448952082 11.616391083461423 9.714571319990853 H 0.0 **** 0.06
35270 H 10.144801598377796 11.61361055162277 11.371971642257762 H 0.0 **** 0.06
35271 C 31.99750875046506 123.84114439451584 13.083256320268795 C 0.0 **** -0.24
35272 H 31.923032977184256 122.76613134503317 12.91862041806803 H 0.0 **** 0.06
35273 H 31.034395807417688 124.30841090055283 12.875901144354621 H 0.0 **** 0.06
35274 H 32.75393475582079 124.258819474887 12.41792336923207 H 0.0 **** 0.06
35275 H 32.279148038938544 124.03209901843114 14.118345825732284 H 0.0 **** 0.06
35276 C 60.69931331118265 81.88488442607354 83.6866339959912 C 0.0 **** -0.24
35277 H 60.87707880404851 80.80997185002937 83.72182007451295 H 0.0 **** 0.06
35278 H 60.426219005278014 82.17483811684508 82.67159406758054 H 0.0 **** 0.06
35279 H 61.60552673400311 82.41335433076728 83.98486462301804 H 0.0 **** 0.06
35280 H 59.8890656844294 82.142044706391 84.36863621995053 H 0.0 **** 0.06
35281 C 46.5847005225456 60.84756709964557 36.184628338043865 C 0.0 **** -0.24
35282 H 46.406084896451844 61.79731814489057 36.68802187821683 H 0.0 **** 0.06
35283 H 45.69579959860873 60.22072096133056 36.264200820887766 H 0.0 **** 0.06
35284 H 47.42899044520527 60.3419444331647 36.653516303663054 H 0.0 **** 0.06
35285 H 46.80811976898718 61.0297439321848 35.13359308526964 H 0.0 **** 0.06
35286 C 112.67762740118435 105.26852144870325 26.260303070989124 C 0.0 **** -0.24
35287 H 113.2958570247789 105.25714675717622 25.362145818631035 H 0.0 **** 0.06
35288 H 113.03816890566618 106.04099352565781 26.940042290087717 H 0.0 **** 0.06
35289 H 112.73191389882926 104.2964797430764 26.75129960396515 H 0.0 **** 0.06
35290 H 111.64334809223034 105.47956216404772 25.986500522374854 H 0.0 **** 0.06
35291 C 40.3238438863786 53.26059906543004 75.86446983663859 C 0.0 **** -0.24
35292 H 40.05563495099443 54.131866885582326 76.46200228192811 H 0.0 **** 0.06
35293 H 39.79676476503688 53.29850423242651 74.91089525438372 H 0.0 **** 0.06
35294 H 40.044203121056185 52.353493864129405 76.39936219606534 H 0.0 **** 0.06
35295 H 41.399534668322886 53.25957153881322 75.68620042649468 H 0.0 **** 0.06
35296 C 64.5705004880599 90.67376704664974 1.8663976146404764 C 0.0 **** -0.24
35297 H 63.687663353622725 90.92853123165278 1.2790676282284323 H 0.0 **** 0.06
35298 H 64.57349376146209 89.60268621414039 2.0709253453158 H 0.0 **** 0.06
35299 H 64.551078390149 91.22402166847372 2.8071814944744347 H 0.0 **** 0.06
35300 H 65.4677526647161 90.94049262891812 1.3077056833591598 H 0.0 **** 0.06
35301 C 18.20827651459163 24.622681028712208 85.47306283329476 C 0.0 **** -0.24
35302 H 18.77250048503123 24.69448977647309 84.5429297761944 H 0.0 **** 0.06
35303 H 18.230693736881193 25.584925465109563 85.98594081883476 H 0.0 **** 0.06
35304 H 18.655807318131735 23.860393617165016 86.11063459034045 H 0.0 **** 0.06
35305 H 17.176313858758448 24.350926972991886 85.25240141559368 H 0.0 **** 0.06
35306 C 139.79101736627172 82.36187580622212 85.76959404789918 C 0.0 **** -0.24
35307 H 139.14361621237998 82.74791535913795 86.55598442840011 H 0.0 **** 0.06
35308 H 140.81710182409944 82.6835822509687 85.95203135091799 H 0.0 **** 0.06
35309 H 139.45705794053788 82.74202841409863 84.80476466922795 H 0.0 **** 0.06
35310 H 139.74746114477222 81.2720704008633 85.76562498378348 H 0.0 **** 0.06
35311 C 70.5865718522393 144.38137586782767 111.60068811727636 C 0.0 **** -0.24
35312 H 70.96947418517681 144.2380629019764 112.61086426639746 H 0.0 **** 0.06
35313 H 69.50299861594198 144.49389065074882 111.63642514496523 H 0.0 **** 0.06
35314 H 70.84351311676681 143.51636960724096 110.9897175709436 H 0.0 **** 0.06
35315 H 71.03162278029387 145.27755525838606 111.16777373846115 H 0.0 **** 0.06
35316 C 101.0358388760253 145.96138977187383 58.94607790688242 C 0.0 **** -0.24
35317 H 100.83213000723346 145.3106336992372 58.09593739536771 H 0.0 **** 0.06
35318 H 101.82459157844967 145.5227511550417 59.557690550362594 H 0.0 **** 0.06
35319 H 100.13027335125948 146.07077098855558 59.54415445144042 H 0.0 **** 0.06
35320 H 101.35402570122831 146.93971614671176 58.5873673201782 H 0.0 **** 0.06
35321 C 83.0496059986141 15.0585115875148 80.58879145948765 C 0.0 **** -0.24
35322 H 83.91873595942897 14.846470251776786 79.96606579331592 H 0.0 **** 0.06
35323 H 82.21386647745126 15.35635166970195 79.95616330170566 H 0.0 **** 0.06
35324 H 83.2876966311491 15.866651105493276 81.28062673710326 H 0.0 **** 0.06
35325 H 82.78049382843082 14.165057069412185 81.1519169560986 H 0.0 **** 0.06
35326 C 144.79085136441947 63.1896482007855 126.83715258972175 C 0.0 **** -0.24
35327 H 144.97758268419125 64.26108650350396 126.77085763661968 H 0.0 **** 0.06
35328 H 143.74798155487306 62.986808992995435 126.59260504641232 H 0.0 **** 0.06
35329 H 144.9998999892809 62.84596541666606 127.85007927950052 H 0.0 **** 0.06
35330 H 145.4382640225265 62.66402968526732 126.13443377390793 H 0.0 **** 0.06
35331 C 43.32719152815196 133.4414581273391 55.308693530907476 C 0.0 **** -0.24
35332 H 43.751002464800536 134.16773034835492 56.001416841189695 H 0.0 **** 0.06
35333 H 44.019367634110836 133.28169304803248 54.48075869400843 H 0.0 **** 0.06
35334 H 42.3791251954338 133.81794932948773 54.922801940386435 H 0.0 **** 0.06
35335 H 43.15817737549406 132.49818574220876 55.82894262849537 H 0.0 **** 0.06
35336 C 110.25557858266136 65.0491753898879 47.6035315617321 C 0.0 **** -0.24
35337 H 111.09881991903673 64.37665141394248 47.444295130746056 H 0.0 **** 0.06
35338 H 110.57293020150551 65.89116923533099 48.21912477335442 H 0.0 **** 0.06
35339 H 109.45308264236938 64.51165838072711 48.10901391813164 H 0.0 **** 0.06
35340 H 109.89708168376053 65.41587677662825 46.64152181702288 H 0.0 **** 0.06
35341 C 132.2629491953138 67.00794952305972 74.7515867892015 C 0.0 **** -0.24
35342 H 132.49735665348413 66.56273734541958 75.71875634361209 H 0.0 **** 0.06
35343 H 133.1060482332012 66.86898647610076 74.07443394589109 H 0.0 **** 0.06
35344 H 132.0695691793359 68.07282229876239 74.87871976236738 H 0.0 **** 0.06
35345 H 131.3785341932373 66.52443841215398 74.33440716008153 H 0.0 **** 0.06
35346 C 4.157438874872412 103.55837300035331 63.54305449173654 C 0.0 **** -0.24
35347 H 3.878878050981484 102.8190219391871 64.29355201115118 H 0.0 **** 0.06
35348 H 3.278812765702696 104.14052370694584 63.26361860582176 H 0.0 **** 0.06
35349 H 4.553363223585393 103.05160587029089 62.66229646812337 H 0.0 **** 0.06
35350 H 4.918092566886628 104.22243839364903 63.95353808993599 H 0.0 **** 0.06
35351 C 27.838573793514485 24.17871144371751 106.05683073458447 C 0.0 **** -0.24
35352 H 28.846093824546898 24.58693091758093 106.13720437745 H 0.0 **** 0.06
35353 H 27.84037775925475 23.14000597605682 106.38765300783321 H 0.0 **** 0.06
35354 H 27.508671606930932 24.22996570646569 105.01910522823066 H 0.0 **** 0.06
35355 H 27.160928426346175 24.759062794499023 106.68259164765063 H 0.0 **** 0.06
35356 C 145.30544367896434 143.50497614803695 18.29495309487322 C 0.0 **** -0.24
35357 H 145.50082686131034 142.43704533606024 18.193459786697673 H 0.0 **** 0.06
35358 H 144.28485955524036 143.71823674542281 17.97572329733879 H 0.0 **** 0.06
35359 H 146.0057806635048 144.06319465004407 17.67355476299386 H 0.0 **** 0.06
35360 H 145.4285567515418 143.7997190536518 19.336953791629185 H 0.0 **** 0.06
35361 C 34.58211795502035 100.76437929990925 75.0534430340729 C 0.0 **** -0.24
35362 H 34.00556061650022 99.83961114945294 75.05646938354056 H 0.0 **** 0.06
35363 H 35.44821849833099 100.65050879759889 74.40081522397676 H 0.0 **** 0.06
35364 H 34.91747464904887 100.98751293077129 76.0666532619527 H 0.0 **** 0.06
35365 H 33.95773707147811 101.58063864454988 74.68943220600255 H 0.0 **** 0.06
35366 C 13.2254087926203 41.38722947930323 65.25032433114802 C 0.0 **** -0.24
35367 H 14.103366351119462 41.674853816297954 64.67209390101952 H 0.0 **** 0.06
35368 H 12.32767776035206 41.551734102703605 64.65334029869577 H 0.0 **** 0.06
35369 H 13.174408270349971 41.98898198801379 66.15705499450522 H 0.0 **** 0.06
35370 H 13.296042020643768 40.33298447822352 65.51660626942736 H 0.0 **** 0.06
35371 C 134.64513285147248 29.05420213719765 97.9587529784784 C 0.0 **** -0.24
35372 H 134.61390641397318 28.676574561198834 96.9366888917117 H 0.0 **** 0.06
35373 H 133.6731228761839 29.472827295264153 98.22088515424309 H 0.0 **** 0.06
35374 H 135.40713148925738 29.829448570699697 98.03636548032318 H 0.0 **** 0.06
35375 H 134.886187755434 28.23838490258936 98.63940370137357 H 0.0 **** 0.06
35376 C 34.09077822205671 127.12887214488825 43.03107697732234 C 0.0 **** -0.24
35377 H 34.84194804344676 127.18084787875608 42.24341583845626 H 0.0 **** 0.06
35378 H 33.485140909540604 126.23161316560822 42.898161637546465 H 0.0 **** 0.06
35379 H 33.450712994922526 128.0100879987624 42.98119897784568 H 0.0 **** 0.06
35380 H 34.584115824055786 127.09360682942156 44.002592829469876 H 0.0 **** 0.06
35381 C 0.7352615631760955 120.13885283194004 129.1901534055206 C 0.0 **** -0.24
35382 H 1.2058889380317055 120.74957176089602 128.41890443555855 H 0.0 **** 0.06
35383 H -0.08108390283683775 119.56570886256232 128.7502752957409 H 0.0 **** 0.06
35384 H 0.34377909045150545 120.78522000602628 129.9755536947906 H 0.0 **** 0.06
35385 H 1.4717891425522112 119.45710054501943 129.61422130374433 H 0.0 **** 0.06
35386 C 66.59214034463984 20.201534244838854 32.66449803409262 C 0.0 **** -0.24
35387 H 67.25880511823816 20.972804618612088 33.0513620790619 H 0.0 **** 0.06
35388 H 66.51779495506868 20.297808560227963 31.580732500998977 H 0.0 **** 0.06
35389 H 65.60339508613806 20.320087465655888 33.10779885912319 H 0.0 **** 0.06
35390 H 66.9888317927736 19.218620147544584 32.91642740111331 H 0.0 **** 0.06
35391 C 74.95043036757943 94.43495613433122 105.1338562239924 C 0.0 **** -0.24
35392 H 75.19406224591239 93.5041247889125 104.62132115385528 H 0.0 **** 0.06
35393 H 75.84411974749719 95.05618772377538 105.20146769247229 H 0.0 **** 0.06
35394 H 74.58552810188922 94.21284742868318 106.13611701588887 H 0.0 **** 0.06
35395 H 74.17978878057218 94.9657681321519 104.57509166643901 H 0.0 **** 0.06
35396 C 146.1198315970035 117.32984327231843 136.23410877499208 C 0.0 **** -0.24
35397 H 146.4586098432718 117.97607685050703 135.424513119987 H 0.0 **** 0.06
35398 H 146.5610437676002 116.34029051187075 136.11719082090627 H 0.0 **** 0.06
35399 H 145.03328165429252 117.2499510161996 136.20442523718322 H 0.0 **** 0.06
35400 H 146.42654311141797 117.75440839632377 137.18992579060432 H 0.0 **** 0.06
35401 C 103.85703492561318 137.53952299705486 103.71923142247344 C 0.0 **** -0.24
35402 H 103.61587220906317 138.37763161960197 104.37397426524187 H 0.0 **** 0.06
35403 H 104.88883741655697 137.62744685780876 103.38130889501018 H 0.0 **** 0.06
35404 H 103.18933054679543 137.54971572821137 102.8567143505819 H 0.0 **** 0.06
35405 H 103.7317272949986 136.6047588552987 104.26541606007031 H 0.0 **** 0.06
35406 C 67.68893660108394 27.258473307651002 132.2938149228198 C 0.0 **** -0.24
35407 H 66.77208750819014 26.789603732081616 132.65086635839214 H 0.0 **** 0.06
35408 H 68.44882984982392 27.21282004194626 133.07432739618602 H 0.0 **** 0.06
35409 H 67.49004601397426 28.300593338498174 132.04046713698844 H 0.0 **** 0.06
35410 H 68.04492875508672 26.731541636178747 131.40886675935133 H 0.0 **** 0.06
35411 C 26.42830247248537 155.9291655314337 68.95277633249526 C 0.0 **** -0.24
35412 H 25.819417211217342 155.27264184757863 68.3325352431754 H 0.0 **** 0.06
35413 H 27.475518553353425 155.82995404826175 68.66705053037991 H 0.0 **** 0.06
35414 H 26.310151782360492 155.65215297770814 70.00057600137737 H 0.0 **** 0.06
35415 H 26.10886132937418 156.9616535201506 68.81156522294478 H 0.0 **** 0.06
35416 C 74.36602846739487 25.945823955584785 4.653472481045789 C 0.0 **** -0.24
35417 H 73.30903487326378 25.68711740385453 4.5986719089118395 H 0.0 **** 0.06
35418 H 74.91572450075971 25.131440520518424 5.127026715219593 H 0.0 **** 0.06
35419 H 74.48769610891037 26.855779373420887 5.240337683049937 H 0.0 **** 0.06
35420 H 74.75325792425235 26.10849674942392 3.6473757667840943 H 0.0 **** 0.06
35421 C 3.029026558647388 21.177266799484897 58.90911515648587 C 0.0 **** -0.24
35422 H 1.9547188725082947 21.361718889264324 58.922157416617424 H 0.0 **** 0.06
35423 H 3.4131148553411776 21.339768569298627 57.90187683421429 H 0.0 **** 0.06
35424 H 3.2247583573962117 20.148689087275727 59.21163889812391 H 0.0 **** 0.06
35425 H 3.523114583351372 21.860240834319143 59.60091946219585 H 0.0 **** 0.06
35426 C 96.74315241521491 45.028973611178856 88.12056787752655 C 0.0 **** -0.24
35427 H 97.52689587651798 45.61917479547385 88.59609015866472 H 0.0 **** 0.06
35428 H 96.9353153971049 43.968593142055084 88.28831281704714 H 0.0 **** 0.06
35429 H 96.73488065205308 45.23323397187153 87.0499858168405 H 0.0 **** 0.06
35430 H 95.77665509883201 45.29586396824452 88.54875611302184 H 0.0 **** 0.06
35431 C 156.56184222346243 113.13253443465108 155.84825315466583 C 0.0 **** -0.24
35432 H 157.09612889338078 114.08104451273546 155.88333877323396 H 0.0 **** 0.06
35433 H 155.64943235056882 113.25065978124702 155.26363934949597 H 0.0 **** 0.06
35434 H 156.30696431639487 112.8214468799962 156.8615934099547 H 0.0 **** 0.06
35435 H 157.19466771097288 112.37500254492589 155.3842595570395 H 0.0 **** 0.06
35436 C 62.486441094984 50.63562916055497 125.67487388715546 C 0.0 **** -0.24
35437 H 63.3923059883175 50.91128582826627 125.13623873959926 H 0.0 **** 0.06
35438 H 62.57473924720193 50.94519310571695 126.71699015756587 H 0.0 **** 0.06
35439 H 62.34981710735855 49.5554990705715 125.62699350777541 H 0.0 **** 0.06
35440 H 61.62795976273202 51.13018693763007 125.22026737266845 H 0.0 **** 0.06
35441 C 99.45342663112694 56.74808249990613 80.0707959500798 C 0.0 **** -0.24
35442 H 98.92394990760664 56.79760561154086 79.11977886117114 H 0.0 **** 0.06
35443 H 99.53285295706178 55.70802488444653 80.38824092018132 H 0.0 **** 0.06
35444 H 98.90426732655408 57.31608858914956 80.82147684080002 H 0.0 **** 0.06
35445 H 100.45142013723807 57.17020379761908 79.95428315478489 H 0.0 **** 0.06
35446 C 4.326274567556368 87.04001402127946 34.32929082949815 C 0.0 **** -0.24
35447 H 4.046953078471461 87.48842876044328 35.283057792736 H 0.0 **** 0.06
35448 H 5.344940751687062 87.33023577270906 34.07511734609187 H 0.0 **** 0.06
35449 H 3.645058913658204 87.38572437866326 33.55187379359077 H 0.0 **** 0.06
35450 H 4.265470355435468 85.95405027085597 34.4075933555506 H 0.0 **** 0.06
35451 C 24.73969010519778 101.80840934240842 61.080447170362746 C 0.0 **** -0.24
35452 H 24.1891831107518 102.12600888454256 60.19484835906931 H 0.0 **** 0.06
35453 H 24.67224304454109 100.72431163520105 61.179496531575495 H 0.0 **** 0.06
35454 H 24.31101381934556 102.28165446295719 61.96372479513832 H 0.0 **** 0.06
35455 H 25.78481376520969 102.10004291208219 60.98266666062527 H 0.0 **** 0.06
35456 C 67.57508729367001 24.023972412155388 40.19771561664791 C 0.0 **** -0.24
35457 H 66.72781921159435 23.354190657804082 40.344446207854844 H 0.0 **** 0.06
35458 H 68.4768270580642 23.436491586018263 40.0234131062867 H 0.0 **** 0.06
35459 H 67.70973161026399 24.64013694541228 41.08762342075478 H 0.0 **** 0.06
35460 H 67.38554385060021 24.665687408801347 39.33748610954852 H 0.0 **** 0.06
35461 C 146.77698729888726 19.30916313418078 68.00281251250053 C 0.0 **** -0.24
35462 H 147.50624549637254 18.81096113895171 68.64172559631079 H 0.0 **** 0.06
35463 H 147.21231258668797 19.477274868069742 67.01827202230245 H 0.0 **** 0.06
35464 H 146.49961668444095 20.265995470099085 68.44682393497158 H 0.0 **** 0.06
35465 H 145.89028191678497 18.682748766460065 67.907532588699 H 0.0 **** 0.06
35466 C 13.489301143308694 7.011073490235624 122.6820496678954 C 0.0 **** -0.24
35467 H 13.049919394684032 6.695923941288207 121.73598672636757 H 0.0 **** 0.06
35468 H 12.751581192714987 7.570274334930609 123.25665590569383 H 0.0 **** 0.06
35469 H 14.354986163282454 7.644316143133921 122.48583069312156 H 0.0 **** 0.06
35470 H 13.80180614527859 6.133468863178081 123.24713318649458 H 0.0 **** 0.06
35471 C 19.464267302396166 98.56515948005483 147.9391401211896 C 0.0 **** -0.24
35472 H 19.9906615199938 98.61745215579191 146.98572819648734 H 0.0 **** 0.06
35473 H 20.021881353676655 99.12228875113482 148.69238061105312 H 0.0 **** 0.06
35474 H 19.375363361316822 97.52337455201177 148.24836810844118 H 0.0 **** 0.06
35475 H 18.46992251561749 98.99705335430747 147.82898670908395 H 0.0 **** 0.06
35476 C 87.2546245355318 19.802296115647096 144.3520296801617 C 0.0 **** -0.24
35477 H 86.80408572422346 18.97832705744858 144.90566986321988 H 0.0 **** 0.06
35478 H 88.28467532654963 19.940675093883414 144.68152523021283 H 0.0 **** 0.06
35479 H 86.68837738405131 20.714783422552173 144.53551731273174 H 0.0 **** 0.06
35480 H 87.24104924012707 19.5735707598404 143.28665600153815 H 0.0 **** 0.06
35481 C 109.4088843200733 135.42656788596133 16.56613911637814 C 0.0 **** -0.24
35482 H 108.63155481356853 135.94697466682612 17.126289377995988 H 0.0 **** 0.06
35483 H 109.50313456080312 134.40616510491807 16.93753610832303 H 0.0 **** 0.06
35484 H 110.35743753192514 135.94847730058265 16.69103117583117 H 0.0 **** 0.06
35485 H 109.14186319518393 135.40650408823592 15.509269279241352 H 0.0 **** 0.06
35486 C 88.63667649770446 11.195543702759387 67.09268031779735 C 0.0 **** -0.24
35487 H 89.7013001813948 11.428982531856548 67.10647873947163 H 0.0 **** 0.06
35488 H 88.34994521190816 10.75225954981174 68.04632385820884 H 0.0 **** 0.06
35489 H 88.42918614961064 10.491721479405022 66.2864051059124 H 0.0 **** 0.06
35490 H 88.06664453588206 12.11146851714701 66.9323899094544 H 0.0 **** 0.06
35491 C 2.8970892912300386 2.104608306218182 27.457618439189183 C 0.0 **** -0.24
35492 H 3.5368058448531485 2.981067764609463 27.569481209725787 H 0.0 **** 0.06
35493 H 3.3888954785370906 1.3758179736756802 26.81404174056781 H 0.0 **** 0.06
35494 H 1.948082446836878 2.4030499342240432 27.010119461820594 H 0.0 **** 0.06
35495 H 2.713512796457529 1.6616386864433537 28.436924972216794 H 0.0 **** 0.06
35496 C 150.8390997854321 113.47773990499053 81.99093409475466 C 0.0 **** -0.24
35497 H 150.05283382916443 114.20183375662998 81.77761131389005 H 0.0 **** 0.06
35498 H 150.41581443379377 112.6295270328614 82.53042659453226 H 0.0 **** 0.06
35499 H 151.61098348088376 113.94794384756102 82.60068527628135 H 0.0 **** 0.06
35500 H 151.27680501091993 113.13024543156837 81.05490449575643 H 0.0 **** 0.06
35501 C 70.12695239774752 85.01021727897165 51.04546171206016 C 0.0 **** -0.24
35502 H 69.1514747375673 85.44303003429263 51.26642349958507 H 0.0 **** 0.06
35503 H 70.00675367207069 83.95711179343834 50.789731778417135 H 0.0 **** 0.06
35504 H 70.76992310582762 85.10022061935558 51.92073122613782 H 0.0 **** 0.06
35505 H 70.57812031003726 85.53974580213858 50.20670864456896 H 0.0 **** 0.06
35506 C 100.74940683862252 45.36820106211462 106.35658467080638 C 0.0 **** -0.24
35507 H 100.29074395172552 44.69684640037258 105.63081271167108 H 0.0 **** 0.06
35508 H 101.3844645768819 46.08575417439005 105.8368964217225 H 0.0 **** 0.06
35509 H 101.35340034591576 44.78892069763555 107.0558677428396 H 0.0 **** 0.06
35510 H 99.97062381866203 45.89977534000502 106.90237440029689 H 0.0 **** 0.06
35511 C 30.645797435412106 52.89464131185272 55.63634827425875 C 0.0 **** -0.24
35512 H 29.92059883847692 52.91408230950677 54.82271953856011 H 0.0 **** 0.06
35513 H 30.13076557914863 53.04738592542917 56.58489239466928 H 0.0 **** 0.06
35514 H 31.378281985326936 53.68801471908817 55.48833244814051 H 0.0 **** 0.06
35515 H 31.15246554409451 51.92982688910401 55.64831556357291 H 0.0 **** 0.06
35516 C 51.756606939610876 142.5916763140684 72.93562964745979 C 0.0 **** -0.24
35517 H 51.230684430696925 143.3333401842213 73.53679758415274 H 0.0 **** 0.06
35518 H 52.41095372476751 142.00099897715157 73.57768126411696 H 0.0 **** 0.06
35519 H 52.3531383484671 143.09708656951713 72.17515974544233 H 0.0 **** 0.06
35520 H 51.03165125451196 141.9352795253835 72.45287999612714 H 0.0 **** 0.06
35521 C 44.607144976887625 153.4804665370977 37.06656079571246 C 0.0 **** -0.24
35522 H 44.883588737235385 153.66736257490086 38.10447813657345 H 0.0 **** 0.06
35523 H 45.037145670347414 154.25498065841538 36.43190188489905 H 0.0 **** 0.06
35524 H 43.52068552254693 153.4936025308286 36.97221030399044 H 0.0 **** 0.06
35525 H 44.98657020754516 152.50590154523525 36.75980970215062 H 0.0 **** 0.06
35526 C 137.5669285218687 3.6609915334779473 151.61019326064874 C 0.0 **** -0.24
35527 H 137.96518208729412 4.487589850522006 151.02168158304238 H 0.0 **** 0.06
35528 H 137.16893242377068 2.8969915657324243 150.94157688320743 H 0.0 **** 0.06
35529 H 136.77109205664811 4.027659873485234 152.2584889645434 H 0.0 **** 0.06
35530 H 138.36379803151573 3.2319123891119723 152.21847837199314 H 0.0 **** 0.06
35531 C 67.15775337578481 43.99584340639994 24.55982742125896 C 0.0 **** -0.24
35532 H 66.36976435423684 43.791979656789366 25.284206821592583 H 0.0 **** 0.06
35533 H 67.5043443424023 45.022714097529715 24.68020594276991 H 0.0 **** 0.06
35534 H 66.76783146122054 43.859159390137776 23.551037026608256 H 0.0 **** 0.06
35535 H 67.98830176557726 43.3102563030167 24.724789031316824 H 0.0 **** 0.06
35536 C 72.87750688504437 104.63562545553366 98.16266047900706 C 0.0 **** -0.24
35537 H 72.1045735315189 103.89168216268753 97.96721710922986 H 0.0 **** 0.06
35538 H 73.83905887132815 104.13583182204907 98.2859155818191 H 0.0 **** 0.06
35539 H 72.63222570376222 105.18236587086427 99.07319534014938 H 0.0 **** 0.06
35540 H 72.93232671825201 105.330052256792 97.32427758604192 H 0.0 **** 0.06
35541 C 141.2737433316282 15.794855887007536 54.63465746354828 C 0.0 **** -0.24
35542 H 141.96398129787593 15.17107728163245 54.06622497844762 H 0.0 **** 0.06
35543 H 140.46391846408278 15.177905331438417 55.025619617472685 H 0.0 **** 0.06
35544 H 140.86185486134264 16.566042045820573 53.98488179587342 H 0.0 **** 0.06
35545 H 141.80579675217217 16.26346670401059 55.462796185977126 H 0.0 **** 0.06
35546 C 129.1664412925232 6.219471164096774 95.03375840644838 C 0.0 **** -0.24
35547 H 128.3679121653861 6.05503358565079 95.75811206900471 H 0.0 **** 0.06
35548 H 129.56183828587518 7.228991393822156 95.15359934596381 H 0.0 **** 0.06
35549 H 128.77197805189553 6.099943740084029 94.02565545806436 H 0.0 **** 0.06
35550 H 129.96370143562126 5.495391604066242 95.20175461829388 H 0.0 **** 0.06
35551 C 76.87967405570069 22.410325566565746 8.841098486432259 C 0.0 **** -0.24
35552 H 76.80499482609169 21.514718243243408 9.456753553149724 H 0.0 **** 0.06
35553 H 77.44686840891798 23.173419509757537 9.37535583506363 H 0.0 **** 0.06
35554 H 75.87962463490511 22.786072115605975 8.624175998784636 H 0.0 **** 0.06
35555 H 77.38705017737634 22.1677628178885 7.906873414076102 H 0.0 **** 0.06
35556 C 130.82087287512587 4.011684005675555 116.79819556976757 C 0.0 **** -0.24
35557 H 130.2916241738651 4.846341863223444 116.3404547206461 H 0.0 **** 0.06
35558 H 130.10678719141845 3.232470084030073 117.06777120996072 H 0.0 **** 0.06
35559 H 131.33811580908508 4.357162596226786 117.69313017748486 H 0.0 **** 0.06
35560 H 131.54650789641897 3.610077181802957 116.09027574755366 H 0.0 **** 0.06
35561 C 108.15607660725675 52.91566260210577 68.66484001986312 C 0.0 **** -0.24
35562 H 108.98793943638879 52.682428075787755 69.32997277569504 H 0.0 **** 0.06
35563 H 107.27102630366568 53.149452322067404 69.25812667782263 H 0.0 **** 0.06
35564 H 107.9493369943201 52.05590741633358 68.02763721147537 H 0.0 **** 0.06
35565 H 108.41532846971256 53.77317710340303 68.04526761251161 H 0.0 **** 0.06
35566 C 18.17247045313178 101.08977547542564 100.91012089226705 C 0.0 **** -0.24
35567 H 17.708793520279414 100.58666462399576 100.06108681014076 H 0.0 **** 0.06
35568 H 18.046407052459358 102.16726911173858 100.80579858930913 H 0.0 **** 0.06
35569 H 19.235013981338113 100.84800182640127 100.93957308203774 H 0.0 **** 0.06
35570 H 17.697840150676598 100.75533614700207 101.83194844837199 H 0.0 **** 0.06
35571 C 77.59948875602086 57.48085381029216 31.22348387829615 C 0.0 **** -0.24
35572 H 76.96730622644029 56.710767759146506 31.66426540867448 H 0.0 **** 0.06
35573 H 77.39407724874339 57.55127719896586 30.155142012005058 H 0.0 **** 0.06
35574 H 78.64688796576593 57.22229534914811 31.3761929476791 H 0.0 **** 0.06
35575 H 77.38738433940509 58.439638826339376 31.69770609880237 H 0.0 **** 0.06
35576 C 83.22276269336375 134.01372584670136 0.15379378151260426 C 0.0 **** -0.24
35577 H 83.97821093725558 133.3261377256843 0.536342149310542 H 0.0 **** 0.06
35578 H 83.28590759225575 134.05520772393575 -0.9334286591845853 H 0.0 **** 0.06
35579 H 83.3954784144604 135.00749212614093 0.5669735646220317 H 0.0 **** 0.06
35580 H 82.23274533659259 133.66457641599814 0.44795529267108236 H 0.0 **** 0.06
35581 C 84.19220013369983 100.83386761782934 45.406857338433184 C 0.0 **** -0.24
35582 H 84.20965826923022 100.51303691743597 46.44853077736066 H 0.0 **** 0.06
35583 H 84.76637767419135 101.75554267654833 45.301524630206515 H 0.0 **** 0.06
35584 H 83.16238193228267 101.01016913084875 45.09729652387679 H 0.0 **** 0.06
35585 H 84.63303857299105 100.05781953295703 44.78093839800468 H 0.0 **** 0.06
35586 C 71.5357126808444 80.32644843451203 145.9929279084315 C 0.0 **** -0.24
35587 H 70.50786404655173 80.57517394615003 145.73021808458356 H 0.0 **** 0.06
35588 H 71.61080592842038 79.25821737984494 146.19550154690887 H 0.0 **** 0.06
35589 H 71.82959638558174 80.88663271440853 146.88033683198546 H 0.0 **** 0.06
35590 H 72.19499813852997 80.58709862472328 145.1639050544715 H 0.0 **** 0.06
35591 C 20.270570872831648 111.74485727668412 89.16881473148884 C 0.0 **** -0.24
35592 H 19.637410399003585 112.23587741942993 88.42966406180248 H 0.0 **** 0.06
35593 H 20.049790587005454 112.14342625846695 90.15936332975596 H 0.0 **** 0.06
35594 H 21.317187162112738 111.92851154276332 88.92733988139791 H 0.0 **** 0.06
35595 H 20.07738960563902 110.67169964453012 89.15671517930265 H 0.0 **** 0.06
35596 C 18.66927191969566 117.61778078985382 10.321704880318947 C 0.0 **** -0.24
35597 H 19.412394161853513 117.21601435360806 9.633666581582247 H 0.0 **** 0.06
35598 H 18.12180901429508 118.42422874292903 9.834203367298528 H 0.0 **** 0.06
35599 H 19.167550414812183 118.0020566374826 11.212111139912707 H 0.0 **** 0.06
35600 H 17.974269786661182 116.82724564234336 10.606223620414994 H 0.0 **** 0.06
35601 C 68.84316689606223 105.78691319418436 63.92353882755393 C 0.0 **** -0.24
35602 H 69.88430787862461 106.06307606496785 63.758483763519735 H 0.0 **** 0.06
35603 H 68.26797900663706 105.98092232103187 63.01829133830552 H 0.0 **** 0.06
35604 H 68.43730940600025 106.3759486566218 64.74555985527547 H 0.0 **** 0.06
35605 H 68.7842192261549 104.72690343147394 64.17162382064558 H 0.0 **** 0.06
35606 C 130.97768668510213 132.39029874927778 153.02689729202314 C 0.0 **** -0.24
35607 H 130.00257750686245 132.6741890289018 152.63117887169062 H 0.0 **** 0.06
35608 H 131.51098723780393 131.79303292003718 152.28700423471537 H 0.0 **** 0.06
35609 H 130.84440705348544 131.80670651336555 153.93748901948214 H 0.0 **** 0.06
35610 H 131.5534271461704 133.2884919642242 153.25218726044395 H 0.0 **** 0.06
35611 C 140.79415174699753 1.4581410560456973 66.35490424567034 C 0.0 **** -0.24
35612 H 140.7090393873257 0.3890466538708175 66.16125842560257 H 0.0 **** 0.06
35613 H 141.36708729472127 1.9274331076345348 65.55557110019767 H 0.0 **** 0.06
35614 H 141.30090787927455 1.6154051862690615 67.30761507392505 H 0.0 **** 0.06
35615 H 139.7980687811688 1.9000136575320035 66.39698792613099 H 0.0 **** 0.06
35616 C 135.65343304054187 135.79437846346934 13.28254267935057 C 0.0 **** -0.24
35617 H 136.68943034400377 135.50970594460824 13.098133289971969 H 0.0 **** 0.06
35618 H 135.08068121388368 135.6947415725993 12.360563556293698 H 0.0 **** 0.06
35619 H 135.61686385149932 136.82869792293167 13.624341768438228 H 0.0 **** 0.06
35620 H 135.22954918680216 135.1434585112471 14.047744215955419 H 0.0 **** 0.06
35621 C 49.003791714122386 84.049856061873 9.758419656946899 C 0.0 **** -0.24
35622 H 48.84239372776463 83.9873022222773 10.83458245958343 H 0.0 **** 0.06
35623 H 49.88570846240178 83.46861735532923 9.488387991769343 H 0.0 **** 0.06
35624 H 49.15255423807585 85.09121346154896 9.473456260130632 H 0.0 **** 0.06
35625 H 48.13212874523731 83.6517435639907 9.237084982157626 H 0.0 **** 0.06
35626 C 153.15967202336262 139.19941972424445 30.8365180242659 C 0.0 **** -0.24
35627 H 153.27413999299543 140.01040613942104 31.555755668911146 H 0.0 **** 0.06
35628 H 154.12141298068644 138.7097492301025 30.685161511607745 H 0.0 **** 0.06
35629 H 152.8020205188311 139.60242082025042 29.889417098449 H 0.0 **** 0.06
35630 H 152.43879790459044 138.47590216142274 31.21818611987149 H 0.0 **** 0.06
35631 C 141.99807709625802 11.834692502348673 120.57665289279116 C 0.0 **** -0.24
35632 H 141.39250815183863 12.587848869134262 120.07279437794087 H 0.0 **** 0.06
35633 H 142.632330378442 12.316961915196572 121.32083813660246 H 0.0 **** 0.06
35634 H 142.6218055582187 11.32016503295182 119.84602854109183 H 0.0 **** 0.06
35635 H 141.34462194630717 11.112586014273546 121.0685170323873 H 0.0 **** 0.06
35636 C 58.773747839841306 145.67066541291166 43.49798519512302 C 0.0 **** -0.24
35637 H 57.737315626982905 145.46574910797037 43.2293772006647 H 0.0 **** 0.06
35638 H 58.8544734612144 145.77545040545397 44.58038446638925 H 0.0 **** 0.06
35639 H 59.097487461120636 146.59373799460266 43.018212015954845 H 0.0 **** 0.06
35640 H 59.40483540539394 144.84662264979679 43.164082959094586 H 0.0 **** 0.06
35641 C 56.15269261449362 128.90729456358537 48.37743025683184 C 0.0 **** -0.24
35642 H 56.812681366350546 129.41067525224477 47.67174593374854 H 0.0 **** 0.06
35643 H 55.29840706444344 129.5487598628507 48.5968913777112 H 0.0 **** 0.06
35644 H 56.69694907409513 128.6978844394145 49.29828962472348 H 0.0 **** 0.06
35645 H 55.802417003178164 127.97145959523588 47.941933321879034 H 0.0 **** 0.06
35646 C 117.40342298311599 113.98795577404492 135.39280712558315 C 0.0 **** -0.24
35647 H 118.44300056019442 113.78367415776115 135.135330574168 H 0.0 **** 0.06
35648 H 116.75069802860027 113.34849079568782 134.7979396024734 H 0.0 **** 0.06
35649 H 117.17681578174661 115.03309431279287 135.18550484731904 H 0.0 **** 0.06
35650 H 117.24571187459249 113.78405103005024 136.45194013719575 H 0.0 **** 0.06
35651 C 108.15863218339611 105.41406552102528 29.3075224688929 C 0.0 **** -0.24
35652 H 108.94348786164444 105.61435880649124 28.57728355163448 H 0.0 **** 0.06
35653 H 108.61115824381822 105.13559876258306 30.259240441704833 H 0.0 **** 0.06
35654 H 107.53020895708896 104.59895139309059 28.949986670077294 H 0.0 **** 0.06
35655 H 107.55212240119012 106.30969842429703 29.44235295745142 H 0.0 **** 0.06
35656 C 81.33858142669352 108.15363908213857 143.1546394273122 C 0.0 **** -0.24
35657 H 80.38958059875442 108.62190091397957 143.41548794722877 H 0.0 **** 0.06
35658 H 82.04367219471615 108.91843939438388 142.82743429907447 H 0.0 **** 0.06
35659 H 81.1803176731304 107.43631510966719 142.34933726400067 H 0.0 **** 0.06
35660 H 81.73999715286702 107.63834980257855 144.02677130792722 H 0.0 **** 0.06
35661 C 140.6239269814672 37.950792542879185 144.18096317921217 C 0.0 **** -0.24
35662 H 141.15074125221022 38.77087660113773 143.69249869632995 H 0.0 **** 0.06
35663 H 141.3457809337715 37.21127436597686 144.528341108671 H 0.0 **** 0.06
35664 H 139.9402742533707 37.48575144363531 143.47148283502463 H 0.0 **** 0.06
35665 H 140.06077726422654 38.33538201760888 145.0303028923794 H 0.0 **** 0.06
35666 C 121.9229569538792 138.55796383284135 55.21204067929827 C 0.0 **** -0.24
35667 H 121.92049736757006 138.94141963824165 56.232270683106606 H 0.0 **** 0.06
35668 H 122.37130808728962 139.29755253145865 54.548445548372825 H 0.0 **** 0.06
35669 H 120.89852675590187 138.35875775503237 54.89611599419834 H 0.0 **** 0.06
35670 H 122.50125963287799 137.63479640070565 55.172033425919835 H 0.0 **** 0.06
35671 C 63.14499359199412 50.77748248474421 36.012111231500086 C 0.0 **** -0.24
35672 H 62.41999755925097 50.63750036047348 35.20952885618888 H 0.0 **** 0.06
35673 H 64.11458599557186 50.38950864431453 35.69714996802185 H 0.0 **** 0.06
35674 H 62.811471575087666 50.243049882859125 36.900773979505175 H 0.0 **** 0.06
35675 H 63.23596062916225 51.83999630669079 36.23838110877756 H 0.0 **** 0.06
35676 C 37.190904371407214 108.78413341490118 9.259227327068707 C 0.0 **** -0.24
35677 H 36.24596243609304 109.25724253914025 8.994340317581688 H 0.0 **** 0.06
35678 H 38.01772892985781 109.3999973954386 8.903832595983232 H 0.0 **** 0.06
35679 H 37.246563991723235 107.79864911864313 8.796517495177241 H 0.0 **** 0.06
35680 H 37.25486531283275 108.68150227267559 10.342148604430271 H 0.0 **** 0.06
35681 C 54.1526787966837 26.152813158956462 111.59489145933958 C 0.0 **** -0.24
35682 H 53.79109791205819 26.388826909546424 112.59612942861258 H 0.0 **** 0.06
35683 H 53.59188747122323 25.306806291612276 111.19678825633571 H 0.0 **** 0.06
35684 H 55.2114057286211 25.897487378170553 111.64254341488095 H 0.0 **** 0.06
35685 H 54.01569658748318 27.01864635978825 110.9469929973335 H 0.0 **** 0.06
35686 C 88.3988745412633 54.91400060594174 142.14708116560723 C 0.0 **** -0.24
35687 H 87.94081574817733 53.92511772061874 142.14641828035565 H 0.0 **** 0.06
35688 H 89.2944871802842 54.89847573927136 142.76845115375727 H 0.0 **** 0.06
35689 H 87.69135370298983 55.64103791543113 142.5472257939294 H 0.0 **** 0.06
35690 H 88.66643736866024 55.19103130559159 141.12799149530295 H 0.0 **** 0.06
35691 C 44.05350663525442 153.43966553793445 70.37512621908438 C 0.0 **** -0.24
35692 H 43.58306910509367 153.1689055722478 71.31991572713117 H 0.0 **** 0.06
35693 H 43.29665143042652 153.48717223772735 69.59271906443122 H 0.0 **** 0.06
35694 H 44.801331372924324 152.6903033467711 70.11392482388497 H 0.0 **** 0.06
35695 H 44.53485314177962 154.41251410224874 70.47549995039797 H 0.0 **** 0.06
35696 C 104.05108271030258 76.86103096627119 29.213595648436936 C 0.0 **** -0.24
35697 H 103.00176645583326 76.57304678347471 29.139864901545558 H 0.0 **** 0.06
35698 H 104.1889422189513 77.51276295679733 30.07745727033179 H 0.0 **** 0.06
35699 H 104.34680498329686 77.3895794035124 28.307991143252913 H 0.0 **** 0.06
35700 H 104.66520471004816 75.96825653597273 29.330542856611842 H 0.0 **** 0.06
35701 C 95.6513460517157 124.97816176620961 104.80562428759633 C 0.0 **** -0.24
35702 H 94.61142870866894 124.68005441000247 104.67350092291095 H 0.0 **** 0.06
35703 H 95.7423524446611 125.58908376465405 105.70345489702662 H 0.0 **** 0.06
35704 H 95.97684076224645 125.55490369667376 103.93895153382762 H 0.0 **** 0.06
35705 H 96.2739346067698 124.08957759537827 104.90449944539559 H 0.0 **** 0.06
35706 C 129.31733691884182 6.1291241471181905 61.47955904413385 C 0.0 **** -0.24
35707 H 130.14418074791132 5.419811018994366 61.521711801840354 H 0.0 **** 0.06
35708 H 129.55660071433383 6.92325956803019 60.77277306585958 H 0.0 **** 0.06
35709 H 129.1570296114147 6.5584728427619225 62.468887078103194 H 0.0 **** 0.06
35710 H 128.41283478045023 5.614028964429316 61.156432911603304 H 0.0 **** 0.06
35711 C 16.840798194029333 143.21984802795893 11.510489348025516 C 0.0 **** -0.24
35712 H 16.165178632420464 143.64833170788455 12.250684329147816 H 0.0 **** 0.06
35713 H 17.80435657126054 143.72906802928327 11.561332121869526 H 0.0 **** 0.06
35714 H 16.415587622751787 143.34630048334617 10.514717574014128 H 0.0 **** 0.06
35715 H 16.979191797262672 142.15879897567012 11.71492698402352 H 0.0 **** 0.06
35716 C 97.89113518980056 39.412912336054205 62.90388540613033 C 0.0 **** -0.24
35717 H 96.98580763681998 38.81949380947741 63.02985020219758 H 0.0 **** 0.06
35718 H 98.74762584661046 38.74894589429566 62.79031179634681 H 0.0 **** 0.06
35719 H 98.03524296714895 40.04672080818729 63.77944378347627 H 0.0 **** 0.06
35720 H 97.79502440580616 40.037496081973956 62.01540662008571 H 0.0 **** 0.06
35721 C 17.523876394579077 148.33401542027497 0.5956829125552296 C 0.0 **** -0.24
35722 H 17.26935116098167 147.30856230611465 0.8639281238603402 H 0.0 **** 0.06
35723 H 17.839754283438708 148.36899241675695 -0.4469740018722632 H 0.0 **** 0.06
35724 H 18.334154658262946 148.6848858279585 1.2339890544014764 H 0.0 **** 0.06
35725 H 16.65130146312461 148.97152371485367 0.7326310201235344 H 0.0 **** 0.06
35726 C 75.07606386303401 78.79333918926989 68.40298259132737 C 0.0 **** -0.24
35727 H 74.47897132920026 78.73691050229644 67.4925118347561 H 0.0 **** 0.06
35728 H 75.01636934542448 77.8429780215028 68.93509155067323 H 0.0 **** 0.06
35729 H 74.69369696597946 79.59097625501181 69.03918720355966 H 0.0 **** 0.06
35730 H 76.11382354190728 79.00082847944822 68.14400444412792 H 0.0 **** 0.06
35731 C 94.52856436105573 111.63507939164383 24.78608052478792 C 0.0 **** -0.24
35732 H 93.78474454315828 110.95986120696266 24.36471594610841 H 0.0 **** 0.06
35733 H 94.38609591333318 112.63452724186477 24.376172756664452 H 0.0 **** 0.06
35734 H 95.52703280463336 111.27749731645169 24.534365408473434 H 0.0 **** 0.06
35735 H 94.417032783459 111.66675129054674 25.87039288938891 H 0.0 **** 0.06
35736 C 121.12890918414837 52.078650302072816 92.13064609157195 C 0.0 **** -0.24
35737 H 121.23856501460193 52.57800433435028 91.16840870215594 H 0.0 **** 0.06
35738 H 121.77452949255832 51.20062442171778 92.15950189973009 H 0.0 **** 0.06
35739 H 120.09134367478077 51.77209028207187 92.26478949406817 H 0.0 **** 0.06
35740 H 121.41151153198547 52.76464567884938 92.93044918821008 H 0.0 **** 0.06
35741 C 84.27374818319122 142.25005885617537 138.19607442002732 C 0.0 **** -0.24
35742 H 85.2055989375201 141.9111638451452 138.64899055088839 H 0.0 **** 0.06
35743 H 84.1315217974324 141.74802851486004 137.23859758339577 H 0.0 **** 0.06
35744 H 84.31760482491421 143.32753704718735 138.03816937057235 H 0.0 **** 0.06
35745 H 83.4406003716996 142.01372465143197 138.85762300007022 H 0.0 **** 0.06
35746 C 97.05762073464348 82.93679569200452 93.15194470367322 C 0.0 **** -0.24
35747 H 97.7949121668032 82.19527097001236 93.45896602109923 H 0.0 **** 0.06
35748 H 96.94810216688197 82.91210833317541 92.06706870332269 H 0.0 **** 0.06
35749 H 97.38961456681035 83.9281698807726 93.46104177578235 H 0.0 **** 0.06
35750 H 96.0993671296862 82.71210089028722 93.61948071354175 H 0.0 **** 0.06
35751 C 11.694030981617857 47.58970149893152 17.689874136188095 C 0.0 **** -0.24
35752 H 12.703001967013336 48.00024403807731 17.648922336639025 H 0.0 **** 0.06
35753 H 11.017424296891363 48.23300194620715 17.12629837629826 H 0.0 **** 0.06
35754 H 11.365642444360333 47.536207993280144 18.72807069714404 H 0.0 **** 0.06
35755 H 11.691672272836968 46.58963422555125 17.255652331849447 H 0.0 **** 0.06
35756 C 102.48120853502137 92.87757786587429 136.7361340957168 C 0.0 **** -0.24
35757 H 102.0570544164707 93.0933309514449 137.71710228179012 H 0.0 **** 0.06
35758 H 103.56104465630678 92.76087478347972 136.8245478538567 H 0.0 **** 0.06
35759 H 102.25847218936734 93.70033856118971 136.0559972983172 H 0.0 **** 0.06
35760 H 102.04563247824647 91.95680517855018 136.34695051725436 H 0.0 **** 0.06
35761 C 6.585727619119083 68.07300288970873 13.34089992599425 C 0.0 **** -0.24
35762 H 7.425251939919221 68.63401681569893 12.932353836987915 H 0.0 **** 0.06
35763 H 5.7915067536218245 68.01325910906222 12.595887435641373 H 0.0 **** 0.06
35764 H 6.211730913107303 68.57563178397795 14.232271507010239 H 0.0 **** 0.06
35765 H 6.914536247787723 67.06604992863687 13.601455776813168 H 0.0 **** 0.06
35766 C 113.1024198495072 44.76112968058463 2.131945364550802 C 0.0 **** -0.24
35767 H 113.6552789139085 44.74160746009953 3.0704763277735196 H 0.0 **** 0.06
35768 H 113.74278945496964 44.399041967176984 1.325973271884891 H 0.0 **** 0.06
35769 H 112.78880558291816 45.7818456968883 1.9162383115078399 H 0.0 **** 0.06
35770 H 112.22442083233328 44.11965663343207 2.2142056852208043 H 0.0 **** 0.06
35771 C 109.74425987946599 37.44938271563467 53.233732496712946 C 0.0 **** -0.24
35772 H 110.39084450955481 36.7730561429571 53.793272816680314 H 0.0 **** 0.06
35773 H 109.91384991445376 38.47299689471896 53.56668126255511 H 0.0 **** 0.06
35774 H 108.70231559039088 37.17904737902825 53.40417475911977 H 0.0 **** 0.06
35775 H 109.97017985562213 37.37021655895035 52.169763702406385 H 0.0 **** 0.06
35776 C 145.5573507525851 139.0101844563132 5.331756677245863 C 0.0 **** -0.24
35777 H 146.34042416441545 139.63481144103343 4.900464578823431 H 0.0 **** 0.06
35778 H 145.5325342798601 139.1531396560207 6.4121902170573435 H 0.0 **** 0.06
35779 H 145.76409126136753 137.96341582436406 5.107706498555871 H 0.0 **** 0.06
35780 H 144.59368133143397 139.2898518993323 4.906594327154664 H 0.0 **** 0.06
35781 C 132.3886382381304 1.931176969571311 83.69775577399626 C 0.0 **** -0.24
35782 H 133.2659598668443 2.0388241777072835 84.33519086343225 H 0.0 **** 0.06
35783 H 131.62562024974946 1.3568117747716997 84.22537677503115 H 0.0 **** 0.06
35784 H 132.66636975479267 1.4106020763169909 82.78115680921526 H 0.0 **** 0.06
35785 H 131.9958296849652 2.9175473130459864 83.45054399264619 H 0.0 **** 0.06
35786 C 126.98357107692657 13.05919462154884 80.2696983666022 C 0.0 **** -0.24
35787 H 127.74872066379929 12.792414705179112 79.54096093557914 H 0.0 **** 0.06
35788 H 127.12148964921029 14.095787123940028 80.5777683811773 H 0.0 **** 0.06
35789 H 127.06775660487493 12.40716318186557 81.14002733990787 H 0.0 **** 0.06
35790 H 125.99768686457533 12.940778597726336 79.82168654676212 H 0.0 **** 0.06
35791 C 105.46089661969386 135.48936307437594 80.79086121945863 C 0.0 **** -0.24
35792 H 105.47264977874902 135.18182552251469 81.83602491735189 H 0.0 **** 0.06
35793 H 106.35998369634778 135.12430460426157 80.2941445786953 H 0.0 **** 0.06
35794 H 105.42978930277339 136.57780265341742 80.73293610685278 H 0.0 **** 0.06
35795 H 104.57931338525187 135.07465386000183 80.30087756982482 H 0.0 **** 0.06
35796 C 65.15685776336814 29.801517446208095 114.10089015620412 C 0.0 **** -0.24
35797 H 65.23397237112508 30.687288069342628 113.47154179230444 H 0.0 **** 0.06
35798 H 65.88699986344415 29.864611024680585 114.90820447497106 H 0.0 **** 0.06
35799 H 65.35320648729045 28.911646960459166 113.50203758752286 H 0.0 **** 0.06
35800 H 64.1529159099245 29.741746004000902 114.52230780177143 H 0.0 **** 0.06
35801 C 134.93196841287522 33.31439592866059 112.15047958836838 C 0.0 **** -0.24
35802 H 135.92595366870455 33.358542837788605 112.59447057872994 H 0.0 **** 0.06
35803 H 134.419402771304 34.262738457568844 112.312515354522 H 0.0 **** 0.06
35804 H 134.36310548170266 32.508768542800226 112.6146252021175 H 0.0 **** 0.06
35805 H 135.02105157723454 33.12702843376891 111.08007157925424 H 0.0 **** 0.06
35806 C 4.844570864948167 132.09586442452093 6.031394581554913 C 0.0 **** -0.24
35807 H 5.427884509403526 132.9188663674063 6.4452323390921435 H 0.0 **** 0.06
35808 H 4.961563765740067 132.0770988548652 4.9473119169068625 H 0.0 **** 0.06
35809 H 3.793204693074813 132.23536165289326 6.28052572722796 H 0.0 **** 0.06
35810 H 5.197237265895552 131.1539277921952 6.452073172913153 H 0.0 **** 0.06
35811 C 23.117106823609006 114.06747059161803 51.916216079500444 C 0.0 **** -0.24
35812 H 24.096039685832018 114.1021736567149 52.39648880107667 H 0.0 **** 0.06
35813 H 23.241946076221545 113.85402793645063 50.854454770488175 H 0.0 **** 0.06
35814 H 22.618873975864297 115.02928549135753 52.038362727995334 H 0.0 **** 0.06
35815 H 22.514720409330238 113.28509569378691 52.37631253845437 H 0.0 **** 0.06
35816 C 98.88705155897944 39.93945931093867 51.118775614934236 C 0.0 **** -0.24
35817 H 98.32415170854837 40.34783236090317 50.279246644437734 H 0.0 **** 0.06
35818 H 99.15221800300567 40.74596164899549 51.80298130958866 H 0.0 **** 0.06
35819 H 99.79544222978596 39.46381015717458 50.74899873036837 H 0.0 **** 0.06
35820 H 98.27726041864562 39.20352634409227 51.641550958746336 H 0.0 **** 0.06
35821 C 20.783285108560648 49.76976962614329 87.09016102609753 C 0.0 **** -0.24
35822 H 20.847348798524877 50.19708721728702 86.08944318762045 H 0.0 **** 0.06
35823 H 21.44766280688563 48.90752994224701 87.16084150049838 H 0.0 **** 0.06
35824 H 19.758148920652673 49.45516643022901 87.28551018638709 H 0.0 **** 0.06
35825 H 21.080032563025867 50.51837565749713 87.82445906836759 H 0.0 **** 0.06
35826 C 105.07815868133524 81.48868069885503 48.24678301703733 C 0.0 **** -0.24
35827 H 105.77954578617995 80.68979860185866 48.48880825507152 H 0.0 **** 0.06
35828 H 104.06124459472163 81.15260587052435 48.45113111367107 H 0.0 **** 0.06
35829 H 105.17134052130483 81.74717379920176 47.19285603996681 H 0.0 **** 0.06
35830 H 105.30133613055345 82.36373080348076 48.856848422180974 H 0.0 **** 0.06
35831 C 86.10778980733934 6.6615913740889425 147.40592140242472 C 0.0 **** -0.24
35832 H 86.32319272456124 5.9354911959799495 146.62344474868166 H 0.0 **** 0.06
35833 H 85.51697574521822 6.186082817937034 148.19027024190683 H 0.0 **** 0.06
35834 H 85.54798956238326 7.495605196728235 146.98354801769352 H 0.0 **** 0.06
35835 H 87.04364185945718 7.029412227238026 147.82855301570532 H 0.0 **** 0.06
35836 C 137.64915014455752 113.41981528011279 64.38645301717469 C 0.0 **** -0.24
35837 H 138.70364012008764 113.63530380282809 64.21178680727633 H 0.0 **** 0.06
35838 H 137.1144549511876 113.42941445877749 63.43654218758809 H 0.0 **** 0.06
35839 H 137.22956874321451 114.17589941734128 65.04920248612791 H 0.0 **** 0.06
35840 H 137.55168460752367 112.4375325957446 64.8487449896736 H 0.0 **** 0.06
35841 C 62.57139173967613 121.63545542395832 123.46238417980328 C 0.0 **** -0.24
35842 H 62.10622262275638 120.68840087248219 123.73503418434512 H 0.0 **** 0.06
35843 H 63.65165486425485 121.56014772203525 123.58988331156769 H 0.0 **** 0.06
35844 H 62.183771308332666 122.4281464932086 124.10248959991998 H 0.0 **** 0.06
35845 H 62.34272514164752 121.86588419099883 122.42218284418169 H 0.0 **** 0.06
35846 C 61.55147494246576 113.28989264229783 46.27238061542751 C 0.0 **** -0.24
35847 H 60.78465229492585 113.7826289527206 45.673890301560775 H 0.0 **** 0.06
35848 H 61.373769531872526 112.2149264261188 46.276388247772786 H 0.0 **** 0.06
35849 H 61.51443372729128 113.66905548784119 47.29390798852506 H 0.0 **** 0.06
35850 H 62.53261547342973 113.49512254914355 45.84426893287538 H 0.0 **** 0.06
35851 C 91.6573220388484 48.651104223520235 75.88770850873533 C 0.0 **** -0.24
35852 H 92.38929661167134 48.78155487380408 75.09098992218645 H 0.0 **** 0.06
35853 H 91.87661541473813 49.34558619186046 76.69952925607019 H 0.0 **** 0.06
35854 H 91.70402826929387 47.6276666581191 76.26070417804019 H 0.0 **** 0.06
35855 H 90.65823132707087 48.851659448020314 75.49886911848822 H 0.0 **** 0.06
35856 C 19.429641923369957 29.1789838404041 139.52956891700575 C 0.0 **** -0.24
35857 H 19.21267720747187 30.240563223476357 139.40916455573793 H 0.0 **** 0.06
35858 H 20.50859415567271 29.034016752359037 139.59620481879296 H 0.0 **** 0.06
35859 H 19.041696733621848 28.628890196833026 138.67280806768926 H 0.0 **** 0.06
35860 H 18.957190439135672 28.813106583002224 140.44153279779607 H 0.0 **** 0.06
35861 C 110.7813027368939 89.84357007997518 1.7159436364203486 C 0.0 **** -0.24
35862 H 111.08473793686807 88.8689241026633 2.0984288987754667 H 0.0 **** 0.06
35863 H 110.49635744214078 89.74969451752456 0.6679296877682077 H 0.0 **** 0.06
35864 H 111.61227983415375 90.54374669806074 1.8051594355085 H 0.0 **** 0.06
35865 H 109.9328099112978 90.21184961744035 2.292472710703919 H 0.0 **** 0.06
35866 C 113.53878945239069 64.3046322930276 5.55547875717366 C 0.0 **** -0.24
35867 H 113.15937686654718 64.12095797624428 4.549776743915658 H 0.0 **** 0.06
35868 H 112.82207494183103 64.91153815290686 6.108599226807257 H 0.0 **** 0.06
35869 H 114.49094918015015 64.83241327896812 5.492211156218843 H 0.0 **** 0.06
35870 H 113.68353238211972 63.35377677385421 6.0682661737434955 H 0.0 **** 0.06
35871 C 6.472315746186808 92.39626947925711 152.91249447237104 C 0.0 **** -0.24
35872 H 7.4039155490292785 92.32686251396198 152.3503386474299 H 0.0 **** 0.06
35873 H 6.037843625010339 93.387479693438 152.77443640270747 H 0.0 **** 0.06
35874 H 6.67406850084393 92.23207359372807 153.97186988650535 H 0.0 **** 0.06
35875 H 5.774546849010278 91.6401083579427 152.5546264084564 H 0.0 **** 0.06
35876 C 129.51074997383856 30.51516928223313 127.01768839931124 C 0.0 **** -0.24
35877 H 128.75553456591834 30.062932619114292 126.37501635813054 H 0.0 **** 0.06
35878 H 129.17951493298733 31.507569874574017 127.32487581825954 H 0.0 **** 0.06
35879 H 130.44974820427103 30.59742308274025 126.47147940530961 H 0.0 **** 0.06
35880 H 129.65668546902728 29.8908811143898 127.89983057707182 H 0.0 **** 0.06
35881 C 61.76968079534552 45.142421956772154 0.483578270144406 C 0.0 **** -0.24
35882 H 62.02759500906171 44.87921559919329 1.5089593278558233 H 0.0 **** 0.06
35883 H 61.415192790886465 44.25470144258759 -0.0408063535305665 H 0.0 **** 0.06
35884 H 62.651096890415744 45.536179208130534 -0.023200366886928947 H 0.0 **** 0.06
35885 H 60.985610305982675 45.898423904864245 0.48915821555712213 H 0.0 **** 0.06
35886 C 134.14589145694313 152.18342829299053 95.49866427197954 C 0.0 **** -0.24
35887 H 134.20039334269535 153.11433564117775 96.0633630728651 H 0.0 **** 0.06
35888 H 133.43352584081526 152.2961055412572 94.68081112597758 H 0.0 **** 0.06
35889 H 133.81934698188167 151.3778440412956 96.1575636905471 H 0.0 **** 0.06
35890 H 135.12905598556299 151.94610732533374 95.09391509630206 H 0.0 **** 0.06
35891 C 124.16875886711735 13.743629292894042 116.58664065564454 C 0.0 **** -0.24
35892 H 123.78045210630556 14.560813841474726 115.97969592440091 H 0.0 **** 0.06
35893 H 123.80135439147081 12.794768819039035 116.19595994372867 H 0.0 **** 0.06
35894 H 123.83411814799565 13.865863951589603 117.61699543103958 H 0.0 **** 0.06
35895 H 125.25789281330931 13.752645821305293 116.55449107828713 H 0.0 **** 0.06
35896 C 139.80154686162933 8.669632724588212 95.23262664213377 C 0.0 **** -0.24
35897 H 138.92332401941064 9.082527369827432 94.73495268677564 H 0.0 **** 0.06
35898 H 140.27243418908262 9.444440510058286 95.83862146901157 H 0.0 **** 0.06
35899 H 140.5090281475902 8.312025009096828 94.4842940736363 H 0.0 **** 0.06
35900 H 139.49907089755123 7.84135340023883 95.87316260056531 H 0.0 **** 0.06
35901 C 71.58646172318672 36.772709909956816 92.4460127657984 C 0.0 **** -0.24
35902 H 72.5917974006137 36.96062094820813 92.82273186908583 H 0.0 **** 0.06
35903 H 70.89162909805407 36.706651765375355 93.28321800620324 H 0.0 **** 0.06
35904 H 71.57661865717347 35.8355728090696 91.88912332386548 H 0.0 **** 0.06
35905 H 71.28790526952463 37.59012579168905 91.78915508489337 H 0.0 **** 0.06
35906 C 77.73519760625464 121.8504007229168 8.621272805201528 C 0.0 **** -0.24
35907 H 78.79379669117667 122.10978519957688 8.640070333189527 H 0.0 **** 0.06
35908 H 77.19988689399726 122.45504896253739 9.353984650831961 H 0.0 **** 0.06
35909 H 77.61486015279058 120.79449495702481 8.86453726618879 H 0.0 **** 0.06
35910 H 77.33190501744443 122.04242507309662 7.627426549468709 H 0.0 **** 0.06
35911 C 128.72768365440686 80.61612767982005 75.58247991472956 C 0.0 **** -0.24
35912 H 129.26292929241467 79.66834570379324 75.64912179610235 H 0.0 **** 0.06
35913 H 129.4444268571839 81.43440062907705 75.52191428367126 H 0.0 **** 0.06
35914 H 128.10357602858193 80.74314558858474 76.46739336432552 H 0.0 **** 0.06
35915 H 128.09937857370682 80.61561294180025 74.69237649518539 H 0.0 **** 0.06
35916 C 57.14423374408824 120.66908969334126 46.28222381990497 C 0.0 **** -0.24
35917 H 56.42251610354879 120.172633190414 45.634886038352306 H 0.0 **** 0.06
35918 H 57.82415414649023 119.92864160014416 46.70402774453902 H 0.0 **** 0.06
35919 H 56.61817649777254 121.18082665053292 47.087782453940946 H 0.0 **** 0.06
35920 H 57.71315389496954 121.39621765314006 45.70205186971134 H 0.0 **** 0.06
35921 C 22.031035352450772 14.975500977855411 4.6165627358093815 C 0.0 **** -0.24
35922 H 22.091188627974248 16.06262929199739 4.5644159639291715 H 0.0 **** 0.06
35923 H 22.241026299820078 14.552336924699603 3.634582778817638 H 0.0 **** 0.06
35924 H 21.029277459103582 14.682439212311394 4.932384884792619 H 0.0 **** 0.06
35925 H 22.76077710001863 14.604926915173642 5.3360455344281945 H 0.0 **** 0.06
35926 C 68.87523404788772 100.26610489633572 110.788325167653 C 0.0 **** -0.24
35927 H 68.44927262228435 99.2773124074667 110.62166410214837 H 0.0 **** 0.06
35928 H 69.93820561658993 100.24897812621805 110.54547784130159 H 0.0 **** 0.06
35929 H 68.74583219394952 100.54578485676711 111.83420612396372 H 0.0 **** 0.06
35930 H 68.36874233191224 100.99145419422678 110.15293304227794 H 0.0 **** 0.06
35931 C 91.60322964650645 89.8198200097037 24.956269699069082 C 0.0 **** -0.24
35932 H 92.29450156936163 89.01010708089632 24.72261231701424 H 0.0 **** 0.06
35933 H 91.9650732373735 90.36760401050549 25.826134953581004 H 0.0 **** 0.06
35934 H 90.6178450379571 89.40486073092444 25.17169646027827 H 0.0 **** 0.06
35935 H 91.53300661218093 90.49538664523752 24.103613774718326 H 0.0 **** 0.06
35936 C 154.2879529341797 62.28767348068821 118.9616860726549 C 0.0 **** -0.24
35937 H 154.26225697082387 62.94843950525208 118.09506236190374 H 0.0 **** 0.06
35938 H 154.06339241233866 61.268294069370484 118.64839891023978 H 0.0 **** 0.06
35939 H 153.5472321846594 62.616432530044094 119.69033819550914 H 0.0 **** 0.06
35940 H 155.28010498802283 62.31938686897965 119.41253998652412 H 0.0 **** 0.06
35941 C 117.83177500222705 105.17647783455526 149.13979581586224 C 0.0 **** -0.24
35942 H 117.2870208869851 105.28620118469307 150.07641331761357 H 0.0 **** 0.06
35943 H 118.71249387161679 105.81877587921623 149.15460043394603 H 0.0 **** 0.06
35944 H 117.18703402204461 105.46274977024983 148.30909183389124 H 0.0 **** 0.06
35945 H 118.1412404449923 104.13789518818452 149.019741989048 H 0.0 **** 0.06
35946 C 137.01031223699584 28.13878174173402 137.4754519506499 C 0.0 **** -0.24
35947 H 136.07301934261272 28.605751165036395 137.1727619077363 H 0.0 **** 0.06
35948 H 137.48986955791287 27.691824926707568 136.60463046971367 H 0.0 **** 0.06
35949 H 136.80651025111888 27.365479881501074 138.2160764527191 H 0.0 **** 0.06
35950 H 137.66778278616974 28.892263738023644 137.90678240686847 H 0.0 **** 0.06
35951 C 36.4718227445172 6.432100808521 135.00467841075152 C 0.0 **** -0.24
35952 H 36.58328926220881 5.9525207838310905 135.97694682751137 H 0.0 **** 0.06
35953 H 36.52599610063584 5.676759611620355 134.21931819706674 H 0.0 **** 0.06
35954 H 37.270843411175676 7.16002737721135 134.86466573343063 H 0.0 **** 0.06
35955 H 35.506956368812965 6.936521914726029 134.95662757133414 H 0.0 **** 0.06
35956 C 24.5714732191355 23.8458281931712 85.05492551947808 C 0.0 **** -0.24
35957 H 24.787469135737297 24.755197229749115 84.49524404790493 H 0.0 **** 0.06
35958 H 25.274009333304065 23.754060169755974 85.88398604131153 H 0.0 **** 0.06
35959 H 24.670848025317184 22.981636101344662 84.3973227660473 H 0.0 **** 0.06
35960 H 23.55427324533082 23.891197417167177 85.44306273125822 H 0.0 **** 0.06
35961 C 140.1907084997245 63.61329762905876 18.224871976965744 C 0.0 **** -0.24
35962 H 139.41941857605056 63.720825308582405 18.987767339697456 H 0.0 **** 0.06
35963 H 139.77595961314688 63.873174209636645 17.250619845782637 H 0.0 **** 0.06
35964 H 140.54334451941665 62.583171997478146 18.20836087840445 H 0.0 **** 0.06
35965 H 141.0231950864221 64.2794035117234 18.454046025517982 H 0.0 **** 0.06
35966 C 125.2675579761164 65.32955188083274 85.16661825696838 C 0.0 **** -0.24
35967 H 125.24433478428557 64.25355021435557 85.34112839991184 H 0.0 **** 0.06
35968 H 124.9460182895379 65.84948513660433 86.06906454977138 H 0.0 **** 0.06
35969 H 124.59711875608923 65.57816551866193 84.34476964692868 H 0.0 **** 0.06
35970 H 126.28309977418803 65.63477917755525 84.91372927772704 H 0.0 **** 0.06
35971 C 72.5897799701578 155.71397510298823 44.50162451960746 C 0.0 **** -0.24
35972 H 71.85371596906727 156.0717958914598 43.78201509330064 H 0.0 **** 0.06
35973 H 73.21261252435347 156.546288519144 44.82966821110722 H 0.0 **** 0.06
35974 H 73.21553593115809 154.95360858133515 44.03421473765813 H 0.0 **** 0.06
35975 H 72.07660550663425 155.28301707528178 45.361000923219606 H 0.0 **** 0.06
35976 C 46.16212236964839 30.293412535108132 18.113063240464783 C 0.0 **** -0.24
35977 H 45.07790810439485 30.388625938668184 18.059598443940075 H 0.0 **** 0.06
35978 H 46.515870672749884 29.68758045719619 17.278245095777436 H 0.0 **** 0.06
35979 H 46.43873003064596 29.814494302167702 19.05299900414036 H 0.0 **** 0.06
35980 H 46.61600493057318 31.28340911133367 18.06229819527357 H 0.0 **** 0.06
35981 C 63.60930571960628 100.90779211483719 33.13314478426656 C 0.0 **** -0.24
35982 H 62.87782783230925 100.6288714806325 32.37558488077178 H 0.0 **** 0.06
35983 H 63.90721753867557 100.0217888678644 33.69440808006044 H 0.0 **** 0.06
35984 H 63.16839965076123 101.63712364599554 33.81233107047743 H 0.0 **** 0.06
35985 H 64.48377785667927 101.3433844648563 32.65025510575663 H 0.0 **** 0.06
35986 C 34.97250746797088 93.71624252559977 54.307648948078906 C 0.0 **** -0.24
35987 H 34.66349912746113 93.95078165669764 55.325393932775285 H 0.0 **** 0.06
35988 H 34.11870235579397 93.3327209852898 53.74829864904595 H 0.0 **** 0.06
35989 H 35.75975443301229 92.96301441651198 54.33091454748799 H 0.0 **** 0.06
35990 H 35.347141357384736 94.61871708844619 53.824958805678705 H 0.0 **** 0.06
35991 C 54.032567562606516 11.668934652528208 86.1675199396574 C 0.0 **** -0.24
35992 H 53.17002337938186 11.012672449187107 86.2749678891575 H 0.0 **** 0.06
35993 H 54.695628441687404 11.541459149389198 87.02321844869422 H 0.0 **** 0.06
35994 H 53.69776633617283 12.704940469114746 86.11876804483607 H 0.0 **** 0.06
35995 H 54.567975409902715 11.416648981539282 85.25180706307479 H 0.0 **** 0.06
35996 C 114.00883873615413 82.77504185789421 131.92405762817657 C 0.0 **** -0.24
35997 H 114.14791453056017 83.49988499556169 132.7262346811627 H 0.0 **** 0.06
35998 H 114.97293300312407 82.34219094849398 131.65492746698675 H 0.0 **** 0.06
35999 H 113.57773836990583 83.27292085840415 131.056284845432 H 0.0 **** 0.06
36000 H 113.33673057341747 81.98625450968264 132.26158066340253 H 0.0 **** 0.06
36001 C 23.144330357927743 144.43473754483134 43.993527998126154 C 0.0 **** -0.24
36002 H 22.454258801814426 144.162473747304 43.19358711757293 H 0.0 **** 0.06
36003 H 23.75048358250315 145.28326695706048 43.67664826172245 H 0.0 **** 0.06
36004 H 23.791694908660332 143.587974629948 44.21750191468534 H 0.0 **** 0.06
36005 H 22.576886621708255 144.70481813404692 44.88417313245624 H 0.0 **** 0.06
36006 C 54.68046055187838 74.64939371210565 113.46220385356442 C 0.0 **** -0.24
36007 H 53.96304174819669 74.28427223300244 112.72774063792754 H 0.0 **** 0.06
36008 H 54.14582846763837 75.07418464527915 114.31169185369323 H 0.0 **** 0.06
36009 H 55.307074317900074 75.41678857299665 113.0066371530405 H 0.0 **** 0.06
36010 H 55.30550062951431 73.82379040261728 113.80110017499005 H 0.0 **** 0.06
36011 C 64.37709285816703 84.00482529876706 46.759913384942365 C 0.0 **** -0.24
36012 H 64.98423840161729 84.78693425435779 46.30267757765614 H 0.0 **** 0.06
36013 H 63.66050439747394 83.62952564504849 46.0299402416444 H 0.0 **** 0.06
36014 H 63.8437879343503 84.4142219364744 47.617092408925316 H 0.0 **** 0.06
36015 H 65.02262368878593 83.1896506701716 47.08766475444304 H 0.0 **** 0.06
36016 C 125.95178153738027 139.9868915204498 90.7972816461455 C 0.0 **** -0.24
36017 H 126.73534793845818 140.14980777193074 91.53667980188241 H 0.0 **** 0.06
36018 H 126.40098520506854 139.89453956108 89.80802693738852 H 0.0 **** 0.06
36019 H 125.262730017477 140.8313748835443 90.80647517919816 H 0.0 **** 0.06
36020 H 125.41002589943452 139.0722172524948 91.03785695699057 H 0.0 **** 0.06
36021 C 112.81531808169326 126.67153235771518 130.94560440683497 C 0.0 **** -0.24
36022 H 113.1943356072437 127.01959753204757 131.9061245773891 H 0.0 **** 0.06
36023 H 111.75506041717047 126.91239992638741 130.86380468346468 H 0.0 **** 0.06
36024 H 112.95091173528245 125.59253996133238 130.87125763907005 H 0.0 **** 0.06
36025 H 113.36281725964098 127.16179511917117 130.14050518791416 H 0.0 **** 0.06
36026 C 61.37057408452836 103.34487471964383 139.70048574343826 C 0.0 **** -0.24
36027 H 61.994185306516954 104.11554374056078 139.24803800449737 H 0.0 **** 0.06
36028 H 61.91666619182564 102.40165372674255 139.7212281351951 H 0.0 **** 0.06
36029 H 60.45906617882798 103.22489354498623 139.1152879021011 H 0.0 **** 0.06
36030 H 61.11301486737517 103.63786255449077 140.71856730588632 H 0.0 **** 0.06
36031 C 129.28497768517252 23.299631421563504 17.047304437030846 C 0.0 **** -0.24
36032 H 130.09046810319884 23.567574956217527 17.73155230338125 H 0.0 **** 0.06
36033 H 128.36219426301614 23.161022154015882 17.610674562827285 H 0.0 **** 0.06
36034 H 129.5393019490073 22.37277141826854 16.532731421518065 H 0.0 **** 0.06
36035 H 129.14970430707382 24.096149994104394 16.316472098323032 H 0.0 **** 0.06
36036 C 69.29484646223602 69.29219878553135 127.55810291640499 C 0.0 **** -0.24
36037 H 70.23654247334906 68.90910711458582 127.16539557683878 H 0.0 **** 0.06
36038 H 69.11466488101289 68.87127160718681 128.5476804048496 H 0.0 **** 0.06
36039 H 68.48112825488374 69.01107771595129 126.88888148494753 H 0.0 **** 0.06
36040 H 69.34738454781109 70.37939581305285 127.62964382571828 H 0.0 **** 0.06
36041 C 123.70111536303301 130.7283875377741 38.38323450920565 C 0.0 **** -0.24
36042 H 123.46519142262741 129.66983442619738 38.27131536199559 H 0.0 **** 0.06
36043 H 123.83307697860386 130.96039359035603 39.43962409892656 H 0.0 **** 0.06
36044 H 122.88496031780846 131.32676896261097 37.97849474123976 H 0.0 **** 0.06
36045 H 124.62021727426247 130.95395523591122 37.84303497200143 H 0.0 **** 0.06
36046 C 92.67777418847278 90.22778383643093 113.78495285619874 C 0.0 **** -0.24
36047 H 92.33770722510968 89.79491152323729 112.84441009955583 H 0.0 **** 0.06
36048 H 91.98749196275448 91.01235827934268 114.09511582656916 H 0.0 **** 0.06
36049 H 93.67344326622045 90.65113613728468 113.65049242959947 H 0.0 **** 0.06
36050 H 92.71337168829345 89.45144116981498 114.54908670945434 H 0.0 **** 0.06
36051 C 114.42250977231504 113.6879544306946 87.21164899483415 C 0.0 **** -0.24
36052 H 115.18211976727804 113.40184131813685 87.93864045976761 H 0.0 **** 0.06
36053 H 114.42220132767653 114.7721269687688 87.09394800898076 H 0.0 **** 0.06
36054 H 113.44342162807561 113.36047555941151 87.56105371782661 H 0.0 **** 0.06
36055 H 114.64174864698072 113.21863441790869 86.25262047012086 H 0.0 **** 0.06
36056 C 31.0826686235265 85.80326475827223 6.981639130680463 C 0.0 **** -0.24
36057 H 30.494647843276937 86.5547269332697 7.508315335245825 H 0.0 **** 0.06
36058 H 30.847210362398584 85.83825575308038 5.917310350258731 H 0.0 **** 0.06
36059 H 30.843746663068828 84.81448021027973 7.374212832371249 H 0.0 **** 0.06
36060 H 32.14317624210025 86.00513616351748 7.126266723428543 H 0.0 **** 0.06
36061 C 14.323717923511083 24.86565353382403 21.578000284912207 C 0.0 **** -0.24
36062 H 14.45771202575844 25.796462387540657 22.127057709328795 H 0.0 **** 0.06
36063 H 14.347206880460647 24.026699811974538 22.27348543379611 H 0.0 **** 0.06
36064 H 15.126174788646836 24.755729424085473 20.848384393403393 H 0.0 **** 0.06
36065 H 13.363974952613376 24.883484595008895 21.06085893209658 H 0.0 **** 0.06
36066 C 107.25028010057662 125.23696618866508 121.19132124256305 C 0.0 **** -0.24
36067 H 107.02561565992119 124.92723323955578 122.21184858336642 H 0.0 **** 0.06
36068 H 107.57752287563648 124.37228903446653 120.6132915881995 H 0.0 **** 0.06
36069 H 108.04157026663393 125.98629045791209 121.20457544702009 H 0.0 **** 0.06
36070 H 106.35500002300228 125.66196751027219 120.73558865966578 H 0.0 **** 0.06
36071 C 58.03452505520977 90.96065878836879 133.9716663316561 C 0.0 **** -0.24
36072 H 58.897912624488185 90.8579638208016 133.31462728690394 H 0.0 **** 0.06
36073 H 58.27856298193355 91.63769511948261 134.7896192222322 H 0.0 **** 0.06
36074 H 57.76752285381758 89.98302193643265 134.37534534238264 H 0.0 **** 0.06
36075 H 57.19385489954172 91.362145442474 133.40578221955445 H 0.0 **** 0.06
36076 C 110.13582476779123 144.42073704602865 145.97884669390953 C 0.0 **** -0.24
36077 H 109.3400518129954 144.4993473813773 146.7191881505014 H 0.0 **** 0.06
36078 H 109.84671544916802 144.9599292543726 145.0764680308164 H 0.0 **** 0.06
36079 H 110.3047865350062 143.37138566869478 145.73803916649794 H 0.0 **** 0.06
36080 H 111.05115918417704 144.8532161103719 146.38363856220775 H 0.0 **** 0.06
36081 C 145.72245633494015 81.27838059588163 4.08754076999648 C 0.0 **** -0.24
36082 H 144.979924778971 81.67281527394056 4.780816203456936 H 0.0 **** 0.06
36083 H 145.7428157221542 81.89495065437964 3.1882012506119963 H 0.0 **** 0.06
36084 H 145.46160513473222 80.25415368694564 3.8194445385065237 H 0.0 **** 0.06
36085 H 146.7043142798234 81.29209242024751 4.560151197787398 H 0.0 **** 0.06
36086 C 17.750401499369147 51.45041990572868 77.15231561447393 C 0.0 **** -0.24
36087 H 17.3166481547133 51.6301414115287 76.16829431990277 H 0.0 **** 0.06
36088 H 18.701935406674266 50.93025456601963 77.03880377019165 H 0.0 **** 0.06
36089 H 17.068993763203643 50.837209366348205 77.74305755659599 H 0.0 **** 0.06
36090 H 17.913224336661038 52.40150634995382 77.6569252580535 H 0.0 **** 0.06
36091 C 110.34897506751304 127.6881236365856 48.47319281623345 C 0.0 **** -0.24
36092 H 109.88945673588933 128.66300945516662 48.63246672014742 H 0.0 **** 0.06
36093 H 109.57350558352175 126.95040856605385 48.265818177596884 H 0.0 **** 0.06
36094 H 110.89911518516914 127.39537676844628 49.36761654200859 H 0.0 **** 0.06
36095 H 111.03465300020832 127.74317296915501 47.62705213738502 H 0.0 **** 0.06
36096 C 137.6546755123889 87.76207153230649 140.3513382518073 C 0.0 **** -0.24
36097 H 137.60867499746215 88.12697259371433 139.32507958498235 H 0.0 **** 0.06
36098 H 136.66357548253478 87.43451342677659 140.66520619997408 H 0.0 **** 0.06
36099 H 137.99777807511722 88.56307380823934 141.0060684657119 H 0.0 **** 0.06
36100 H 138.350040389085 86.92439418164972 140.4070789312836 H 0.0 **** 0.06
36101 C 101.05464973931991 25.622635373338397 112.64232878644219 C 0.0 **** -0.24
36102 H 100.08939068408363 25.39260314023955 113.0932697973949 H 0.0 **** 0.06
36103 H 100.89981736751311 26.192938828116446 111.72656595215386 H 0.0 **** 0.06
36104 H 101.57664880618275 24.69424866715483 112.40871415294038 H 0.0 **** 0.06
36105 H 101.65094088532508 26.209091885896107 113.34070495337937 H 0.0 **** 0.06
36106 C 45.49859126492487 104.6863493551595 113.33977104285175 C 0.0 **** -0.24
36107 H 45.373191804396754 104.24072480249583 114.32656099166452 H 0.0 **** 0.06
36108 H 46.463464404389754 105.19129689313093 113.29065395574314 H 0.0 **** 0.06
36109 H 44.70129491920923 105.40787672981816 113.16218600238521 H 0.0 **** 0.06
36110 H 45.45854975046797 103.90553808558786 112.58034421548312 H 0.0 **** 0.06
36111 C 36.56677644584981 0.6076505030280828 6.173260508051783 C 0.0 **** -0.24
36112 H 37.453439026751184 0.4679308488827303 5.554787743778917 H 0.0 **** 0.06
36113 H 36.76427580960669 0.23851215027755757 7.179701043713919 H 0.0 **** 0.06
36114 H 35.732234021380904 0.056205557130169836 5.740011053888281 H 0.0 **** 0.06
36115 H 36.318078446365774 1.6686631791555442 6.216632412009631 H 0.0 **** 0.06
36116 C 40.41742915413995 120.2535715224517 109.26209067501316 C 0.0 **** -0.24
36117 H 40.15812472860675 120.76856331586936 110.18695354577301 H 0.0 **** 0.06
36118 H 41.487126823337135 120.04125530236837 109.25125397357164 H 0.0 **** 0.06
36119 H 40.163287264652524 120.88540227707642 108.41081781608301 H 0.0 **** 0.06
36120 H 39.86054747225597 119.31830671293824 109.19950297036826 H 0.0 **** 0.06
36121 C 58.00391347539629 93.2474248841684 143.163121728813 C 0.0 **** -0.24
36122 H 59.024317306548326 92.96922038847022 143.42616153863992 H 0.0 **** 0.06
36123 H 57.35956273390484 93.13146850305023 144.0347787261564 H 0.0 **** 0.06
36124 H 57.6472127910081 92.60280806651181 142.35892617012865 H 0.0 **** 0.06
36125 H 57.985446164460356 94.28507857157814 142.8316441024357 H 0.0 **** 0.06
36126 C 7.15273077052035 131.51310490514098 10.346423531578736 C 0.0 **** -0.24
36127 H 7.116765621808355 131.0934480121001 11.351233084152739 H 0.0 **** 0.06
36128 H 6.5197877044746235 132.3989261629014 10.299090381422566 H 0.0 **** 0.06
36129 H 6.795887814494051 130.77209460961558 9.630678089408036 H 0.0 **** 0.06
36130 H 8.180149949224585 131.78661380984025 10.10403661895733 H 0.0 **** 0.06
36131 C 41.85725348990208 55.09329682661709 137.6970498364848 C 0.0 **** -0.24
36132 H 41.03780762197384 54.851731155347125 138.3726156040296 H 0.0 **** 0.06
36133 H 41.832125173811534 56.15740675777249 137.4598593442231 H 0.0 **** 0.06
36134 H 41.754893896458555 54.51366382690327 136.77966400239035 H 0.0 **** 0.06
36135 H 42.80629818843475 54.85002924031414 138.17541447992153 H 0.0 **** 0.06
36136 C 52.60019497871559 47.58202669581475 19.539507365063656 C 0.0 **** -0.24
36137 H 52.69640771830149 46.52465984199897 19.78708186221357 H 0.0 **** 0.06
36138 H 51.54599595892233 47.830467179867526 19.412407169299904 H 0.0 **** 0.06
36139 H 53.136761711083125 47.787358779917284 18.61303040446613 H 0.0 **** 0.06
36140 H 53.021417566419785 48.183513980315894 20.344787587033494 H 0.0 **** 0.06
36141 C 34.32981545231118 45.0297326999804 59.23442120206131 C 0.0 **** -0.24
36142 H 34.74065128534758 45.43042520991514 60.16098749442433 H 0.0 **** 0.06
36143 H 35.10174640006684 45.03255056189232 58.464263833245056 H 0.0 **** 0.06
36144 H 33.49276339918239 45.6481548038995 58.91174705665978 H 0.0 **** 0.06
36145 H 33.985417782208906 44.00959323379959 59.400461393345495 H 0.0 **** 0.06
36146 C 27.4050789949124 105.85081470958802 118.77276789963332 C 0.0 **** -0.24
36147 H 27.88268861649499 105.4123064703894 119.64905737834471 H 0.0 **** 0.06
36148 H 26.78059433476426 106.68939323181364 119.08235580779979 H 0.0 **** 0.06
36149 H 26.787419199437636 105.0990597108238 118.28142640083695 H 0.0 **** 0.06
36150 H 28.169206347861916 106.202646188689 118.08018458674223 H 0.0 **** 0.06
36151 C 82.24579891706536 5.109751649539703 136.34884270572226 C 0.0 **** -0.24
36152 H 81.45886370239877 5.5867779416925885 136.9329621736362 H 0.0 **** 0.06
36153 H 82.6388248861029 4.254750386308359 136.90052300754314 H 0.0 **** 0.06
36154 H 83.04852286658542 5.825186093860168 136.16754041746108 H 0.0 **** 0.06
36155 H 81.83811848040104 4.771599675782397 135.39640291134663 H 0.0 **** 0.06
36156 C 45.984550621457515 57.97667854632137 72.40049176566932 C 0.0 **** -0.24
36157 H 46.85642511621808 57.47122119627964 71.98587822755826 H 0.0 **** 0.06
36158 H 45.31407385605783 58.265843884967765 71.59118033840295 H 0.0 **** 0.06
36159 H 46.305379282207696 58.867036444807184 72.94263335455406 H 0.0 **** 0.06
36160 H 45.464077283848155 57.30394265511511 73.08187754862226 H 0.0 **** 0.06
36161 C 19.10388628446963 132.81144000168527 59.45044045037584 C 0.0 **** -0.24
36162 H 19.09276214482859 131.73598981571385 59.27260954799489 H 0.0 **** 0.06
36163 H 20.133787862749493 133.15022534851852 59.56591738252587 H 0.0 **** 0.06
36164 H 18.543467102151432 133.0353793145174 60.35835631059646 H 0.0 **** 0.06
36165 H 18.64508856967865 133.32455207404433 58.60568941854328 H 0.0 **** 0.06
36166 C 49.541469422128856 119.58373688773997 11.669217037615113 C 0.0 **** -0.24
36167 H 49.09322294666909 119.99026982342014 12.576054263920057 H 0.0 **** 0.06
36168 H 48.780874502754685 119.50454525971782 10.89253645803528 H 0.0 **** 0.06
36169 H 49.95173369990654 118.59623447523006 11.879832493104551 H 0.0 **** 0.06
36170 H 50.34006282604105 120.24416741355543 11.331898562143408 H 0.0 **** 0.06
36171 C 45.56624914298183 140.37148484619271 67.94885475918596 C 0.0 **** -0.24
36172 H 44.62561874224578 140.00830360343818 67.53660064145583 H 0.0 **** 0.06
36173 H 46.35622342488119 139.64827472426586 67.74161700294462 H 0.0 **** 0.06
36174 H 45.465628845380934 140.50030105253515 69.02643473536966 H 0.0 **** 0.06
36175 H 45.81935825108869 141.32763277600625 67.48998918975263 H 0.0 **** 0.06
36176 C 91.0111148357727 62.203731749780715 54.24129189056799 C 0.0 **** -0.24
36177 H 90.91170156700754 63.21527538501812 53.847051911681675 H 0.0 **** 0.06
36178 H 90.45834202123264 61.510335951445526 53.60814646889142 H 0.0 **** 0.06
36179 H 90.61252188952594 62.1690491667223 55.255281761160475 H 0.0 **** 0.06
36180 H 92.06482240493555 61.922523743521 54.25526095762423 H 0.0 **** 0.06
36181 C 39.64744732870224 28.079066997093662 12.791283471658971 C 0.0 **** -0.24
36182 H 39.379057446514025 29.03393150854717 13.243413221652617 H 0.0 **** 0.06
36183 H 40.02589412495536 28.24888532385387 11.783479712382729 H 0.0 **** 0.06
36184 H 38.76652407219393 27.438969493983024 12.746005840238922 H 0.0 **** 0.06
36185 H 40.417099999739605 27.59574981422446 13.393193716465902 H 0.0 **** 0.06
36186 C 42.003684601475015 92.30095157491019 127.10254938338973 C 0.0 **** -0.24
36187 H 41.831993149805044 91.79775257542741 128.05446613772602 H 0.0 **** 0.06
36188 H 41.061416068012306 92.38315511195678 126.55959054177858 H 0.0 **** 0.06
36189 H 42.71511086461953 91.72599048643694 126.5105974784408 H 0.0 **** 0.06
36190 H 42.40502148317853 93.29755539372837 127.28661515695156 H 0.0 **** 0.06
36191 C 62.54533824910774 78.45866839807087 31.29124358044683 C 0.0 **** -0.24
36192 H 63.28959811227571 77.9025590691042 31.86221063429673 H 0.0 **** 0.06
36193 H 62.56554784402147 78.130605449516 30.25161625791796 H 0.0 **** 0.06
36194 H 62.770000198349464 79.52384892974663 31.341593345069697 H 0.0 **** 0.06
36195 H 61.55581494135353 78.27558033636677 31.71027587211485 H 0.0 **** 0.06
36196 C 33.033954697836464 62.331297752691 77.59672114339526 C 0.0 **** -0.24
36197 H 33.441185910853676 61.36173614607037 77.31198325675645 H 0.0 **** 0.06
36198 H 32.612992937127785 62.81956634284063 76.7179676843051 H 0.0 **** 0.06
36199 H 33.82757644042306 62.95109748976887 78.01294399025261 H 0.0 **** 0.06
36200 H 32.25246263067663 62.19093739263326 78.34395190532358 H 0.0 **** 0.06
36201 C 133.5179730248705 51.39473247634362 73.58796486297759 C 0.0 **** -0.24
36202 H 133.38760737807263 50.33823764751375 73.82234734134558 H 0.0 **** 0.06
36203 H 133.87853294598253 51.92085886389813 74.47120729883996 H 0.0 **** 0.06
36204 H 132.56267258121926 51.81707472454025 73.27721296761369 H 0.0 **** 0.06
36205 H 134.24197716511554 51.50003689523413 72.77991804572754 H 0.0 **** 0.06
36206 C 106.47560299035472 33.421956589475286 5.805173404019655 C 0.0 **** -0.24
36207 H 106.98418222401365 34.12508395739465 6.465663962059466 H 0.0 **** 0.06
36208 H 107.0912441907508 33.24202462409346 4.923910067424686 H 0.0 **** 0.06
36209 H 105.51601154638526 33.84106781003351 5.500296774195505 H 0.0 **** 0.06
36210 H 106.31074528943749 32.482616472725 6.333091730016264 H 0.0 **** 0.06
36211 C 64.63256830622079 147.0860998632676 135.4206128649229 C 0.0 **** -0.24
36212 H 65.60160621107534 146.60582219553706 135.55687576273485 H 0.0 **** 0.06
36213 H 64.55913605633407 147.474739701657 134.40449452600046 H 0.0 **** 0.06
36214 H 64.5308021781478 147.90642990289675 136.13180832659006 H 0.0 **** 0.06
36215 H 63.83915418779978 146.35819485686272 135.58971935329856 H 0.0 **** 0.06
36216 C 16.024846306222855 93.72807492878941 42.92205859366467 C 0.0 **** -0.24
36217 H 16.557824614650798 94.67779789604661 42.94459808516103 H 0.0 **** 0.06
36218 H 15.223691328122868 93.77914494581847 42.18384299617557 H 0.0 **** 0.06
36219 H 15.59997366117463 93.52661885747693 43.905598307790626 H 0.0 **** 0.06
36220 H 16.71619735990771 92.92840257884536 42.65413591656073 H 0.0 **** 0.06
36221 C 72.28546701356684 105.79350332874378 44.876593696862685 C 0.0 **** -0.24
36222 H 71.61610942811656 105.32032519652768 45.594909465139665 H 0.0 **** 0.06
36223 H 71.70890513408665 106.44417009146753 44.21816232321045 H 0.0 **** 0.06
36224 H 72.78306571956014 105.02649954487157 44.284028629065645 H 0.0 **** 0.06
36225 H 73.0308009128726 106.38329894472201 45.409256957040924 H 0.0 **** 0.06
36226 C 72.70756845315447 96.79187842396767 112.06916560895722 C 0.0 **** -0.24
36227 H 73.16050957625986 95.80130960362175 112.11363391908448 H 0.0 **** 0.06
36228 H 72.94907432928616 97.25825727138891 111.11317114898976 H 0.0 **** 0.06
36229 H 73.0964824890003 97.40543031608921 112.88150457942616 H 0.0 **** 0.06
36230 H 71.62617862877886 96.70105475031018 112.16662713042716 H 0.0 **** 0.06
36231 C 18.02303136536858 105.48950778304477 113.47278771510867 C 0.0 **** -0.24
36232 H 17.326917360604888 104.66031266766107 113.34625935633102 H 0.0 **** 0.06
36233 H 18.623462619603288 105.32514028179058 114.3674012053392 H 0.0 **** 0.06
36234 H 17.465162783279354 106.42009243106715 113.5745497484171 H 0.0 **** 0.06
36235 H 18.67578337866805 105.55068555190498 112.60188199840468 H 0.0 **** 0.06
36236 C 48.536806386349554 95.53756729441841 109.74631267037817 C 0.0 **** -0.24
36237 H 49.5667529386284 95.88554348551997 109.82430200492782 H 0.0 **** 0.06
36238 H 48.40667505397349 94.64920279655104 110.36456588291203 H 0.0 **** 0.06
36239 H 48.31326351577658 95.29313302736887 108.70779394176388 H 0.0 **** 0.06
36240 H 47.86207983020094 96.32166952910745 110.08889172586451 H 0.0 **** 0.06
36241 C 110.43324296120404 56.28166518302501 133.36802215509 C 0.0 **** -0.24
36242 H 111.40763484228516 55.9683740578635 133.74304856534587 H 0.0 **** 0.06
36243 H 110.54776768059484 56.70201223707262 132.36805307188632 H 0.0 **** 0.06
36244 H 110.01426258428957 57.035741132251346 134.03411266656056 H 0.0 **** 0.06
36245 H 109.76573269372905 55.42083329068301 133.327032243517 H 0.0 **** 0.06
36246 C 23.58526663261101 103.80798621514862 116.49684132636395 C 0.0 **** -0.24
36247 H 23.39432532835105 104.39981004727008 115.60162758553912 H 0.0 **** 0.06
36248 H 22.841892953730188 104.04844743678376 117.25729360324078 H 0.0 **** 0.06
36249 H 24.58088612578903 104.0352651143134 116.87689365631468 H 0.0 **** 0.06
36250 H 23.523924549334907 102.74757942955563 116.25101356755164 H 0.0 **** 0.06
36251 C 53.336720012870956 98.29697778590868 150.1221961856646 C 0.0 **** -0.24
36252 H 53.39368660464305 97.25930229873981 150.45286687187024 H 0.0 **** 0.06
36253 H 54.334123517406965 98.73635235963835 150.1341920636989 H 0.0 **** 0.06
36254 H 52.68501170426981 98.8557756466348 150.79373315200212 H 0.0 **** 0.06
36255 H 52.93529935328138 98.33409847652146 149.11039772784352 H 0.0 **** 0.06
36256 C 16.331653763615876 17.42818355312528 68.67249239966901 C 0.0 **** -0.24
36257 H 15.404707479178825 16.89476342724798 68.88302084360062 H 0.0 **** 0.06
36258 H 16.101197372476427 18.389782372352407 68.21352154591243 H 0.0 **** 0.06
36259 H 16.943186195176487 16.837419121679247 67.98969727815992 H 0.0 **** 0.06
36260 H 16.878008754929077 17.589590621724824 69.60163805300142 H 0.0 **** 0.06
36261 C 88.58415805333345 97.70420215304655 146.14270087131212 C 0.0 **** -0.24
36262 H 87.74552327591277 97.82449827930888 146.82713433205973 H 0.0 **** 0.06
36263 H 88.40752636116366 96.84313878773679 145.49803366934205 H 0.0 **** 0.06
36264 H 89.49958496581701 97.54927202636833 146.7136701279265 H 0.0 **** 0.06
36265 H 88.68545377881281 98.60164560417114 145.53105378872593 H 0.0 **** 0.06
36266 C 146.78309891034934 13.955695170025592 0.5653808954684436 C 0.0 **** -0.24
36267 H 147.76066552261986 13.474153002908906 0.607014636321626 H 0.0 **** 0.06
36268 H 146.49352974941564 14.102094531350645 -0.4748405109722498 H 0.0 **** 0.06
36269 H 146.8330057557545 14.921260508782211 1.0682253446146497 H 0.0 **** 0.06
36270 H 146.04590935287 13.324344287914897 1.063028705934233 H 0.0 **** 0.06
36271 C 148.09034666557298 34.712733049531785 145.19676796934752 C 0.0 **** -0.24
36272 H 147.42904379435717 35.14267562377122 145.94820427735513 H 0.0 **** 0.06
36273 H 148.82270294623427 35.45880756555399 144.88768419604656 H 0.0 **** 0.06
36274 H 147.5034439951422 34.40037885061332 144.33277734794956 H 0.0 **** 0.06
36275 H 148.605419027298 33.84994188042966 145.6176081882723 H 0.0 **** 0.06
36276 C 15.209558428121227 98.61667087016806 57.05658677118468 C 0.0 **** -0.24
36277 H 14.707779267033942 98.50155121313293 58.018644924379245 H 0.0 **** 0.06
36278 H 16.129625325808604 99.18455825844427 57.19331085978648 H 0.0 **** 0.06
36279 H 14.552596498838994 99.14746490440147 56.367320931040936 H 0.0 **** 0.06
36280 H 15.44600490857789 97.63310832859472 56.65007665516944 H 0.0 **** 0.06
36281 C 48.9824074436696 155.1391791951601 121.61621666894983 C 0.0 **** -0.24
36282 H 49.8645292377106 154.55200365420993 121.8734125611209 H 0.0 **** 0.06
36283 H 48.955879123987415 155.29877746838054 120.53812236776851 H 0.0 **** 0.06
36284 H 49.02433028845954 156.10116551991692 122.12650427390001 H 0.0 **** 0.06
36285 H 48.086240783985346 154.60147078255966 121.92736885575455 H 0.0 **** 0.06
36286 C 10.857103734142328 106.27147090196156 24.178313005408654 C 0.0 **** -0.24
36287 H 11.76027759478336 106.49003626625598 23.607938695469613 H 0.0 **** 0.06
36288 H 9.986572685244653 106.36459709607816 23.52879943011976 H 0.0 **** 0.06
36289 H 10.771328534694817 106.97561543439413 25.005723274462923 H 0.0 **** 0.06
36290 H 10.911754845153439 105.25596856034899 24.569532757851164 H 0.0 **** 0.06
36291 C 78.80535652537677 151.37276583065952 5.893705957314097 C 0.0 **** -0.24
36292 H 79.03306715305537 152.3969941749629 6.188636173791934 H 0.0 **** 0.06
36293 H 78.27947617817141 151.37758801380366 4.939550182961732 H 0.0 **** 0.06
36294 H 78.17678048376818 150.90782734930872 6.654339309240946 H 0.0 **** 0.06
36295 H 79.73338071333242 150.80840040746668 5.7958055669464486 H 0.0 **** 0.06
36296 C 144.4101035777709 43.16885718619258 103.52290184658047 C 0.0 **** -0.24
36297 H 144.3017485649661 42.16727054657866 103.10599887720385 H 0.0 **** 0.06
36298 H 144.34593020456109 43.11781853831138 104.6105913981768 H 0.0 **** 0.06
36299 H 143.61606813604493 43.81032011497524 103.14080801673519 H 0.0 **** 0.06
36300 H 145.37831709583298 43.57822931962937 103.23448077527634 H 0.0 **** 0.06
36301 C 126.54578378042847 103.74752337509426 64.06195308565866 C 0.0 **** -0.24
36302 H 125.9695474869212 102.91164637902943 64.45750462867724 H 0.0 **** 0.06
36303 H 127.18127276450046 103.3980143314684 63.24758223252509 H 0.0 **** 0.06
36304 H 127.16751889885235 104.16842366774137 64.85281912509824 H 0.0 **** 0.06
36305 H 125.86566567194949 104.51404628952633 63.68960019819906 H 0.0 **** 0.06
36306 C 3.3062377590412417 50.085442900251735 136.95635732088545 C 0.0 **** -0.24
36307 H 3.2077956019488134 49.96088357517988 135.8776623641638 H 0.0 **** 0.06
36308 H 4.284884845946912 49.725829390919785 137.27534274022068 H 0.0 **** 0.06
36309 H 2.5271016212796766 49.5138857170208 137.46087485439352 H 0.0 **** 0.06
36310 H 3.205703583806301 51.14001314148129 137.21037919605328 H 0.0 **** 0.06
36311 C 10.222884442833333 75.93646116698861 45.42954411702334 C 0.0 **** -0.24
36312 H 10.875887153608915 76.81006283671053 45.44552254812794 H 0.0 **** 0.06
36313 H 10.483791992038391 75.27358758522757 46.254359566944174 H 0.0 **** 0.06
36314 H 10.347300287518578 75.40780187512337 44.48476281719016 H 0.0 **** 0.06
36315 H 9.186523436932873 76.25640027643814 45.533204484517086 H 0.0 **** 0.06
36316 C 149.11535587704034 14.512054896152307 28.128500260992922 C 0.0 **** -0.24
36317 H 148.40341415934415 14.024186812147462 27.462379843767344 H 0.0 **** 0.06
36318 H 148.88645397044544 14.247419480333718 29.161266795728665 H 0.0 **** 0.06
36319 H 149.04396449039743 15.592895038601569 28.005550929653687 H 0.0 **** 0.06
36320 H 150.12536406409492 14.183521040371915 27.884753224145726 H 0.0 **** 0.06
36321 C 149.99279856274296 51.91455220320607 131.81352830307566 C 0.0 **** -0.24
36322 H 150.1805834985899 52.15536621467635 132.8600406593801 H 0.0 **** 0.06
36323 H 150.72766265325745 51.18462823058428 131.4717250206076 H 0.0 **** 0.06
36324 H 150.0731047280692 52.819877039094834 131.21240393162083 H 0.0 **** 0.06
36325 H 148.99126425801506 51.4974059628518 131.7113974923965 H 0.0 **** 0.06
36326 C 101.47726897419227 44.403934774905736 122.80354798644719 C 0.0 **** -0.24
36327 H 100.51241736756884 43.90486961938683 122.8907718528862 H 0.0 **** 0.06
36328 H 102.19161787028827 43.73070764220648 122.32877690405776 H 0.0 **** 0.06
36329 H 101.83667925065413 44.674536692040135 123.79639214739917 H 0.0 **** 0.06
36330 H 101.36760282579769 45.30357565730725 122.19872465683913 H 0.0 **** 0.06
36331 C 109.03497171165316 23.864489784041126 148.64316930406173 C 0.0 **** -0.24
36332 H 108.43707356151242 24.273822731301976 149.45767162003273 H 0.0 **** 0.06
36333 H 108.98711635403117 24.536709549774258 147.78605429101233 H 0.0 **** 0.06
36334 H 108.64454816040688 22.886583091475018 148.36178768418955 H 0.0 **** 0.06
36335 H 110.07048793682577 23.763063153142298 148.9679622473686 H 0.0 **** 0.06
36336 C 46.76116090704079 53.18988693391805 6.072660430224573 C 0.0 **** -0.24
36337 H 46.60627184921128 54.01120182974748 5.3724648031519 H 0.0 **** 0.06
36338 H 47.79233484186025 52.84361936761104 6.003989079923599 H 0.0 **** 0.06
36339 H 46.08553921775166 52.3700499262909 5.825459424670811 H 0.0 **** 0.06
36340 H 46.55835645972439 53.53370315511748 7.086866241876663 H 0.0 **** 0.06
36341 C 135.44659857540046 6.32427328547621 155.4175553235609 C 0.0 **** -0.24
36342 H 135.05569281251488 5.5174409503511015 154.79819846731283 H 0.0 **** 0.06
36343 H 136.4840708417358 6.111624726487435 155.67824787129373 H 0.0 **** 0.06
36344 H 134.85178250057035 6.405364503317031 156.3270066430097 H 0.0 **** 0.06
36345 H 135.3958215605606 7.263454738915755 154.86491744329635 H 0.0 **** 0.06
36346 C 64.97334829546017 60.80649577989472 128.7737931248551 C 0.0 **** -0.24
36347 H 64.01257823154408 61.14080860024622 129.16515036616386 H 0.0 **** 0.06
36348 H 65.77803550182757 61.3287472751973 129.29081974872037 H 0.0 **** 0.06
36349 H 65.02522170373663 61.023065487276256 127.70696869244614 H 0.0 **** 0.06
36350 H 65.07650925357413 59.732536547414185 128.9317649056116 H 0.0 **** 0.06
36351 C 108.92232493554594 139.15253913808073 143.41648724688994 C 0.0 **** -0.24
36352 H 109.4116186612962 140.05598073704158 143.054447812253 H 0.0 **** 0.06
36353 H 108.45531539125967 138.6320069661572 142.58040052035128 H 0.0 **** 0.06
36354 H 108.16079342878963 139.42113283252857 144.1496836141451 H 0.0 **** 0.06
36355 H 109.66206870273878 138.50107946873885 143.8827405673308 H 0.0 **** 0.06
36356 C 52.53787055661354 83.8533519976678 136.9370213358421 C 0.0 **** -0.24
36357 H 51.63319409520355 84.46169854315849 136.94122444950182 H 0.0 **** 0.06
36358 H 53.409587714453636 84.49984901914011 136.83540208858503 H 0.0 **** 0.06
36359 H 52.50165004352186 83.15606881853171 136.09981172980136 H 0.0 **** 0.06
36360 H 52.604602317505964 83.29586322558762 137.87160136515166 H 0.0 **** 0.06
36361 C 44.73599589528686 111.50600883077506 38.54404691703638 C 0.0 **** -0.24
36362 H 44.10947784184839 111.4030160277181 39.43007811567031 H 0.0 **** 0.06
36363 H 44.91971308568965 110.5215803902005 38.11333434588417 H 0.0 **** 0.06
36364 H 45.68573979590742 111.9641821360142 38.8216481523485 H 0.0 **** 0.06
36365 H 44.22979594676124 112.13501857094015 37.81230652249303 H 0.0 **** 0.06
36366 C 123.44616471752384 86.03604421363525 97.55972971178105 C 0.0 **** -0.24
36367 H 123.98300496581321 86.52847343911013 96.74968117222602 H 0.0 **** 0.06
36368 H 122.41523236396854 85.85256980209822 97.25360822955568 H 0.0 **** 0.06
36369 H 123.45469298687381 86.67440914196354 98.44282095065499 H 0.0 **** 0.06
36370 H 123.93048040037193 85.08730654893341 97.7921514253734 H 0.0 **** 0.06
36371 C 89.5652425581401 37.727718282525956 58.76246779309065 C 0.0 **** -0.24
36372 H 90.55146611231518 37.264780928663015 58.784934602252065 H 0.0 **** 0.06
36373 H 89.66823278261313 38.808623425669566 58.86680289314279 H 0.0 **** 0.06
36374 H 88.96377685085767 37.33838892803314 59.584734399477156 H 0.0 **** 0.06
36375 H 89.07726637590956 37.49797133449451 57.8155716860893 H 0.0 **** 0.06
36376 C 23.836545229090973 37.22289937117523 110.55445774732107 C 0.0 **** -0.24
36377 H 22.994433499781962 37.75555265873311 110.11338410335713 H 0.0 **** 0.06
36378 H 23.536947162821377 36.201780096208324 110.79131025497634 H 0.0 **** 0.06
36379 H 24.149292271287322 37.73077687036641 111.46654019402587 H 0.0 **** 0.06
36380 H 24.665507982473116 37.20348785939291 109.84659643692481 H 0.0 **** 0.06
36381 C 25.94866425620097 122.02638166919333 20.85765954792282 C 0.0 **** -0.24
36382 H 25.657622548022175 122.5231755938185 21.78275530831297 H 0.0 **** 0.06
36383 H 26.600532059668353 121.18271533336237 21.08780776706425 H 0.0 **** 0.06
36384 H 26.47882175681781 122.73213492395315 20.21722760131118 H 0.0 **** 0.06
36385 H 25.057680660295517 121.66750082563941 20.342847515002944 H 0.0 **** 0.06
36386 C 122.24047403925111 124.3755893572948 108.52795333163516 C 0.0 **** -0.24
36387 H 121.48159587610401 123.75321840699168 109.00119425904421 H 0.0 **** 0.06
36388 H 122.50439427974918 125.19664956349838 109.19575792084072 H 0.0 **** 0.06
36389 H 121.84984035476127 124.77942817455822 107.59368344581384 H 0.0 **** 0.06
36390 H 123.12665740251695 123.77483760461566 108.3224002690281 H 0.0 **** 0.06
36391 C 51.53870128826793 69.14145997334857 26.925843397775537 C 0.0 **** -0.24
36392 H 52.26713989095278 69.90884615250388 27.187574790905302 H 0.0 **** 0.06
36393 H 50.81428426152861 69.55465361623128 26.222551337619393 H 0.0 **** 0.06
36394 H 51.022504046250006 68.8088088472953 27.825934104294618 H 0.0 **** 0.06
36395 H 52.0512242624239 68.29629419584364 26.46619713629954 H 0.0 **** 0.06
36396 C 33.16333804870155 152.99036886246324 24.37307527038871 C 0.0 **** -0.24
36397 H 32.35842841731677 152.32873399414126 24.049984694752425 H 0.0 **** 0.06
36398 H 33.368901230448174 152.82204511108347 25.430014034598514 H 0.0 **** 0.06
36399 H 32.863363096529454 154.02758001632742 24.22123408460277 H 0.0 **** 0.06
36400 H 34.060537577322975 152.7824557562057 23.790820353450727 H 0.0 **** 0.06
36401 C 139.29759412280458 101.1005641423143 155.4113826589353 C 0.0 **** -0.24
36402 H 138.9126978235288 100.97622925774012 154.3996117759098 H 0.0 **** 0.06
36403 H 139.17087409295897 100.16906404392726 155.96537756422336 H 0.0 **** 0.06
36404 H 138.75069342158673 101.89907611858472 155.91327501253863 H 0.0 **** 0.06
36405 H 140.3560545601411 101.3561792217558 155.3687084843351 H 0.0 **** 0.06
36406 C 71.76528339521539 149.59241541337707 95.40465692773336 C 0.0 **** -0.24
36407 H 72.79595330069768 149.93255747853277 95.30362923270309 H 0.0 **** 0.06
36408 H 71.44514930760252 149.12501082455293 94.47382624255943 H 0.0 **** 0.06
36409 H 71.12244869043408 150.4444190023401 95.6258312855781 H 0.0 **** 0.06
36410 H 71.70020923811502 148.8682554557378 96.21666824398551 H 0.0 **** 0.06
36411 C 147.24966758020733 60.30327005842787 38.36572508091885 C 0.0 **** -0.24
36412 H 146.20822084771885 59.98110235184549 38.379229118380565 H 0.0 **** 0.06
36413 H 147.60836447928614 60.41115424329715 39.38946880690595 H 0.0 **** 0.06
36414 H 147.32634351973715 61.2595342240208 37.849989433106046 H 0.0 **** 0.06
36415 H 147.85302139618938 59.55973233067678 37.84529787269571 H 0.0 **** 0.06
36416 C 59.96310392296627 80.319368374102 28.426940052622115 C 0.0 **** -0.24
36417 H 60.67103467441228 81.02125286460782 27.988100869773007 H 0.0 **** 0.06
36418 H 59.74569560801092 79.52745315326757 27.710383306477127 H 0.0 **** 0.06
36419 H 59.0414194044549 80.84370595760745 28.679464152723597 H 0.0 **** 0.06
36420 H 60.393058110744334 79.88497004818777 29.32908202581882 H 0.0 **** 0.06
36421 C 75.66910371841331 52.14746346834181 129.79679730789226 C 0.0 **** -0.24
36422 H 76.63830281894107 52.56657296049471 130.0657191974576 H 0.0 **** 0.06
36423 H 74.95473015507444 52.956320410684214 129.63595388619302 H 0.0 **** 0.06
36424 H 75.3148415549113 51.50530686433143 130.6034985560649 H 0.0 **** 0.06
36425 H 75.76720261448165 51.562039718242374 128.88226555319605 H 0.0 **** 0.06
36426 C 140.03545229567968 77.7770613887688 85.57030789049769 C 0.0 **** -0.24
36427 H 140.09376186272368 78.12688223453301 84.53898151933609 H 0.0 **** 0.06
36428 H 139.46361710326823 78.49143605207252 86.16265240795144 H 0.0 **** 0.06
36429 H 141.04140060365492 77.68626202643057 85.9804348923069 H 0.0 **** 0.06
36430 H 139.5428808118808 76.80605223662553 85.59646449515085 H 0.0 **** 0.06
36431 C 13.351513388463744 89.04096635376062 142.56317453463072 C 0.0 **** -0.24
36432 H 13.021260661325712 89.39079172986769 143.5413590875749 H 0.0 **** 0.06
36433 H 12.810657334061531 88.13093207636219 142.30183942000775 H 0.0 **** 0.06
36434 H 14.420953840031324 88.832168984572 142.59451869006074 H 0.0 **** 0.06
36435 H 13.152897737495891 89.80899047114887 141.81595807711818 H 0.0 **** 0.06
36436 C 86.26061138591533 125.84850459045258 63.692128827804524 C 0.0 **** -0.24
36437 H 86.1577996979384 124.8857338061785 63.19099525070445 H 0.0 **** 0.06
36438 H 87.2271483676056 125.89382256616945 64.19406230731464 H 0.0 **** 0.06
36439 H 85.4630655906185 125.96217902242957 64.42672634775506 H 0.0 **** 0.06
36440 H 86.19420993064571 126.65003595203693 62.95578174547194 H 0.0 **** 0.06
36441 C 5.7818866890260665 103.88915361115123 33.208517842829906 C 0.0 **** -0.24
36442 H 6.158736670629182 103.43216994061935 32.29299301100754 H 0.0 **** 0.06
36443 H 6.6206827515907705 104.21445519000424 33.82353955352261 H 0.0 **** 0.06
36444 H 5.1869532173271224 103.16107062950765 33.75890404404817 H 0.0 **** 0.06
36445 H 5.160978055112061 104.74846486494685 32.95551131380732 H 0.0 **** 0.06
36446 C 136.53266512735613 117.6273215501434 58.495078274543346 C 0.0 **** -0.24
36447 H 136.79820174782608 118.51283146572656 59.073273043757894 H 0.0 **** 0.06
36448 H 135.65449051994233 117.15561624962127 58.93604101764309 H 0.0 **** 0.06
36449 H 137.3667002590528 116.92532512170196 58.5022264502588 H 0.0 **** 0.06
36450 H 136.31118657124802 117.91841768957342 57.4680252209168 H 0.0 **** 0.06
36451 C 133.95007418433562 143.0394949666066 39.55940276553724 C 0.0 **** -0.24
36452 H 134.36525825231098 144.01960267354724 39.79365633711717 H 0.0 **** 0.06
36453 H 134.42991635193312 142.64793455941796 38.66174600842754 H 0.0 **** 0.06
36454 H 132.8776652299834 143.13039436116676 39.388020174448144 H 0.0 **** 0.06
36455 H 134.12964773480078 142.360693923107 40.39330333774416 H 0.0 **** 0.06
36456 C 108.53429392512528 24.945340105366682 14.462110150237237 C 0.0 **** -0.24
36457 H 108.7560000577541 24.028809603862214 15.009721264806046 H 0.0 **** 0.06
36458 H 109.00343116375673 25.79075234792657 14.965554355598954 H 0.0 **** 0.06
36459 H 107.45473589889023 25.094738718059688 14.428004131917618 H 0.0 **** 0.06
36460 H 108.92312448728698 24.864504495954577 13.447891725722002 H 0.0 **** 0.06
36461 C 100.95586163009988 154.7804918536267 103.22948412178482 C 0.0 **** -0.24
36462 H 101.50305124482664 153.84778183936413 103.36922764265887 H 0.0 **** 0.06
36463 H 99.88650621134762 154.59061490786854 103.32133945355736 H 0.0 **** 0.06
36464 H 101.17144449462627 155.18310352345486 102.23980208144553 H 0.0 **** 0.06
36465 H 101.26470796876767 155.49897086679056 103.98919165696333 H 0.0 **** 0.06
36466 C 81.74342715680046 0.09529091455459593 146.62701279370975 C 0.0 **** -0.24
36467 H 81.46591883557133 0.12685848355994267 147.68056122024478 H 0.0 **** 0.06
36468 H 80.84219127212782 0.03564260517873663 146.01528352998372 H 0.0 **** 0.06
36469 H 82.36658362439978 -0.7795765535740884 146.44190850631747 H 0.0 **** 0.06
36470 H 82.29834045311208 0.9972068343556657 146.36960540609545 H 0.0 **** 0.06
36471 C 78.72327308692824 46.2122725937752 60.00503978972169 C 0.0 **** -0.24
36472 H 78.14438525362783 46.34690142767187 59.09170874236516 H 0.0 **** 0.06
36473 H 78.93581940803264 47.18680975485779 60.447133814952934 H 0.0 **** 0.06
36474 H 79.66116933700997 45.70773534841362 59.77012596474731 H 0.0 **** 0.06
36475 H 78.15363250955636 45.60917138333332 60.71113763783808 H 0.0 **** 0.06
36476 C 33.295269242946006 82.19312785645708 108.06715472006043 C 0.0 **** -0.24
36477 H 32.496647966824355 82.19935215970557 108.80848862858794 H 0.0 **** 0.06
36478 H 34.19695710545545 81.76690005958383 108.5074518358317 H 0.0 **** 0.06
36479 H 33.497272386444536 83.21371514817957 107.74223322645788 H 0.0 **** 0.06
36480 H 32.990722509615296 81.59210505641379 107.20971458383143 H 0.0 **** 0.06
36481 C 29.14264141480851 111.14974770419519 19.279701044310116 C 0.0 **** -0.24
36482 H 29.25565475903926 110.4054887479856 18.492195348636642 H 0.0 **** 0.06
36483 H 28.42197361231024 110.79419594895364 20.016089893410424 H 0.0 **** 0.06
36484 H 28.789587438299804 112.0854376835328 18.84743169764107 H 0.0 **** 0.06
36485 H 30.10624918783259 111.31397687106869 19.763850370944454 H 0.0 **** 0.06
36486 C 9.691488245040688 43.85307377172228 28.697823947651855 C 0.0 **** -0.24
36487 H 9.801266828393437 42.87801737045038 29.171657591543067 H 0.0 **** 0.06
36488 H 9.855355064726552 43.754389587871515 27.62432788475526 H 0.0 **** 0.06
36489 H 10.42398475225599 44.54334930041756 29.115080704308717 H 0.0 **** 0.06
36490 H 8.686741575776978 44.234475267155005 28.87855769147761 H 0.0 **** 0.06
36491 C 147.44651493730214 45.88528119093161 13.39303544940256 C 0.0 **** -0.24
36492 H 147.47198764050125 45.90950583323391 14.482398554218634 H 0.0 **** 0.06
36493 H 146.8871333951343 46.745416016696225 13.023055595340338 H 0.0 **** 0.06
36494 H 146.96371532470354 44.967169858908406 13.060883782124392 H 0.0 **** 0.06
36495 H 148.46544000113067 45.92104573686345 13.005993692943719 H 0.0 **** 0.06
36496 C 6.658439646948317 17.302603276045318 23.988097277632782 C 0.0 **** -0.24
36497 H 6.035792403723981 17.44416018613589 23.104269948313515 H 0.0 **** 0.06
36498 H 7.236963907337213 18.208365201882202 24.172297481049448 H 0.0 **** 0.06
36499 H 7.336194704251902 16.46518370731974 23.824124109011336 H 0.0 **** 0.06
36500 H 6.024750464186184 17.094877669870698 24.84963063497147 H 0.0 **** 0.06
36501 C 100.73441627616393 11.954161311709946 74.47681342113793 C 0.0 **** -0.24
36502 H 101.38023723470855 12.27845468288217 73.66127326534045 H 0.0 **** 0.06
36503 H 100.15490165898899 12.802654725018634 74.83985252368826 H 0.0 **** 0.06
36504 H 101.3447856859512 11.556459927293808 75.28710376230178 H 0.0 **** 0.06
36505 H 100.05710924326792 11.178432025482167 74.11793465670739 H 0.0 **** 0.06
36506 C 102.75452168789364 113.84529227036036 155.57753457530677 C 0.0 **** -0.24
36507 H 102.28425590854117 113.54638802008485 156.5144476040517 H 0.0 **** 0.06
36508 H 103.75014829055034 114.23954978272444 155.78029883266072 H 0.0 **** 0.06
36509 H 102.14963070761333 114.61507544611867 155.09803124425346 H 0.0 **** 0.06
36510 H 102.83219376244601 112.98107232502731 154.91820188949694 H 0.0 **** 0.06
36511 C 135.48069307236372 7.663518755127484 86.19202096777056 C 0.0 **** -0.24
36512 H 135.56245197623545 6.985218155136465 85.34225307350329 H 0.0 **** 0.06
36513 H 135.9593749164546 8.611204715073256 85.94754060217889 H 0.0 **** 0.06
36514 H 135.97274588253052 7.220889210565986 87.05826158062752 H 0.0 **** 0.06
36515 H 134.42916579716615 7.834765425868795 86.42030501737798 H 0.0 **** 0.06
36516 C 133.26269120839697 121.44221967368996 150.6204184460358 C 0.0 **** -0.24
36517 H 134.1457135208126 122.05463263481748 150.43484186302538 H 0.0 **** 0.06
36518 H 133.4294198649739 120.43779080868826 150.2321030323026 H 0.0 **** 0.06
36519 H 132.40203818866678 121.88767136730634 150.12200112887137 H 0.0 **** 0.06
36520 H 133.0750025418788 121.39161348017056 151.69281512619042 H 0.0 **** 0.06
36521 C 85.65265763194915 46.02153026474957 4.664248258195698 C 0.0 **** -0.24
36522 H 86.51268719094855 45.356625938322 4.739607686647787 H 0.0 **** 0.06
36523 H 85.51121542017178 46.31479444261751 3.6234394705101067 H 0.0 **** 0.06
36524 H 85.82616865774354 46.909581517174274 5.271015535807692 H 0.0 **** 0.06
36525 H 84.76198093469606 45.50441959705091 5.021062280995011 H 0.0 **** 0.06
36526 C 88.60139918747865 145.12194356612756 43.33142889107879 C 0.0 **** -0.24
36527 H 88.82816711725917 145.6796552779591 42.423120791567214 H 0.0 **** 0.06
36528 H 87.97298138020426 145.72936931288478 43.98213133172567 H 0.0 **** 0.06
36529 H 89.52906287170492 144.87540096258638 43.846932985777556 H 0.0 **** 0.06
36530 H 88.07588049172713 144.20321244404562 43.07135411447183 H 0.0 **** 0.06
36531 C 24.728813001097734 22.771868980781164 121.5148157040012 C 0.0 **** -0.24
36532 H 25.580010621766803 23.421443472811575 121.3096248739447 H 0.0 **** 0.06
36533 H 24.626025396159434 22.63858291051963 122.5924080431866 H 0.0 **** 0.06
36534 H 24.88939353358984 21.80329229313992 121.04228450412643 H 0.0 **** 0.06
36535 H 23.8219851646478 23.225296538710836 121.11668464295906 H 0.0 **** 0.06
36536 C 114.67135051497844 61.47723765258773 17.688847051687986 C 0.0 **** -0.24
36537 H 115.08916247208653 61.94682491110919 18.579430371741665 H 0.0 **** 0.06
36538 H 114.05260541186992 62.197752879205254 17.15453257837123 H 0.0 **** 0.06
36539 H 114.06262210621351 60.621878717468434 17.98173351995291 H 0.0 **** 0.06
36540 H 115.48173844868633 61.14202161800333 17.041982877726298 H 0.0 **** 0.06
36541 C 0.4535231358046907 108.2993692416808 138.76003486695657 C 0.0 **** -0.24
36542 H 0.5943532959740985 107.23279185573311 138.589957944075 H 0.0 **** 0.06
36543 H -0.5994478901565508 108.49950310120236 138.96088844976163 H 0.0 **** 0.06
36544 H 0.766803553314471 108.85296730901293 137.87477093026536 H 0.0 **** 0.06
36545 H 1.0520177526311016 108.61345252050005 139.61510010113892 H 0.0 **** 0.06
36546 C 95.18142615877682 138.6152000819929 75.20355857055068 C 0.0 **** -0.24
36547 H 95.39975342940846 139.40819626900594 75.91886963845727 H 0.0 **** 0.06
36548 H 96.07383330830598 138.40296772490967 74.61328775633055 H 0.0 **** 0.06
36549 H 94.37549957405207 138.93290848636673 74.54289954909717 H 0.0 **** 0.06
36550 H 94.87863946704348 137.71558269771788 75.73995438720507 H 0.0 **** 0.06
36551 C 99.40413442901047 127.72824932978739 143.99607849191324 C 0.0 **** -0.24
36552 H 99.64794924579537 127.66165711268712 145.056625284987 H 0.0 **** 0.06
36553 H 99.82009840865247 128.64842733256324 143.5844583792502 H 0.0 **** 0.06
36554 H 98.32142396216321 127.73142707397028 143.87233439652937 H 0.0 **** 0.06
36555 H 99.8271831937851 126.87182909098959 143.47182782571852 H 0.0 **** 0.06
36556 C 30.71822549730979 42.57731839565946 86.40426705983795 C 0.0 **** -0.24
36557 H 29.69447708941749 42.402653156907775 86.07415813160473 H 0.0 **** 0.06
36558 H 31.15634849680248 43.38445105812167 85.81600706806803 H 0.0 **** 0.06
36559 H 31.303912053992917 41.668431353670485 86.26752180918952 H 0.0 **** 0.06
36560 H 30.717802580655103 42.853862670426565 87.45801974251476 H 0.0 **** 0.06
36561 C 69.63870167088169 114.09222260023803 123.70641901036898 C 0.0 **** -0.24
36562 H 69.7016035862583 114.34947930033054 122.6494753112048 H 0.0 **** 0.06
36563 H 70.64402358844168 113.98354119861268 124.11426811187265 H 0.0 **** 0.06
36564 H 69.09770103160764 113.1527528119744 123.82001258028576 H 0.0 **** 0.06
36565 H 69.11156041459739 114.88197346012682 124.24109211178789 H 0.0 **** 0.06
36566 C 61.22373377495262 74.14272954754269 8.278629781793427 C 0.0 **** -0.24
36567 H 62.08057293534432 74.76508825807998 8.53589218909724 H 0.0 **** 0.06
36568 H 61.17993862752081 74.01505247872069 7.196654621331106 H 0.0 **** 0.06
36569 H 60.30914795820104 74.6217434891489 8.626572395263253 H 0.0 **** 0.06
36570 H 61.32702702522084 73.16759305974949 8.75632535372742 H 0.0 **** 0.06
36571 C 130.14596740995825 9.59203801285571 46.29301401204886 C 0.0 **** -0.24
36572 H 129.37788515211636 8.97667664649893 45.82265270171821 H 0.0 **** 0.06
36573 H 131.06281995300662 9.010347045553345 46.39830298554442 H 0.0 **** 0.06
36574 H 129.80230140197307 9.912029798177883 47.27683442917865 H 0.0 **** 0.06
36575 H 130.33975913046612 10.46694615188079 45.672491500552894 H 0.0 **** 0.06
36576 C 39.56732003446349 88.10630564674621 66.09895307881062 C 0.0 **** -0.24
36577 H 40.48536591454713 87.54392270126864 65.92983524373183 H 0.0 **** 0.06
36578 H 39.81536960697525 89.12917831279738 66.38432586404237 H 0.0 **** 0.06
36579 H 38.99498281014492 87.63431078201062 66.89766180314581 H 0.0 **** 0.06
36580 H 38.97454098429084 88.11796454074492 65.18412208355171 H 0.0 **** 0.06
36581 C 154.4872369659829 26.865898648583197 35.560859668601495 C 0.0 **** -0.24
36582 H 154.8636650064012 26.405361587427535 36.47439085264767 H 0.0 **** 0.06
36583 H 155.2613682223127 26.83824305868029 34.79492521204838 H 0.0 **** 0.06
36584 H 154.21172209569033 27.90053640610867 35.7629980124958 H 0.0 **** 0.06
36585 H 153.61087052537044 26.318511127584287 35.2126622240111 H 0.0 **** 0.06
36586 C 85.49840474426946 21.111220934524276 72.749649808268 C 0.0 **** -0.24
36587 H 86.21139906796805 21.681393895168235 73.34492667743704 H 0.0 **** 0.06
36588 H 86.02031326005687 20.626806921275794 71.92433820731418 H 0.0 **** 0.06
36589 H 84.73633269849282 21.782673588445938 72.35490915982133 H 0.0 **** 0.06
36590 H 85.02682630591639 20.353526193779544 73.37590785924999 H 0.0 **** 0.06
36591 C 97.93172001867966 0.9868377454109805 63.083212597409755 C 0.0 **** -0.24
36592 H 98.13894445147956 0.10142253358452535 62.48218214110665 H 0.0 **** 0.06
36593 H 98.37330174449173 0.8655524232602829 64.0729565845291 H 0.0 **** 0.06
36594 H 96.85454742100313 1.1181125896416688 63.178531708286016 H 0.0 **** 0.06
36595 H 98.3634408995647 1.8628950356763312 62.59801839469668 H 0.0 **** 0.06
36596 C 110.55827976237826 43.049675497043324 107.28605920423779 C 0.0 **** -0.24
36597 H 111.0948012407484 42.36743227675947 107.94637170786753 H 0.0 **** 0.06
36598 H 110.46594770688016 42.600189731967134 106.29709660327329 H 0.0 **** 0.06
36599 H 111.10723875173493 43.98830741124743 107.20962732088275 H 0.0 **** 0.06
36600 H 109.5648444792313 43.24171685847418 107.69248404743063 H 0.0 **** 0.06
36601 C 95.52155746939204 19.501514406195327 100.16023778965216 C 0.0 **** -0.24
36602 H 95.31194042940315 19.267781385292096 99.11595895971179 H 0.0 **** 0.06
36603 H 95.49902068866248 18.58436941087956 100.74868219359557 H 0.0 **** 0.06
36604 H 94.76742540292027 20.19259331006745 100.53580592160922 H 0.0 **** 0.06
36605 H 96.50702831678556 19.960695359728504 100.23878544469262 H 0.0 **** 0.06
36606 C 96.81276385431131 96.82273927466134 142.7524440172096 C 0.0 **** -0.24
36607 H 96.9942085431461 95.83363115319614 143.1741745626233 H 0.0 **** 0.06
36608 H 96.2488066667124 96.72479686845814 141.82543149810607 H 0.0 **** 0.06
36609 H 97.76626663039694 97.3103131220436 142.54860858957255 H 0.0 **** 0.06
36610 H 96.24373282120463 97.42086549624067 143.4630904325275 H 0.0 **** 0.06
36611 C 87.67053859599757 130.87498474551728 72.38471364043278 C 0.0 **** -0.24
36612 H 86.87280099562179 131.51353036505793 72.00620754974966 H 0.0 **** 0.06
36613 H 88.57563919311698 131.0388190995997 71.79777670680835 H 0.0 **** 0.06
36614 H 87.36960138324257 129.831392651163 72.30408522074958 H 0.0 **** 0.06
36615 H 87.8654675095547 131.11820273402913 73.42901263359113 H 0.0 **** 0.06
36616 C 108.6053572085416 69.12448202808872 19.928557763338716 C 0.0 **** -0.24
36617 H 109.13853448280132 69.4935328232364 19.051874692485427 H 0.0 **** 0.06
36618 H 108.80363312434453 68.06028733096764 20.052048432705874 H 0.0 **** 0.06
36619 H 107.53454233452875 69.28265663661452 19.794826626622807 H 0.0 **** 0.06
36620 H 108.94507699838987 69.66350835166512 20.812541776007606 H 0.0 **** 0.06
36621 C 90.64235009399033 108.35870066062968 69.28835265299892 C 0.0 **** -0.24
36622 H 89.81577944355973 109.0052691075041 69.58373695873262 H 0.0 **** 0.06
36623 H 90.61434933326433 108.20358967785329 68.20894991455853 H 0.0 **** 0.06
36624 H 90.5508157383997 107.39873521244384 69.79569814215927 H 0.0 **** 0.06
36625 H 91.58635056158971 108.827628809167 69.5644000247408 H 0.0 **** 0.06
36626 C 152.16358045003744 55.077594199779924 58.23935619542121 C 0.0 **** -0.24
36627 H 152.0262358403241 54.20918241500166 58.88378936312586 H 0.0 **** 0.06
36628 H 152.16923751497444 54.75805305966833 57.19692818783547 H 0.0 **** 0.06
36629 H 153.11096415829667 55.5600584356867 58.47779488946318 H 0.0 **** 0.06
36630 H 151.34652763606306 55.78106317792624 58.399196001051976 H 0.0 **** 0.06
36631 C 39.75687344973841 153.88875438940528 14.458565451352456 C 0.0 **** -0.24
36632 H 39.966120367964876 152.83845605201213 14.662520872901439 H 0.0 **** 0.06
36633 H 40.20295173160591 154.5053716116883 15.23960711180564 H 0.0 **** 0.06
36634 H 38.67865885457816 154.0478774651645 14.439570486351954 H 0.0 **** 0.06
36635 H 40.181043015558075 154.16280434910982 13.49224226891397 H 0.0 **** 0.06
36636 C 141.67091198100366 138.13010617642286 3.4609397472315777 C 0.0 **** -0.24
36637 H 142.3033776061174 137.33024830581067 3.845339633963164 H 0.0 **** 0.06
36638 H 141.40774349671767 137.91791453390277 2.423964928090413 H 0.0 **** 0.06
36639 H 142.2098796815976 139.07587946712215 3.5126925898466084 H 0.0 **** 0.06
36640 H 140.7629048276748 138.19482826715915 4.059886079361661 H 0.0 **** 0.06
36641 C 17.661639555307502 28.60106834785188 7.177712743497864 C 0.0 **** -0.24
36642 H 17.653116508971543 29.676233485597407 6.996917345122114 H 0.0 **** 0.06
36643 H 16.68301624032076 28.28614658409731 7.541288585019487 H 0.0 **** 0.06
36644 H 18.420231779660334 28.364641664847767 7.923266163938166 H 0.0 **** 0.06
36645 H 17.888951719885455 28.078935247123866 6.248104821939592 H 0.0 **** 0.06
36646 C 0.8096325265763369 71.19911330174135 8.674816131086175 C 0.0 **** -0.24
36647 H 0.9105078332950143 71.86104828336458 9.535278183739479 H 0.0 **** 0.06
36648 H 0.7398409507935071 70.16636480044019 9.018119756160615 H 0.0 **** 0.06
36649 H 1.6799445654030762 71.30887253438827 8.02866870131146 H 0.0 **** 0.06
36650 H -0.09125035548080973 71.45933392127694 8.11944335413176 H 0.0 **** 0.06
36651 C 144.72609908715208 86.11088143353886 92.36119678090722 C 0.0 **** -0.24
36652 H 143.76105950171362 86.09563276390614 91.85415263610133 H 0.0 **** 0.06
36653 H 144.93117115850578 87.11983531585739 92.71915373692761 H 0.0 **** 0.06
36654 H 145.50645273759747 85.80489769990065 91.66484429405023 H 0.0 **** 0.06
36655 H 144.70240919498107 85.42305969026522 93.20636167904644 H 0.0 **** 0.06
36656 C 45.84840807337251 93.48766616541467 22.81782952636133 C 0.0 **** -0.24
36657 H 46.497732791201685 93.97482993966538 22.09083811080894 H 0.0 **** 0.06
36658 H 44.82657795931935 93.84414501702628 22.68902460506626 H 0.0 **** 0.06
36659 H 46.19197448882562 93.72297019355914 23.825774884259467 H 0.0 **** 0.06
36660 H 45.879672180380254 92.40852561079525 22.666426418062407 H 0.0 **** 0.06
36661 C 122.86867756274658 44.251916327307015 124.78699939420592 C 0.0 **** -0.24
36662 H 122.47039191657082 44.01446893699702 123.80166702386971 H 0.0 **** 0.06
36663 H 123.90685040446239 43.92432315004237 124.84789730588015 H 0.0 **** 0.06
36664 H 122.28076687178232 43.74121598274931 125.54935812452423 H 0.0 **** 0.06
36665 H 122.81714067711725 45.328288781169164 124.95062689182198 H 0.0 **** 0.06
36666 C 64.33132202465708 27.138078938457227 75.08194001795209 C 0.0 **** -0.24
36667 H 63.587559893127775 27.89072973969928 74.81932366007152 H 0.0 **** 0.06
36668 H 65.27070755224966 27.365248804193783 74.57617583321257 H 0.0 **** 0.06
36669 H 63.97892167066226 26.155544988694658 74.77071398369014 H 0.0 **** 0.06
36670 H 64.48905264168837 27.143377545669352 76.16036045619603 H 0.0 **** 0.06
36671 C 70.51563099740844 99.32596840217644 107.89799608070825 C 0.0 **** -0.24
36672 H 71.12438075953045 98.83548473074919 107.13836053038068 H 0.0 **** 0.06
36673 H 70.30410626102406 98.62322812973906 108.70280289468286 H 0.0 **** 0.06
36674 H 69.57889165314029 99.66099458923372 107.45084892732552 H 0.0 **** 0.06
36675 H 71.05546720426581 100.18503281876559 108.29634626438553 H 0.0 **** 0.06
36676 C 155.88038812210155 96.19943342427469 117.01781439547557 C 0.0 **** -0.24
36677 H 156.6564239605133 96.78286529919436 116.52209541829114 H 0.0 **** 0.06
36678 H 155.59044140220988 95.36405600966285 116.38018506847237 H 0.0 **** 0.06
36679 H 155.01337239283475 96.83304867631145 117.20519666514713 H 0.0 **** 0.06
36680 H 156.26267382003417 95.81799380635601 117.96482925610957 H 0.0 **** 0.06
36681 C 49.47926218032353 54.35446548518229 17.11887991191611 C 0.0 **** -0.24
36682 H 50.15597139665783 54.14412605812656 17.946600641932775 H 0.0 **** 0.06
36683 H 49.024200427433755 53.42434800752392 16.7773978876358 H 0.0 **** 0.06
36684 H 50.036809786512435 54.80803593151687 16.300501557861992 H 0.0 **** 0.06
36685 H 48.69935215525527 55.0399482281686 17.452606565139263 H 0.0 **** 0.06
36686 C 42.58892849758715 48.83873422013818 37.37589133470405 C 0.0 **** -0.24
36687 H 42.34830222934569 49.571523889408866 38.14563606348362 H 0.0 **** 0.06
36688 H 43.67085505179216 48.76628854273616 37.268470657914705 H 0.0 **** 0.06
36689 H 42.14925329714697 49.15061549800777 36.42797494010861 H 0.0 **** 0.06
36690 H 42.185514673613696 47.866597527237815 37.660593340800716 H 0.0 **** 0.06
36691 C 62.89491570286714 12.96026718605765 123.43682449422977 C 0.0 **** -0.24
36692 H 61.993523267026376 13.572126700802244 123.45742196818287 H 0.0 **** 0.06
36693 H 63.30560670273559 12.951114021234048 122.42744360628762 H 0.0 **** 0.06
36694 H 62.650173234658155 11.942397030804472 123.73927138307783 H 0.0 **** 0.06
36695 H 63.6305902622064 13.376706119764975 124.12586677966578 H 0.0 **** 0.06
36696 C 108.13394488127115 70.27111490342571 76.20273229226203 C 0.0 **** -0.24
36697 H 108.70609293702138 71.19517456005337 76.12389065784697 H 0.0 **** 0.06
36698 H 108.21773256706267 69.71115746487851 75.27143215000248 H 0.0 **** 0.06
36699 H 107.08673538089671 70.50779851983413 76.39141139674894 H 0.0 **** 0.06
36700 H 108.52379551828442 69.67130445197643 77.02434809792544 H 0.0 **** 0.06
36701 C 108.40784329705967 30.409932347336387 9.336574947275949 C 0.0 **** -0.24
36702 H 109.4722468196825 30.36310579389037 9.569366970907424 H 0.0 **** 0.06
36703 H 107.97875962900402 31.30887257979355 9.780720621486523 H 0.0 **** 0.06
36704 H 107.90874247530714 29.529828998409286 9.74224000706647 H 0.0 **** 0.06
36705 H 108.27422606552172 30.43805290419921 8.256024957718921 H 0.0 **** 0.06
36706 C 90.78288336196064 13.882074375031607 10.30594652812146 C 0.0 **** -0.24
36707 H 89.82968674457122 13.493086648822015 10.664545804615294 H 0.0 **** 0.06
36708 H 91.49358594502928 13.919746873647398 11.132020567667908 H 0.0 **** 0.06
36709 H 90.63720013778807 14.885902637313222 9.905960385183214 H 0.0 **** 0.06
36710 H 91.16978896939051 13.230881869424536 9.522883947835133 H 0.0 **** 0.06
36711 C 130.04578753024953 59.60395243653021 107.30442666455174 C 0.0 **** -0.24
36712 H 129.94143048820476 60.036908787008485 108.29928900533695 H 0.0 **** 0.06
36713 H 131.0944742734669 59.37132928959474 107.11856040352144 H 0.0 **** 0.06
36714 H 129.69488919771356 60.317823885667934 106.55946856340996 H 0.0 **** 0.06
36715 H 129.45354021836738 58.69148832906842 107.2416411663741 H 0.0 **** 0.06
36716 C 3.458549354401061 45.993747869294126 24.578883496417077 C 0.0 **** -0.24
36717 H 2.3753376331080247 45.89458823204505 24.506416849014165 H 0.0 **** 0.06
36718 H 3.80377244805711 45.54465335862359 25.51046056066881 H 0.0 **** 0.06
36719 H 3.7276015519264476 47.050257915400294 24.56275484786162 H 0.0 **** 0.06
36720 H 3.9269664266357935 45.48680681671952 23.7358628242513 H 0.0 **** 0.06
36721 C 14.30229771789152 129.62335787694477 54.56107813792053 C 0.0 **** -0.24
36722 H 15.072101622084517 128.85289179471988 54.61739579180383 H 0.0 **** 0.06
36723 H 13.458384391348773 129.25052206989156 53.98157197382588 H 0.0 **** 0.06
36724 H 14.711637737105264 130.51064036591606 54.079091443908794 H 0.0 **** 0.06
36725 H 13.969124898618787 129.87732814071134 55.5678555121944 H 0.0 **** 0.06
36726 C 131.27047954276227 120.0915150145306 80.24138338270478 C 0.0 **** -0.24
36727 H 131.73635045138832 119.28093846654694 80.80194973382913 H 0.0 **** 0.06
36728 H 131.8520939275426 121.00427639548546 80.37338362398621 H 0.0 **** 0.06
36729 H 130.25688017000215 120.25083506698498 80.6092911213571 H 0.0 **** 0.06
36730 H 131.23710116601967 119.83007836021439 79.18418595593995 H 0.0 **** 0.06
36731 C 70.0945069254751 138.85087323615005 97.71673942634366 C 0.0 **** -0.24
36732 H 70.53056894744577 137.86179461865126 97.57340380352153 H 0.0 **** 0.06
36733 H 70.23577790239847 139.4437495742214 96.81248732465372 H 0.0 **** 0.06
36734 H 70.58344154729282 139.34445719625938 98.55635866505884 H 0.0 **** 0.06
36735 H 69.02939353344875 138.7506268511195 97.92402853696314 H 0.0 **** 0.06
36736 C 8.484616486224809 105.2641583861971 71.36684213470127 C 0.0 **** -0.24
36737 H 8.740486322859851 104.23164502271425 71.6069202208025 H 0.0 **** 0.06
36738 H 8.76778586823923 105.91007045226189 72.19832779082452 H 0.0 **** 0.06
36739 H 7.41168035102487 105.341105700968 71.19516574658627 H 0.0 **** 0.06
36740 H 9.01995645976669 105.57163664313043 70.46873919355829 H 0.0 **** 0.06
36741 C 1.3386554330108993 36.206013934203284 33.23339943790583 C 0.0 **** -0.24
36742 H 2.414636323203581 36.06099337066679 33.33269620621817 H 0.0 **** 0.06
36743 H 1.061351655647968 37.17069227781393 33.658165224916644 H 0.0 **** 0.06
36744 H 0.8144331682165671 35.41029940568438 33.763580641389694 H 0.0 **** 0.06
36745 H 1.0654855125235088 36.180707333945946 32.17793485795691 H 0.0 **** 0.06
36746 C 146.74304211402873 2.6860475873526184 43.94320351619035 C 0.0 **** -0.24
36747 H 147.4578852698334 1.8656181668775105 43.88338306766332 H 0.0 **** 0.06
36748 H 145.73852556487304 2.2838124092090197 44.07514304766568 H 0.0 **** 0.06
36749 H 146.7838292473499 3.2710390051770446 43.02458982710846 H 0.0 **** 0.06
36750 H 146.99378599275514 3.3241623140329466 44.790861931912104 H 0.0 **** 0.06
36751 C 72.33091316873815 40.94810656508028 107.58730015311453 C 0.0 **** -0.24
36752 H 71.92869993609291 40.493380095107796 106.6823399304477 H 0.0 **** 0.06
36753 H 71.63772359564307 41.70513218225693 107.95292984986692 H 0.0 **** 0.06
36754 H 73.29185463491595 41.41159594184634 107.36454297788258 H 0.0 **** 0.06
36755 H 72.46593830369856 40.18046466822554 108.34988512068774 H 0.0 **** 0.06
36756 C 40.34778593350384 29.409976821360864 151.0585674705058 C 0.0 **** -0.24
36757 H 40.75299117413982 29.904306296926812 151.94213059249608 H 0.0 **** 0.06
36758 H 39.43926906038851 29.922289116530145 150.74098615050903 H 0.0 **** 0.06
36759 H 40.11563102812029 28.37251991785665 151.29818368225094 H 0.0 **** 0.06
36760 H 41.08326996624136 29.441728376148347 150.25499996667403 H 0.0 **** 0.06
36761 C 128.1660632488897 104.64070509847913 142.3824736796476 C 0.0 **** -0.24
36762 H 128.87940132064514 105.11817384870166 141.71107808638345 H 0.0 **** 0.06
36763 H 127.96769207597539 103.6250980440824 142.03893782499551 H 0.0 **** 0.06
36764 H 127.23616253234799 105.21027066869068 142.38898706504102 H 0.0 **** 0.06
36765 H 128.58049404392048 104.60893117368862 143.38961625755576 H 0.0 **** 0.06
36766 C 115.5077600511287 153.56478788709313 67.7541088082772 C 0.0 **** -0.24
36767 H 114.98467674276095 154.31922681331304 68.34245433396774 H 0.0 **** 0.06
36768 H 114.97990114103096 152.61398739985754 67.83096640771012 H 0.0 **** 0.06
36769 H 116.52268222952655 153.44867813772845 68.13280411026003 H 0.0 **** 0.06
36770 H 115.54168822229023 153.87785556356903 66.7107286424076 H 0.0 **** 0.06
36771 C 137.14455047202165 108.55276363725226 139.6032803706455 C 0.0 **** -0.24
36772 H 136.40833861028273 107.97381672176287 140.16202564038713 H 0.0 **** 0.06
36773 H 136.91878210172757 108.49694601472628 138.5384683211009 H 0.0 **** 0.06
36774 H 138.13891219288143 108.1473409321873 139.78662655956396 H 0.0 **** 0.06
36775 H 137.11002251611248 109.59259144766385 139.92806585381996 H 0.0 **** 0.06
36776 C 6.98296856952377 9.17594982274639 114.78474687777113 C 0.0 **** -0.24
36777 H 6.3247150316519765 8.561968848634393 115.40046950697887 H 0.0 **** 0.06
36778 H 6.389576589768289 9.711532748088672 114.04264404739196 H 0.0 **** 0.06
36779 H 7.707288391650067 8.537037877939468 114.27916601899547 H 0.0 **** 0.06
36780 H 7.5073855274025405 9.891667022451628 115.41675903736974 H 0.0 **** 0.06
36781 C 52.29061006141903 105.31105732148849 33.3716040350468 C 0.0 **** -0.24
36782 H 52.534430490656945 106.28649079427747 33.79209517342633 H 0.0 **** 0.06
36783 H 52.56862182702423 104.53022774136348 34.079843621548804 H 0.0 **** 0.06
36784 H 52.83771071771888 105.16939825897326 32.44034724721104 H 0.0 **** 0.06
36785 H 51.219128168598274 105.25846811896066 33.1759675530391 H 0.0 **** 0.06
36786 C 113.39887935683383 23.356043573210627 119.3877861447689 C 0.0 **** -0.24
36787 H 113.99812152831812 24.2061495587256 119.06245356349343 H 0.0 **** 0.06
36788 H 113.04516370305801 23.528309952423456 120.40498290389179 H 0.0 **** 0.06
36789 H 114.00732779184956 22.45255754070689 119.36201539743608 H 0.0 **** 0.06
36790 H 112.54451415284994 23.237828028587785 118.72051042281514 H 0.0 **** 0.06
36791 C 102.83897131439896 26.824395048636575 30.05239006583193 C 0.0 **** -0.24
36792 H 103.16358766116191 27.279794071429137 30.98797845188284 H 0.0 **** 0.06
36793 H 102.47143331268119 25.81689157206489 30.246581273400892 H 0.0 **** 0.06
36794 H 103.68064055649519 26.77723213851533 29.360323402686845 H 0.0 **** 0.06
36795 H 102.04161638441111 27.424612519757886 29.613601062627424 H 0.0 **** 0.06
36796 C 111.31047420821231 142.8761096104337 139.0069577855906 C 0.0 **** -0.24
36797 H 112.06864380786588 143.22227145279604 139.70907493560833 H 0.0 **** 0.06
36798 H 110.5767909266623 143.6667351531307 138.846256819318 H 0.0 **** 0.06
36799 H 110.81351281552007 141.995786771196 139.41365388732896 H 0.0 **** 0.06
36800 H 111.78310998354293 142.6213490545525 138.05857962193323 H 0.0 **** 0.06
36801 C 121.92910591348384 97.1482758427669 156.9728536714341 C 0.0 **** -0.24
36802 H 122.41239719200802 96.22786351805235 156.6432184100353 H 0.0 **** 0.06
36803 H 120.85308435533382 96.98920373326243 157.03962435808617 H 0.0 **** 0.06
36804 H 122.13570171755488 97.94322967401678 156.25632087429454 H 0.0 **** 0.06
36805 H 122.31649622138009 97.43119997362325 157.9513332768855 H 0.0 **** 0.06
36806 C 16.59118269846512 68.13369005095541 65.88861164961578 C 0.0 **** -0.24
36807 H 17.565666625598027 67.84016437940565 65.49894074839085 H 0.0 **** 0.06
36808 H 16.460009103414222 69.20899378599019 65.7654976617506 H 0.0 **** 0.06
36809 H 16.53142201677442 67.87811820721501 66.94671720996139 H 0.0 **** 0.06
36810 H 15.807799751558285 67.6065051219963 65.34341085651423 H 0.0 **** 0.06
36811 C 108.64075252891297 149.95116884975036 145.37792736652878 C 0.0 **** -0.24
36812 H 109.1714169988694 150.84339634561468 145.04680962108117 H 0.0 **** 0.06
36813 H 108.78386198637389 149.15209684674377 144.64950967272407 H 0.0 **** 0.06
36814 H 107.57722285346688 150.17388891079312 145.46909262576852 H 0.0 **** 0.06
36815 H 109.03001944786502 149.63447744080588 146.34598858176813 H 0.0 **** 0.06
36816 C 93.15291007856862 77.81412523641205 68.10316162395311 C 0.0 **** -0.24
36817 H 93.69006446168125 76.95250247019563 67.70483374763273 H 0.0 **** 0.06
36818 H 93.86959162893004 78.56724086135043 68.43204627015282 H 0.0 **** 0.06
36819 H 92.54068706915157 77.50071558551305 68.94859703769758 H 0.0 **** 0.06
36820 H 92.5132582268122 78.23457431991172 67.3271843389542 H 0.0 **** 0.06
36821 C 85.76941028267123 128.399339621347 104.50629377578662 C 0.0 **** -0.24
36822 H 85.04426792931173 128.26830622157934 103.70308303875112 H 0.0 **** 0.06
36823 H 86.52252399333975 129.1255494107139 104.20064733340229 H 0.0 **** 0.06
36824 H 86.24905344897445 127.44490668086625 104.72133060558207 H 0.0 **** 0.06
36825 H 85.25867391585138 128.7590010080219 105.4004150048923 H 0.0 **** 0.06
36826 C 71.6148775782005 39.52292665677817 82.92912467698845 C 0.0 **** -0.24
36827 H 71.69440737632986 39.56573569714408 81.84363537976486 H 0.0 **** 0.06
36828 H 70.88940716222842 40.26214664001492 83.26939394850879 H 0.0 **** 0.06
36829 H 72.58737733309032 39.73720037006811 83.37325382510551 H 0.0 **** 0.06
36830 H 71.28948930369971 38.52724296070612 83.23133178349805 H 0.0 **** 0.06
36831 C 99.91495352733182 32.69172480142679 62.94938402774193 C 0.0 **** -0.24
36832 H 100.33572300878888 32.117273582535844 62.12452798591829 H 0.0 **** 0.06
36833 H 100.22401919497895 32.248843082933476 63.89581249544494 H 0.0 **** 0.06
36834 H 98.82653594890621 32.68043152661119 62.88105137196962 H 0.0 **** 0.06
36835 H 100.27153701475578 33.72016275354961 62.89515990394773 H 0.0 **** 0.06
36836 C 46.22048905042669 127.7475775214831 26.07213292857108 C 0.0 **** -0.24
36837 H 47.23410370766578 127.6478391375129 25.685220511277493 H 0.0 **** 0.06
36838 H 46.249094797503446 127.77712116695511 27.16225935209073 H 0.0 **** 0.06
36839 H 45.62193794801537 126.89622849123185 25.747446788051548 H 0.0 **** 0.06
36840 H 45.77601146795868 128.66850138125974 25.694586113574076 H 0.0 **** 0.06
36841 C 126.11775465023567 133.30862980489238 40.46730445238741 C 0.0 **** -0.24
36842 H 126.45703132895193 132.9031000975128 39.514125737182454 H 0.0 **** 0.06
36843 H 126.34571924938075 132.60038578885116 41.26419794783796 H 0.0 **** 0.06
36844 H 125.04174788321438 133.47770265755793 40.42736105951418 H 0.0 **** 0.06
36845 H 126.62760354312928 134.2519299077188 40.66216769022853 H 0.0 **** 0.06
36846 C 63.02759465111609 79.02881727565152 3.634105712152973 C 0.0 **** -0.24
36847 H 62.35087220441636 78.92915243030009 2.784925902698319 H 0.0 **** 0.06
36848 H 62.98911865583574 80.05040735107373 4.012072619249523 H 0.0 **** 0.06
36849 H 64.04404286420436 78.7956745410026 3.3187057588078233 H 0.0 **** 0.06
36850 H 62.72460501122512 78.33756840731854 4.421662064957388 H 0.0 **** 0.06
36851 C 153.03396581720565 30.82653123955788 139.80824479010687 C 0.0 **** -0.24
36852 H 153.2953847926332 31.880478633554617 139.8933484047978 H 0.0 **** 0.06
36853 H 153.2720800000192 30.316945667395373 140.7424936259522 H 0.0 **** 0.06
36854 H 153.60046220210774 30.376909099362194 138.99340651571094 H 0.0 **** 0.06
36855 H 151.9670004516134 30.732129415210977 139.6038312188569 H 0.0 **** 0.06
36856 C 116.03528132564979 60.613290734156706 144.89662736747886 C 0.0 **** -0.24
36857 H 116.36159196947004 61.62509712748741 144.6555363774741 H 0.0 **** 0.06
36858 H 116.90226196207608 59.95378446469411 144.93902710115134 H 0.0 **** 0.06
36859 H 115.34713722179102 60.26091385111663 144.12890875809916 H 0.0 **** 0.06
36860 H 115.53199498324243 60.61571726919969 145.8631642890863 H 0.0 **** 0.06
36861 C 78.83230249953283 127.49831387255217 7.654910987901282 C 0.0 **** -0.24
36862 H 78.60679767327133 128.49201224766506 8.041205906982611 H 0.0 **** 0.06
36863 H 79.38034571222482 126.93139408521053 8.40690316525356 H 0.0 **** 0.06
36864 H 79.43786358382476 127.58843278827133 6.753910445564372 H 0.0 **** 0.06
36865 H 77.90194111827267 126.98231754964995 7.417356423421246 H 0.0 **** 0.06
36866 C 15.697380409941644 121.22642951664194 117.57131492636883 C 0.0 **** -0.24
36867 H 14.827586366010792 120.96115086168071 116.96939278525132 H 0.0 **** 0.06
36868 H 16.372272285317138 120.37220002889852 117.62898314334622 H 0.0 **** 0.06
36869 H 15.373745677744608 121.50289313929834 118.57450039209472 H 0.0 **** 0.06
36870 H 16.213881624986243 122.06781470598754 117.11062187099803 H 0.0 **** 0.06
36871 C 19.677360823929348 73.39827622444479 24.438947398498385 C 0.0 **** -0.24
36872 H 18.70581309426069 73.18065212817122 23.994405546511928 H 0.0 **** 0.06
36873 H 19.65180386242696 74.38571189341215 24.901097103977634 H 0.0 **** 0.06
36874 H 20.443078349780023 73.37903403911331 23.664328114418936 H 0.0 **** 0.06
36875 H 19.905318170316605 72.64816306713075 25.195789752702183 H 0.0 **** 0.06
36876 C 50.65913940445455 136.92212180265136 119.38796249958375 C 0.0 **** -0.24
36877 H 50.75212733972977 135.8572271698003 119.59989720263155 H 0.0 **** 0.06
36878 H 51.479856996753384 137.46026775798362 119.86197645284199 H 0.0 **** 0.06
36879 H 49.71031404840717 137.28807575038502 119.7804364821742 H 0.0 **** 0.06
36880 H 50.693173666649315 137.08311244129834 118.31042486389185 H 0.0 **** 0.06
36881 C 146.6635343235995 141.49269883782824 119.42936230958246 C 0.0 **** -0.24
36882 H 146.6146614383455 141.64739131752978 120.50776222923933 H 0.0 **** 0.06
36883 H 147.70553908152004 141.50206525397738 119.10784704926691 H 0.0 **** 0.06
36884 H 146.1204554098769 142.29140566290042 118.9238127241159 H 0.0 **** 0.06
36885 H 146.21336308297506 140.5321518634675 119.17905843328127 H 0.0 **** 0.06
36886 C 102.49809507769457 106.49352579754198 71.64583253119676 C 0.0 **** -0.24
36887 H 101.44735151319183 106.20745819508325 71.70385836468732 H 0.0 **** 0.06
36888 H 102.71712539608309 107.22858588409294 72.42103385755605 H 0.0 **** 0.06
36889 H 102.70377447065543 106.92487476333245 70.66641295171277 H 0.0 **** 0.06
36890 H 103.12221111800513 105.61228147751167 71.793897670723 H 0.0 **** 0.06
36891 C 126.5351251412247 54.283745382172754 46.68412438504262 C 0.0 **** -0.24
36892 H 125.94217198848575 53.76444934545873 47.43761352593944 H 0.0 **** 0.06
36893 H 125.87420195995863 54.69066392907061 45.918551051636456 H 0.0 **** 0.06
36894 H 127.23453995596411 53.58369516848208 46.22658498532003 H 0.0 **** 0.06
36895 H 127.09022322706655 55.095620756917214 47.1555617705733 H 0.0 **** 0.06
36896 C 81.81399133949463 82.41015448698778 81.89882703856446 C 0.0 **** -0.24
36897 H 81.67206957748749 83.49051585967356 81.93138772150404 H 0.0 **** 0.06
36898 H 82.71049173500052 82.14440779480974 82.45828962218665 H 0.0 **** 0.06
36899 H 81.92319574416354 82.0903529354275 80.86226635305911 H 0.0 **** 0.06
36900 H 80.94904207276221 81.91723515073872 82.34233798030488 H 0.0 **** 0.06
36901 C 66.42873558987216 155.60570362865406 13.60401773799839 C 0.0 **** -0.24
36902 H 65.89710913744257 156.557768709448 13.598716795517703 H 0.0 **** 0.06
36903 H 67.48306504163826 155.77707878773367 13.388164510502406 H 0.0 **** 0.06
36904 H 66.00405469474262 154.94947864317197 12.844824381442095 H 0.0 **** 0.06
36905 H 66.32820731134485 155.1396867277988 14.583833005689058 H 0.0 **** 0.06
36906 C 59.46489895679204 136.92190673935147 59.32855510683768 C 0.0 **** -0.24
36907 H 58.83473196733553 136.1700319618897 58.85484579305444 H 0.0 **** 0.06
36908 H 58.85513768004776 137.78015626028076 59.61156858557547 H 0.0 **** 0.06
36909 H 60.23900821671046 137.23923496099465 58.63034145535141 H 0.0 **** 0.06
36910 H 59.92897019834986 136.4974539359669 60.21864069871302 H 0.0 **** 0.06
36911 C 137.3329304932738 138.20575296128567 121.59090173464733 C 0.0 **** -0.24
36912 H 136.54575193713237 138.55159688751817 120.92032094334189 H 0.0 **** 0.06
36913 H 137.2559588529221 137.1258142223029 121.71532980132474 H 0.0 **** 0.06
36914 H 137.22297990838817 138.69259118455193 122.56018038424969 H 0.0 **** 0.06
36915 H 138.30533141615584 138.45548111068663 121.1677292735244 H 0.0 **** 0.06
36916 C 128.1817339460717 78.01222269450085 154.82352840687122 C 0.0 **** -0.24
36917 H 127.63747510531185 77.31863894048199 155.46414026055425 H 0.0 **** 0.06
36918 H 128.98528043127973 77.47975428505276 154.31277291300378 H 0.0 **** 0.06
36919 H 128.60484297301286 78.81284355062316 155.43049272006976 H 0.0 **** 0.06
36920 H 127.50121776053241 78.43645718159549 154.0856920618848 H 0.0 **** 0.06
36921 C 31.85056950794162 127.08225889715744 140.68380839985605 C 0.0 **** -0.24
36922 H 31.741304537544586 126.15952058237029 140.1137243281625 H 0.0 **** 0.06
36923 H 30.884749056282793 127.5852951153981 140.74751199702717 H 0.0 **** 0.06
36924 H 32.56853444003086 127.73398071285497 140.1862165059544 H 0.0 **** 0.06
36925 H 32.20583238995431 126.84902106594699 141.68752452923408 H 0.0 **** 0.06
36926 C 128.39432837319993 71.5356104531206 38.0350702201861 C 0.0 **** -0.24
36927 H 128.64153595683413 70.86546145006601 38.85897884726954 H 0.0 **** 0.06
36928 H 129.02752316372886 72.42227783091381 38.085349834476034 H 0.0 **** 0.06
36929 H 127.34775200838867 71.83122480266752 38.10898058699085 H 0.0 **** 0.06
36930 H 128.560495579048 71.02260453480568 37.087458970914156 H 0.0 **** 0.06
36931 C 134.12597045152205 82.31280856194236 32.52088193858131 C 0.0 **** -0.24
36932 H 134.186296656078 83.33453470589875 32.89648428734175 H 0.0 **** 0.06
36933 H 135.07504699085933 82.03923939068814 32.05900172825122 H 0.0 **** 0.06
36934 H 133.32842737347795 82.24415421517634 31.780766200813304 H 0.0 **** 0.06
36935 H 133.91474164471768 81.63437821535972 33.34660300616996 H 0.0 **** 0.06
36936 C 17.855401471887397 156.86010487034025 12.616427848241443 C 0.0 **** -0.24
36937 H 18.398564334160376 157.70377147845386 12.190220807187387 H 0.0 **** 0.06
36938 H 17.439712618904267 156.25157802751028 11.813992496076509 H 0.0 **** 0.06
36939 H 17.047109378121178 157.23067186192486 13.247322202231913 H 0.0 **** 0.06
36940 H 18.537017066531043 156.25660340834781 13.217091553387036 H 0.0 **** 0.06
36941 C 112.43983271708838 134.14825047431515 21.63175670531973 C 0.0 **** -0.24
36942 H 113.38869093020945 134.43783849783762 21.181046694287716 H 0.0 **** 0.06
36943 H 112.47310644355342 133.0922690607885 21.902248527259843 H 0.0 **** 0.06
36944 H 111.63268052423383 134.31479039520224 20.91794266453502 H 0.0 **** 0.06
36945 H 112.26429217121016 134.74757077413324 22.525155478516467 H 0.0 **** 0.06
36946 C 57.773799889035814 37.936788481774556 4.582303821986358 C 0.0 **** -0.24
36947 H 57.21586993013348 37.40210096198041 5.3508928420783946 H 0.0 **** 0.06
36948 H 58.80355474331442 38.07559191388373 4.912276900830022 H 0.0 **** 0.06
36949 H 57.313330472969454 38.91047935373774 4.411041691826171 H 0.0 **** 0.06
36950 H 57.762030489887735 37.36110859048222 3.657307181691692 H 0.0 **** 0.06
36951 C 125.35699096699635 108.90295745163807 102.84547548984393 C 0.0 **** -0.24
36952 H 126.10978337995049 108.63739515768727 102.10461595073569 H 0.0 **** 0.06
36953 H 125.29711925117128 108.11866255324334 103.60055799228375 H 0.0 **** 0.06
36954 H 124.3881386704089 109.01122215397196 102.35693512905617 H 0.0 **** 0.06
36955 H 125.63030617211676 109.84513977732767 103.32113708501247 H 0.0 **** 0.06
36956 C 65.09797202693163 12.418563714746824 6.827665644289198 C 0.0 **** -0.24
36957 H 65.91412036122674 12.050358463938721 7.448942109562239 H 0.0 **** 0.06
36958 H 65.0426617771435 11.828313725525277 5.91299608829479 H 0.0 **** 0.06
36959 H 65.27598999741397 13.463643652470893 6.575953171398339 H 0.0 **** 0.06
36960 H 64.15820327475366 12.331607207417704 7.373799289273933 H 0.0 **** 0.06
36961 C 47.95613046637996 87.5639428144996 38.49565646191371 C 0.0 **** -0.24
36962 H 48.72746558602303 87.67736658728752 39.25694538778295 H 0.0 **** 0.06
36963 H 48.02736217667848 86.5696902799408 38.052335270729586 H 0.0 **** 0.06
36964 H 48.09671815204047 88.31753924250744 37.72131727884636 H 0.0 **** 0.06
36965 H 46.97475858113587 87.68956847251691 38.951536975113626 H 0.0 **** 0.06
36966 C 133.95623186871256 116.78804410552125 65.33433769785132 C 0.0 **** -0.24
36967 H 134.10829823724885 116.11997809136791 66.1814978121639 H 0.0 **** 0.06
36968 H 132.9517687211977 117.20905915922326 65.37856192931349 H 0.0 **** 0.06
36969 H 134.07621816977098 116.22992399065355 64.40552290902744 H 0.0 **** 0.06
36970 H 134.69075149752484 117.59320410546557 65.37102549522461 H 0.0 **** 0.06
36971 C 131.88126271401757 0.3590214605788731 91.6203920910339 C 0.0 **** -0.24
36972 H 132.06980600389647 1.4136194743999226 91.42122857774423 H 0.0 **** 0.06
36973 H 132.48594654570002 -0.2512667784516225 90.9482117140066 H 0.0 **** 0.06
36974 H 130.82604984604893 0.14193587923111295 91.45770438087166 H 0.0 **** 0.06
36975 H 132.14434319229548 0.13130414888780706 92.65317529487228 H 0.0 **** 0.06
36976 C 141.81528314758867 142.39718129234797 56.539329430611716 C 0.0 **** -0.24
36977 H 142.5859782256824 141.9975926048818 57.1986818840159 H 0.0 **** 0.06
36978 H 141.06131128903138 142.91427991544145 57.133235262709604 H 0.0 **** 0.06
36979 H 141.3483802718967 141.57980677060286 55.99014252797042 H 0.0 **** 0.06
36980 H 142.26774760764891 143.09664207423074 55.83604341935356 H 0.0 **** 0.06
36981 C 21.56745273730018 10.433891343811496 16.057648858296297 C 0.0 **** -0.24
36982 H 21.186114441780347 9.41246952567846 16.062574893551535 H 0.0 **** 0.06
36983 H 21.439387096998296 10.863818479100217 15.06410342404488 H 0.0 **** 0.06
36984 H 22.6252254582526 10.427391462102378 16.318762360392277 H 0.0 **** 0.06
36985 H 21.01735073314225 11.029862782741077 16.786105110346178 H 0.0 **** 0.06
36986 C 153.60083527793148 24.62110136248765 85.9896005481506 C 0.0 **** -0.24
36987 H 153.15655296340103 25.56248192064104 86.31165569063688 H 0.0 **** 0.06
36988 H 154.6106647233632 24.53849612028249 86.39266948370789 H 0.0 **** 0.06
36989 H 153.64118191677906 24.593201686157904 84.90043506627075 H 0.0 **** 0.06
36990 H 152.99525158792048 23.790478026073025 86.35195663560768 H 0.0 **** 0.06
36991 C 0.036892346727931624 98.57099542075154 57.3484631091968 C 0.0 **** -0.24
36992 H -0.5543081482633951 99.47366621701664 57.195374675594564 H 0.0 **** 0.06
36993 H -0.553245976718518 97.69912734928735 57.06772396356064 H 0.0 **** 0.06
36994 H 0.3203489932459753 98.49580081108257 58.39809959839468 H 0.0 **** 0.06
36995 H 0.9342210879313626 98.61647352267231 56.731423774674056 H 0.0 **** 0.06
36996 C 18.62234753045513 115.19319142068538 140.94982806030694 C 0.0 **** -0.24
36997 H 19.33315411354978 115.1337052154462 141.77434796950254 H 0.0 **** 0.06
36998 H 18.033354659550575 116.10625602354109 141.04383414276 H 0.0 **** 0.06
36999 H 17.960836590261934 114.32846431937837 140.97744911346192 H 0.0 **** 0.06
37000 H 19.164874124400647 115.20727869355959 140.00428105955254 H 0.0 **** 0.06
37001 C 143.70980692218893 78.39401946183315 80.77861731218113 C 0.0 **** -0.24
37002 H 143.89722852307506 78.96146689965957 79.8663551457142 H 0.0 **** 0.06
37003 H 143.24937486351232 79.04517329190082 81.52262989758741 H 0.0 **** 0.06
37004 H 144.65234249770378 78.00850209145148 81.1658739196956 H 0.0 **** 0.06
37005 H 143.0394340736947 77.56284152371632 80.5583262037119 H 0.0 **** 0.06
37006 C 112.29045033954525 61.61586869857905 141.0960919261296 C 0.0 **** -0.24
37007 H 111.86164506049452 60.749459428615836 141.59912439393986 H 0.0 **** 0.06
37008 H 113.23458179763459 61.88203850647281 141.57263902156467 H 0.0 **** 0.06
37009 H 111.59911415119525 62.456078163630266 141.16608494855353 H 0.0 **** 0.06
37010 H 112.46668993342801 61.37654855666514 140.04724391210408 H 0.0 **** 0.06
37011 C 29.608836191292596 17.527430069001994 55.56095555240394 C 0.0 **** -0.24
37012 H 30.53970835720989 17.069006356630375 55.22647626103702 H 0.0 **** 0.06
37013 H 29.727342842369353 17.885080338497232 56.583428587194305 H 0.0 **** 0.06
37014 H 28.80818357100486 16.788117735909346 55.524881271648354 H 0.0 **** 0.06
37015 H 29.360615613365184 18.364574207300784 54.90933843128953 H 0.0 **** 0.06
37016 C 59.844167519402134 92.95773517834147 35.98173729348116 C 0.0 **** -0.24
37017 H 59.15886594901261 92.91880947971835 35.1348882955302 H 0.0 **** 0.06
37018 H 59.27963222502753 92.86173722625888 36.90975938344977 H 0.0 **** 0.06
37019 H 60.37486366544948 93.9099113151854 35.97618006553569 H 0.0 **** 0.06
37020 H 60.561256224267254 92.14103285757628 35.906819082591824 H 0.0 **** 0.06
37021 C 23.210928440716373 100.21675278325607 148.30441571073834 C 0.0 **** -0.24
37022 H 23.285621702792355 99.47465840912719 147.51013647962853 H 0.0 **** 0.06
37023 H 23.307263375658408 101.21590257238977 147.87913584833518 H 0.0 **** 0.06
37024 H 24.00805362429338 100.0523327817054 149.0309459902404 H 0.0 **** 0.06
37025 H 22.244117212562173 100.1230045227551 148.79884465368045 H 0.0 **** 0.06
37026 C 99.13288543960965 56.1641996985058 38.787580676545076 C 0.0 **** -0.24
37027 H 99.71891234959354 55.30333845773447 38.46642800067667 H 0.0 **** 0.06
37028 H 98.07519615292445 55.898247712116415 38.8038790485179 H 0.0 **** 0.06
37029 H 99.2895455830288 56.989637234091234 38.092271978348776 H 0.0 **** 0.06
37030 H 99.44787161604373 56.46668337462023 39.786864942306465 H 0.0 **** 0.06
37031 C 10.730311360073344 12.418905721473436 87.46877248402896 C 0.0 **** -0.24
37032 H 10.168364220331775 13.237872742535181 87.91780823132228 H 0.0 **** 0.06
37033 H 11.70482522546289 12.34058499712831 87.94967291861741 H 0.0 **** 0.06
37034 H 10.865103992278563 12.612119669015506 86.40407909181067 H 0.0 **** 0.06
37035 H 10.182626827738453 11.486180716110375 87.60275151745378 H 0.0 **** 0.06
37036 C 87.52018918825416 15.293549113878214 107.8897292039477 C 0.0 **** -0.24
37037 H 87.39391680117724 16.251351357831055 108.39356527531669 H 0.0 **** 0.06
37038 H 86.54165333166857 14.890415716172924 107.62591153502615 H 0.0 **** 0.06
37039 H 88.03307768984337 14.59807918169372 108.55404135010127 H 0.0 **** 0.06
37040 H 88.11102855145914 15.434645326797408 106.98453508909927 H 0.0 **** 0.06
37041 C 57.30114583122412 46.152044126764025 56.70318031251486 C 0.0 **** -0.24
37042 H 57.51386442996994 45.760023053701644 57.69741515665213 H 0.0 **** 0.06
37043 H 57.254177048422434 45.32825651358789 55.98973330718921 H 0.0 **** 0.06
37044 H 58.09088202605918 46.84381944822323 56.408602058243034 H 0.0 **** 0.06
37045 H 56.3454855152429 46.67706185118925 56.71694453000808 H 0.0 **** 0.06
37046 C 110.90290133044262 84.5854101166592 57.77155451115817 C 0.0 **** -0.24
37047 H 110.081715121253 84.45825929296339 57.06643853776603 H 0.0 **** 0.06
37048 H 111.84648815445705 84.62465326215269 57.22637693907666 H 0.0 **** 0.06
37049 H 110.91853498822668 83.74667146338587 58.46651687392671 H 0.0 **** 0.06
37050 H 110.7652399534036 85.51428576976014 58.32594162327169 H 0.0 **** 0.06
37051 C 103.0248852371829 34.2234326029577 132.59832652393433 C 0.0 **** -0.24
37052 H 102.61914518382383 35.2290825162126 132.48165613407153 H 0.0 **** 0.06
37053 H 103.93348322821072 34.12812900834302 132.00496445794133 H 0.0 **** 0.06
37054 H 102.2891153827365 33.49401526115764 132.25773178460446 H 0.0 **** 0.06
37055 H 103.25465265239535 34.04446620966078 133.64844300252736 H 0.0 **** 0.06
37056 C 96.89430927041523 118.85597174579482 155.68729874274467 C 0.0 **** -0.24
37057 H 97.79921995288616 118.95187626425167 155.0860070495356 H 0.0 **** 0.06
37058 H 96.02226961849358 118.85033531533958 155.03299624138117 H 0.0 **** 0.06
37059 H 96.82649897558814 119.69765441914927 156.3761453831391 H 0.0 **** 0.06
37060 H 96.93131796921793 117.92574979104677 156.25273139715253 H 0.0 **** 0.06
37061 C 15.000499644700064 120.01428351961228 56.805184735554036 C 0.0 **** -0.24
37062 H 14.294625151833422 119.79525893222196 57.606795067656776 H 0.0 **** 0.06
37063 H 15.315540365171614 121.05527030414463 56.87346732857446 H 0.0 **** 0.06
37064 H 14.520236699569807 119.8412330943015 55.84169848706776 H 0.0 **** 0.06
37065 H 15.87037160929399 119.36417047360545 56.89901684388556 H 0.0 **** 0.06
37066 C 106.08779401279175 75.84501845805778 35.24300066280725 C 0.0 **** -0.24
37067 H 106.06043484376058 75.95742798026748 34.15887185756685 H 0.0 **** 0.06
37068 H 107.11981689707649 75.70648902821708 35.56718128409017 H 0.0 **** 0.06
37069 H 105.49652138527328 74.97666023958504 35.533199469996305 H 0.0 **** 0.06
37070 H 105.67669282197933 76.73896398931709 35.712062354972545 H 0.0 **** 0.06
37071 C 51.42651467792044 18.7777607602482 49.04984704556841 C 0.0 **** -0.24
37072 H 51.25589998048359 19.515607417799373 48.26508870863961 H 0.0 **** 0.06
37073 H 50.83693211964926 17.884970777156553 48.84242932412599 H 0.0 **** 0.06
37074 H 51.12983511397012 19.195481196059255 50.011165149718636 H 0.0 **** 0.06
37075 H 52.484376797234376 18.516594046724478 49.07797806653872 H 0.0 **** 0.06
37076 C 25.946038644208016 38.12953506424739 78.47192044498175 C 0.0 **** -0.24
37077 H 25.889771571112448 37.710401407530355 79.47763647697906 H 0.0 **** 0.06
37078 H 26.774322637844477 37.669189212308424 77.93262088368846 H 0.0 **** 0.06
37079 H 26.105043473743876 39.20563487657901 78.53590720332025 H 0.0 **** 0.06
37080 H 25.01314748700395 37.930444608949216 77.94361581634124 H 0.0 **** 0.06
37081 C 8.547734389739638 119.62302873015183 96.76447412326537 C 0.0 **** -0.24
37082 H 7.6175941744945845 119.43856420796708 97.30211405457946 H 0.0 **** 0.06
37083 H 9.267298417064175 118.84000080064358 97.00506208133771 H 0.0 **** 0.06
37084 H 8.951615135340923 120.59111653849571 97.05905174763299 H 0.0 **** 0.06
37085 H 8.353759009358697 119.62031192266777 95.69189133359066 H 0.0 **** 0.06
37086 C 67.61184419601932 17.292298859454924 143.90690708638908 C 0.0 **** -0.24
37087 H 68.5185224533414 17.896316484547768 143.89732161331528 H 0.0 **** 0.06
37088 H 67.51576060130537 16.796999654302454 144.87342368271692 H 0.0 **** 0.06
37089 H 67.66606874690399 16.54231563024498 143.11800816101498 H 0.0 **** 0.06
37090 H 66.74702498252634 17.93356366872451 143.7388748885092 H 0.0 **** 0.06
37091 C 10.303973036151554 82.61581473218934 8.77736603484631 C 0.0 **** -0.24
37092 H 9.883414421107048 82.8561995098878 9.753568506426475 H 0.0 **** 0.06
37093 H 11.112137935922632 81.8932473647589 8.89796296642426 H 0.0 **** 0.06
37094 H 10.694341311243463 83.52412848720883 8.31685713322409 H 0.0 **** 0.06
37095 H 9.528395106087125 82.1901847004359 8.141003240146148 H 0.0 **** 0.06
37096 C 73.23959856251278 100.44202052314768 47.42175203087501 C 0.0 **** -0.24
37097 H 72.9744510557157 101.36552332602997 46.906587922553314 H 0.0 **** 0.06
37098 H 73.43553410859042 99.65997036982674 46.688054888225906 H 0.0 **** 0.06
37099 H 72.41576530584426 100.13709575958632 48.06798756367323 H 0.0 **** 0.06
37100 H 74.13242667224158 100.60731478140451 48.025655566452656 H 0.0 **** 0.06
37101 C 75.02453609548137 8.838564047686724 49.325264910237024 C 0.0 **** -0.24
37102 H 74.42372594439173 8.277363600881806 50.040097654969315 H 0.0 **** 0.06
37103 H 75.31548333799338 9.792962186009753 49.76505985582216 H 0.0 **** 0.06
37104 H 74.4419633918648 9.016223294972612 48.42178780518185 H 0.0 **** 0.06
37105 H 75.91890584500416 8.267237713279599 49.075133610661055 H 0.0 **** 0.06
37106 C 50.90490745073416 67.05893940933933 116.21510781943176 C 0.0 **** -0.24
37107 H 51.630453245380636 66.9362541856636 115.41147713285115 H 0.0 **** 0.06
37108 H 49.95835406959283 67.40344773192234 115.80018211353512 H 0.0 **** 0.06
37109 H 51.27677957041362 67.79288759756861 116.93095968771307 H 0.0 **** 0.06
37110 H 50.75619051036851 66.10328107136824 116.71842492041303 H 0.0 **** 0.06
37111 C 9.811515696210108 96.12719572821747 12.250399026617885 C 0.0 **** -0.24
37112 H 10.007354387756521 96.07124776241179 11.179537360870825 H 0.0 **** 0.06
37113 H 10.320754841229359 96.99694810708459 12.666785864201472 H 0.0 **** 0.06
37114 H 10.179023726097967 95.22304550972612 12.735021435161855 H 0.0 **** 0.06
37115 H 8.738567644056076 96.21976916020422 12.418274884984271 H 0.0 **** 0.06
37116 C 91.84262258463389 146.93564700593123 32.54730336231548 C 0.0 **** -0.24
37117 H 90.75552419448172 146.88176898017224 32.489459458230215 H 0.0 **** 0.06
37118 H 92.1475538442595 147.97254401149178 32.69552368179497 H 0.0 **** 0.06
37119 H 92.27513502869374 146.55830566915228 31.62149662085178 H 0.0 **** 0.06
37120 H 92.19246883957823 146.33093596477363 33.38374810814647 H 0.0 **** 0.06
37121 C 101.88215963471653 146.25696267952384 64.40384836857118 C 0.0 **** -0.24
37122 H 101.29587913509455 145.4762160641758 63.919510096271964 H 0.0 **** 0.06
37123 H 101.22268900163165 146.89136531785158 64.99617805005731 H 0.0 **** 0.06
37124 H 102.380425352449 146.86003583527196 63.64387550016325 H 0.0 **** 0.06
37125 H 102.62862017025127 145.80073363051167 65.0532414397226 H 0.0 **** 0.06
37126 C 121.14501505228505 139.31936043895954 102.62203861346973 C 0.0 **** -0.24
37127 H 120.51199574694967 140.206683663621 102.6457397082732 H 0.0 **** 0.06
37128 H 121.11357915909379 138.87859031929665 101.62538362145847 H 0.0 **** 0.06
37129 H 120.78259037555402 138.59455531552575 103.35165466875287 H 0.0 **** 0.06
37130 H 122.17007589176428 139.59781531840704 102.86409188581871 H 0.0 **** 0.06
37131 C 142.6994421895316 79.03880212227483 11.307816382545298 C 0.0 **** -0.24
37132 H 141.61299940340962 79.04437292714061 11.221441030364929 H 0.0 **** 0.06
37133 H 143.08405808062633 78.06934449828066 10.991210634207675 H 0.0 **** 0.06
37134 H 142.98160647678642 79.22154338723811 12.34465755382837 H 0.0 **** 0.06
37135 H 143.11786731207454 79.82091713450188 10.67468355247047 H 0.0 **** 0.06
37136 C 28.831451694780057 49.03630636176712 43.72661635455768 C 0.0 **** -0.24
37137 H 28.373762699481148 49.13286419581216 42.74182497762564 H 0.0 **** 0.06
37138 H 29.849430420202587 49.42417928683963 43.69347166243091 H 0.0 **** 0.06
37139 H 28.850778999702328 47.985263341948055 44.0163036437724 H 0.0 **** 0.06
37140 H 28.249315936497425 49.60303994146088 44.45323983199705 H 0.0 **** 0.06
37141 C 5.325005976102574 11.605402416061324 61.77333823243001 C 0.0 **** -0.24
37142 H 4.773820982889447 10.675961738054788 61.91388280937733 H 0.0 **** 0.06
37143 H 4.639983824878783 12.449621198518408 61.857813099202914 H 0.0 **** 0.06
37144 H 5.786398739528693 11.607954498318534 60.78544456442462 H 0.0 **** 0.06
37145 H 6.098961276707541 11.688461487985094 62.535880054663735 H 0.0 **** 0.06
37146 C 149.7687494827869 148.01617567506415 54.879098315580634 C 0.0 **** -0.24
37147 H 149.45226658596533 146.97520883856325 54.808882135332524 H 0.0 **** 0.06
37148 H 149.28845115276084 148.59520394126844 54.0896627660327 H 0.0 **** 0.06
37149 H 150.85080918697298 148.07602592574335 54.76700737370969 H 0.0 **** 0.06
37150 H 149.4810707772569 148.4186321294575 55.85051915388513 H 0.0 **** 0.06
37151 C 123.37561454408903 3.2040075002475987 138.6570287794878 C 0.0 **** -0.24
37152 H 122.90061387508432 2.589808419752444 137.8909755325408 H 0.0 **** 0.06
37153 H 123.87802425723784 2.5602277573856327 139.37803068560166 H 0.0 **** 0.06
37154 H 122.61757129374321 3.79913686581358 139.16703384448812 H 0.0 **** 0.06
37155 H 124.10403993915877 3.866870405339853 138.19004496529786 H 0.0 **** 0.06
37156 C 154.96992715579034 58.672864705240215 100.92515163731862 C 0.0 **** -0.24
37157 H 155.7939670311578 58.621644524617636 100.21234135256672 H 0.0 **** 0.06
37158 H 154.35792574601953 59.54874264943987 100.71038719993656 H 0.0 **** 0.06
37159 H 155.37017928935705 58.74688412520504 101.93633412744528 H 0.0 **** 0.06
37160 H 154.36015383738314 57.77261948570771 100.84005897243652 H 0.0 **** 0.06
37161 C 22.811453543723047 33.574190716909015 25.44602839322603 C 0.0 **** -0.24
37162 H 23.818710699478487 33.158854332765145 25.409090714532084 H 0.0 **** 0.06
37163 H 22.656515676237433 34.22640992959987 24.585855697988414 H 0.0 **** 0.06
37164 H 22.688353149707368 34.14830991728314 26.3640491387181 H 0.0 **** 0.06
37165 H 22.083685697835286 32.76381391262515 25.423246191521244 H 0.0 **** 0.06
37166 C 8.502703080855767 64.51270313118053 69.85643933050733 C 0.0 **** -0.24
37167 H 8.622782993549905 64.1900027966276 68.82257040353979 H 0.0 **** 0.06
37168 H 9.321655558092907 65.17990057970732 70.12613191659337 H 0.0 **** 0.06
37169 H 8.512534763284933 63.641671947292366 70.51259459094585 H 0.0 **** 0.06
37170 H 7.554054689425591 65.03787708154664 69.96478231411946 H 0.0 **** 0.06
37171 C 101.47917743049767 16.855551658371667 155.8518644817667 C 0.0 **** -0.24
37172 H 100.79397526022218 17.22330389129678 155.08821996669084 H 0.0 **** 0.06
37173 H 101.49581077510048 15.765858543610676 155.8302098983939 H 0.0 **** 0.06
37174 H 101.14514812404975 17.195570365735193 156.83229723470328 H 0.0 **** 0.06
37175 H 102.47993021364898 17.238801818900072 155.65581905125725 H 0.0 **** 0.06
37176 C 86.59103565801507 131.15196931643814 43.92911757020208 C 0.0 **** -0.24
37177 H 87.08676607745866 131.79814751848448 44.653844944637854 H 0.0 **** 0.06
37178 H 85.61965301654118 130.84667279659362 44.31881166531498 H 0.0 **** 0.06
37179 H 87.20522162232635 130.26891575444841 43.751779783746215 H 0.0 **** 0.06
37180 H 86.4545165328683 131.6944733990513 42.993387088640475 H 0.0 **** 0.06
37181 C 4.829466450346601 117.8639080301201 147.86278964098474 C 0.0 **** -0.24
37182 H 4.645981793500738 116.92515655049498 148.38443288732958 H 0.0 **** 0.06
37183 H 4.375779922031242 117.82327386133214 146.87262295640613 H 0.0 **** 0.06
37184 H 5.903676211971941 118.02072080056287 147.76495910562662 H 0.0 **** 0.06
37185 H 4.392690395232499 118.68551870878183 148.42921633033015 H 0.0 **** 0.06
37186 C 136.55237598511889 61.70526462316916 37.27053543014276 C 0.0 **** -0.24
37187 H 137.1415812076716 60.94621269172215 37.78584414052996 H 0.0 **** 0.06
37188 H 136.28020825850848 61.342392877205825 36.27880031717558 H 0.0 **** 0.06
37189 H 137.14106927445982 62.61859232439805 37.174616444856696 H 0.0 **** 0.06
37190 H 135.64879677688862 61.914367624604196 37.84254346904267 H 0.0 **** 0.06
37191 C 77.16156150111986 151.65058131939702 153.06679003433683 C 0.0 **** -0.24
37192 H 76.47196335229798 152.37471554485094 152.6322469310494 H 0.0 **** 0.06
37193 H 78.18650207829668 151.95056533823492 152.85016581927866 H 0.0 **** 0.06
37194 H 76.97227911691553 150.66554305405037 152.63951086889895 H 0.0 **** 0.06
37195 H 77.01399477445719 151.61248655239672 154.14656295243026 H 0.0 **** 0.06
37196 C 46.334517828262136 16.21962583791472 156.59632463645593 C 0.0 **** -0.24
37197 H 45.943513879463296 16.572235659438554 157.5497772246108 H 0.0 **** 0.06
37198 H 45.9577336611446 16.853054032196674 155.7929653763251 H 0.0 **** 0.06
37199 H 46.01400273863413 15.191086019306944 156.42922106250666 H 0.0 **** 0.06
37200 H 47.4243226347898 16.26275962848603 156.6127467636891 H 0.0 **** 0.06
37201 C 101.66666451815513 99.7292577824258 153.14521306718495 C 0.0 **** -0.24
37202 H 102.60816147638621 99.19529738805329 153.27209265788815 H 0.0 **** 0.06
37203 H 101.10577503335736 99.28757446320179 152.32216843335482 H 0.0 **** 0.06
37204 H 101.87166485956794 100.7770339932211 152.9247123744468 H 0.0 **** 0.06
37205 H 101.08276221478309 99.65880045171946 154.06241288462917 H 0.0 **** 0.06
37206 C 91.53906611206511 15.746179070518565 48.74500337144886 C 0.0 **** -0.24
37207 H 90.75229036637687 15.430015140092337 48.06026184514617 H 0.0 **** 0.06
37208 H 92.2990651115005 16.30013542426383 48.19462211563959 H 0.0 **** 0.06
37209 H 91.99136952573147 14.869529368022455 49.209196873503046 H 0.0 **** 0.06
37210 H 91.1109192079969 16.385869070941396 49.51778772380895 H 0.0 **** 0.06
37211 C 116.13509155228961 19.69927224909557 20.897482179037866 C 0.0 **** -0.24
37212 H 116.66188682670504 18.759585624757563 20.728034562095445 H 0.0 **** 0.06
37213 H 115.0991433244644 19.49099086896598 21.165089745590024 H 0.0 **** 0.06
37214 H 116.16365697108041 20.299512243053528 19.988584710584917 H 0.0 **** 0.06
37215 H 116.61823913526963 20.244552068270536 21.708892702133426 H 0.0 **** 0.06
37216 C 13.730583944370323 73.70888330542918 57.31976934633235 C 0.0 **** -0.24
37217 H 14.266376842197559 72.96490373805082 57.909440484506376 H 0.0 **** 0.06
37218 H 13.815798681422024 73.46210064939089 56.260869689325915 H 0.0 **** 0.06
37219 H 14.161247343376488 74.69408739911452 57.49943462003682 H 0.0 **** 0.06
37220 H 12.67958346535886 73.71372696034467 57.6091328054531 H 0.0 **** 0.06
37221 C 98.75668770210387 55.975531508947455 156.33712932085336 C 0.0 **** -0.24
37222 H 98.96013814698722 55.02997880250261 155.83557610176587 H 0.0 **** 0.06
37223 H 99.00974046930457 55.888205151002126 157.39417620005244 H 0.0 **** 0.06
37224 H 97.69971196145588 56.220458390941246 156.23595247004795 H 0.0 **** 0.06
37225 H 99.35781086776609 56.76311581781465 155.8834768706238 H 0.0 **** 0.06
37226 C 83.9728320451645 101.24400243551815 116.07037311780807 C 0.0 **** -0.24
37227 H 83.56687918450844 101.59572575846931 115.12191086256995 H 0.0 **** 0.06
37228 H 84.93661730936488 100.7656373297246 115.89745566553741 H 0.0 **** 0.06
37229 H 83.28383129490972 100.52515922771767 116.51561252720624 H 0.0 **** 0.06
37230 H 84.10167632652815 102.08939645947157 116.74490384898188 H 0.0 **** 0.06
37231 C 127.70853758834267 12.976663631049917 67.99699761388383 C 0.0 **** -0.24
37232 H 128.17016913935834 13.848504927072156 67.53306038968081 H 0.0 **** 0.06
37233 H 127.66008586469752 12.162792117983145 67.27279025556628 H 0.0 **** 0.06
37234 H 126.70008704328615 13.231743999454977 68.32456320290446 H 0.0 **** 0.06
37235 H 128.30216445571813 12.66542187717937 68.85583656496443 H 0.0 **** 0.06
37236 C 28.926388454397504 119.10936292961232 133.4013443391267 C 0.0 **** -0.24
37237 H 27.979369223375116 119.51218449808123 133.0410596494775 H 0.0 **** 0.06
37238 H 29.029309812779807 119.32097084025581 134.46552944959745 H 0.0 **** 0.06
37239 H 29.74885471525843 119.57231471469309 132.85607966480512 H 0.0 **** 0.06
37240 H 28.94575009179593 118.03147050411185 133.24081485997007 H 0.0 **** 0.06
37241 C 36.264835394114996 128.95893069362828 95.20495853518925 C 0.0 **** -0.24
37242 H 35.94450495288088 128.40455731825557 94.32215149012465 H 0.0 **** 0.06
37243 H 37.298002663278126 129.28170562756026 95.07585232686802 H 0.0 **** 0.06
37244 H 36.19100066497653 128.31695388860385 96.08269533091675 H 0.0 **** 0.06
37245 H 35.6246658832594 129.831142498401 95.33780144923418 H 0.0 **** 0.06
37246 C 14.344117493193245 86.3730955335354 107.7858574340928 C 0.0 **** -0.24
37247 H 15.275925119425267 86.38924304403886 108.35090120837259 H 0.0 **** 0.06
37248 H 14.52581762442793 86.73559265754312 106.77410767897533 H 0.0 **** 0.06
37249 H 13.61133573461074 87.01520230920386 108.27618641117408 H 0.0 **** 0.06
37250 H 13.962275668614687 85.35319066501648 107.74488747256146 H 0.0 **** 0.06
37251 C 60.71883720113257 145.87417766238167 47.273560502063006 C 0.0 **** -0.24
37252 H 60.215668579008764 144.96873523117267 47.61334134915289 H 0.0 **** 0.06
37253 H 60.088188483131404 146.73953551212838 47.48087114873019 H 0.0 **** 0.06
37254 H 60.90342173401274 145.8072267229106 46.20184329990467 H 0.0 **** 0.06
37255 H 61.66768666815298 145.98148243084614 47.80037269595182 H 0.0 **** 0.06
37256 C 21.844870426422602 111.24728189744873 151.93766033392663 C 0.0 **** -0.24
37257 H 22.50113257523924 112.09254834531971 152.1414647727616 H 0.0 **** 0.06
37258 H 20.983423797803823 111.58602783788818 151.36182565674906 H 0.0 **** 0.06
37259 H 21.504664388616476 110.8154996055115 152.88007619095828 H 0.0 **** 0.06
37260 H 22.388825951906824 110.49341872936951 151.36840346219967 H 0.0 **** 0.06
37261 C 149.98155595674478 129.8978271361826 34.04124723091934 C 0.0 **** -0.24
37262 H 149.1343409552009 130.53816376806378 34.28541804819863 H 0.0 **** 0.06
37263 H 150.8738735552381 130.26907817352276 34.54576844747216 H 0.0 **** 0.06
37264 H 150.14399380969212 129.90651394863696 32.963351984912386 H 0.0 **** 0.06
37265 H 149.77428509195653 128.8797400634668 34.37007264862643 H 0.0 **** 0.06
37266 C 16.792009508702904 128.06289723753298 45.75544213992784 C 0.0 **** -0.24
37267 H 16.457532183111823 127.02557673136374 45.75928289536954 H 0.0 **** 0.06
37268 H 16.10648608668754 128.6628668126554 45.157339470998906 H 0.0 **** 0.06
37269 H 17.793870011485183 128.1194846391245 45.32870908503661 H 0.0 **** 0.06
37270 H 16.811118482791642 128.44220477588732 46.77740756372734 H 0.0 **** 0.06
37271 C 104.39721560629852 25.689419473277106 89.56660035782878 C 0.0 **** -0.24
37272 H 103.35626779347689 25.525845170783533 89.84623008312013 H 0.0 **** 0.06
37273 H 104.94608097169464 24.74970655198515 89.64594258414937 H 0.0 **** 0.06
37274 H 104.84133966172675 26.427391430572904 90.2350282913859 H 0.0 **** 0.06
37275 H 104.44448376412748 26.05253209284372 88.54002030107011 H 0.0 **** 0.06
37276 C 44.76417778988615 96.09425385647712 152.430246738234 C 0.0 **** -0.24
37277 H 44.20402603560632 95.71634644788197 153.285042413439 H 0.0 **** 0.06
37278 H 45.83208189799949 96.03178137046085 152.63879089664837 H 0.0 **** 0.06
37279 H 44.4895127199472 97.13291633736995 152.24608370276783 H 0.0 **** 0.06
37280 H 44.530348537837796 95.4954809270088 151.54997034382885 H 0.0 **** 0.06
37281 C 153.27003645493187 142.45253287680973 116.19657424173761 C 0.0 **** -0.24
37282 H 152.75856154859093 141.64550657046595 115.6728046322554 H 0.0 **** 0.06
37283 H 152.54660373245127 143.02269478955057 116.77995077711773 H 0.0 **** 0.06
37284 H 153.75008169632798 143.10973016732925 115.47059145892274 H 0.0 **** 0.06
37285 H 154.02403640332702 142.033095534795 116.86174416416821 H 0.0 **** 0.06
37286 C 22.5685771910532 21.234478182842025 89.08659157750016 C 0.0 **** -0.24
37287 H 23.152671147521772 20.391473895626433 89.45785124860014 H 0.0 **** 0.06
37288 H 22.091594617727274 20.958579499873565 88.14536086210859 H 0.0 **** 0.06
37289 H 23.22623073552898 22.088248571777513 88.92553386826472 H 0.0 **** 0.06
37290 H 21.80473111833917 21.496658902663057 89.81828557179162 H 0.0 **** 0.06
37291 C 119.50781536567678 4.776687019132666 78.93728356985882 C 0.0 **** -0.24
37292 H 120.47366383540123 4.6114696592514335 78.45850630386455 H 0.0 **** 0.06
37293 H 119.45659620487527 5.801138413281812 79.30659051941072 H 0.0 **** 0.06
37294 H 119.39159828417621 4.08303588157294 79.77019074947165 H 0.0 **** 0.06
37295 H 118.71125332049758 4.611249940395737 78.21259941941769 H 0.0 **** 0.06
37296 C 125.35624104260388 89.71960915653739 116.44678301395093 C 0.0 **** -0.24
37297 H 126.33604088853726 89.52090562322653 116.01217186845271 H 0.0 **** 0.06
37298 H 124.59232088155362 89.6369255070098 115.6737622713709 H 0.0 **** 0.06
37299 H 125.34186915402877 90.72461457004628 116.86698439031265 H 0.0 **** 0.06
37300 H 125.15507648104649 88.99408302055362 117.23532808834857 H 0.0 **** 0.06
37301 C 45.50858711725745 115.70411327913206 98.93727978911656 C 0.0 **** -0.24
37302 H 45.80255658899914 116.2419983385924 99.8378053231355 H 0.0 **** 0.06
37303 H 46.22592731735071 114.90735818241052 98.7398613681129 H 0.0 **** 0.06
37304 H 45.48995821889788 116.39310430067422 98.09312104039506 H 0.0 **** 0.06
37305 H 44.5168269469991 115.2743165423222 99.078113741926 H 0.0 **** 0.06
37306 C 1.5789183502791388 100.24597017690246 66.3908113026639 C 0.0 **** -0.24
37307 H 0.5992702362295574 99.78226047145057 66.27426706276094 H 0.0 **** 0.06
37308 H 1.453908062985363 101.30299268833033 66.62806337455777 H 0.0 **** 0.06
37309 H 2.1405478145399854 100.14526002133846 65.46172115497842 H 0.0 **** 0.06
37310 H 2.119858375394301 99.75330988592009 67.19791560440882 H 0.0 **** 0.06
37311 C 37.587470669540664 80.31530855499744 108.59363730435479 C 0.0 **** -0.24
37312 H 38.30009123441826 80.50137912611609 109.39797391712148 H 0.0 **** 0.06
37313 H 37.852721106936784 79.39110468532522 108.08022705537132 H 0.0 **** 0.06
37314 H 37.61258507642489 81.14540076772522 107.88701938426846 H 0.0 **** 0.06
37315 H 36.584726072656665 80.2249981643684 109.01219674099309 H 0.0 **** 0.06
37316 C 121.70848953382863 38.03846352471058 150.93213340357397 C 0.0 **** -0.24
37317 H 121.79435300059238 37.15662993196443 151.5668629867559 H 0.0 **** 0.06
37318 H 121.08316584343949 37.80517982895104 150.07062039957248 H 0.0 **** 0.06
37319 H 122.70040452246225 38.337564058890166 150.59171566916302 H 0.0 **** 0.06
37320 H 121.25788630910866 38.85181150841886 151.5000052450181 H 0.0 **** 0.06
37321 C 44.16469317411793 103.7982349078041 146.30250351827465 C 0.0 **** -0.24
37322 H 43.56638033674095 102.91394794083635 146.0839035009895 H 0.0 **** 0.06
37323 H 44.35572556850609 103.85144136588622 147.3748180259396 H 0.0 **** 0.06
37324 H 43.623762085550354 104.69029755434138 145.9850677024461 H 0.0 **** 0.06
37325 H 45.11226088494237 103.73690271000612 145.76690527396147 H 0.0 **** 0.06
37326 C 40.855385918628485 54.23363439530226 49.2886781311517 C 0.0 **** -0.24
37327 H 39.868116839955405 54.09088926999186 48.84772199652059 H 0.0 **** 0.06
37328 H 40.79384046357313 54.97612137765623 50.08437274116173 H 0.0 **** 0.06
37329 H 41.548140969833526 54.57878673728493 48.5211196814962 H 0.0 **** 0.06
37330 H 41.20913459228643 53.28825818509529 49.69939378769851 H 0.0 **** 0.06
37331 C 39.973535691295154 35.63903940867043 59.933591093357606 C 0.0 **** -0.24
37332 H 39.77576136506991 35.01770443195565 60.80762362495693 H 0.0 **** 0.06
37333 H 39.162008402304934 36.35602294321501 59.80856010881058 H 0.0 **** 0.06
37334 H 40.04045933686896 35.007301820018824 59.0473554900678 H 0.0 **** 0.06
37335 H 40.91370926213969 36.17286053977499 60.07182395631416 H 0.0 **** 0.06
37336 C 127.6573810008503 8.931557281914706 57.66791427001269 C 0.0 **** -0.24
37337 H 128.41514425016067 9.582786990446607 57.23287590589078 H 0.0 **** 0.06
37338 H 127.75776018128768 7.929365679925638 57.25079834438304 H 0.0 **** 0.06
37339 H 126.66727645027724 9.323450728672015 57.43875903665953 H 0.0 **** 0.06
37340 H 127.791643583316 8.890461199414176 58.74839856485714 H 0.0 **** 0.06
37341 C 99.44444597567058 133.21368889840392 97.83282183244371 C 0.0 **** -0.24
37342 H 99.27946877144507 132.22508647111283 98.2609636616867 H 0.0 **** 0.06
37343 H 99.0454892798553 133.24076702874828 96.81874638872384 H 0.0 **** 0.06
37344 H 100.51341910223253 133.42592740722495 97.80890639308623 H 0.0 **** 0.06
37345 H 98.93865351113324 133.9625929085455 98.44320652665333 H 0.0 **** 0.06
37346 C 76.96254728724698 48.0582582876213 128.89295866513353 C 0.0 **** -0.24
37347 H 77.89937213500184 47.52409542437596 129.05497702098137 H 0.0 **** 0.06
37348 H 76.49506478926341 47.699446453955375 127.97556514050659 H 0.0 **** 0.06
37349 H 77.16341309925734 49.1251038104333 128.80587157301213 H 0.0 **** 0.06
37350 H 76.2938907231097 47.88168268150554 129.7348945856171 H 0.0 **** 0.06
37351 C 50.970753964685116 18.91922944455814 7.408593415026758 C 0.0 **** -0.24
37352 H 51.03180637247817 18.116442026919913 8.143772750684292 H 0.0 **** 0.06
37353 H 50.61227124299998 19.82787028181525 7.892432895258196 H 0.0 **** 0.06
37354 H 50.279656089788006 18.632513875387417 6.615693929529016 H 0.0 **** 0.06
37355 H 51.9574292453444 19.097860322742235 6.983241191207242 H 0.0 **** 0.06
37356 C 42.41987168797614 103.9911165414087 133.96090025300947 C 0.0 **** -0.24
37357 H 42.29185568367606 104.27593617275295 132.9166424555833 H 0.0 **** 0.06
37358 H 42.25496183758031 102.91848285287631 134.06632039781113 H 0.0 **** 0.06
37359 H 41.70105391171988 104.53217961023876 134.5760428567209 H 0.0 **** 0.06
37360 H 43.43162492964569 104.23783091417181 134.2823595180151 H 0.0 **** 0.06
37361 C 34.876913023752934 74.6686784724053 81.30292378022824 C 0.0 **** -0.24
37362 H 35.84558246434729 74.36215662074994 80.90775856021506 H 0.0 **** 0.06
37363 H 34.2792205860643 75.10383630651563 80.50241078333593 H 0.0 **** 0.06
37364 H 35.02311730597049 75.40753819907485 82.09079894870459 H 0.0 **** 0.06
37365 H 34.3596377664187 73.80004485573784 81.71156133494708 H 0.0 **** 0.06
37366 C 102.09319788825314 75.0827159943039 71.52485421967828 C 0.0 **** -0.24
37367 H 103.07022597613894 74.61263176619303 71.63720459905971 H 0.0 **** 0.06
37368 H 101.98725457093786 75.45904924703063 70.5073327355415 H 0.0 **** 0.06
37369 H 102.00493932711805 75.90969715367822 72.22910647921043 H 0.0 **** 0.06
37370 H 101.31209675861618 74.34991557741427 71.72441676011385 H 0.0 **** 0.06
37371 C 122.58097567765806 92.09005578000217 150.77737173912976 C 0.0 **** -0.24
37372 H 123.50912577769746 91.52466414332012 150.69347083192167 H 0.0 **** 0.06
37373 H 121.7389340055041 91.44460477556143 150.52517433335993 H 0.0 **** 0.06
37374 H 122.60916074831913 92.93627329928013 150.09091330413582 H 0.0 **** 0.06
37375 H 122.46780881920442 92.45371739536765 151.79797847872658 H 0.0 **** 0.06
37376 C 123.46535517061496 46.82425906677737 69.88724727874953 C 0.0 **** -0.24
37377 H 123.32552220183352 47.854875776933085 70.21271862022569 H 0.0 **** 0.06
37378 H 124.52211645131446 46.64729967204427 69.68613126133035 H 0.0 **** 0.06
37379 H 122.88777278922306 46.64869355464562 68.98031895908304 H 0.0 **** 0.06
37380 H 123.12512521799387 46.147661215615145 70.67122980432346 H 0.0 **** 0.06
37381 C 108.31901427553048 46.02206930518179 37.816868257245915 C 0.0 **** -0.24
37382 H 109.39790416773458 45.867018429363384 37.81293174982949 H 0.0 **** 0.06
37383 H 108.06923776906457 46.84966205865672 37.15245526585585 H 0.0 **** 0.06
37384 H 107.9890641023347 46.255004266826575 38.82924163472464 H 0.0 **** 0.06
37385 H 107.82080867785443 45.11569119908543 37.47077776607253 H 0.0 **** 0.06
37386 C 139.86135834543933 24.26919849463519 105.98023609916942 C 0.0 **** -0.24
37387 H 140.50518491801174 24.6832728825608 105.2040560766813 H 0.0 **** 0.06
37388 H 139.6247413823408 23.23194876734246 105.74118983404361 H 0.0 **** 0.06
37389 H 138.93995341966993 24.849489190580783 106.03612318442742 H 0.0 **** 0.06
37390 H 140.3763072058966 24.312554820398418 106.94003325295785 H 0.0 **** 0.06
37391 C 9.278743697498946 12.321749980652129 58.483860688386386 C 0.0 **** -0.24
37392 H 9.460894386215166 13.29418527858104 58.02521221331037 H 0.0 **** 0.06
37393 H 10.081470219117392 12.094655109418 59.18532823478192 H 0.0 **** 0.06
37394 H 9.24474063663537 11.555746015305772 57.709068850633585 H 0.0 **** 0.06
37395 H 8.326614647319104 12.343663603819437 59.01414150085651 H 0.0 **** 0.06
37396 C 65.87949414971415 154.37867147571995 133.94945720329235 C 0.0 **** -0.24
37397 H 66.78610007142274 154.5230616395835 134.53718916425098 H 0.0 **** 0.06
37398 H 65.2612407229347 153.61290574670255 134.41842333706464 H 0.0 **** 0.06
37399 H 66.14658615488548 154.06348550165896 132.9408897406775 H 0.0 **** 0.06
37400 H 65.32434769299007 155.31621967155667 133.9030405749844 H 0.0 **** 0.06
37401 C 18.661798599162815 52.56379672242606 102.72379003017278 C 0.0 **** -0.24
37402 H 18.216490405732934 51.57107564372018 102.80416548591671 H 0.0 **** 0.06
37403 H 18.305250132752818 53.18972917986717 103.54152067323133 H 0.0 **** 0.06
37404 H 18.378481721918227 53.01172728287423 101.77125948728303 H 0.0 **** 0.06
37405 H 19.7476269622762 52.47905071815481 102.77632173258223 H 0.0 **** 0.06
37406 C 84.68950720088372 24.22480302610348 156.10570079669165 C 0.0 **** -0.24
37407 H 83.92923759863234 23.771867892623753 156.7421444875826 H 0.0 **** 0.06
37408 H 85.39535122461538 24.78211642581416 156.72199672971695 H 0.0 **** 0.06
37409 H 84.21235307010036 24.901623115998532 155.39621139851235 H 0.0 **** 0.06
37410 H 85.2198386098857 23.44361913122757 155.56088798737986 H 0.0 **** 0.06
37411 C 28.562644067660614 12.073892562956303 26.12328032790515 C 0.0 **** -0.24
37412 H 27.699815646761976 11.88039808943796 25.486043580677574 H 0.0 **** 0.06
37413 H 29.354489695215605 12.535775554187843 25.532101562711887 H 0.0 **** 0.06
37414 H 28.9219484736104 11.135194041003828 26.543362528130814 H 0.0 **** 0.06
37415 H 28.27362480295983 12.746521085668611 26.931242225313724 H 0.0 **** 0.06
37416 C 101.71945381065154 57.0740507256191 99.55636579924764 C 0.0 **** -0.24
37417 H 102.59338598345488 56.45289361226399 99.36139130637683 H 0.0 **** 0.06
37418 H 101.37245400459773 56.90394012247528 100.57611980171613 H 0.0 **** 0.06
37419 H 100.92676917369545 56.816384805527775 98.8543729270964 H 0.0 **** 0.06
37420 H 101.9855412769802 58.12389329367144 99.43382719346579 H 0.0 **** 0.06
37421 C 31.862374808538988 15.93362724390144 148.76462847438364 C 0.0 **** -0.24
37422 H 32.52865406550745 16.635131165719173 149.268081467218 H 0.0 **** 0.06
37423 H 31.87030641918807 14.981494271374004 149.29505430237134 H 0.0 **** 0.06
37424 H 32.201007481813235 15.782827285144634 147.7398792673746 H 0.0 **** 0.06
37425 H 30.849428272011522 16.33726152196948 148.75753023331833 H 0.0 **** 0.06
37426 C 78.58749246541879 130.35262525407953 120.43331589298641 C 0.0 **** -0.24
37427 H 78.99554172963478 130.65054485991715 119.46753311509967 H 0.0 **** 0.06
37428 H 78.42307846760158 129.27478473580067 120.44056496613867 H 0.0 **** 0.06
37429 H 77.64157096290558 130.86649233819867 120.60162742319251 H 0.0 **** 0.06
37430 H 79.29100856869661 130.61869612352223 121.22196096049286 H 0.0 **** 0.06
37431 C 100.85541179958629 111.99833003410545 63.95105378160156 C 0.0 **** -0.24
37432 H 101.50829942209411 111.13484946459913 63.8218185522084 H 0.0 **** 0.06
37433 H 100.03526626406149 111.94280221433128 63.23398287033339 H 0.0 **** 0.06
37434 H 101.4248639887948 112.91234667408797 63.78224187360874 H 0.0 **** 0.06
37435 H 100.4543483806571 112.00074215675868 64.9637086729479 H 0.0 **** 0.06
37436 C 136.94917164537668 38.68545767364054 140.52338899148532 C 0.0 **** -0.24
37437 H 137.97360631630687 38.61046823988714 140.8884299053291 H 0.0 **** 0.06
37438 H 136.2607432324159 38.35849969638281 141.30316363703275 H 0.0 **** 0.06
37439 H 136.82980339952513 38.05171974071774 139.64398739852766 H 0.0 **** 0.06
37440 H 136.73245298379967 39.72014626349436 140.2579719398776 H 0.0 **** 0.06
37441 C 61.04783176895724 87.06222295595485 28.613217479588002 C 0.0 **** -0.24
37442 H 61.215846067905005 87.4426099665842 27.605959534130335 H 0.0 **** 0.06
37443 H 61.62370627705609 86.14714210704051 28.756940521116803 H 0.0 **** 0.06
37444 H 59.98702231744619 86.84958279797554 28.747999382233502 H 0.0 **** 0.06
37445 H 61.363846261661436 87.80927104974998 29.34165874169389 H 0.0 **** 0.06
37446 C 41.565749404123665 34.73832059102486 6.988876239739511 C 0.0 **** -0.24
37447 H 42.17131519216258 35.56235867747124 7.367778626915538 H 0.0 **** 0.06
37448 H 41.13518901907611 34.18929342306804 7.8256142853849155 H 0.0 **** 0.06
37449 H 42.19238401195696 34.06918009094588 6.398111672870584 H 0.0 **** 0.06
37450 H 40.76640299074705 35.13404381235536 6.362904921337872 H 0.0 **** 0.06
37451 C 138.61564504337133 143.49231130209574 39.88611891326451 C 0.0 **** -0.24
37452 H 139.42444117382507 142.9036041541509 39.45435352170131 H 0.0 **** 0.06
37453 H 138.98210950873926 144.49086101731012 40.12745267173807 H 0.0 **** 0.06
37454 H 138.25733433322392 143.00725391804224 40.79329055757458 H 0.0 **** 0.06
37455 H 137.79862625489926 143.56916463552415 39.167858810481306 H 0.0 **** 0.06
37456 C 156.795104305344 26.96649144083723 2.68945276244267 C 0.0 **** -0.24
37457 H 156.27971671862932 26.646171206349855 3.5950516038745093 H 0.0 **** 0.06
37458 H 156.5868923542935 28.02054465177492 2.506607818309533 H 0.0 **** 0.06
37459 H 156.44419116819768 26.374189486874734 1.8441652086265492 H 0.0 **** 0.06
37460 H 157.86826021313755 26.823800190615543 2.8132398828782925 H 0.0 **** 0.06
37461 C 65.176434774466 89.5289345904663 113.3687030290691 C 0.0 **** -0.24
37462 H 65.92257821359783 88.85751586745647 112.94367298265958 H 0.0 **** 0.06
37463 H 65.65307257411541 90.18829670722393 114.09379520591774 H 0.0 **** 0.06
37464 H 64.39999965134054 88.94460114281762 113.86176546932988 H 0.0 **** 0.06
37465 H 64.73126757154235 90.126552681194 112.57240001323534 H 0.0 **** 0.06
37466 C 93.00613657485766 106.56249525137169 117.6701348610559 C 0.0 **** -0.24
37467 H 93.14636860478846 105.83172460397923 118.46706392442182 H 0.0 **** 0.06
37468 H 92.403189105552 106.12141833710267 116.87642762609174 H 0.0 **** 0.06
37469 H 93.97651985871951 106.85527653304008 117.27114861542633 H 0.0 **** 0.06
37470 H 92.49702038392604 107.44012609104708 118.06831632796603 H 0.0 **** 0.06
37471 C 93.07042821338604 39.30773990127392 66.16493600442755 C 0.0 **** -0.24
37472 H 93.39768112786595 38.42314950311287 66.71094517659805 H 0.0 **** 0.06
37473 H 92.17038246321613 39.0722644627393 65.59789314636981 H 0.0 **** 0.06
37474 H 93.8580554634633 39.62583022959814 65.48238600143469 H 0.0 **** 0.06
37475 H 92.85616075084664 40.11042019912544 66.87079610115543 H 0.0 **** 0.06
37476 C 58.8248405874549 103.75686325454772 149.377892978246 C 0.0 **** -0.24
37477 H 58.75523733217318 102.85601760577036 148.76873934138206 H 0.0 **** 0.06
37478 H 59.00674974961163 103.4796326161236 150.4173851517065 H 0.0 **** 0.06
37479 H 57.89113761278247 104.31535307641285 149.30865022993964 H 0.0 **** 0.06
37480 H 59.64544599092369 104.37622112076404 149.0183207081479 H 0.0 **** 0.06
37481 C 116.77554735328947 95.5355736683199 112.32873103140896 C 0.0 **** -0.24
37482 H 116.3364060783148 96.51891206800443 112.49600384117825 H 0.0 **** 0.06
37483 H 117.21955178587451 95.17396195835353 113.2564280292902 H 0.0 **** 0.06
37484 H 117.54461974699915 95.60835179877573 111.56028608142437 H 0.0 **** 0.06
37485 H 115.99919995971668 94.84292665959654 112.00306167304778 H 0.0 **** 0.06
37486 C 126.19814377409169 83.44688512339361 33.18038696722172 C 0.0 **** -0.24
37487 H 125.67470505220682 82.51189499526919 32.981718848151615 H 0.0 **** 0.06
37488 H 125.47402675717565 84.25864937213163 33.25946963803881 H 0.0 **** 0.06
37489 H 126.89073895932346 83.6556584524866 32.36590171222977 H 0.0 **** 0.06
37490 H 126.75233985315383 83.36063719310899 34.115419424482695 H 0.0 **** 0.06
37491 C 9.456599510603496 102.33339855349412 62.65488099502585 C 0.0 **** -0.24
37492 H 9.335319917962238 103.39616418602598 62.44522140686607 H 0.0 **** 0.06
37493 H 10.393276775297238 102.1731221555239 63.1890793285061 H 0.0 **** 0.06
37494 H 9.473570482111057 101.77820503078847 61.71614042194162 H 0.0 **** 0.06
37495 H 8.624225297180743 101.98639302946312 63.26665054910009 H 0.0 **** 0.06
37496 C 88.97735200908109 152.26817269730861 91.4268011001505 C 0.0 **** -0.24
37497 H 88.68090801063337 151.8909399686456 90.44810191597253 H 0.0 **** 0.06
37498 H 88.3002041393932 151.87767964368416 92.18633688101619 H 0.0 **** 0.06
37499 H 88.93140291897737 153.3574415550402 91.42440845837746 H 0.0 **** 0.06
37500 H 89.99500749166053 151.94753605601386 91.64708295766422 H 0.0 **** 0.06
@<TRIPOS>BOND
1 1 2 28
2 1 3 28
3 1 4 28
4 1 5 28
5 6 7 28
6 6 8 28
7 6 9 28
8 6 10 28
9 11 12 28
10 11 13 28
11 11 14 28
12 11 15 28
13 16 17 28
14 16 18 28
15 16 19 28
16 16 20 28
17 21 22 28
18 21 23 28
19 21 24 28
20 21 25 28
21 26 27 28
22 26 28 28
23 26 29 28
24 26 30 28
25 31 32 28
26 31 33 28
27 31 34 28
28 31 35 28
29 36 37 28
30 36 38 28
31 36 39 28
32 36 40 28
33 41 42 28
34 41 43 28
35 41 44 28
36 41 45 28
37 46 47 28
38 46 48 28
39 46 49 28
40 46 50 28
41 51 52 28
42 51 53 28
43 51 54 28
44 51 55 28
45 56 57 28
46 56 58 28
47 56 59 28
48 56 60 28
49 61 62 28
50 61 63 28
51 61 64 28
52 61 65 28
53 66 67 28
54 66 68 28
55 66 69 28
56 66 70 28
57 71 72 28
58 71 73 28
59 71 74 28
60 71 75 28
61 76 77 28
62 76 78 28
63 76 79 28
64 76 80 28
65 81 82 28
66 81 83 28
67 81 84 28
68 81 85 28
69 86 87 28
70 86 88 28
71 86 89 28
72 86 90 28
73 91 92 28
74 91 93 28
75 91 94 28
76 91 95 28
77 96 97 28
78 96 98 28
79 96 99 28
80 96 100 28
81 101 102 28
82 101 103 28
83 101 104 28
84 101 105 28
85 106 107 28
86 106 108 28
87 106 109 28
88 106 110 28
89 111 112 28
90 111 113 28
91 111 114 28
92 111 115 28
93 116 117 28
94 116 118 28
95 116 119 28
96 116 120 28
97 121 122 28
98 121 123 28
99 121 124 28
100 121 125 28
101 126 127 28
102 126 128 28
103 126 129 28
104 126 130 28
105 131 132 28
106 131 133 28
107 131 134 28
108 131 135 28
109 136 137 28
110 136 138 28
111 136 139 28
112 136 140 28
113 141 142 28
114 141 143 28
115 141 144 28
116 141 145 28
117 146 147 28
118 146 148 28
119 146 149 28
120 146 150 28
121 151 152 28
122 151 153 28
123 151 154 28
124 151 155 28
125 156 157 28
126 156 158 28
127 156 159 28
128 156 160 28
129 161 162 28
130 161 163 28
131 161 164 28
132 161 165 28
133 166 167 28
134 166 168 28
135 166 169 28
136 166 170 28
137 171 172 28
138 171 173 28
139 171 174 28
140 171 175 28
141 176 177 28
142 176 178 28
143 176 179 28
144 176 180 28
145 181 182 28
146 181 183 28
147 181 184 28
148 181 185 28
149 186 187 28
150 186 188 28
151 186 189 28
152 186 190 28
153 191 192 28
154 191 193 28
155 191 194 28
156 191 195 28
157 196 197 28
158 196 198 28
159 196 199 28
160 196 200 28
161 201 202 28
162 201 203 28
163 201 204 28
164 201 205 28
165 206 207 28
166 206 208 28
167 206 209 28
168 206 210 28
169 211 212 28
170 211 213 28
171 211 214 28
172 211 215 28
173 216 217 28
174 216 218 28
175 216 219 28
176 216 220 28
177 221 222 28
178 221 223 28
179 221 224 28
180 221 225 28
181 226 227 28
182 226 228 28
183 226 229 28
184 226 230 28
185 231 232 28
186 231 233 28
187 231 234 28
188 231 235 28
189 236 237 28
190 236 238 28
191 236 239 28
192 236 240 28
193 241 242 28
194 241 243 28
195 241 244 28
196 241 245 28
197 246 247 28
198 246 248 28
199 246 249 28
200 246 250 28
201 251 252 28
202 251 253 28
203 251 254 28
204 251 255 28
205 256 257 28
206 256 258 28
207 256 259 28
208 256 260 28
209 261 262 28
210 261 263 28
211 261 264 28
212 261 265 28
213 266 267 28
214 266 268 28
215 266 269 28
216 266 270 28
217 271 272 28
218 271 273 28
219 271 274 28
220 271 275 28
221 276 277 28
222 276 278 28
223 276 279 28
224 276 280 28
225 281 282 28
226 281 283 28
227 281 284 28
228 281 285 28
229 286 287 28
230 286 288 28
231 286 289 28
232 286 290 28
233 291 292 28
234 291 293 28
235 291 294 28
236 291 295 28
237 296 297 28
238 296 298 28
239 296 299 28
240 296 300 28
241 301 302 28
242 301 303 28
243 301 304 28
244 301 305 28
245 306 307 28
246 306 308 28
247 306 309 28
248 306 310 28
249 311 312 28
250 311 313 28
251 311 314 28
252 311 315 28
253 316 317 28
254 316 318 28
255 316 319 28
256 316 320 28
257 321 322 28
258 321 323 28
259 321 324 28
260 321 325 28
261 326 327 28
262 326 328 28
263 326 329 28
264 326 330 28
265 331 332 28
266 331 333 28
267 331 334 28
268 331 335 28
269 336 337 28
270 336 338 28
271 336 339 28
272 336 340 28
273 341 342 28
274 341 343 28
275 341 344 28
276 341 345 28
277 346 347 28
278 346 348 28
279 346 349 28
280 346 350 28
281 351 352 28
282 351 353 28
283 351 354 28
284 351 355 28
285 356 357 28
286 356 358 28
287 356 359 28
288 356 360 28
289 361 362 28
290 361 363 28
291 361 364 28
292 361 365 28
293 366 367 28
294 366 368 28
295 366 369 28
296 366 370 28
297 371 372 28
298 371 373 28
299 371 374 28
300 371 375 28
301 376 377 28
302 376 378 28
303 376 379 28
304 376 380 28
305 381 382 28
306 381 383 28
307 381 384 28
308 381 385 28
309 386 387 28
310 386 388 28
311 386 389 28
312 386 390 28
313 391 392 28
314 391 393 28
315 391 394 28
316 391 395 28
317 396 397 28
318 396 398 28
319 396 399 28
320 396 400 28
321 401 402 28
322 401 403 28
323 401 404 28
324 401 405 28
325 406 407 28
326 406 408 28
327 406 409 28
328 406 410 28
329 411 412 28
330 411 413 28
331 411 414 28
332 411 415 28
333 416 417 28
334 416 418 28
335 416 419 28
336 416 420 28
337 421 422 28
338 421 423 28
339 421 424 28
340 421 425 28
341 426 427 28
342 426 428 28
343 426 429 28
344 426 430 28
345 431 432 28
346 431 433 28
347 431 434 28
348 431 435 28
349 436 437 28
350 436 438 28
351 436 439 28
352 436 440 28
353 441 442 28
354 441 443 28
355 441 444 28
356 441 445 28
357 446 447 28
358 446 448 28
359 446 449 28
360 446 450 28
361 451 452 28
362 451 453 28
363 451 454 28
364 451 455 28
365 456 457 28
366 456 458 28
367 456 459 28
368 456 460 28
369 461 462 28
370 461 463 28
371 461 464 28
372 461 465 28
373 466 467 28
374 466 468 28
375 466 469 28
376 466 470 28
377 471 472 28
378 471 473 28
379 471 474 28
380 471 475 28
381 476 477 28
382 476 478 28
383 476 479 28
384 476 480 28
385 481 482 28
386 481 483 28
387 481 484 28
388 481 485 28
389 486 487 28
390 486 488 28
391 486 489 28
392 486 490 28
393 491 492 28
394 491 493 28
395 491 494 28
396 491 495 28
397 496 497 28
398 496 498 28
399 496 499 28
400 496 500 28
401 501 502 28
402 501 503 28
403 501 504 28
404 501 505 28
405 506 507 28
406 506 508 28
407 506 509 28
408 506 510 28
409 511 512 28
410 511 513 28
411 511 514 28
412 511 515 28
413 516 517 28
414 516 518 28
415 516 519 28
416 516 520 28
417 521 522 28
418 521 523 28
419 521 524 28
420 521 525 28
421 526 527 28
422 526 528 28
423 526 529 28
424 526 530 28
425 531 532 28
426 531 533 28
427 531 534 28
428 531 535 28
429 536 537 28
430 536 538 28
431 536 539 28
432 536 540 28
433 541 542 28
434 541 543 28
435 541 544 28
436 541 545 28
437 546 547 28
438 546 548 28
439 546 549 28
440 546 550 28
441 551 552 28
442 551 553 28
443 551 554 28
444 551 555 28
445 556 557 28
446 556 558 28
447 556 559 28
448 556 560 28
449 561 562 28
450 561 563 28
451 561 564 28
452 561 565 28
453 566 567 28
454 566 568 28
455 566 569 28
456 566 570 28
457 571 572 28
458 571 573 28
459 571 574 28
460 571 575 28
461 576 577 28
462 576 578 28
463 576 579 28
464 576 580 28
465 581 582 28
466 581 583 28
467 581 584 28
468 581 585 28
469 586 587 28
470 586 588 28
471 586 589 28
472 586 590 28
473 591 592 28
474 591 593 28
475 591 594 28
476 591 595 28
477 596 597 28
478 596 598 28
479 596 599 28
480 596 600 28
481 601 602 28
482 601 603 28
483 601 604 28
484 601 605 28
485 606 607 28
486 606 608 28
487 606 609 28
488 606 610 28
489 611 612 28
490 611 613 28
491 611 614 28
492 611 615 28
493 616 617 28
494 616 618 28
495 616 619 28
496 616 620 28
497 621 622 28
498 621 623 28
499 621 624 28
500 621 625 28
501 626 627 28
502 626 628 28
503 626 629 28
504 626 630 28
505 631 632 28
506 631 633 28
507 631 634 28
508 631 635 28
509 636 637 28
510 636 638 28
511 636 639 28
512 636 640 28
513 641 642 28
514 641 643 28
515 641 644 28
516 641 645 28
517 646 647 28
518 646 648 28
519 646 649 28
520 646 650 28
521 651 652 28
522 651 653 28
523 651 654 28
524 651 655 28
525 656 657 28
526 656 658 28
527 656 659 28
528 656 660 28
529 661 662 28
530 661 663 28
531 661 664 28
532 661 665 28
533 666 667 28
534 666 668 28
535 666 669 28
536 666 670 28
537 671 672 28
538 671 673 28
539 671 674 28
540 671 675 28
541 676 677 28
542 676 678 28
543 676 679 28
544 676 680 28
545 681 682 28
546 681 683 28
547 681 684 28
548 681 685 28
549 686 687 28
550 686 688 28
551 686 689 28
552 686 690 28
553 691 692 28
554 691 693 28
555 691 694 28
556 691 695 28
557 696 697 28
558 696 698 28
559 696 699 28
560 696 700 28
561 701 702 28
562 701 703 28
563 701 704 28
564 701 705 28
565 706 707 28
566 706 708 28
567 706 709 28
568 706 710 28
569 711 712 28
570 711 713 28
571 711 714 28
572 711 715 28
573 716 717 28
574 716 718 28
575 716 719 28
576 716 720 28
577 721 722 28
578 721 723 28
579 721 724 28
580 721 725 28
581 726 727 28
582 726 728 28
583 726 729 28
584 726 730 28
585 731 732 28
586 731 733 28
587 731 734 28
588 731 735 28
589 736 737 28
590 736 738 28
591 736 739 28
592 736 740 28
593 741 742 28
594 741 743 28
595 741 744 28
596 741 745 28
597 746 747 28
598 746 748 28
599 746 749 28
600 746 750 28
601 751 752 28
602 751 753 28
603 751 754 28
604 751 755 28
605 756 757 28
606 756 758 28
607 756 759 28
608 756 760 28
609 761 762 28
610 761 763 28
611 761 764 28
612 761 765 28
613 766 767 28
614 766 768 28
615 766 769 28
616 766 770 28
617 771 772 28
618 771 773 28
619 771 774 28
620 771 775 28
621 776 777 28
622 776 778 28
623 776 779 28
624 776 780 28
625 781 782 28
626 781 783 28
627 781 784 28
628 781 785 28
629 786 787 28
630 786 788 28
631 786 789 28
632 786 790 28
633 791 792 28
634 791 793 28
635 791 794 28
636 791 795 28
637 796 797 28
638 796 798 28
639 796 799 28
640 796 800 28
641 801 802 28
642 801 803 28
643 801 804 28
644 801 805 28
645 806 807 28
646 806 808 28
647 806 809 28
648 806 810 28
649 811 812 28
650 811 813 28
651 811 814 28
652 811 815 28
653 816 817 28
654 816 818 28
655 816 819 28
656 816 820 28
657 821 822 28
658 821 823 28
659 821 824 28
660 821 825 28
661 826 827 28
662 826 828 28
663 826 829 28
664 826 830 28
665 831 832 28
666 831 833 28
667 831 834 28
668 831 835 28
669 836 837 28
670 836 838 28
671 836 839 28
672 836 840 28
673 841 842 28
674 841 843 28
675 841 844 28
676 841 845 28
677 846 847 28
678 846 848 28
679 846 849 28
680 846 850 28
681 851 852 28
682 851 853 28
683 851 854 28
684 851 855 28
685 856 857 28
686 856 858 28
687 856 859 28
688 856 860 28
689 861 862 28
690 861 863 28
691 861 864 28
692 861 865 28
693 866 867 28
694 866 868 28
695 866 869 28
696 866 870 28
697 871 872 28
698 871 873 28
699 871 874 28
700 871 875 28
701 876 877 28
702 876 878 28
703 876 879 28
704 876 880 28
705 881 882 28
706 881 883 28
707 881 884 28
708 881 885 28
709 886 887 28
710 886 888 28
711 886 889 28
712 886 890 28
713 891 892 28
714 891 893 28
715 891 894 28
716 891 895 28
717 896 897 28
718 896 898 28
719 896 899 28
720 896 900 28
721 901 902 28
722 901 903 28
723 901 904 28
724 901 905 28
725 906 907 28
726 906 908 28
727 906 909 28
728 906 910 28
729 911 912 28
730 911 913 28
731 911 914 28
732 911 915 28
733 916 917 28
734 916 918 28
735 916 919 28
736 916 920 28
737 921 922 28
738 921 923 28
739 921 924 28
740 921 925 28
741 926 927 28
742 926 928 28
743 926 929 28
744 926 930 28
745 931 932 28
746 931 933 28
747 931 934 28
748 931 935 28
749 936 937 28
750 936 938 28
751 936 939 28
752 936 940 28
753 941 942 28
754 941 943 28
755 941 944 28
756 941 945 28
757 946 947 28
758 946 948 28
759 946 949 28
760 946 950 28
761 951 952 28
762 951 953 28
763 951 954 28
764 951 955 28
765 956 957 28
766 956 958 28
767 956 959 28
768 956 960 28
769 961 962 28
770 961 963 28
771 961 964 28
772 961 965 28
773 966 967 28
774 966 968 28
775 966 969 28
776 966 970 28
777 971 972 28
778 971 973 28
779 971 974 28
780 971 975 28
781 976 977 28
782 976 978 28
783 976 979 28
784 976 980 28
785 981 982 28
786 981 983 28
787 981 984 28
788 981 985 28
789 986 987 28
790 986 988 28
791 986 989 28
792 986 990 28
793 991 992 28
794 991 993 28
795 991 994 28
796 991 995 28
797 996 997 28
798 996 998 28
799 996 999 28
800 996 1000 28
801 1001 1002 28
802 1001 1003 28
803 1001 1004 28
804 1001 1005 28
805 1006 1007 28
806 1006 1008 28
807 1006 1009 28
808 1006 1010 28
809 1011 1012 28
810 1011 1013 28
811 1011 1014 28
812 1011 1015 28
813 1016 1017 28
814 1016 1018 28
815 1016 1019 28
816 1016 1020 28
817 1021 1022 28
818 1021 1023 28
819 1021 1024 28
820 1021 1025 28
821 1026 1027 28
822 1026 1028 28
823 1026 1029 28
824 1026 1030 28
825 1031 1032 28
826 1031 1033 28
827 1031 1034 28
828 1031 1035 28
829 1036 1037 28
830 1036 1038 28
831 1036 1039 28
832 1036 1040 28
833 1041 1042 28
834 1041 1043 28
835 1041 1044 28
836 1041 1045 28
837 1046 1047 28
838 1046 1048 28
839 1046 1049 28
840 1046 1050 28
841 1051 1052 28
842 1051 1053 28
843 1051 1054 28
844 1051 1055 28
845 1056 1057 28
846 1056 1058 28
847 1056 1059 28
848 1056 1060 28
849 1061 1062 28
850 1061 1063 28
851 1061 1064 28
852 1061 1065 28
853 1066 1067 28
854 1066 1068 28
855 1066 1069 28
856 1066 1070 28
857 1071 1072 28
858 1071 1073 28
859 1071 1074 28
860 1071 1075 28
861 1076 1077 28
862 1076 1078 28
863 1076 1079 28
864 1076 1080 28
865 1081 1082 28
866 1081 1083 28
867 1081 1084 28
868 1081 1085 28
869 1086 1087 28
870 1086 1088 28
871 1086 1089 28
872 1086 1090 28
873 1091 1092 28
874 1091 1093 28
875 1091 1094 28
876 1091 1095 28
877 1096 1097 28
878 1096 1098 28
879 1096 1099 28
880 1096 1100 28
881 1101 1102 28
882 1101 1103 28
883 1101 1104 28
884 1101 1105 28
885 1106 1107 28
886 1106 1108 28
887 1106 1109 28
888 1106 1110 28
889 1111 1112 28
890 1111 1113 28
891 1111 1114 28
892 1111 1115 28
893 1116 1117 28
894 1116 1118 28
895 1116 1119 28
896 1116 1120 28
897 1121 1122 28
898 1121 1123 28
899 1121 1124 28
900 1121 1125 28
901 1126 1127 28
902 1126 1128 28
903 1126 1129 28
904 1126 1130 28
905 1131 1132 28
906 1131 1133 28
907 1131 1134 28
908 1131 1135 28
909 1136 1137 28
910 1136 1138 28
911 1136 1139 28
912 1136 1140 28
913 1141 1142 28
914 1141 1143 28
915 1141 1144 28
916 1141 1145 28
917 1146 1147 28
918 1146 1148 28
919 1146 1149 28
920 1146 1150 28
921 1151 1152 28
922 1151 1153 28
923 1151 1154 28
924 1151 1155 28
925 1156 1157 28
926 1156 1158 28
927 1156 1159 28
928 1156 1160 28
929 1161 1162 28
930 1161 1163 28
931 1161 1164 28
932 1161 1165 28
933 1166 1167 28
934 1166 1168 28
935 1166 1169 28
936 1166 1170 28
937 1171 1172 28
938 1171 1173 28
939 1171 1174 28
940 1171 1175 28
941 1176 1177 28
942 1176 1178 28
943 1176 1179 28
944 1176 1180 28
945 1181 1182 28
946 1181 1183 28
947 1181 1184 28
948 1181 1185 28
949 1186 1187 28
950 1186 1188 28
951 1186 1189 28
952 1186 1190 28
953 1191 1192 28
954 1191 1193 28
955 1191 1194 28
956 1191 1195 28
957 1196 1197 28
958 1196 1198 28
959 1196 1199 28
960 1196 1200 28
961 1201 1202 28
962 1201 1203 28
963 1201 1204 28
964 1201 1205 28
965 1206 1207 28
966 1206 1208 28
967 1206 1209 28
968 1206 1210 28
969 1211 1212 28
970 1211 1213 28
971 1211 1214 28
972 1211 1215 28
973 1216 1217 28
974 1216 1218 28
975 1216 1219 28
976 1216 1220 28
977 1221 1222 28
978 1221 1223 28
979 1221 1224 28
980 1221 1225 28
981 1226 1227 28
982 1226 1228 28
983 1226 1229 28
984 1226 1230 28
985 1231 1232 28
986 1231 1233 28
987 1231 1234 28
988 1231 1235 28
989 1236 1237 28
990 1236 1238 28
991 1236 1239 28
992 1236 1240 28
993 1241 1242 28
994 1241 1243 28
995 1241 1244 28
996 1241 1245 28
997 1246 1247 28
998 1246 1248 28
999 1246 1249 28
1000 1246 1250 28
1001 1251 1252 28
1002 1251 1253 28
1003 1251 1254 28
1004 1251 1255 28
1005 1256 1257 28
1006 1256 1258 28
1007 1256 1259 28
1008 1256 1260 28
1009 1261 1262 28
1010 1261 1263 28
1011 1261 1264 28
1012 1261 1265 28
1013 1266 1267 28
1014 1266 1268 28
1015 1266 1269 28
1016 1266 1270 28
1017 1271 1272 28
1018 1271 1273 28
1019 1271 1274 28
1020 1271 1275 28
1021 1276 1277 28
1022 1276 1278 28
1023 1276 1279 28
1024 1276 1280 28
1025 1281 1282 28
1026 1281 1283 28
1027 1281 1284 28
1028 1281 1285 28
1029 1286 1287 28
1030 1286 1288 28
1031 1286 1289 28
1032 1286 1290 28
1033 1291 1292 28
1034 1291 1293 28
1035 1291 1294 28
1036 1291 1295 28
1037 1296 1297 28
1038 1296 1298 28
1039 1296 1299 28
1040 1296 1300 28
1041 1301 1302 28
1042 1301 1303 28
1043 1301 1304 28
1044 1301 1305 28
1045 1306 1307 28
1046 1306 1308 28
1047 1306 1309 28
1048 1306 1310 28
1049 1311 1312 28
1050 1311 1313 28
1051 1311 1314 28
1052 1311 1315 28
1053 1316 1317 28
1054 1316 1318 28
1055 1316 1319 28
1056 1316 1320 28
1057 1321 1322 28
1058 1321 1323 28
1059 1321 1324 28
1060 1321 1325 28
1061 1326 1327 28
1062 1326 1328 28
1063 1326 1329 28
1064 1326 1330 28
1065 1331 1332 28
1066 1331 1333 28
1067 1331 1334 28
1068 1331 1335 28
1069 1336 1337 28
1070 1336 1338 28
1071 1336 1339 28
1072 1336 1340 28
1073 1341 1342 28
1074 1341 1343 28
1075 1341 1344 28
1076 1341 1345 28
1077 1346 1347 28
1078 1346 1348 28
1079 1346 1349 28
1080 1346 1350 28
1081 1351 1352 28
1082 1351 1353 28
1083 1351 1354 28
1084 1351 1355 28
1085 1356 1357 28
1086 1356 1358 28
1087 1356 1359 28
1088 1356 1360 28
1089 1361 1362 28
1090 1361 1363 28
1091 1361 1364 28
1092 1361 1365 28
1093 1366 1367 28
1094 1366 1368 28
1095 1366 1369 28
1096 1366 1370 28
1097 1371 1372 28
1098 1371 1373 28
1099 1371 1374 28
1100 1371 1375 28
1101 1376 1377 28
1102 1376 1378 28
1103 1376 1379 28
1104 1376 1380 28
1105 1381 1382 28
1106 1381 1383 28
1107 1381 1384 28
1108 1381 1385 28
1109 1386 1387 28
1110 1386 1388 28
1111 1386 1389 28
1112 1386 1390 28
1113 1391 1392 28
1114 1391 1393 28
1115 1391 1394 28
1116 1391 1395 28
1117 1396 1397 28
1118 1396 1398 28
1119 1396 1399 28
1120 1396 1400 28
1121 1401 1402 28
1122 1401 1403 28
1123 1401 1404 28
1124 1401 1405 28
1125 1406 1407 28
1126 1406 1408 28
1127 1406 1409 28
1128 1406 1410 28
1129 1411 1412 28
1130 1411 1413 28
1131 1411 1414 28
1132 1411 1415 28
1133 1416 1417 28
1134 1416 1418 28
1135 1416 1419 28
1136 1416 1420 28
1137 1421 1422 28
1138 1421 1423 28
1139 1421 1424 28
1140 1421 1425 28
1141 1426 1427 28
1142 1426 1428 28
1143 1426 1429 28
1144 1426 1430 28
1145 1431 1432 28
1146 1431 1433 28
1147 1431 1434 28
1148 1431 1435 28
1149 1436 1437 28
1150 1436 1438 28
1151 1436 1439 28
1152 1436 1440 28
1153 1441 1442 28
1154 1441 1443 28
1155 1441 1444 28
1156 1441 1445 28
1157 1446 1447 28
1158 1446 1448 28
1159 1446 1449 28
1160 1446 1450 28
1161 1451 1452 28
1162 1451 1453 28
1163 1451 1454 28
1164 1451 1455 28
1165 1456 1457 28
1166 1456 1458 28
1167 1456 1459 28
1168 1456 1460 28
1169 1461 1462 28
1170 1461 1463 28
1171 1461 1464 28
1172 1461 1465 28
1173 1466 1467 28
1174 1466 1468 28
1175 1466 1469 28
1176 1466 1470 28
1177 1471 1472 28
1178 1471 1473 28
1179 1471 1474 28
1180 1471 1475 28
1181 1476 1477 28
1182 1476 1478 28
1183 1476 1479 28
1184 1476 1480 28
1185 1481 1482 28
1186 1481 1483 28
1187 1481 1484 28
1188 1481 1485 28
1189 1486 1487 28
1190 1486 1488 28
1191 1486 1489 28
1192 1486 1490 28
1193 1491 1492 28
1194 1491 1493 28
1195 1491 1494 28
1196 1491 1495 28
1197 1496 1497 28
1198 1496 1498 28
1199 1496 1499 28
1200 1496 1500 28
1201 1501 1502 28
1202 1501 1503 28
1203 1501 1504 28
1204 1501 1505 28
1205 1506 1507 28
1206 1506 1508 28
1207 1506 1509 28
1208 1506 1510 28
1209 1511 1512 28
1210 1511 1513 28
1211 1511 1514 28
1212 1511 1515 28
1213 1516 1517 28
1214 1516 1518 28
1215 1516 1519 28
1216 1516 1520 28
1217 1521 1522 28
1218 1521 1523 28
1219 1521 1524 28
1220 1521 1525 28
1221 1526 1527 28
1222 1526 1528 28
1223 1526 1529 28
1224 1526 1530 28
1225 1531 1532 28
1226 1531 1533 28
1227 1531 1534 28
1228 1531 1535 28
1229 1536 1537 28
1230 1536 1538 28
1231 1536 1539 28
1232 1536 1540 28
1233 1541 1542 28
1234 1541 1543 28
1235 1541 1544 28
1236 1541 1545 28
1237 1546 1547 28
1238 1546 1548 28
1239 1546 1549 28
1240 1546 1550 28
1241 1551 1552 28
1242 1551 1553 28
1243 1551 1554 28
1244 1551 1555 28
1245 1556 1557 28
1246 1556 1558 28
1247 1556 1559 28
1248 1556 1560 28
1249 1561 1562 28
1250 1561 1563 28
1251 1561 1564 28
1252 1561 1565 28
1253 1566 1567 28
1254 1566 1568 28
1255 1566 1569 28
1256 1566 1570 28
1257 1571 1572 28
1258 1571 1573 28
1259 1571 1574 28
1260 1571 1575 28
1261 1576 1577 28
1262 1576 1578 28
1263 1576 1579 28
1264 1576 1580 28
1265 1581 1582 28
1266 1581 1583 28
1267 1581 1584 28
1268 1581 1585 28
1269 1586 1587 28
1270 1586 1588 28
1271 1586 1589 28
1272 1586 1590 28
1273 1591 1592 28
1274 1591 1593 28
1275 1591 1594 28
1276 1591 1595 28
1277 1596 1597 28
1278 1596 1598 28
1279 1596 1599 28
1280 1596 1600 28
1281 1601 1602 28
1282 1601 1603 28
1283 1601 1604 28
1284 1601 1605 28
1285 1606 1607 28
1286 1606 1608 28
1287 1606 1609 28
1288 1606 1610 28
1289 1611 1612 28
1290 1611 1613 28
1291 1611 1614 28
1292 1611 1615 28
1293 1616 1617 28
1294 1616 1618 28
1295 1616 1619 28
1296 1616 1620 28
1297 1621 1622 28
1298 1621 1623 28
1299 1621 1624 28
1300 1621 1625 28
1301 1626 1627 28
1302 1626 1628 28
1303 1626 1629 28
1304 1626 1630 28
1305 1631 1632 28
1306 1631 1633 28
1307 1631 1634 28
1308 1631 1635 28
1309 1636 1637 28
1310 1636 1638 28
1311 1636 1639 28
1312 1636 1640 28
1313 1641 1642 28
1314 1641 1643 28
1315 1641 1644 28
1316 1641 1645 28
1317 1646 1647 28
1318 1646 1648 28
1319 1646 1649 28
1320 1646 1650 28
1321 1651 1652 28
1322 1651 1653 28
1323 1651 1654 28
1324 1651 1655 28
1325 1656 1657 28
1326 1656 1658 28
1327 1656 1659 28
1328 1656 1660 28
1329 1661 1662 28
1330 1661 1663 28
1331 1661 1664 28
1332 1661 1665 28
1333 1666 1667 28
1334 1666 1668 28
1335 1666 1669 28
1336 1666 1670 28
1337 1671 1672 28
1338 1671 1673 28
1339 1671 1674 28
1340 1671 1675 28
1341 1676 1677 28
1342 1676 1678 28
1343 1676 1679 28
1344 1676 1680 28
1345 1681 1682 28
1346 1681 1683 28
1347 1681 1684 28
1348 1681 1685 28
1349 1686 1687 28
1350 1686 1688 28
1351 1686 1689 28
1352 1686 1690 28
1353 1691 1692 28
1354 1691 1693 28
1355 1691 1694 28
1356 1691 1695 28
1357 1696 1697 28
1358 1696 1698 28
1359 1696 1699 28
1360 1696 1700 28
1361 1701 1702 28
1362 1701 1703 28
1363 1701 1704 28
1364 1701 1705 28
1365 1706 1707 28
1366 1706 1708 28
1367 1706 1709 28
1368 1706 1710 28
1369 1711 1712 28
1370 1711 1713 28
1371 1711 1714 28
1372 1711 1715 28
1373 1716 1717 28
1374 1716 1718 28
1375 1716 1719 28
1376 1716 1720 28
1377 1721 1722 28
1378 1721 1723 28
1379 1721 1724 28
1380 1721 1725 28
1381 1726 1727 28
1382 1726 1728 28
1383 1726 1729 28
1384 1726 1730 28
1385 1731 1732 28
1386 1731 1733 28
1387 1731 1734 28
1388 1731 1735 28
1389 1736 1737 28
1390 1736 1738 28
1391 1736 1739 28
1392 1736 1740 28
1393 1741 1742 28
1394 1741 1743 28
1395 1741 1744 28
1396 1741 1745 28
1397 1746 1747 28
1398 1746 1748 28
1399 1746 1749 28
1400 1746 1750 28
1401 1751 1752 28
1402 1751 1753 28
1403 1751 1754 28
1404 1751 1755 28
1405 1756 1757 28
1406 1756 1758 28
1407 1756 1759 28
1408 1756 1760 28
1409 1761 1762 28
1410 1761 1763 28
1411 1761 1764 28
1412 1761 1765 28
1413 1766 1767 28
1414 1766 1768 28
1415 1766 1769 28
1416 1766 1770 28
1417 1771 1772 28
1418 1771 1773 28
1419 1771 1774 28
1420 1771 1775 28
1421 1776 1777 28
1422 1776 1778 28
1423 1776 1779 28
1424 1776 1780 28
1425 1781 1782 28
1426 1781 1783 28
1427 1781 1784 28
1428 1781 1785 28
1429 1786 1787 28
1430 1786 1788 28
1431 1786 1789 28
1432 1786 1790 28
1433 1791 1792 28
1434 1791 1793 28
1435 1791 1794 28
1436 1791 1795 28
1437 1796 1797 28
1438 1796 1798 28
1439 1796 1799 28
1440 1796 1800 28
1441 1801 1802 28
1442 1801 1803 28
1443 1801 1804 28
1444 1801 1805 28
1445 1806 1807 28
1446 1806 1808 28
1447 1806 1809 28
1448 1806 1810 28
1449 1811 1812 28
1450 1811 1813 28
1451 1811 1814 28
1452 1811 1815 28
1453 1816 1817 28
1454 1816 1818 28
1455 1816 1819 28
1456 1816 1820 28
1457 1821 1822 28
1458 1821 1823 28
1459 1821 1824 28
1460 1821 1825 28
1461 1826 1827 28
1462 1826 1828 28
1463 1826 1829 28
1464 1826 1830 28
1465 1831 1832 28
1466 1831 1833 28
1467 1831 1834 28
1468 1831 1835 28
1469 1836 1837 28
1470 1836 1838 28
1471 1836 1839 28
1472 1836 1840 28
1473 1841 1842 28
1474 1841 1843 28
1475 1841 1844 28
1476 1841 1845 28
1477 1846 1847 28
1478 1846 1848 28
1479 1846 1849 28
1480 1846 1850 28
1481 1851 1852 28
1482 1851 1853 28
1483 1851 1854 28
1484 1851 1855 28
1485 1856 1857 28
1486 1856 1858 28
1487 1856 1859 28
1488 1856 1860 28
1489 1861 1862 28
1490 1861 1863 28
1491 1861 1864 28
1492 1861 1865 28
1493 1866 1867 28
1494 1866 1868 28
1495 1866 1869 28
1496 1866 1870 28
1497 1871 1872 28
1498 1871 1873 28
1499 1871 1874 28
1500 1871 1875 28
1501 1876 1877 28
1502 1876 1878 28
1503 1876 1879 28
1504 1876 1880 28
1505 1881 1882 28
1506 1881 1883 28
1507 1881 1884 28
1508 1881 1885 28
1509 1886 1887 28
1510 1886 1888 28
1511 1886 1889 28
1512 1886 1890 28
1513 1891 1892 28
1514 1891 1893 28
1515 1891 1894 28
1516 1891 1895 28
1517 1896 1897 28
1518 1896 1898 28
1519 1896 1899 28
1520 1896 1900 28
1521 1901 1902 28
1522 1901 1903 28
1523 1901 1904 28
1524 1901 1905 28
1525 1906 1907 28
1526 1906 1908 28
1527 1906 1909 28
1528 1906 1910 28
1529 1911 1912 28
1530 1911 1913 28
1531 1911 1914 28
1532 1911 1915 28
1533 1916 1917 28
1534 1916 1918 28
1535 1916 1919 28
1536 1916 1920 28
1537 1921 1922 28
1538 1921 1923 28
1539 1921 1924 28
1540 1921 1925 28
1541 1926 1927 28
1542 1926 1928 28
1543 1926 1929 28
1544 1926 1930 28
1545 1931 1932 28
1546 1931 1933 28
1547 1931 1934 28
1548 1931 1935 28
1549 1936 1937 28
1550 1936 1938 28
1551 1936 1939 28
1552 1936 1940 28
1553 1941 1942 28
1554 1941 1943 28
1555 1941 1944 28
1556 1941 1945 28
1557 1946 1947 28
1558 1946 1948 28
1559 1946 1949 28
1560 1946 1950 28
1561 1951 1952 28
1562 1951 1953 28
1563 1951 1954 28
1564 1951 1955 28
1565 1956 1957 28
1566 1956 1958 28
1567 1956 1959 28
1568 1956 1960 28
1569 1961 1962 28
1570 1961 1963 28
1571 1961 1964 28
1572 1961 1965 28
1573 1966 1967 28
1574 1966 1968 28
1575 1966 1969 28
1576 1966 1970 28
1577 1971 1972 28
1578 1971 1973 28
1579 1971 1974 28
1580 1971 1975 28
1581 1976 1977 28
1582 1976 1978 28
1583 1976 1979 28
1584 1976 1980 28
1585 1981 1982 28
1586 1981 1983 28
1587 1981 1984 28
1588 1981 1985 28
1589 1986 1987 28
1590 1986 1988 28
1591 1986 1989 28
1592 1986 1990 28
1593 1991 1992 28
1594 1991 1993 28
1595 1991 1994 28
1596 1991 1995 28
1597 1996 1997 28
1598 1996 1998 28
1599 1996 1999 28
1600 1996 2000 28
1601 2001 2002 28
1602 2001 2003 28
1603 2001 2004 28
1604 2001 2005 28
1605 2006 2007 28
1606 2006 2008 28
1607 2006 2009 28
1608 2006 2010 28
1609 2011 2012 28
1610 2011 2013 28
1611 2011 2014 28
1612 2011 2015 28
1613 2016 2017 28
1614 2016 2018 28
1615 2016 2019 28
1616 2016 2020 28
1617 2021 2022 28
1618 2021 2023 28
1619 2021 2024 28
1620 2021 2025 28
1621 2026 2027 28
1622 2026 2028 28
1623 2026 2029 28
1624 2026 2030 28
1625 2031 2032 28
1626 2031 2033 28
1627 2031 2034 28
1628 2031 2035 28
1629 2036 2037 28
1630 2036 2038 28
1631 2036 2039 28
1632 2036 2040 28
1633 2041 2042 28
1634 2041 2043 28
1635 2041 2044 28
1636 2041 2045 28
1637 2046 2047 28
1638 2046 2048 28
1639 2046 2049 28
1640 2046 2050 28
1641 2051 2052 28
1642 2051 2053 28
1643 2051 2054 28
1644 2051 2055 28
1645 2056 2057 28
1646 2056 2058 28
1647 2056 2059 28
1648 2056 2060 28
1649 2061 2062 28
1650 2061 2063 28
1651 2061 2064 28
1652 2061 2065 28
1653 2066 2067 28
1654 2066 2068 28
1655 2066 2069 28
1656 2066 2070 28
1657 2071 2072 28
1658 2071 2073 28
1659 2071 2074 28
1660 2071 2075 28
1661 2076 2077 28
1662 2076 2078 28
1663 2076 2079 28
1664 2076 2080 28
1665 2081 2082 28
1666 2081 2083 28
1667 2081 2084 28
1668 2081 2085 28
1669 2086 2087 28
1670 2086 2088 28
1671 2086 2089 28
1672 2086 2090 28
1673 2091 2092 28
1674 2091 2093 28
1675 2091 2094 28
1676 2091 2095 28
1677 2096 2097 28
1678 2096 2098 28
1679 2096 2099 28
1680 2096 2100 28
1681 2101 2102 28
1682 2101 2103 28
1683 2101 2104 28
1684 2101 2105 28
1685 2106 2107 28
1686 2106 2108 28
1687 2106 2109 28
1688 2106 2110 28
1689 2111 2112 28
1690 2111 2113 28
1691 2111 2114 28
1692 2111 2115 28
1693 2116 2117 28
1694 2116 2118 28
1695 2116 2119 28
1696 2116 2120 28
1697 2121 2122 28
1698 2121 2123 28
1699 2121 2124 28
1700 2121 2125 28
1701 2126 2127 28
1702 2126 2128 28
1703 2126 2129 28
1704 2126 2130 28
1705 2131 2132 28
1706 2131 2133 28
1707 2131 2134 28
1708 2131 2135 28
1709 2136 2137 28
1710 2136 2138 28
1711 2136 2139 28
1712 2136 2140 28
1713 2141 2142 28
1714 2141 2143 28
1715 2141 2144 28
1716 2141 2145 28
1717 2146 2147 28
1718 2146 2148 28
1719 2146 2149 28
1720 2146 2150 28
1721 2151 2152 28
1722 2151 2153 28
1723 2151 2154 28
1724 2151 2155 28
1725 2156 2157 28
1726 2156 2158 28
1727 2156 2159 28
1728 2156 2160 28
1729 2161 2162 28
1730 2161 2163 28
1731 2161 2164 28
1732 2161 2165 28
1733 2166 2167 28
1734 2166 2168 28
1735 2166 2169 28
1736 2166 2170 28
1737 2171 2172 28
1738 2171 2173 28
1739 2171 2174 28
1740 2171 2175 28
1741 2176 2177 28
1742 2176 2178 28
1743 2176 2179 28
1744 2176 2180 28
1745 2181 2182 28
1746 2181 2183 28
1747 2181 2184 28
1748 2181 2185 28
1749 2186 2187 28
1750 2186 2188 28
1751 2186 2189 28
1752 2186 2190 28
1753 2191 2192 28
1754 2191 2193 28
1755 2191 2194 28
1756 2191 2195 28
1757 2196 2197 28
1758 2196 2198 28
1759 2196 2199 28
1760 2196 2200 28
1761 2201 2202 28
1762 2201 2203 28
1763 2201 2204 28
1764 2201 2205 28
1765 2206 2207 28
1766 2206 2208 28
1767 2206 2209 28
1768 2206 2210 28
1769 2211 2212 28
1770 2211 2213 28
1771 2211 2214 28
1772 2211 2215 28
1773 2216 2217 28
1774 2216 2218 28
1775 2216 2219 28
1776 2216 2220 28
1777 2221 2222 28
1778 2221 2223 28
1779 2221 2224 28
1780 2221 2225 28
1781 2226 2227 28
1782 2226 2228 28
1783 2226 2229 28
1784 2226 2230 28
1785 2231 2232 28
1786 2231 2233 28
1787 2231 2234 28
1788 2231 2235 28
1789 2236 2237 28
1790 2236 2238 28
1791 2236 2239 28
1792 2236 2240 28
1793 2241 2242 28
1794 2241 2243 28
1795 2241 2244 28
1796 2241 2245 28
1797 2246 2247 28
1798 2246 2248 28
1799 2246 2249 28
1800 2246 2250 28
1801 2251 2252 28
1802 2251 2253 28
1803 2251 2254 28
1804 2251 2255 28
1805 2256 2257 28
1806 2256 2258 28
1807 2256 2259 28
1808 2256 2260 28
1809 2261 2262 28
1810 2261 2263 28
1811 2261 2264 28
1812 2261 2265 28
1813 2266 2267 28
1814 2266 2268 28
1815 2266 2269 28
1816 2266 2270 28
1817 2271 2272 28
1818 2271 2273 28
1819 2271 2274 28
1820 2271 2275 28
1821 2276 2277 28
1822 2276 2278 28
1823 2276 2279 28
1824 2276 2280 28
1825 2281 2282 28
1826 2281 2283 28
1827 2281 2284 28
1828 2281 2285 28
1829 2286 2287 28
1830 2286 2288 28
1831 2286 2289 28
1832 2286 2290 28
1833 2291 2292 28
1834 2291 2293 28
1835 2291 2294 28
1836 2291 2295 28
1837 2296 2297 28
1838 2296 2298 28
1839 2296 2299 28
1840 2296 2300 28
1841 2301 2302 28
1842 2301 2303 28
1843 2301 2304 28
1844 2301 2305 28
1845 2306 2307 28
1846 2306 2308 28
1847 2306 2309 28
1848 2306 2310 28
1849 2311 2312 28
1850 2311 2313 28
1851 2311 2314 28
1852 2311 2315 28
1853 2316 2317 28
1854 2316 2318 28
1855 2316 2319 28
1856 2316 2320 28
1857 2321 2322 28
1858 2321 2323 28
1859 2321 2324 28
1860 2321 2325 28
1861 2326 2327 28
1862 2326 2328 28
1863 2326 2329 28
1864 2326 2330 28
1865 2331 2332 28
1866 2331 2333 28
1867 2331 2334 28
1868 2331 2335 28
1869 2336 2337 28
1870 2336 2338 28
1871 2336 2339 28
1872 2336 2340 28
1873 2341 2342 28
1874 2341 2343 28
1875 2341 2344 28
1876 2341 2345 28
1877 2346 2347 28
1878 2346 2348 28
1879 2346 2349 28
1880 2346 2350 28
1881 2351 2352 28
1882 2351 2353 28
1883 2351 2354 28
1884 2351 2355 28
1885 2356 2357 28
1886 2356 2358 28
1887 2356 2359 28
1888 2356 2360 28
1889 2361 2362 28
1890 2361 2363 28
1891 2361 2364 28
1892 2361 2365 28
1893 2366 2367 28
1894 2366 2368 28
1895 2366 2369 28
1896 2366 2370 28
1897 2371 2372 28
1898 2371 2373 28
1899 2371 2374 28
1900 2371 2375 28
1901 2376 2377 28
1902 2376 2378 28
1903 2376 2379 28
1904 2376 2380 28
1905 2381 2382 28
1906 2381 2383 28
1907 2381 2384 28
1908 2381 2385 28
1909 2386 2387 28
1910 2386 2388 28
1911 2386 2389 28
1912 2386 2390 28
1913 2391 2392 28
1914 2391 2393 28
1915 2391 2394 28
1916 2391 2395 28
1917 2396 2397 28
1918 2396 2398 28
1919 2396 2399 28
1920 2396 2400 28
1921 2401 2402 28
1922 2401 2403 28
1923 2401 2404 28
1924 2401 2405 28
1925 2406 2407 28
1926 2406 2408 28
1927 2406 2409 28
1928 2406 2410 28
1929 2411 2412 28
1930 2411 2413 28
1931 2411 2414 28
1932 2411 2415 28
1933 2416 2417 28
1934 2416 2418 28
1935 2416 2419 28
1936 2416 2420 28
1937 2421 2422 28
1938 2421 2423 28
1939 2421 2424 28
1940 2421 2425 28
1941 2426 2427 28
1942 2426 2428 28
1943 2426 2429 28
1944 2426 2430 28
1945 2431 2432 28
1946 2431 2433 28
1947 2431 2434 28
1948 2431 2435 28
1949 2436 2437 28
1950 2436 2438 28
1951 2436 2439 28
1952 2436 2440 28
1953 2441 2442 28
1954 2441 2443 28
1955 2441 2444 28
1956 2441 2445 28
1957 2446 2447 28
1958 2446 2448 28
1959 2446 2449 28
1960 2446 2450 28
1961 2451 2452 28
1962 2451 2453 28
1963 2451 2454 28
1964 2451 2455 28
1965 2456 2457 28
1966 2456 2458 28
1967 2456 2459 28
1968 2456 2460 28
1969 2461 2462 28
1970 2461 2463 28
1971 2461 2464 28
1972 2461 2465 28
1973 2466 2467 28
1974 2466 2468 28
1975 2466 2469 28
1976 2466 2470 28
1977 2471 2472 28
1978 2471 2473 28
1979 2471 2474 28
1980 2471 2475 28
1981 2476 2477 28
1982 2476 2478 28
1983 2476 2479 28
1984 2476 2480 28
1985 2481 2482 28
1986 2481 2483 28
1987 2481 2484 28
1988 2481 2485 28
1989 2486 2487 28
1990 2486 2488 28
1991 2486 2489 28
1992 2486 2490 28
1993 2491 2492 28
1994 2491 2493 28
1995 2491 2494 28
1996 2491 2495 28
1997 2496 2497 28
1998 2496 2498 28
1999 2496 2499 28
2000 2496 2500 28
2001 2501 2502 28
2002 2501 2503 28
2003 2501 2504 28
2004 2501 2505 28
2005 2506 2507 28
2006 2506 2508 28
2007 2506 2509 28
2008 2506 2510 28
2009 2511 2512 28
2010 2511 2513 28
2011 2511 2514 28
2012 2511 2515 28
2013 2516 2517 28
2014 2516 2518 28
2015 2516 2519 28
2016 2516 2520 28
2017 2521 2522 28
2018 2521 2523 28
2019 2521 2524 28
2020 2521 2525 28
2021 2526 2527 28
2022 2526 2528 28
2023 2526 2529 28
2024 2526 2530 28
2025 2531 2532 28
2026 2531 2533 28
2027 2531 2534 28
2028 2531 2535 28
2029 2536 2537 28
2030 2536 2538 28
2031 2536 2539 28
2032 2536 2540 28
2033 2541 2542 28
2034 2541 2543 28
2035 2541 2544 28
2036 2541 2545 28
2037 2546 2547 28
2038 2546 2548 28
2039 2546 2549 28
2040 2546 2550 28
2041 2551 2552 28
2042 2551 2553 28
2043 2551 2554 28
2044 2551 2555 28
2045 2556 2557 28
2046 2556 2558 28
2047 2556 2559 28
2048 2556 2560 28
2049 2561 2562 28
2050 2561 2563 28
2051 2561 2564 28
2052 2561 2565 28
2053 2566 2567 28
2054 2566 2568 28
2055 2566 2569 28
2056 2566 2570 28
2057 2571 2572 28
2058 2571 2573 28
2059 2571 2574 28
2060 2571 2575 28
2061 2576 2577 28
2062 2576 2578 28
2063 2576 2579 28
2064 2576 2580 28
2065 2581 2582 28
2066 2581 2583 28
2067 2581 2584 28
2068 2581 2585 28
2069 2586 2587 28
2070 2586 2588 28
2071 2586 2589 28
2072 2586 2590 28
2073 2591 2592 28
2074 2591 2593 28
2075 2591 2594 28
2076 2591 2595 28
2077 2596 2597 28
2078 2596 2598 28
2079 2596 2599 28
2080 2596 2600 28
2081 2601 2602 28
2082 2601 2603 28
2083 2601 2604 28
2084 2601 2605 28
2085 2606 2607 28
2086 2606 2608 28
2087 2606 2609 28
2088 2606 2610 28
2089 2611 2612 28
2090 2611 2613 28
2091 2611 2614 28
2092 2611 2615 28
2093 2616 2617 28
2094 2616 2618 28
2095 2616 2619 28
2096 2616 2620 28
2097 2621 2622 28
2098 2621 2623 28
2099 2621 2624 28
2100 2621 2625 28
2101 2626 2627 28
2102 2626 2628 28
2103 2626 2629 28
2104 2626 2630 28
2105 2631 2632 28
2106 2631 2633 28
2107 2631 2634 28
2108 2631 2635 28
2109 2636 2637 28
2110 2636 2638 28
2111 2636 2639 28
2112 2636 2640 28
2113 2641 2642 28
2114 2641 2643 28
2115 2641 2644 28
2116 2641 2645 28
2117 2646 2647 28
2118 2646 2648 28
2119 2646 2649 28
2120 2646 2650 28
2121 2651 2652 28
2122 2651 2653 28
2123 2651 2654 28
2124 2651 2655 28
2125 2656 2657 28
2126 2656 2658 28
2127 2656 2659 28
2128 2656 2660 28
2129 2661 2662 28
2130 2661 2663 28
2131 2661 2664 28
2132 2661 2665 28
2133 2666 2667 28
2134 2666 2668 28
2135 2666 2669 28
2136 2666 2670 28
2137 2671 2672 28
2138 2671 2673 28
2139 2671 2674 28
2140 2671 2675 28
2141 2676 2677 28
2142 2676 2678 28
2143 2676 2679 28
2144 2676 2680 28
2145 2681 2682 28
2146 2681 2683 28
2147 2681 2684 28
2148 2681 2685 28
2149 2686 2687 28
2150 2686 2688 28
2151 2686 2689 28
2152 2686 2690 28
2153 2691 2692 28
2154 2691 2693 28
2155 2691 2694 28
2156 2691 2695 28
2157 2696 2697 28
2158 2696 2698 28
2159 2696 2699 28
2160 2696 2700 28
2161 2701 2702 28
2162 2701 2703 28
2163 2701 2704 28
2164 2701 2705 28
2165 2706 2707 28
2166 2706 2708 28
2167 2706 2709 28
2168 2706 2710 28
2169 2711 2712 28
2170 2711 2713 28
2171 2711 2714 28
2172 2711 2715 28
2173 2716 2717 28
2174 2716 2718 28
2175 2716 2719 28
2176 2716 2720 28
2177 2721 2722 28
2178 2721 2723 28
2179 2721 2724 28
2180 2721 2725 28
2181 2726 2727 28
2182 2726 2728 28
2183 2726 2729 28
2184 2726 2730 28
2185 2731 2732 28
2186 2731 2733 28
2187 2731 2734 28
2188 2731 2735 28
2189 2736 2737 28
2190 2736 2738 28
2191 2736 2739 28
2192 2736 2740 28
2193 2741 2742 28
2194 2741 2743 28
2195 2741 2744 28
2196 2741 2745 28
2197 2746 2747 28
2198 2746 2748 28
2199 2746 2749 28
2200 2746 2750 28
2201 2751 2752 28
2202 2751 2753 28
2203 2751 2754 28
2204 2751 2755 28
2205 2756 2757 28
2206 2756 2758 28
2207 2756 2759 28
2208 2756 2760 28
2209 2761 2762 28
2210 2761 2763 28
2211 2761 2764 28
2212 2761 2765 28
2213 2766 2767 28
2214 2766 2768 28
2215 2766 2769 28
2216 2766 2770 28
2217 2771 2772 28
2218 2771 2773 28
2219 2771 2774 28
2220 2771 2775 28
2221 2776 2777 28
2222 2776 2778 28
2223 2776 2779 28
2224 2776 2780 28
2225 2781 2782 28
2226 2781 2783 28
2227 2781 2784 28
2228 2781 2785 28
2229 2786 2787 28
2230 2786 2788 28
2231 2786 2789 28
2232 2786 2790 28
2233 2791 2792 28
2234 2791 2793 28
2235 2791 2794 28
2236 2791 2795 28
2237 2796 2797 28
2238 2796 2798 28
2239 2796 2799 28
2240 2796 2800 28
2241 2801 2802 28
2242 2801 2803 28
2243 2801 2804 28
2244 2801 2805 28
2245 2806 2807 28
2246 2806 2808 28
2247 2806 2809 28
2248 2806 2810 28
2249 2811 2812 28
2250 2811 2813 28
2251 2811 2814 28
2252 2811 2815 28
2253 2816 2817 28
2254 2816 2818 28
2255 2816 2819 28
2256 2816 2820 28
2257 2821 2822 28
2258 2821 2823 28
2259 2821 2824 28
2260 2821 2825 28
2261 2826 2827 28
2262 2826 2828 28
2263 2826 2829 28
2264 2826 2830 28
2265 2831 2832 28
2266 2831 2833 28
2267 2831 2834 28
2268 2831 2835 28
2269 2836 2837 28
2270 2836 2838 28
2271 2836 2839 28
2272 2836 2840 28
2273 2841 2842 28
2274 2841 2843 28
2275 2841 2844 28
2276 2841 2845 28
2277 2846 2847 28
2278 2846 2848 28
2279 2846 2849 28
2280 2846 2850 28
2281 2851 2852 28
2282 2851 2853 28
2283 2851 2854 28
2284 2851 2855 28
2285 2856 2857 28
2286 2856 2858 28
2287 2856 2859 28
2288 2856 2860 28
2289 2861 2862 28
2290 2861 2863 28
2291 2861 2864 28
2292 2861 2865 28
2293 2866 2867 28
2294 2866 2868 28
2295 2866 2869 28
2296 2866 2870 28
2297 2871 2872 28
2298 2871 2873 28
2299 2871 2874 28
2300 2871 2875 28
2301 2876 2877 28
2302 2876 2878 28
2303 2876 2879 28
2304 2876 2880 28
2305 2881 2882 28
2306 2881 2883 28
2307 2881 2884 28
2308 2881 2885 28
2309 2886 2887 28
2310 2886 2888 28
2311 2886 2889 28
2312 2886 2890 28
2313 2891 2892 28
2314 2891 2893 28
2315 2891 2894 28
2316 2891 2895 28
2317 2896 2897 28
2318 2896 2898 28
2319 2896 2899 28
2320 2896 2900 28
2321 2901 2902 28
2322 2901 2903 28
2323 2901 2904 28
2324 2901 2905 28
2325 2906 2907 28
2326 2906 2908 28
2327 2906 2909 28
2328 2906 2910 28
2329 2911 2912 28
2330 2911 2913 28
2331 2911 2914 28
2332 2911 2915 28
2333 2916 2917 28
2334 2916 2918 28
2335 2916 2919 28
2336 2916 2920 28
2337 2921 2922 28
2338 2921 2923 28
2339 2921 2924 28
2340 2921 2925 28
2341 2926 2927 28
2342 2926 2928 28
2343 2926 2929 28
2344 2926 2930 28
2345 2931 2932 28
2346 2931 2933 28
2347 2931 2934 28
2348 2931 2935 28
2349 2936 2937 28
2350 2936 2938 28
2351 2936 2939 28
2352 2936 2940 28
2353 2941 2942 28
2354 2941 2943 28
2355 2941 2944 28
2356 2941 2945 28
2357 2946 2947 28
2358 2946 2948 28
2359 2946 2949 28
2360 2946 2950 28
2361 2951 2952 28
2362 2951 2953 28
2363 2951 2954 28
2364 2951 2955 28
2365 2956 2957 28
2366 2956 2958 28
2367 2956 2959 28
2368 2956 2960 28
2369 2961 2962 28
2370 2961 2963 28
2371 2961 2964 28
2372 2961 2965 28
2373 2966 2967 28
2374 2966 2968 28
2375 2966 2969 28
2376 2966 2970 28
2377 2971 2972 28
2378 2971 2973 28
2379 2971 2974 28
2380 2971 2975 28
2381 2976 2977 28
2382 2976 2978 28
2383 2976 2979 28
2384 2976 2980 28
2385 2981 2982 28
2386 2981 2983 28
2387 2981 2984 28
2388 2981 2985 28
2389 2986 2987 28
2390 2986 2988 28
2391 2986 2989 28
2392 2986 2990 28
2393 2991 2992 28
2394 2991 2993 28
2395 2991 2994 28
2396 2991 2995 28
2397 2996 2997 28
2398 2996 2998 28
2399 2996 2999 28
2400 2996 3000 28
2401 3001 3002 28
2402 3001 3003 28
2403 3001 3004 28
2404 3001 3005 28
2405 3006 3007 28
2406 3006 3008 28
2407 3006 3009 28
2408 3006 3010 28
2409 3011 3012 28
2410 3011 3013 28
2411 3011 3014 28
2412 3011 3015 28
2413 3016 3017 28
2414 3016 3018 28
2415 3016 3019 28
2416 3016 3020 28
2417 3021 3022 28
2418 3021 3023 28
2419 3021 3024 28
2420 3021 3025 28
2421 3026 3027 28
2422 3026 3028 28
2423 3026 3029 28
2424 3026 3030 28
2425 3031 3032 28
2426 3031 3033 28
2427 3031 3034 28
2428 3031 3035 28
2429 3036 3037 28
2430 3036 3038 28
2431 3036 3039 28
2432 3036 3040 28
2433 3041 3042 28
2434 3041 3043 28
2435 3041 3044 28
2436 3041 3045 28
2437 3046 3047 28
2438 3046 3048 28
2439 3046 3049 28
2440 3046 3050 28
2441 3051 3052 28
2442 3051 3053 28
2443 3051 3054 28
2444 3051 3055 28
2445 3056 3057 28
2446 3056 3058 28
2447 3056 3059 28
2448 3056 3060 28
2449 3061 3062 28
2450 3061 3063 28
2451 3061 3064 28
2452 3061 3065 28
2453 3066 3067 28
2454 3066 3068 28
2455 3066 3069 28
2456 3066 3070 28
2457 3071 3072 28
2458 3071 3073 28
2459 3071 3074 28
2460 3071 3075 28
2461 3076 3077 28
2462 3076 3078 28
2463 3076 3079 28
2464 3076 3080 28
2465 3081 3082 28
2466 3081 3083 28
2467 3081 3084 28
2468 3081 3085 28
2469 3086 3087 28
2470 3086 3088 28
2471 3086 3089 28
2472 3086 3090 28
2473 3091 3092 28
2474 3091 3093 28
2475 3091 3094 28
2476 3091 3095 28
2477 3096 3097 28
2478 3096 3098 28
2479 3096 3099 28
2480 3096 3100 28
2481 3101 3102 28
2482 3101 3103 28
2483 3101 3104 28
2484 3101 3105 28
2485 3106 3107 28
2486 3106 3108 28
2487 3106 3109 28
2488 3106 3110 28
2489 3111 3112 28
2490 3111 3113 28
2491 3111 3114 28
2492 3111 3115 28
2493 3116 3117 28
2494 3116 3118 28
2495 3116 3119 28
2496 3116 3120 28
2497 3121 3122 28
2498 3121 3123 28
2499 3121 3124 28
2500 3121 3125 28
2501 3126 3127 28
2502 3126 3128 28
2503 3126 3129 28
2504 3126 3130 28
2505 3131 3132 28
2506 3131 3133 28
2507 3131 3134 28
2508 3131 3135 28
2509 3136 3137 28
2510 3136 3138 28
2511 3136 3139 28
2512 3136 3140 28
2513 3141 3142 28
2514 3141 3143 28
2515 3141 3144 28
2516 3141 3145 28
2517 3146 3147 28
2518 3146 3148 28
2519 3146 3149 28
2520 3146 3150 28
2521 3151 3152 28
2522 3151 3153 28
2523 3151 3154 28
2524 3151 3155 28
2525 3156 3157 28
2526 3156 3158 28
2527 3156 3159 28
2528 3156 3160 28
2529 3161 3162 28
2530 3161 3163 28
2531 3161 3164 28
2532 3161 3165 28
2533 3166 3167 28
2534 3166 3168 28
2535 3166 3169 28
2536 3166 3170 28
2537 3171 3172 28
2538 3171 3173 28
2539 3171 3174 28
2540 3171 3175 28
2541 3176 3177 28
2542 3176 3178 28
2543 3176 3179 28
2544 3176 3180 28
2545 3181 3182 28
2546 3181 3183 28
2547 3181 3184 28
2548 3181 3185 28
2549 3186 3187 28
2550 3186 3188 28
2551 3186 3189 28
2552 3186 3190 28
2553 3191 3192 28
2554 3191 3193 28
2555 3191 3194 28
2556 3191 3195 28
2557 3196 3197 28
2558 3196 3198 28
2559 3196 3199 28
2560 3196 3200 28
2561 3201 3202 28
2562 3201 3203 28
2563 3201 3204 28
2564 3201 3205 28
2565 3206 3207 28
2566 3206 3208 28
2567 3206 3209 28
2568 3206 3210 28
2569 3211 3212 28
2570 3211 3213 28
2571 3211 3214 28
2572 3211 3215 28
2573 3216 3217 28
2574 3216 3218 28
2575 3216 3219 28
2576 3216 3220 28
2577 3221 3222 28
2578 3221 3223 28
2579 3221 3224 28
2580 3221 3225 28
2581 3226 3227 28
2582 3226 3228 28
2583 3226 3229 28
2584 3226 3230 28
2585 3231 3232 28
2586 3231 3233 28
2587 3231 3234 28
2588 3231 3235 28
2589 3236 3237 28
2590 3236 3238 28
2591 3236 3239 28
2592 3236 3240 28
2593 3241 3242 28
2594 3241 3243 28
2595 3241 3244 28
2596 3241 3245 28
2597 3246 3247 28
2598 3246 3248 28
2599 3246 3249 28
2600 3246 3250 28
2601 3251 3252 28
2602 3251 3253 28
2603 3251 3254 28
2604 3251 3255 28
2605 3256 3257 28
2606 3256 3258 28
2607 3256 3259 28
2608 3256 3260 28
2609 3261 3262 28
2610 3261 3263 28
2611 3261 3264 28
2612 3261 3265 28
2613 3266 3267 28
2614 3266 3268 28
2615 3266 3269 28
2616 3266 3270 28
2617 3271 3272 28
2618 3271 3273 28
2619 3271 3274 28
2620 3271 3275 28
2621 3276 3277 28
2622 3276 3278 28
2623 3276 3279 28
2624 3276 3280 28
2625 3281 3282 28
2626 3281 3283 28
2627 3281 3284 28
2628 3281 3285 28
2629 3286 3287 28
2630 3286 3288 28
2631 3286 3289 28
2632 3286 3290 28
2633 3291 3292 28
2634 3291 3293 28
2635 3291 3294 28
2636 3291 3295 28
2637 3296 3297 28
2638 3296 3298 28
2639 3296 3299 28
2640 3296 3300 28
2641 3301 3302 28
2642 3301 3303 28
2643 3301 3304 28
2644 3301 3305 28
2645 3306 3307 28
2646 3306 3308 28
2647 3306 3309 28
2648 3306 3310 28
2649 3311 3312 28
2650 3311 3313 28
2651 3311 3314 28
2652 3311 3315 28
2653 3316 3317 28
2654 3316 3318 28
2655 3316 3319 28
2656 3316 3320 28
2657 3321 3322 28
2658 3321 3323 28
2659 3321 3324 28
2660 3321 3325 28
2661 3326 3327 28
2662 3326 3328 28
2663 3326 3329 28
2664 3326 3330 28
2665 3331 3332 28
2666 3331 3333 28
2667 3331 3334 28
2668 3331 3335 28
2669 3336 3337 28
2670 3336 3338 28
2671 3336 3339 28
2672 3336 3340 28
2673 3341 3342 28
2674 3341 3343 28
2675 3341 3344 28
2676 3341 3345 28
2677 3346 3347 28
2678 3346 3348 28
2679 3346 3349 28
2680 3346 3350 28
2681 3351 3352 28
2682 3351 3353 28
2683 3351 3354 28
2684 3351 3355 28
2685 3356 3357 28
2686 3356 3358 28
2687 3356 3359 28
2688 3356 3360 28
2689 3361 3362 28
2690 3361 3363 28
2691 3361 3364 28
2692 3361 3365 28
2693 3366 3367 28
2694 3366 3368 28
2695 3366 3369 28
2696 3366 3370 28
2697 3371 3372 28
2698 3371 3373 28
2699 3371 3374 28
2700 3371 3375 28
2701 3376 3377 28
2702 3376 3378 28
2703 3376 3379 28
2704 3376 3380 28
2705 3381 3382 28
2706 3381 3383 28
2707 3381 3384 28
2708 3381 3385 28
2709 3386 3387 28
2710 3386 3388 28
2711 3386 3389 28
2712 3386 3390 28
2713 3391 3392 28
2714 3391 3393 28
2715 3391 3394 28
2716 3391 3395 28
2717 3396 3397 28
2718 3396 3398 28
2719 3396 3399 28
2720 3396 3400 28
2721 3401 3402 28
2722 3401 3403 28
2723 3401 3404 28
2724 3401 3405 28
2725 3406 3407 28
2726 3406 3408 28
2727 3406 3409 28
2728 3406 3410 28
2729 3411 3412 28
2730 3411 3413 28
2731 3411 3414 28
2732 3411 3415 28
2733 3416 3417 28
2734 3416 3418 28
2735 3416 3419 28
2736 3416 3420 28
2737 3421 3422 28
2738 3421 3423 28
2739 3421 3424 28
2740 3421 3425 28
2741 3426 3427 28
2742 3426 3428 28
2743 3426 3429 28
2744 3426 3430 28
2745 3431 3432 28
2746 3431 3433 28
2747 3431 3434 28
2748 3431 3435 28
2749 3436 3437 28
2750 3436 3438 28
2751 3436 3439 28
2752 3436 3440 28
2753 3441 3442 28
2754 3441 3443 28
2755 3441 3444 28
2756 3441 3445 28
2757 3446 3447 28
2758 3446 3448 28
2759 3446 3449 28
2760 3446 3450 28
2761 3451 3452 28
2762 3451 3453 28
2763 3451 3454 28
2764 3451 3455 28
2765 3456 3457 28
2766 3456 3458 28
2767 3456 3459 28
2768 3456 3460 28
2769 3461 3462 28
2770 3461 3463 28
2771 3461 3464 28
2772 3461 3465 28
2773 3466 3467 28
2774 3466 3468 28
2775 3466 3469 28
2776 3466 3470 28
2777 3471 3472 28
2778 3471 3473 28
2779 3471 3474 28
2780 3471 3475 28
2781 3476 3477 28
2782 3476 3478 28
2783 3476 3479 28
2784 3476 3480 28
2785 3481 3482 28
2786 3481 3483 28
2787 3481 3484 28
2788 3481 3485 28
2789 3486 3487 28
2790 3486 3488 28
2791 3486 3489 28
2792 3486 3490 28
2793 3491 3492 28
2794 3491 3493 28
2795 3491 3494 28
2796 3491 3495 28
2797 3496 3497 28
2798 3496 3498 28
2799 3496 3499 28
2800 3496 3500 28
2801 3501 3502 28
2802 3501 3503 28
2803 3501 3504 28
2804 3501 3505 28
2805 3506 3507 28
2806 3506 3508 28
2807 3506 3509 28
2808 3506 3510 28
2809 3511 3512 28
2810 3511 3513 28
2811 3511 3514 28
2812 3511 3515 28
2813 3516 3517 28
2814 3516 3518 28
2815 3516 3519 28
2816 3516 3520 28
2817 3521 3522 28
2818 3521 3523 28
2819 3521 3524 28
2820 3521 3525 28
2821 3526 3527 28
2822 3526 3528 28
2823 3526 3529 28
2824 3526 3530 28
2825 3531 3532 28
2826 3531 3533 28
2827 3531 3534 28
2828 3531 3535 28
2829 3536 3537 28
2830 3536 3538 28
2831 3536 3539 28
2832 3536 3540 28
2833 3541 3542 28
2834 3541 3543 28
2835 3541 3544 28
2836 3541 3545 28
2837 3546 3547 28
2838 3546 3548 28
2839 3546 3549 28
2840 3546 3550 28
2841 3551 3552 28
2842 3551 3553 28
2843 3551 3554 28
2844 3551 3555 28
2845 3556 3557 28
2846 3556 3558 28
2847 3556 3559 28
2848 3556 3560 28
2849 3561 3562 28
2850 3561 3563 28
2851 3561 3564 28
2852 3561 3565 28
2853 3566 3567 28
2854 3566 3568 28
2855 3566 3569 28
2856 3566 3570 28
2857 3571 3572 28
2858 3571 3573 28
2859 3571 3574 28
2860 3571 3575 28
2861 3576 3577 28
2862 3576 3578 28
2863 3576 3579 28
2864 3576 3580 28
2865 3581 3582 28
2866 3581 3583 28
2867 3581 3584 28
2868 3581 3585 28
2869 3586 3587 28
2870 3586 3588 28
2871 3586 3589 28
2872 3586 3590 28
2873 3591 3592 28
2874 3591 3593 28
2875 3591 3594 28
2876 3591 3595 28
2877 3596 3597 28
2878 3596 3598 28
2879 3596 3599 28
2880 3596 3600 28
2881 3601 3602 28
2882 3601 3603 28
2883 3601 3604 28
2884 3601 3605 28
2885 3606 3607 28
2886 3606 3608 28
2887 3606 3609 28
2888 3606 3610 28
2889 3611 3612 28
2890 3611 3613 28
2891 3611 3614 28
2892 3611 3615 28
2893 3616 3617 28
2894 3616 3618 28
2895 3616 3619 28
2896 3616 3620 28
2897 3621 3622 28
2898 3621 3623 28
2899 3621 3624 28
2900 3621 3625 28
2901 3626 3627 28
2902 3626 3628 28
2903 3626 3629 28
2904 3626 3630 28
2905 3631 3632 28
2906 3631 3633 28
2907 3631 3634 28
2908 3631 3635 28
2909 3636 3637 28
2910 3636 3638 28
2911 3636 3639 28
2912 3636 3640 28
2913 3641 3642 28
2914 3641 3643 28
2915 3641 3644 28
2916 3641 3645 28
2917 3646 3647 28
2918 3646 3648 28
2919 3646 3649 28
2920 3646 3650 28
2921 3651 3652 28
2922 3651 3653 28
2923 3651 3654 28
2924 3651 3655 28
2925 3656 3657 28
2926 3656 3658 28
2927 3656 3659 28
2928 3656 3660 28
2929 3661 3662 28
2930 3661 3663 28
2931 3661 3664 28
2932 3661 3665 28
2933 3666 3667 28
2934 3666 3668 28
2935 3666 3669 28
2936 3666 3670 28
2937 3671 3672 28
2938 3671 3673 28
2939 3671 3674 28
2940 3671 3675 28
2941 3676 3677 28
2942 3676 3678 28
2943 3676 3679 28
2944 3676 3680 28
2945 3681 3682 28
2946 3681 3683 28
2947 3681 3684 28
2948 3681 3685 28
2949 3686 3687 28
2950 3686 3688 28
2951 3686 3689 28
2952 3686 3690 28
2953 3691 3692 28
2954 3691 3693 28
2955 3691 3694 28
2956 3691 3695 28
2957 3696 3697 28
2958 3696 3698 28
2959 3696 3699 28
2960 3696 3700 28
2961 3701 3702 28
2962 3701 3703 28
2963 3701 3704 28
2964 3701 3705 28
2965 3706 3707 28
2966 3706 3708 28
2967 3706 3709 28
2968 3706 3710 28
2969 3711 3712 28
2970 3711 3713 28
2971 3711 3714 28
2972 3711 3715 28
2973 3716 3717 28
2974 3716 3718 28
2975 3716 3719 28
2976 3716 3720 28
2977 3721 3722 28
2978 3721 3723 28
2979 3721 3724 28
2980 3721 3725 28
2981 3726 3727 28
2982 3726 3728 28
2983 3726 3729 28
2984 3726 3730 28
2985 3731 3732 28
2986 3731 3733 28
2987 3731 3734 28
2988 3731 3735 28
2989 3736 3737 28
2990 3736 3738 28
2991 3736 3739 28
2992 3736 3740 28
2993 3741 3742 28
2994 3741 3743 28
2995 3741 3744 28
2996 3741 3745 28
2997 3746 3747 28
2998 3746 3748 28
2999 3746 3749 28
3000 3746 3750 28
3001 3751 3752 28
3002 3751 3753 28
3003 3751 3754 28
3004 3751 3755 28
3005 3756 3757 28
3006 3756 3758 28
3007 3756 3759 28
3008 3756 3760 28
3009 3761 3762 28
3010 3761 3763 28
3011 3761 3764 28
3012 3761 3765 28
3013 3766 3767 28
3014 3766 3768 28
3015 3766 3769 28
3016 3766 3770 28
3017 3771 3772 28
3018 3771 3773 28
3019 3771 3774 28
3020 3771 3775 28
3021 3776 3777 28
3022 3776 3778 28
3023 3776 3779 28
3024 3776 3780 28
3025 3781 3782 28
3026 3781 3783 28
3027 3781 3784 28
3028 3781 3785 28
3029 3786 3787 28
3030 3786 3788 28
3031 3786 3789 28
3032 3786 3790 28
3033 3791 3792 28
3034 3791 3793 28
3035 3791 3794 28
3036 3791 3795 28
3037 3796 3797 28
3038 3796 3798 28
3039 3796 3799 28
3040 3796 3800 28
3041 3801 3802 28
3042 3801 3803 28
3043 3801 3804 28
3044 3801 3805 28
3045 3806 3807 28
3046 3806 3808 28
3047 3806 3809 28
3048 3806 3810 28
3049 3811 3812 28
3050 3811 3813 28
3051 3811 3814 28
3052 3811 3815 28
3053 3816 3817 28
3054 3816 3818 28
3055 3816 3819 28
3056 3816 3820 28
3057 3821 3822 28
3058 3821 3823 28
3059 3821 3824 28
3060 3821 3825 28
3061 3826 3827 28
3062 3826 3828 28
3063 3826 3829 28
3064 3826 3830 28
3065 3831 3832 28
3066 3831 3833 28
3067 3831 3834 28
3068 3831 3835 28
3069 3836 3837 28
3070 3836 3838 28
3071 3836 3839 28
3072 3836 3840 28
3073 3841 3842 28
3074 3841 3843 28
3075 3841 3844 28
3076 3841 3845 28
3077 3846 3847 28
3078 3846 3848 28
3079 3846 3849 28
3080 3846 3850 28
3081 3851 3852 28
3082 3851 3853 28
3083 3851 3854 28
3084 3851 3855 28
3085 3856 3857 28
3086 3856 3858 28
3087 3856 3859 28
3088 3856 3860 28
3089 3861 3862 28
3090 3861 3863 28
3091 3861 3864 28
3092 3861 3865 28
3093 3866 3867 28
3094 3866 3868 28
3095 3866 3869 28
3096 3866 3870 28
3097 3871 3872 28
3098 3871 3873 28
3099 3871 3874 28
3100 3871 3875 28
3101 3876 3877 28
3102 3876 3878 28
3103 3876 3879 28
3104 3876 3880 28
3105 3881 3882 28
3106 3881 3883 28
3107 3881 3884 28
3108 3881 3885 28
3109 3886 3887 28
3110 3886 3888 28
3111 3886 3889 28
3112 3886 3890 28
3113 3891 3892 28
3114 3891 3893 28
3115 3891 3894 28
3116 3891 3895 28
3117 3896 3897 28
3118 3896 3898 28
3119 3896 3899 28
3120 3896 3900 28
3121 3901 3902 28
3122 3901 3903 28
3123 3901 3904 28
3124 3901 3905 28
3125 3906 3907 28
3126 3906 3908 28
3127 3906 3909 28
3128 3906 3910 28
3129 3911 3912 28
3130 3911 3913 28
3131 3911 3914 28
3132 3911 3915 28
3133 3916 3917 28
3134 3916 3918 28
3135 3916 3919 28
3136 3916 3920 28
3137 3921 3922 28
3138 3921 3923 28
3139 3921 3924 28
3140 3921 3925 28
3141 3926 3927 28
3142 3926 3928 28
3143 3926 3929 28
3144 3926 3930 28
3145 3931 3932 28
3146 3931 3933 28
3147 3931 3934 28
3148 3931 3935 28
3149 3936 3937 28
3150 3936 3938 28
3151 3936 3939 28
3152 3936 3940 28
3153 3941 3942 28
3154 3941 3943 28
3155 3941 3944 28
3156 3941 3945 28
3157 3946 3947 28
3158 3946 3948 28
3159 3946 3949 28
3160 3946 3950 28
3161 3951 3952 28
3162 3951 3953 28
3163 3951 3954 28
3164 3951 3955 28
3165 3956 3957 28
3166 3956 3958 28
3167 3956 3959 28
3168 3956 3960 28
3169 3961 3962 28
3170 3961 3963 28
3171 3961 3964 28
3172 3961 3965 28
3173 3966 3967 28
3174 3966 3968 28
3175 3966 3969 28
3176 3966 3970 28
3177 3971 3972 28
3178 3971 3973 28
3179 3971 3974 28
3180 3971 3975 28
3181 3976 3977 28
3182 3976 3978 28
3183 3976 3979 28
3184 3976 3980 28
3185 3981 3982 28
3186 3981 3983 28
3187 3981 3984 28
3188 3981 3985 28
3189 3986 3987 28
3190 3986 3988 28
3191 3986 3989 28
3192 3986 3990 28
3193 3991 3992 28
3194 3991 3993 28
3195 3991 3994 28
3196 3991 3995 28
3197 3996 3997 28
3198 3996 3998 28
3199 3996 3999 28
3200 3996 4000 28
3201 4001 4002 28
3202 4001 4003 28
3203 4001 4004 28
3204 4001 4005 28
3205 4006 4007 28
3206 4006 4008 28
3207 4006 4009 28
3208 4006 4010 28
3209 4011 4012 28
3210 4011 4013 28
3211 4011 4014 28
3212 4011 4015 28
3213 4016 4017 28
3214 4016 4018 28
3215 4016 4019 28
3216 4016 4020 28
3217 4021 4022 28
3218 4021 4023 28
3219 4021 4024 28
3220 4021 4025 28
3221 4026 4027 28
3222 4026 4028 28
3223 4026 4029 28
3224 4026 4030 28
3225 4031 4032 28
3226 4031 4033 28
3227 4031 4034 28
3228 4031 4035 28
3229 4036 4037 28
3230 4036 4038 28
3231 4036 4039 28
3232 4036 4040 28
3233 4041 4042 28
3234 4041 4043 28
3235 4041 4044 28
3236 4041 4045 28
3237 4046 4047 28
3238 4046 4048 28
3239 4046 4049 28
3240 4046 4050 28
3241 4051 4052 28
3242 4051 4053 28
3243 4051 4054 28
3244 4051 4055 28
3245 4056 4057 28
3246 4056 4058 28
3247 4056 4059 28
3248 4056 4060 28
3249 4061 4062 28
3250 4061 4063 28
3251 4061 4064 28
3252 4061 4065 28
3253 4066 4067 28
3254 4066 4068 28
3255 4066 4069 28
3256 4066 4070 28
3257 4071 4072 28
3258 4071 4073 28
3259 4071 4074 28
3260 4071 4075 28
3261 4076 4077 28
3262 4076 4078 28
3263 4076 4079 28
3264 4076 4080 28
3265 4081 4082 28
3266 4081 4083 28
3267 4081 4084 28
3268 4081 4085 28
3269 4086 4087 28
3270 4086 4088 28
3271 4086 4089 28
3272 4086 4090 28
3273 4091 4092 28
3274 4091 4093 28
3275 4091 4094 28
3276 4091 4095 28
3277 4096 4097 28
3278 4096 4098 28
3279 4096 4099 28
3280 4096 4100 28
3281 4101 4102 28
3282 4101 4103 28
3283 4101 4104 28
3284 4101 4105 28
3285 4106 4107 28
3286 4106 4108 28
3287 4106 4109 28
3288 4106 4110 28
3289 4111 4112 28
3290 4111 4113 28
3291 4111 4114 28
3292 4111 4115 28
3293 4116 4117 28
3294 4116 4118 28
3295 4116 4119 28
3296 4116 4120 28
3297 4121 4122 28
3298 4121 4123 28
3299 4121 4124 28
3300 4121 4125 28
3301 4126 4127 28
3302 4126 4128 28
3303 4126 4129 28
3304 4126 4130 28
3305 4131 4132 28
3306 4131 4133 28
3307 4131 4134 28
3308 4131 4135 28
3309 4136 4137 28
3310 4136 4138 28
3311 4136 4139 28
3312 4136 4140 28
3313 4141 4142 28
3314 4141 4143 28
3315 4141 4144 28
3316 4141 4145 28
3317 4146 4147 28
3318 4146 4148 28
3319 4146 4149 28
3320 4146 4150 28
3321 4151 4152 28
3322 4151 4153 28
3323 4151 4154 28
3324 4151 4155 28
3325 4156 4157 28
3326 4156 4158 28
3327 4156 4159 28
3328 4156 4160 28
3329 4161 4162 28
3330 4161 4163 28
3331 4161 4164 28
3332 4161 4165 28
3333 4166 4167 28
3334 4166 4168 28
3335 4166 4169 28
3336 4166 4170 28
3337 4171 4172 28
3338 4171 4173 28
3339 4171 4174 28
3340 4171 4175 28
3341 4176 4177 28
3342 4176 4178 28
3343 4176 4179 28
3344 4176 4180 28
3345 4181 4182 28
3346 4181 4183 28
3347 4181 4184 28
3348 4181 4185 28
3349 4186 4187 28
3350 4186 4188 28
3351 4186 4189 28
3352 4186 4190 28
3353 4191 4192 28
3354 4191 4193 28
3355 4191 4194 28
3356 4191 4195 28
3357 4196 4197 28
3358 4196 4198 28
3359 4196 4199 28
3360 4196 4200 28
3361 4201 4202 28
3362 4201 4203 28
3363 4201 4204 28
3364 4201 4205 28
3365 4206 4207 28
3366 4206 4208 28
3367 4206 4209 28
3368 4206 4210 28
3369 4211 4212 28
3370 4211 4213 28
3371 4211 4214 28
3372 4211 4215 28
3373 4216 4217 28
3374 4216 4218 28
3375 4216 4219 28
3376 4216 4220 28
3377 4221 4222 28
3378 4221 4223 28
3379 4221 4224 28
3380 4221 4225 28
3381 4226 4227 28
3382 4226 4228 28
3383 4226 4229 28
3384 4226 4230 28
3385 4231 4232 28
3386 4231 4233 28
3387 4231 4234 28
3388 4231 4235 28
3389 4236 4237 28
3390 4236 4238 28
3391 4236 4239 28
3392 4236 4240 28
3393 4241 4242 28
3394 4241 4243 28
3395 4241 4244 28
3396 4241 4245 28
3397 4246 4247 28
3398 4246 4248 28
3399 4246 4249 28
3400 4246 4250 28
3401 4251 4252 28
3402 4251 4253 28
3403 4251 4254 28
3404 4251 4255 28
3405 4256 4257 28
3406 4256 4258 28
3407 4256 4259 28
3408 4256 4260 28
3409 4261 4262 28
3410 4261 4263 28
3411 4261 4264 28
3412 4261 4265 28
3413 4266 4267 28
3414 4266 4268 28
3415 4266 4269 28
3416 4266 4270 28
3417 4271 4272 28
3418 4271 4273 28
3419 4271 4274 28
3420 4271 4275 28
3421 4276 4277 28
3422 4276 4278 28
3423 4276 4279 28
3424 4276 4280 28
3425 4281 4282 28
3426 4281 4283 28
3427 4281 4284 28
3428 4281 4285 28
3429 4286 4287 28
3430 4286 4288 28
3431 4286 4289 28
3432 4286 4290 28
3433 4291 4292 28
3434 4291 4293 28
3435 4291 4294 28
3436 4291 4295 28
3437 4296 4297 28
3438 4296 4298 28
3439 4296 4299 28
3440 4296 4300 28
3441 4301 4302 28
3442 4301 4303 28
3443 4301 4304 28
3444 4301 4305 28
3445 4306 4307 28
3446 4306 4308 28
3447 4306 4309 28
3448 4306 4310 28
3449 4311 4312 28
3450 4311 4313 28
3451 4311 4314 28
3452 4311 4315 28
3453 4316 4317 28
3454 4316 4318 28
3455 4316 4319 28
3456 4316 4320 28
3457 4321 4322 28
3458 4321 4323 28
3459 4321 4324 28
3460 4321 4325 28
3461 4326 4327 28
3462 4326 4328 28
3463 4326 4329 28
3464 4326 4330 28
3465 4331 4332 28
3466 4331 4333 28
3467 4331 4334 28
3468 4331 4335 28
3469 4336 4337 28
3470 4336 4338 28
3471 4336 4339 28
3472 4336 4340 28
3473 4341 4342 28
3474 4341 4343 28
3475 4341 4344 28
3476 4341 4345 28
3477 4346 4347 28
3478 4346 4348 28
3479 4346 4349 28
3480 4346 4350 28
3481 4351 4352 28
3482 4351 4353 28
3483 4351 4354 28
3484 4351 4355 28
3485 4356 4357 28
3486 4356 4358 28
3487 4356 4359 28
3488 4356 4360 28
3489 4361 4362 28
3490 4361 4363 28
3491 4361 4364 28
3492 4361 4365 28
3493 4366 4367 28
3494 4366 4368 28
3495 4366 4369 28
3496 4366 4370 28
3497 4371 4372 28
3498 4371 4373 28
3499 4371 4374 28
3500 4371 4375 28
3501 4376 4377 28
3502 4376 4378 28
3503 4376 4379 28
3504 4376 4380 28
3505 4381 4382 28
3506 4381 4383 28
3507 4381 4384 28
3508 4381 4385 28
3509 4386 4387 28
3510 4386 4388 28
3511 4386 4389 28
3512 4386 4390 28
3513 4391 4392 28
3514 4391 4393 28
3515 4391 4394 28
3516 4391 4395 28
3517 4396 4397 28
3518 4396 4398 28
3519 4396 4399 28
3520 4396 4400 28
3521 4401 4402 28
3522 4401 4403 28
3523 4401 4404 28
3524 4401 4405 28
3525 4406 4407 28
3526 4406 4408 28
3527 4406 4409 28
3528 4406 4410 28
3529 4411 4412 28
3530 4411 4413 28
3531 4411 4414 28
3532 4411 4415 28
3533 4416 4417 28
3534 4416 4418 28
3535 4416 4419 28
3536 4416 4420 28
3537 4421 4422 28
3538 4421 4423 28
3539 4421 4424 28
3540 4421 4425 28
3541 4426 4427 28
3542 4426 4428 28
3543 4426 4429 28
3544 4426 4430 28
3545 4431 4432 28
3546 4431 4433 28
3547 4431 4434 28
3548 4431 4435 28
3549 4436 4437 28
3550 4436 4438 28
3551 4436 4439 28
3552 4436 4440 28
3553 4441 4442 28
3554 4441 4443 28
3555 4441 4444 28
3556 4441 4445 28
3557 4446 4447 28
3558 4446 4448 28
3559 4446 4449 28
3560 4446 4450 28
3561 4451 4452 28
3562 4451 4453 28
3563 4451 4454 28
3564 4451 4455 28
3565 4456 4457 28
3566 4456 4458 28
3567 4456 4459 28
3568 4456 4460 28
3569 4461 4462 28
3570 4461 4463 28
3571 4461 4464 28
3572 4461 4465 28
3573 4466 4467 28
3574 4466 4468 28
3575 4466 4469 28
3576 4466 4470 28
3577 4471 4472 28
3578 4471 4473 28
3579 4471 4474 28
3580 4471 4475 28
3581 4476 4477 28
3582 4476 4478 28
3583 4476 4479 28
3584 4476 4480 28
3585 4481 4482 28
3586 4481 4483 28
3587 4481 4484 28
3588 4481 4485 28
3589 4486 4487 28
3590 4486 4488 28
3591 4486 4489 28
3592 4486 4490 28
3593 4491 4492 28
3594 4491 4493 28
3595 4491 4494 28
3596 4491 4495 28
3597 4496 4497 28
3598 4496 4498 28
3599 4496 4499 28
3600 4496 4500 28
3601 4501 4502 28
3602 4501 4503 28
3603 4501 4504 28
3604 4501 4505 28
3605 4506 4507 28
3606 4506 4508 28
3607 4506 4509 28
3608 4506 4510 28
3609 4511 4512 28
3610 4511 4513 28
3611 4511 4514 28
3612 4511 4515 28
3613 4516 4517 28
3614 4516 4518 28
3615 4516 4519 28
3616 4516 4520 28
3617 4521 4522 28
3618 4521 4523 28
3619 4521 4524 28
3620 4521 4525 28
3621 4526 4527 28
3622 4526 4528 28
3623 4526 4529 28
3624 4526 4530 28
3625 4531 4532 28
3626 4531 4533 28
3627 4531 4534 28
3628 4531 4535 28
3629 4536 4537 28
3630 4536 4538 28
3631 4536 4539 28
3632 4536 4540 28
3633 4541 4542 28
3634 4541 4543 28
3635 4541 4544 28
3636 4541 4545 28
3637 4546 4547 28
3638 4546 4548 28
3639 4546 4549 28
3640 4546 4550 28
3641 4551 4552 28
3642 4551 4553 28
3643 4551 4554 28
3644 4551 4555 28
3645 4556 4557 28
3646 4556 4558 28
3647 4556 4559 28
3648 4556 4560 28
3649 4561 4562 28
3650 4561 4563 28
3651 4561 4564 28
3652 4561 4565 28
3653 4566 4567 28
3654 4566 4568 28
3655 4566 4569 28
3656 4566 4570 28
3657 4571 4572 28
3658 4571 4573 28
3659 4571 4574 28
3660 4571 4575 28
3661 4576 4577 28
3662 4576 4578 28
3663 4576 4579 28
3664 4576 4580 28
3665 4581 4582 28
3666 4581 4583 28
3667 4581 4584 28
3668 4581 4585 28
3669 4586 4587 28
3670 4586 4588 28
3671 4586 4589 28
3672 4586 4590 28
3673 4591 4592 28
3674 4591 4593 28
3675 4591 4594 28
3676 4591 4595 28
3677 4596 4597 28
3678 4596 4598 28
3679 4596 4599 28
3680 4596 4600 28
3681 4601 4602 28
3682 4601 4603 28
3683 4601 4604 28
3684 4601 4605 28
3685 4606 4607 28
3686 4606 4608 28
3687 4606 4609 28
3688 4606 4610 28
3689 4611 4612 28
3690 4611 4613 28
3691 4611 4614 28
3692 4611 4615 28
3693 4616 4617 28
3694 4616 4618 28
3695 4616 4619 28
3696 4616 4620 28
3697 4621 4622 28
3698 4621 4623 28
3699 4621 4624 28
3700 4621 4625 28
3701 4626 4627 28
3702 4626 4628 28
3703 4626 4629 28
3704 4626 4630 28
3705 4631 4632 28
3706 4631 4633 28
3707 4631 4634 28
3708 4631 4635 28
3709 4636 4637 28
3710 4636 4638 28
3711 4636 4639 28
3712 4636 4640 28
3713 4641 4642 28
3714 4641 4643 28
3715 4641 4644 28
3716 4641 4645 28
3717 4646 4647 28
3718 4646 4648 28
3719 4646 4649 28
3720 4646 4650 28
3721 4651 4652 28
3722 4651 4653 28
3723 4651 4654 28
3724 4651 4655 28
3725 4656 4657 28
3726 4656 4658 28
3727 4656 4659 28
3728 4656 4660 28
3729 4661 4662 28
3730 4661 4663 28
3731 4661 4664 28
3732 4661 4665 28
3733 4666 4667 28
3734 4666 4668 28
3735 4666 4669 28
3736 4666 4670 28
3737 4671 4672 28
3738 4671 4673 28
3739 4671 4674 28
3740 4671 4675 28
3741 4676 4677 28
3742 4676 4678 28
3743 4676 4679 28
3744 4676 4680 28
3745 4681 4682 28
3746 4681 4683 28
3747 4681 4684 28
3748 4681 4685 28
3749 4686 4687 28
3750 4686 4688 28
3751 4686 4689 28
3752 4686 4690 28
3753 4691 4692 28
3754 4691 4693 28
3755 4691 4694 28
3756 4691 4695 28
3757 4696 4697 28
3758 4696 4698 28
3759 4696 4699 28
3760 4696 4700 28
3761 4701 4702 28
3762 4701 4703 28
3763 4701 4704 28
3764 4701 4705 28
3765 4706 4707 28
3766 4706 4708 28
3767 4706 4709 28
3768 4706 4710 28
3769 4711 4712 28
3770 4711 4713 28
3771 4711 4714 28
3772 4711 4715 28
3773 4716 4717 28
3774 4716 4718 28
3775 4716 4719 28
3776 4716 4720 28
3777 4721 4722 28
3778 4721 4723 28
3779 4721 4724 28
3780 4721 4725 28
3781 4726 4727 28
3782 4726 4728 28
3783 4726 4729 28
3784 4726 4730 28
3785 4731 4732 28
3786 4731 4733 28
3787 4731 4734 28
3788 4731 4735 28
3789 4736 4737 28
3790 4736 4738 28
3791 4736 4739 28
3792 4736 4740 28
3793 4741 4742 28
3794 4741 4743 28
3795 4741 4744 28
3796 4741 4745 28
3797 4746 4747 28
3798 4746 4748 28
3799 4746 4749 28
3800 4746 4750 28
3801 4751 4752 28
3802 4751 4753 28
3803 4751 4754 28
3804 4751 4755 28
3805 4756 4757 28
3806 4756 4758 28
3807 4756 4759 28
3808 4756 4760 28
3809 4761 4762 28
3810 4761 4763 28
3811 4761 4764 28
3812 4761 4765 28
3813 4766 4767 28
3814 4766 4768 28
3815 4766 4769 28
3816 4766 4770 28
3817 4771 4772 28
3818 4771 4773 28
3819 4771 4774 28
3820 4771 4775 28
3821 4776 4777 28
3822 4776 4778 28
3823 4776 4779 28
3824 4776 4780 28
3825 4781 4782 28
3826 4781 4783 28
3827 4781 4784 28
3828 4781 4785 28
3829 4786 4787 28
3830 4786 4788 28
3831 4786 4789 28
3832 4786 4790 28
3833 4791 4792 28
3834 4791 4793 28
3835 4791 4794 28
3836 4791 4795 28
3837 4796 4797 28
3838 4796 4798 28
3839 4796 4799 28
3840 4796 4800 28
3841 4801 4802 28
3842 4801 4803 28
3843 4801 4804 28
3844 4801 4805 28
3845 4806 4807 28
3846 4806 4808 28
3847 4806 4809 28
3848 4806 4810 28
3849 4811 4812 28
3850 4811 4813 28
3851 4811 4814 28
3852 4811 4815 28
3853 4816 4817 28
3854 4816 4818 28
3855 4816 4819 28
3856 4816 4820 28
3857 4821 4822 28
3858 4821 4823 28
3859 4821 4824 28
3860 4821 4825 28
3861 4826 4827 28
3862 4826 4828 28
3863 4826 4829 28
3864 4826 4830 28
3865 4831 4832 28
3866 4831 4833 28
3867 4831 4834 28
3868 4831 4835 28
3869 4836 4837 28
3870 4836 4838 28
3871 4836 4839 28
3872 4836 4840 28
3873 4841 4842 28
3874 4841 4843 28
3875 4841 4844 28
3876 4841 4845 28
3877 4846 4847 28
3878 4846 4848 28
3879 4846 4849 28
3880 4846 4850 28
3881 4851 4852 28
3882 4851 4853 28
3883 4851 4854 28
3884 4851 4855 28
3885 4856 4857 28
3886 4856 4858 28
3887 4856 4859 28
3888 4856 4860 28
3889 4861 4862 28
3890 4861 4863 28
3891 4861 4864 28
3892 4861 4865 28
3893 4866 4867 28
3894 4866 4868 28
3895 4866 4869 28
3896 4866 4870 28
3897 4871 4872 28
3898 4871 4873 28
3899 4871 4874 28
3900 4871 4875 28
3901 4876 4877 28
3902 4876 4878 28
3903 4876 4879 28
3904 4876 4880 28
3905 4881 4882 28
3906 4881 4883 28
3907 4881 4884 28
3908 4881 4885 28
3909 4886 4887 28
3910 4886 4888 28
3911 4886 4889 28
3912 4886 4890 28
3913 4891 4892 28
3914 4891 4893 28
3915 4891 4894 28
3916 4891 4895 28
3917 4896 4897 28
3918 4896 4898 28
3919 4896 4899 28
3920 4896 4900 28
3921 4901 4902 28
3922 4901 4903 28
3923 4901 4904 28
3924 4901 4905 28
3925 4906 4907 28
3926 4906 4908 28
3927 4906 4909 28
3928 4906 4910 28
3929 4911 4912 28
3930 4911 4913 28
3931 4911 4914 28
3932 4911 4915 28
3933 4916 4917 28
3934 4916 4918 28
3935 4916 4919 28
3936 4916 4920 28
3937 4921 4922 28
3938 4921 4923 28
3939 4921 4924 28
3940 4921 4925 28
3941 4926 4927 28
3942 4926 4928 28
3943 4926 4929 28
3944 4926 4930 28
3945 4931 4932 28
3946 4931 4933 28
3947 4931 4934 28
3948 4931 4935 28
3949 4936 4937 28
3950 4936 4938 28
3951 4936 4939 28
3952 4936 4940 28
3953 4941 4942 28
3954 4941 4943 28
3955 4941 4944 28
3956 4941 4945 28
3957 4946 4947 28
3958 4946 4948 28
3959 4946 4949 28
3960 4946 4950 28
3961 4951 4952 28
3962 4951 4953 28
3963 4951 4954 28
3964 4951 4955 28
3965 4956 4957 28
3966 4956 4958 28
3967 4956 4959 28
3968 4956 4960 28
3969 4961 4962 28
3970 4961 4963 28
3971 4961 4964 28
3972 4961 4965 28
3973 4966 4967 28
3974 4966 4968 28
3975 4966 4969 28
3976 4966 4970 28
3977 4971 4972 28
3978 4971 4973 28
3979 4971 4974 28
3980 4971 4975 28
3981 4976 4977 28
3982 4976 4978 28
3983 4976 4979 28
3984 4976 4980 28
3985 4981 4982 28
3986 4981 4983 28
3987 4981 4984 28
3988 4981 4985 28
3989 4986 4987 28
3990 4986 4988 28
3991 4986 4989 28
3992 4986 4990 28
3993 4991 4992 28
3994 4991 4993 28
3995 4991 4994 28
3996 4991 4995 28
3997 4996 4997 28
3998 4996 4998 28
3999 4996 4999 28
4000 4996 5000 28
4001 5001 5002 28
4002 5001 5003 28
4003 5001 5004 28
4004 5001 5005 28
4005 5006 5007 28
4006 5006 5008 28
4007 5006 5009 28
4008 5006 5010 28
4009 5011 5012 28
4010 5011 5013 28
4011 5011 5014 28
4012 5011 5015 28
4013 5016 5017 28
4014 5016 5018 28
4015 5016 5019 28
4016 5016 5020 28
4017 5021 5022 28
4018 5021 5023 28
4019 5021 5024 28
4020 5021 5025 28
4021 5026 5027 28
4022 5026 5028 28
4023 5026 5029 28
4024 5026 5030 28
4025 5031 5032 28
4026 5031 5033 28
4027 5031 5034 28
4028 5031 5035 28
4029 5036 5037 28
4030 5036 5038 28
4031 5036 5039 28
4032 5036 5040 28
4033 5041 5042 28
4034 5041 5043 28
4035 5041 5044 28
4036 5041 5045 28
4037 5046 5047 28
4038 5046 5048 28
4039 5046 5049 28
4040 5046 5050 28
4041 5051 5052 28
4042 5051 5053 28
4043 5051 5054 28
4044 5051 5055 28
4045 5056 5057 28
4046 5056 5058 28
4047 5056 5059 28
4048 5056 5060 28
4049 5061 5062 28
4050 5061 5063 28
4051 5061 5064 28
4052 5061 5065 28
4053 5066 5067 28
4054 5066 5068 28
4055 5066 5069 28
4056 5066 5070 28
4057 5071 5072 28
4058 5071 5073 28
4059 5071 5074 28
4060 5071 5075 28
4061 5076 5077 28
4062 5076 5078 28
4063 5076 5079 28
4064 5076 5080 28
4065 5081 5082 28
4066 5081 5083 28
4067 5081 5084 28
4068 5081 5085 28
4069 5086 5087 28
4070 5086 5088 28
4071 5086 5089 28
4072 5086 5090 28
4073 5091 5092 28
4074 5091 5093 28
4075 5091 5094 28
4076 5091 5095 28
4077 5096 5097 28
4078 5096 5098 28
4079 5096 5099 28
4080 5096 5100 28
4081 5101 5102 28
4082 5101 5103 28
4083 5101 5104 28
4084 5101 5105 28
4085 5106 5107 28
4086 5106 5108 28
4087 5106 5109 28
4088 5106 5110 28
4089 5111 5112 28
4090 5111 5113 28
4091 5111 5114 28
4092 5111 5115 28
4093 5116 5117 28
4094 5116 5118 28
4095 5116 5119 28
4096 5116 5120 28
4097 5121 5122 28
4098 5121 5123 28
4099 5121 5124 28
4100 5121 5125 28
4101 5126 5127 28
4102 5126 5128 28
4103 5126 5129 28
4104 5126 5130 28
4105 5131 5132 28
4106 5131 5133 28
4107 5131 5134 28
4108 5131 5135 28
4109 5136 5137 28
4110 5136 5138 28
4111 5136 5139 28
4112 5136 5140 28
4113 5141 5142 28
4114 5141 5143 28
4115 5141 5144 28
4116 5141 5145 28
4117 5146 5147 28
4118 5146 5148 28
4119 5146 5149 28
4120 5146 5150 28
4121 5151 5152 28
4122 5151 5153 28
4123 5151 5154 28
4124 5151 5155 28
4125 5156 5157 28
4126 5156 5158 28
4127 5156 5159 28
4128 5156 5160 28
4129 5161 5162 28
4130 5161 5163 28
4131 5161 5164 28
4132 5161 5165 28
4133 5166 5167 28
4134 5166 5168 28
4135 5166 5169 28
4136 5166 5170 28
4137 5171 5172 28
4138 5171 5173 28
4139 5171 5174 28
4140 5171 5175 28
4141 5176 5177 28
4142 5176 5178 28
4143 5176 5179 28
4144 5176 5180 28
4145 5181 5182 28
4146 5181 5183 28
4147 5181 5184 28
4148 5181 5185 28
4149 5186 5187 28
4150 5186 5188 28
4151 5186 5189 28
4152 5186 5190 28
4153 5191 5192 28
4154 5191 5193 28
4155 5191 5194 28
4156 5191 5195 28
4157 5196 5197 28
4158 5196 5198 28
4159 5196 5199 28
4160 5196 5200 28
4161 5201 5202 28
4162 5201 5203 28
4163 5201 5204 28
4164 5201 5205 28
4165 5206 5207 28
4166 5206 5208 28
4167 5206 5209 28
4168 5206 5210 28
4169 5211 5212 28
4170 5211 5213 28
4171 5211 5214 28
4172 5211 5215 28
4173 5216 5217 28
4174 5216 5218 28
4175 5216 5219 28
4176 5216 5220 28
4177 5221 5222 28
4178 5221 5223 28
4179 5221 5224 28
4180 5221 5225 28
4181 5226 5227 28
4182 5226 5228 28
4183 5226 5229 28
4184 5226 5230 28
4185 5231 5232 28
4186 5231 5233 28
4187 5231 5234 28
4188 5231 5235 28
4189 5236 5237 28
4190 5236 5238 28
4191 5236 5239 28
4192 5236 5240 28
4193 5241 5242 28
4194 5241 5243 28
4195 5241 5244 28
4196 5241 5245 28
4197 5246 5247 28
4198 5246 5248 28
4199 5246 5249 28
4200 5246 5250 28
4201 5251 5252 28
4202 5251 5253 28
4203 5251 5254 28
4204 5251 5255 28
4205 5256 5257 28
4206 5256 5258 28
4207 5256 5259 28
4208 5256 5260 28
4209 5261 5262 28
4210 5261 5263 28
4211 5261 5264 28
4212 5261 5265 28
4213 5266 5267 28
4214 5266 5268 28
4215 5266 5269 28
4216 5266 5270 28
4217 5271 5272 28
4218 5271 5273 28
4219 5271 5274 28
4220 5271 5275 28
4221 5276 5277 28
4222 5276 5278 28
4223 5276 5279 28
4224 5276 5280 28
4225 5281 5282 28
4226 5281 5283 28
4227 5281 5284 28
4228 5281 5285 28
4229 5286 5287 28
4230 5286 5288 28
4231 5286 5289 28
4232 5286 5290 28
4233 5291 5292 28
4234 5291 5293 28
4235 5291 5294 28
4236 5291 5295 28
4237 5296 5297 28
4238 5296 5298 28
4239 5296 5299 28
4240 5296 5300 28
4241 5301 5302 28
4242 5301 5303 28
4243 5301 5304 28
4244 5301 5305 28
4245 5306 5307 28
4246 5306 5308 28
4247 5306 5309 28
4248 5306 5310 28
4249 5311 5312 28
4250 5311 5313 28
4251 5311 5314 28
4252 5311 5315 28
4253 5316 5317 28
4254 5316 5318 28
4255 5316 5319 28
4256 5316 5320 28
4257 5321 5322 28
4258 5321 5323 28
4259 5321 5324 28
4260 5321 5325 28
4261 5326 5327 28
4262 5326 5328 28
4263 5326 5329 28
4264 5326 5330 28
4265 5331 5332 28
4266 5331 5333 28
4267 5331 5334 28
4268 5331 5335 28
4269 5336 5337 28
4270 5336 5338 28
4271 5336 5339 28
4272 5336 5340 28
4273 5341 5342 28
4274 5341 5343 28
4275 5341 5344 28
4276 5341 5345 28
4277 5346 5347 28
4278 5346 5348 28
4279 5346 5349 28
4280 5346 5350 28
4281 5351 5352 28
4282 5351 5353 28
4283 5351 5354 28
4284 5351 5355 28
4285 5356 5357 28
4286 5356 5358 28
4287 5356 5359 28
4288 5356 5360 28
4289 5361 5362 28
4290 5361 5363 28
4291 5361 5364 28
4292 5361 5365 28
4293 5366 5367 28
4294 5366 5368 28
4295 5366 5369 28
4296 5366 5370 28
4297 5371 5372 28
4298 5371 5373 28
4299 5371 5374 28
4300 5371 5375 28
4301 5376 5377 28
4302 5376 5378 28
4303 5376 5379 28
4304 5376 5380 28
4305 5381 5382 28
4306 5381 5383 28
4307 5381 5384 28
4308 5381 5385 28
4309 5386 5387 28
4310 5386 5388 28
4311 5386 5389 28
4312 5386 5390 28
4313 5391 5392 28
4314 5391 5393 28
4315 5391 5394 28
4316 5391 5395 28
4317 5396 5397 28
4318 5396 5398 28
4319 5396 5399 28
4320 5396 5400 28
4321 5401 5402 28
4322 5401 5403 28
4323 5401 5404 28
4324 5401 5405 28
4325 5406 5407 28
4326 5406 5408 28
4327 5406 5409 28
4328 5406 5410 28
4329 5411 5412 28
4330 5411 5413 28
4331 5411 5414 28
4332 5411 5415 28
4333 5416 5417 28
4334 5416 5418 28
4335 5416 5419 28
4336 5416 5420 28
4337 5421 5422 28
4338 5421 5423 28
4339 5421 5424 28
4340 5421 5425 28
4341 5426 5427 28
4342 5426 5428 28
4343 5426 5429 28
4344 5426 5430 28
4345 5431 5432 28
4346 5431 5433 28
4347 5431 5434 28
4348 5431 5435 28
4349 5436 5437 28
4350 5436 5438 28
4351 5436 5439 28
4352 5436 5440 28
4353 5441 5442 28
4354 5441 5443 28
4355 5441 5444 28
4356 5441 5445 28
4357 5446 5447 28
4358 5446 5448 28
4359 5446 5449 28
4360 5446 5450 28
4361 5451 5452 28
4362 5451 5453 28
4363 5451 5454 28
4364 5451 5455 28
4365 5456 5457 28
4366 5456 5458 28
4367 5456 5459 28
4368 5456 5460 28
4369 5461 5462 28
4370 5461 5463 28
4371 5461 5464 28
4372 5461 5465 28
4373 5466 5467 28
4374 5466 5468 28
4375 5466 5469 28
4376 5466 5470 28
4377 5471 5472 28
4378 5471 5473 28
4379 5471 5474 28
4380 5471 5475 28
4381 5476 5477 28
4382 5476 5478 28
4383 5476 5479 28
4384 5476 5480 28
4385 5481 5482 28
4386 5481 5483 28
4387 5481 5484 28
4388 5481 5485 28
4389 5486 5487 28
4390 5486 5488 28
4391 5486 5489 28
4392 5486 5490 28
4393 5491 5492 28
4394 5491 5493 28
4395 5491 5494 28
4396 5491 5495 28
4397 5496 5497 28
4398 5496 5498 28
4399 5496 5499 28
4400 5496 5500 28
4401 5501 5502 28
4402 5501 5503 28
4403 5501 5504 28
4404 5501 5505 28
4405 5506 5507 28
4406 5506 5508 28
4407 5506 5509 28
4408 5506 5510 28
4409 5511 5512 28
4410 5511 5513 28
4411 5511 5514 28
4412 5511 5515 28
4413 5516 5517 28
4414 5516 5518 28
4415 5516 5519 28
4416 5516 5520 28
4417 5521 5522 28
4418 5521 5523 28
4419 5521 5524 28
4420 5521 5525 28
4421 5526 5527 28
4422 5526 5528 28
4423 5526 5529 28
4424 5526 5530 28
4425 5531 5532 28
4426 5531 5533 28
4427 5531 5534 28
4428 5531 5535 28
4429 5536 5537 28
4430 5536 5538 28
4431 5536 5539 28
4432 5536 5540 28
4433 5541 5542 28
4434 5541 5543 28
4435 5541 5544 28
4436 5541 5545 28
4437 5546 5547 28
4438 5546 5548 28
4439 5546 5549 28
4440 5546 5550 28
4441 5551 5552 28
4442 5551 5553 28
4443 5551 5554 28
4444 5551 5555 28
4445 5556 5557 28
4446 5556 5558 28
4447 5556 5559 28
4448 5556 5560 28
4449 5561 5562 28
4450 5561 5563 28
4451 5561 5564 28
4452 5561 5565 28
4453 5566 5567 28
4454 5566 5568 28
4455 5566 5569 28
4456 5566 5570 28
4457 5571 5572 28
4458 5571 5573 28
4459 5571 5574 28
4460 5571 5575 28
4461 5576 5577 28
4462 5576 5578 28
4463 5576 5579 28
4464 5576 5580 28
4465 5581 5582 28
4466 5581 5583 28
4467 5581 5584 28
4468 5581 5585 28
4469 5586 5587 28
4470 5586 5588 28
4471 5586 5589 28
4472 5586 5590 28
4473 5591 5592 28
4474 5591 5593 28
4475 5591 5594 28
4476 5591 5595 28
4477 5596 5597 28
4478 5596 5598 28
4479 5596 5599 28
4480 5596 5600 28
4481 5601 5602 28
4482 5601 5603 28
4483 5601 5604 28
4484 5601 5605 28
4485 5606 5607 28
4486 5606 5608 28
4487 5606 5609 28
4488 5606 5610 28
4489 5611 5612 28
4490 5611 5613 28
4491 5611 5614 28
4492 5611 5615 28
4493 5616 5617 28
4494 5616 5618 28
4495 5616 5619 28
4496 5616 5620 28
4497 5621 5622 28
4498 5621 5623 28
4499 5621 5624 28
4500 5621 5625 28
4501 5626 5627 28
4502 5626 5628 28
4503 5626 5629 28
4504 5626 5630 28
4505 5631 5632 28
4506 5631 5633 28
4507 5631 5634 28
4508 5631 5635 28
4509 5636 5637 28
4510 5636 5638 28
4511 5636 5639 28
4512 5636 5640 28
4513 5641 5642 28
4514 5641 5643 28
4515 5641 5644 28
4516 5641 5645 28
4517 5646 5647 28
4518 5646 5648 28
4519 5646 5649 28
4520 5646 5650 28
4521 5651 5652 28
4522 5651 5653 28
4523 5651 5654 28
4524 5651 5655 28
4525 5656 5657 28
4526 5656 5658 28
4527 5656 5659 28
4528 5656 5660 28
4529 5661 5662 28
4530 5661 5663 28
4531 5661 5664 28
4532 5661 5665 28
4533 5666 5667 28
4534 5666 5668 28
4535 5666 5669 28
4536 5666 5670 28
4537 5671 5672 28
4538 5671 5673 28
4539 5671 5674 28
4540 5671 5675 28
4541 5676 5677 28
4542 5676 5678 28
4543 5676 5679 28
4544 5676 5680 28
4545 5681 5682 28
4546 5681 5683 28
4547 5681 5684 28
4548 5681 5685 28
4549 5686 5687 28
4550 5686 5688 28
4551 5686 5689 28
4552 5686 5690 28
4553 5691 5692 28
4554 5691 5693 28
4555 5691 5694 28
4556 5691 5695 28
4557 5696 5697 28
4558 5696 5698 28
4559 5696 5699 28
4560 5696 5700 28
4561 5701 5702 28
4562 5701 5703 28
4563 5701 5704 28
4564 5701 5705 28
4565 5706 5707 28
4566 5706 5708 28
4567 5706 5709 28
4568 5706 5710 28
4569 5711 5712 28
4570 5711 5713 28
4571 5711 5714 28
4572 5711 5715 28
4573 5716 5717 28
4574 5716 5718 28
4575 5716 5719 28
4576 5716 5720 28
4577 5721 5722 28
4578 5721 5723 28
4579 5721 5724 28
4580 5721 5725 28
4581 5726 5727 28
4582 5726 5728 28
4583 5726 5729 28
4584 5726 5730 28
4585 5731 5732 28
4586 5731 5733 28
4587 5731 5734 28
4588 5731 5735 28
4589 5736 5737 28
4590 5736 5738 28
4591 5736 5739 28
4592 5736 5740 28
4593 5741 5742 28
4594 5741 5743 28
4595 5741 5744 28
4596 5741 5745 28
4597 5746 5747 28
4598 5746 5748 28
4599 5746 5749 28
4600 5746 5750 28
4601 5751 5752 28
4602 5751 5753 28
4603 5751 5754 28
4604 5751 5755 28
4605 5756 5757 28
4606 5756 5758 28
4607 5756 5759 28
4608 5756 5760 28
4609 5761 5762 28
4610 5761 5763 28
4611 5761 5764 28
4612 5761 5765 28
4613 5766 5767 28
4614 5766 5768 28
4615 5766 5769 28
4616 5766 5770 28
4617 5771 5772 28
4618 5771 5773 28
4619 5771 5774 28
4620 5771 5775 28
4621 5776 5777 28
4622 5776 5778 28
4623 5776 5779 28
4624 5776 5780 28
4625 5781 5782 28
4626 5781 5783 28
4627 5781 5784 28
4628 5781 5785 28
4629 5786 5787 28
4630 5786 5788 28
4631 5786 5789 28
4632 5786 5790 28
4633 5791 5792 28
4634 5791 5793 28
4635 5791 5794 28
4636 5791 5795 28
4637 5796 5797 28
4638 5796 5798 28
4639 5796 5799 28
4640 5796 5800 28
4641 5801 5802 28
4642 5801 5803 28
4643 5801 5804 28
4644 5801 5805 28
4645 5806 5807 28
4646 5806 5808 28
4647 5806 5809 28
4648 5806 5810 28
4649 5811 5812 28
4650 5811 5813 28
4651 5811 5814 28
4652 5811 5815 28
4653 5816 5817 28
4654 5816 5818 28
4655 5816 5819 28
4656 5816 5820 28
4657 5821 5822 28
4658 5821 5823 28
4659 5821 5824 28
4660 5821 5825 28
4661 5826 5827 28
4662 5826 5828 28
4663 5826 5829 28
4664 5826 5830 28
4665 5831 5832 28
4666 5831 5833 28
4667 5831 5834 28
4668 5831 5835 28
4669 5836 5837 28
4670 5836 5838 28
4671 5836 5839 28
4672 5836 5840 28
4673 5841 5842 28
4674 5841 5843 28
4675 5841 5844 28
4676 5841 5845 28
4677 5846 5847 28
4678 5846 5848 28
4679 5846 5849 28
4680 5846 5850 28
4681 5851 5852 28
4682 5851 5853 28
4683 5851 5854 28
4684 5851 5855 28
4685 5856 5857 28
4686 5856 5858 28
4687 5856 5859 28
4688 5856 5860 28
4689 5861 5862 28
4690 5861 5863 28
4691 5861 5864 28
4692 5861 5865 28
4693 5866 5867 28
4694 5866 5868 28
4695 5866 5869 28
4696 5866 5870 28
4697 5871 5872 28
4698 5871 5873 28
4699 5871 5874 28
4700 5871 5875 28
4701 5876 5877 28
4702 5876 5878 28
4703 5876 5879 28
4704 5876 5880 28
4705 5881 5882 28
4706 5881 5883 28
4707 5881 5884 28
4708 5881 5885 28
4709 5886 5887 28
4710 5886 5888 28
4711 5886 5889 28
4712 5886 5890 28
4713 5891 5892 28
4714 5891 5893 28
4715 5891 5894 28
4716 5891 5895 28
4717 5896 5897 28
4718 5896 5898 28
4719 5896 5899 28
4720 5896 5900 28
4721 5901 5902 28
4722 5901 5903 28
4723 5901 5904 28
4724 5901 5905 28
4725 5906 5907 28
4726 5906 5908 28
4727 5906 5909 28
4728 5906 5910 28
4729 5911 5912 28
4730 5911 5913 28
4731 5911 5914 28
4732 5911 5915 28
4733 5916 5917 28
4734 5916 5918 28
4735 5916 5919 28
4736 5916 5920 28
4737 5921 5922 28
4738 5921 5923 28
4739 5921 5924 28
4740 5921 5925 28
4741 5926 5927 28
4742 5926 5928 28
4743 5926 5929 28
4744 5926 5930 28
4745 5931 5932 28
4746 5931 5933 28
4747 5931 5934 28
4748 5931 5935 28
4749 5936 5937 28
4750 5936 5938 28
4751 5936 5939 28
4752 5936 5940 28
4753 5941 5942 28
4754 5941 5943 28
4755 5941 5944 28
4756 5941 5945 28
4757 5946 5947 28
4758 5946 5948 28
4759 5946 5949 28
4760 5946 5950 28
4761 5951 5952 28
4762 5951 5953 28
4763 5951 5954 28
4764 5951 5955 28
4765 5956 5957 28
4766 5956 5958 28
4767 5956 5959 28
4768 5956 5960 28
4769 5961 5962 28
4770 5961 5963 28
4771 5961 5964 28
4772 5961 5965 28
4773 5966 5967 28
4774 5966 5968 28
4775 5966 5969 28
4776 5966 5970 28
4777 5971 5972 28
4778 5971 5973 28
4779 5971 5974 28
4780 5971 5975 28
4781 5976 5977 28
4782 5976 5978 28
4783 5976 5979 28
4784 5976 5980 28
4785 5981 5982 28
4786 5981 5983 28
4787 5981 5984 28
4788 5981 5985 28
4789 5986 5987 28
4790 5986 5988 28
4791 5986 5989 28
4792 5986 5990 28
4793 5991 5992 28
4794 5991 5993 28
4795 5991 5994 28
4796 5991 5995 28
4797 5996 5997 28
4798 5996 5998 28
4799 5996 5999 28
4800 5996 6000 28
4801 6001 6002 28
4802 6001 6003 28
4803 6001 6004 28
4804 6001 6005 28
4805 6006 6007 28
4806 6006 6008 28
4807 6006 6009 28
4808 6006 6010 28
4809 6011 6012 28
4810 6011 6013 28
4811 6011 6014 28
4812 6011 6015 28
4813 6016 6017 28
4814 6016 6018 28
4815 6016 6019 28
4816 6016 6020 28
4817 6021 6022 28
4818 6021 6023 28
4819 6021 6024 28
4820 6021 6025 28
4821 6026 6027 28
4822 6026 6028 28
4823 6026 6029 28
4824 6026 6030 28
4825 6031 6032 28
4826 6031 6033 28
4827 6031 6034 28
4828 6031 6035 28
4829 6036 6037 28
4830 6036 6038 28
4831 6036 6039 28
4832 6036 6040 28
4833 6041 6042 28
4834 6041 6043 28
4835 6041 6044 28
4836 6041 6045 28
4837 6046 6047 28
4838 6046 6048 28
4839 6046 6049 28
4840 6046 6050 28
4841 6051 6052 28
4842 6051 6053 28
4843 6051 6054 28
4844 6051 6055 28
4845 6056 6057 28
4846 6056 6058 28
4847 6056 6059 28
4848 6056 6060 28
4849 6061 6062 28
4850 6061 6063 28
4851 6061 6064 28
4852 6061 6065 28
4853 6066 6067 28
4854 6066 6068 28
4855 6066 6069 28
4856 6066 6070 28
4857 6071 6072 28
4858 6071 6073 28
4859 6071 6074 28
4860 6071 6075 28
4861 6076 6077 28
4862 6076 6078 28
4863 6076 6079 28
4864 6076 6080 28
4865 6081 6082 28
4866 6081 6083 28
4867 6081 6084 28
4868 6081 6085 28
4869 6086 6087 28
4870 6086 6088 28
4871 6086 6089 28
4872 6086 6090 28
4873 6091 6092 28
4874 6091 6093 28
4875 6091 6094 28
4876 6091 6095 28
4877 6096 6097 28
4878 6096 6098 28
4879 6096 6099 28
4880 6096 6100 28
4881 6101 6102 28
4882 6101 6103 28
4883 6101 6104 28
4884 6101 6105 28
4885 6106 6107 28
4886 6106 6108 28
4887 6106 6109 28
4888 6106 6110 28
4889 6111 6112 28
4890 6111 6113 28
4891 6111 6114 28
4892 6111 6115 28
4893 6116 6117 28
4894 6116 6118 28
4895 6116 6119 28
4896 6116 6120 28
4897 6121 6122 28
4898 6121 6123 28
4899 6121 6124 28
4900 6121 6125 28
4901 6126 6127 28
4902 6126 6128 28
4903 6126 6129 28
4904 6126 6130 28
4905 6131 6132 28
4906 6131 6133 28
4907 6131 6134 28
4908 6131 6135 28
4909 6136 6137 28
4910 6136 6138 28
4911 6136 6139 28
4912 6136 6140 28
4913 6141 6142 28
4914 6141 6143 28
4915 6141 6144 28
4916 6141 6145 28
4917 6146 6147 28
4918 6146 6148 28
4919 6146 6149 28
4920 6146 6150 28
4921 6151 6152 28
4922 6151 6153 28
4923 6151 6154 28
4924 6151 6155 28
4925 6156 6157 28
4926 6156 6158 28
4927 6156 6159 28
4928 6156 6160 28
4929 6161 6162 28
4930 6161 6163 28
4931 6161 6164 28
4932 6161 6165 28
4933 6166 6167 28
4934 6166 6168 28
4935 6166 6169 28
4936 6166 6170 28
4937 6171 6172 28
4938 6171 6173 28
4939 6171 6174 28
4940 6171 6175 28
4941 6176 6177 28
4942 6176 6178 28
4943 6176 6179 28
4944 6176 6180 28
4945 6181 6182 28
4946 6181 6183 28
4947 6181 6184 28
4948 6181 6185 28
4949 6186 6187 28
4950 6186 6188 28
4951 6186 6189 28
4952 6186 6190 28
4953 6191 6192 28
4954 6191 6193 28
4955 6191 6194 28
4956 6191 6195 28
4957 6196 6197 28
4958 6196 6198 28
4959 6196 6199 28
4960 6196 6200 28
4961 6201 6202 28
4962 6201 6203 28
4963 6201 6204 28
4964 6201 6205 28
4965 6206 6207 28
4966 6206 6208 28
4967 6206 6209 28
4968 6206 6210 28
4969 6211 6212 28
4970 6211 6213 28
4971 6211 6214 28
4972 6211 6215 28
4973 6216 6217 28
4974 6216 6218 28
4975 6216 6219 28
4976 6216 6220 28
4977 6221 6222 28
4978 6221 6223 28
4979 6221 6224 28
4980 6221 6225 28
4981 6226 6227 28
4982 6226 6228 28
4983 6226 6229 28
4984 6226 6230 28
4985 6231 6232 28
4986 6231 6233 28
4987 6231 6234 28
4988 6231 6235 28
4989 6236 6237 28
4990 6236 6238 28
4991 6236 6239 28
4992 6236 6240 28
4993 6241 6242 28
4994 6241 6243 28
4995 6241 6244 28
4996 6241 6245 28
4997 6246 6247 28
4998 6246 6248 28
4999 6246 6249 28
5000 6246 6250 28
5001 6251 6252 28
5002 6251 6253 28
5003 6251 6254 28
5004 6251 6255 28
5005 6256 6257 28
5006 6256 6258 28
5007 6256 6259 28
5008 6256 6260 28
5009 6261 6262 28
5010 6261 6263 28
5011 6261 6264 28
5012 6261 6265 28
5013 6266 6267 28
5014 6266 6268 28
5015 6266 6269 28
5016 6266 6270 28
5017 6271 6272 28
5018 6271 6273 28
5019 6271 6274 28
5020 6271 6275 28
5021 6276 6277 28
5022 6276 6278 28
5023 6276 6279 28
5024 6276 6280 28
5025 6281 6282 28
5026 6281 6283 28
5027 6281 6284 28
5028 6281 6285 28
5029 6286 6287 28
5030 6286 6288 28
5031 6286 6289 28
5032 6286 6290 28
5033 6291 6292 28
5034 6291 6293 28
5035 6291 6294 28
5036 6291 6295 28
5037 6296 6297 28
5038 6296 6298 28
5039 6296 6299 28
5040 6296 6300 28
5041 6301 6302 28
5042 6301 6303 28
5043 6301 6304 28
5044 6301 6305 28
5045 6306 6307 28
5046 6306 6308 28
5047 6306 6309 28
5048 6306 6310 28
5049 6311 6312 28
5050 6311 6313 28
5051 6311 6314 28
5052 6311 6315 28
5053 6316 6317 28
5054 6316 6318 28
5055 6316 6319 28
5056 6316 6320 28
5057 6321 6322 28
5058 6321 6323 28
5059 6321 6324 28
5060 6321 6325 28
5061 6326 6327 28
5062 6326 6328 28
5063 6326 6329 28
5064 6326 6330 28
5065 6331 6332 28
5066 6331 6333 28
5067 6331 6334 28
5068 6331 6335 28
5069 6336 6337 28
5070 6336 6338 28
5071 6336 6339 28
5072 6336 6340 28
5073 6341 6342 28
5074 6341 6343 28
5075 6341 6344 28
5076 6341 6345 28
5077 6346 6347 28
5078 6346 6348 28
5079 6346 6349 28
5080 6346 6350 28
5081 6351 6352 28
5082 6351 6353 28
5083 6351 6354 28
5084 6351 6355 28
5085 6356 6357 28
5086 6356 6358 28
5087 6356 6359 28
5088 6356 6360 28
5089 6361 6362 28
5090 6361 6363 28
5091 6361 6364 28
5092 6361 6365 28
5093 6366 6367 28
5094 6366 6368 28
5095 6366 6369 28
5096 6366 6370 28
5097 6371 6372 28
5098 6371 6373 28
5099 6371 6374 28
5100 6371 6375 28
5101 6376 6377 28
5102 6376 6378 28
5103 6376 6379 28
5104 6376 6380 28
5105 6381 6382 28
5106 6381 6383 28
5107 6381 6384 28
5108 6381 6385 28
5109 6386 6387 28
5110 6386 6388 28
5111 6386 6389 28
5112 6386 6390 28
5113 6391 6392 28
5114 6391 6393 28
5115 6391 6394 28
5116 6391 6395 28
5117 6396 6397 28
5118 6396 6398 28
5119 6396 6399 28
5120 6396 6400 28
5121 6401 6402 28
5122 6401 6403 28
5123 6401 6404 28
5124 6401 6405 28
5125 6406 6407 28
5126 6406 6408 28
5127 6406 6409 28
5128 6406 6410 28
5129 6411 6412 28
5130 6411 6413 28
5131 6411 6414 28
5132 6411 6415 28
5133 6416 6417 28
5134 6416 6418 28
5135 6416 6419 28
5136 6416 6420 28
5137 6421 6422 28
5138 6421 6423 28
5139 6421 6424 28
5140 6421 6425 28
5141 6426 6427 28
5142 6426 6428 28
5143 6426 6429 28
5144 6426 6430 28
5145 6431 6432 28
5146 6431 6433 28
5147 6431 6434 28
5148 6431 6435 28
5149 6436 6437 28
5150 6436 6438 28
5151 6436 6439 28
5152 6436 6440 28
5153 6441 6442 28
5154 6441 6443 28
5155 6441 6444 28
5156 6441 6445 28
5157 6446 6447 28
5158 6446 6448 28
5159 6446 6449 28
5160 6446 6450 28
5161 6451 6452 28
5162 6451 6453 28
5163 6451 6454 28
5164 6451 6455 28
5165 6456 6457 28
5166 6456 6458 28
5167 6456 6459 28
5168 6456 6460 28
5169 6461 6462 28
5170 6461 6463 28
5171 6461 6464 28
5172 6461 6465 28
5173 6466 6467 28
5174 6466 6468 28
5175 6466 6469 28
5176 6466 6470 28
5177 6471 6472 28
5178 6471 6473 28
5179 6471 6474 28
5180 6471 6475 28
5181 6476 6477 28
5182 6476 6478 28
5183 6476 6479 28
5184 6476 6480 28
5185 6481 6482 28
5186 6481 6483 28
5187 6481 6484 28
5188 6481 6485 28
5189 6486 6487 28
5190 6486 6488 28
5191 6486 6489 28
5192 6486 6490 28
5193 6491 6492 28
5194 6491 6493 28
5195 6491 6494 28
5196 6491 6495 28
5197 6496 6497 28
5198 6496 6498 28
5199 6496 6499 28
5200 6496 6500 28
5201 6501 6502 28
5202 6501 6503 28
5203 6501 6504 28
5204 6501 6505 28
5205 6506 6507 28
5206 6506 6508 28
5207 6506 6509 28
5208 6506 6510 28
5209 6511 6512 28
5210 6511 6513 28
5211 6511 6514 28
5212 6511 6515 28
5213 6516 6517 28
5214 6516 6518 28
5215 6516 6519 28
5216 6516 6520 28
5217 6521 6522 28
5218 6521 6523 28
5219 6521 6524 28
5220 6521 6525 28
5221 6526 6527 28
5222 6526 6528 28
5223 6526 6529 28
5224 6526 6530 28
5225 6531 6532 28
5226 6531 6533 28
5227 6531 6534 28
5228 6531 6535 28
5229 6536 6537 28
5230 6536 6538 28
5231 6536 6539 28
5232 6536 6540 28
5233 6541 6542 28
5234 6541 6543 28
5235 6541 6544 28
5236 6541 6545 28
5237 6546 6547 28
5238 6546 6548 28
5239 6546 6549 28
5240 6546 6550 28
5241 6551 6552 28
5242 6551 6553 28
5243 6551 6554 28
5244 6551 6555 28
5245 6556 6557 28
5246 6556 6558 28
5247 6556 6559 28
5248 6556 6560 28
5249 6561 6562 28
5250 6561 6563 28
5251 6561 6564 28
5252 6561 6565 28
5253 6566 6567 28
5254 6566 6568 28
5255 6566 6569 28
5256 6566 6570 28
5257 6571 6572 28
5258 6571 6573 28
5259 6571 6574 28
5260 6571 6575 28
5261 6576 6577 28
5262 6576 6578 28
5263 6576 6579 28
5264 6576 6580 28
5265 6581 6582 28
5266 6581 6583 28
5267 6581 6584 28
5268 6581 6585 28
5269 6586 6587 28
5270 6586 6588 28
5271 6586 6589 28
5272 6586 6590 28
5273 6591 6592 28
5274 6591 6593 28
5275 6591 6594 28
5276 6591 6595 28
5277 6596 6597 28
5278 6596 6598 28
5279 6596 6599 28
5280 6596 6600 28
5281 6601 6602 28
5282 6601 6603 28
5283 6601 6604 28
5284 6601 6605 28
5285 6606 6607 28
5286 6606 6608 28
5287 6606 6609 28
5288 6606 6610 28
5289 6611 6612 28
5290 6611 6613 28
5291 6611 6614 28
5292 6611 6615 28
5293 6616 6617 28
5294 6616 6618 28
5295 6616 6619 28
5296 6616 6620 28
5297 6621 6622 28
5298 6621 6623 28
5299 6621 6624 28
5300 6621 6625 28
5301 6626 6627 28
5302 6626 6628 28
5303 6626 6629 28
5304 6626 6630 28
5305 6631 6632 28
5306 6631 6633 28
5307 6631 6634 28
5308 6631 6635 28
5309 6636 6637 28
5310 6636 6638 28
5311 6636 6639 28
5312 6636 6640 28
5313 6641 6642 28
5314 6641 6643 28
5315 6641 6644 28
5316 6641 6645 28
5317 6646 6647 28
5318 6646 6648 28
5319 6646 6649 28
5320 6646 6650 28
5321 6651 6652 28
5322 6651 6653 28
5323 6651 6654 28
5324 6651 6655 28
5325 6656 6657 28
5326 6656 6658 28
5327 6656 6659 28
5328 6656 6660 28
5329 6661 6662 28
5330 6661 6663 28
5331 6661 6664 28
5332 6661 6665 28
5333 6666 6667 28
5334 6666 6668 28
5335 6666 6669 28
5336 6666 6670 28
5337 6671 6672 28
5338 6671 6673 28
5339 6671 6674 28
5340 6671 6675 28
5341 6676 6677 28
5342 6676 6678 28
5343 6676 6679 28
5344 6676 6680 28
5345 6681 6682 28
5346 6681 6683 28
5347 6681 6684 28
5348 6681 6685 28
5349 6686 6687 28
5350 6686 6688 28
5351 6686 6689 28
5352 6686 6690 28
5353 6691 6692 28
5354 6691 6693 28
5355 6691 6694 28
5356 6691 6695 28
5357 6696 6697 28
5358 6696 6698 28
5359 6696 6699 28
5360 6696 6700 28
5361 6701 6702 28
5362 6701 6703 28
5363 6701 6704 28
5364 6701 6705 28
5365 6706 6707 28
5366 6706 6708 28
5367 6706 6709 28
5368 6706 6710 28
5369 6711 6712 28
5370 6711 6713 28
5371 6711 6714 28
5372 6711 6715 28
5373 6716 6717 28
5374 6716 6718 28
5375 6716 6719 28
5376 6716 6720 28
5377 6721 6722 28
5378 6721 6723 28
5379 6721 6724 28
5380 6721 6725 28
5381 6726 6727 28
5382 6726 6728 28
5383 6726 6729 28
5384 6726 6730 28
5385 6731 6732 28
5386 6731 6733 28
5387 6731 6734 28
5388 6731 6735 28
5389 6736 6737 28
5390 6736 6738 28
5391 6736 6739 28
5392 6736 6740 28
5393 6741 6742 28
5394 6741 6743 28
5395 6741 6744 28
5396 6741 6745 28
5397 6746 6747 28
5398 6746 6748 28
5399 6746 6749 28
5400 6746 6750 28
5401 6751 6752 28
5402 6751 6753 28
5403 6751 6754 28
5404 6751 6755 28
5405 6756 6757 28
5406 6756 6758 28
5407 6756 6759 28
5408 6756 6760 28
5409 6761 6762 28
5410 6761 6763 28
5411 6761 6764 28
5412 6761 6765 28
5413 6766 6767 28
5414 6766 6768 28
5415 6766 6769 28
5416 6766 6770 28
5417 6771 6772 28
5418 6771 6773 28
5419 6771 6774 28
5420 6771 6775 28
5421 6776 6777 28
5422 6776 6778 28
5423 6776 6779 28
5424 6776 6780 28
5425 6781 6782 28
5426 6781 6783 28
5427 6781 6784 28
5428 6781 6785 28
5429 6786 6787 28
5430 6786 6788 28
5431 6786 6789 28
5432 6786 6790 28
5433 6791 6792 28
5434 6791 6793 28
5435 6791 6794 28
5436 6791 6795 28
5437 6796 6797 28
5438 6796 6798 28
5439 6796 6799 28
5440 6796 6800 28
5441 6801 6802 28
5442 6801 6803 28
5443 6801 6804 28
5444 6801 6805 28
5445 6806 6807 28
5446 6806 6808 28
5447 6806 6809 28
5448 6806 6810 28
5449 6811 6812 28
5450 6811 6813 28
5451 6811 6814 28
5452 6811 6815 28
5453 6816 6817 28
5454 6816 6818 28
5455 6816 6819 28
5456 6816 6820 28
5457 6821 6822 28
5458 6821 6823 28
5459 6821 6824 28
5460 6821 6825 28
5461 6826 6827 28
5462 6826 6828 28
5463 6826 6829 28
5464 6826 6830 28
5465 6831 6832 28
5466 6831 6833 28
5467 6831 6834 28
5468 6831 6835 28
5469 6836 6837 28
5470 6836 6838 28
5471 6836 6839 28
5472 6836 6840 28
5473 6841 6842 28
5474 6841 6843 28
5475 6841 6844 28
5476 6841 6845 28
5477 6846 6847 28
5478 6846 6848 28
5479 6846 6849 28
5480 6846 6850 28
5481 6851 6852 28
5482 6851 6853 28
5483 6851 6854 28
5484 6851 6855 28
5485 6856 6857 28
5486 6856 6858 28
5487 6856 6859 28
5488 6856 6860 28
5489 6861 6862 28
5490 6861 6863 28
5491 6861 6864 28
5492 6861 6865 28
5493 6866 6867 28
5494 6866 6868 28
5495 6866 6869 28
5496 6866 6870 28
5497 6871 6872 28
5498 6871 6873 28
5499 6871 6874 28
5500 6871 6875 28
5501 6876 6877 28
5502 6876 6878 28
5503 6876 6879 28
5504 6876 6880 28
5505 6881 6882 28
5506 6881 6883 28
5507 6881 6884 28
5508 6881 6885 28
5509 6886 6887 28
5510 6886 6888 28
5511 6886 6889 28
5512 6886 6890 28
5513 6891 6892 28
5514 6891 6893 28
5515 6891 6894 28
5516 6891 6895 28
5517 6896 6897 28
5518 6896 6898 28
5519 6896 6899 28
5520 6896 6900 28
5521 6901 6902 28
5522 6901 6903 28
5523 6901 6904 28
5524 6901 6905 28
5525 6906 6907 28
5526 6906 6908 28
5527 6906 6909 28
5528 6906 6910 28
5529 6911 6912 28
5530 6911 6913 28
5531 6911 6914 28
5532 6911 6915 28
5533 6916 6917 28
5534 6916 6918 28
5535 6916 6919 28
5536 6916 6920 28
5537 6921 6922 28
5538 6921 6923 28
5539 6921 6924 28
5540 6921 6925 28
5541 6926 6927 28
5542 6926 6928 28
5543 6926 6929 28
5544 6926 6930 28
5545 6931 6932 28
5546 6931 6933 28
5547 6931 6934 28
5548 6931 6935 28
5549 6936 6937 28
5550 6936 6938 28
5551 6936 6939 28
5552 6936 6940 28
5553 6941 6942 28
5554 6941 6943 28
5555 6941 6944 28
5556 6941 6945 28
5557 6946 6947 28
5558 6946 6948 28
5559 6946 6949 28
5560 6946 6950 28
5561 6951 6952 28
5562 6951 6953 28
5563 6951 6954 28
5564 6951 6955 28
5565 6956 6957 28
5566 6956 6958 28
5567 6956 6959 28
5568 6956 6960 28
5569 6961 6962 28
5570 6961 6963 28
5571 6961 6964 28
5572 6961 6965 28
5573 6966 6967 28
5574 6966 6968 28
5575 6966 6969 28
5576 6966 6970 28
5577 6971 6972 28
5578 6971 6973 28
5579 6971 6974 28
5580 6971 6975 28
5581 6976 6977 28
5582 6976 6978 28
5583 6976 6979 28
5584 6976 6980 28
5585 6981 6982 28
5586 6981 6983 28
5587 6981 6984 28
5588 6981 6985 28
5589 6986 6987 28
5590 6986 6988 28
5591 6986 6989 28
5592 6986 6990 28
5593 6991 6992 28
5594 6991 6993 28
5595 6991 6994 28
5596 6991 6995 28
5597 6996 6997 28
5598 6996 6998 28
5599 6996 6999 28
5600 6996 7000 28
5601 7001 7002 28
5602 7001 7003 28
5603 7001 7004 28
5604 7001 7005 28
5605 7006 7007 28
5606 7006 7008 28
5607 7006 7009 28
5608 7006 7010 28
5609 7011 7012 28
5610 7011 7013 28
5611 7011 7014 28
5612 7011 7015 28
5613 7016 7017 28
5614 7016 7018 28
5615 7016 7019 28
5616 7016 7020 28
5617 7021 7022 28
5618 7021 7023 28
5619 7021 7024 28
5620 7021 7025 28
5621 7026 7027 28
5622 7026 7028 28
5623 7026 7029 28
5624 7026 7030 28
5625 7031 7032 28
5626 7031 7033 28
5627 7031 7034 28
5628 7031 7035 28
5629 7036 7037 28
5630 7036 7038 28
5631 7036 7039 28
5632 7036 7040 28
5633 7041 7042 28
5634 7041 7043 28
5635 7041 7044 28
5636 7041 7045 28
5637 7046 7047 28
5638 7046 7048 28
5639 7046 7049 28
5640 7046 7050 28
5641 7051 7052 28
5642 7051 7053 28
5643 7051 7054 28
5644 7051 7055 28
5645 7056 7057 28
5646 7056 7058 28
5647 7056 7059 28
5648 7056 7060 28
5649 7061 7062 28
5650 7061 7063 28
5651 7061 7064 28
5652 7061 7065 28
5653 7066 7067 28
5654 7066 7068 28
5655 7066 7069 28
5656 7066 7070 28
5657 7071 7072 28
5658 7071 7073 28
5659 7071 7074 28
5660 7071 7075 28
5661 7076 7077 28
5662 7076 7078 28
5663 7076 7079 28
5664 7076 7080 28
5665 7081 7082 28
5666 7081 7083 28
5667 7081 7084 28
5668 7081 7085 28
5669 7086 7087 28
5670 7086 7088 28
5671 7086 7089 28
5672 7086 7090 28
5673 7091 7092 28
5674 7091 7093 28
5675 7091 7094 28
5676 7091 7095 28
5677 7096 7097 28
5678 7096 7098 28
5679 7096 7099 28
5680 7096 7100 28
5681 7101 7102 28
5682 7101 7103 28
5683 7101 7104 28
5684 7101 7105 28
5685 7106 7107 28
5686 7106 7108 28
5687 7106 7109 28
5688 7106 7110 28
5689 7111 7112 28
5690 7111 7113 28
5691 7111 7114 28
5692 7111 7115 28
5693 7116 7117 28
5694 7116 7118 28
5695 7116 7119 28
5696 7116 7120 28
5697 7121 7122 28
5698 7121 7123 28
5699 7121 7124 28
5700 7121 7125 28
5701 7126 7127 28
5702 7126 7128 28
5703 7126 7129 28
5704 7126 7130 28
5705 7131 7132 28
5706 7131 7133 28
5707 7131 7134 28
5708 7131 7135 28
5709 7136 7137 28
5710 7136 7138 28
5711 7136 7139 28
5712 7136 7140 28
5713 7141 7142 28
5714 7141 7143 28
5715 7141 7144 28
5716 7141 7145 28
5717 7146 7147 28
5718 7146 7148 28
5719 7146 7149 28
5720 7146 7150 28
5721 7151 7152 28
5722 7151 7153 28
5723 7151 7154 28
5724 7151 7155 28
5725 7156 7157 28
5726 7156 7158 28
5727 7156 7159 28
5728 7156 7160 28
5729 7161 7162 28
5730 7161 7163 28
5731 7161 7164 28
5732 7161 7165 28
5733 7166 7167 28
5734 7166 7168 28
5735 7166 7169 28
5736 7166 7170 28
5737 7171 7172 28
5738 7171 7173 28
5739 7171 7174 28
5740 7171 7175 28
5741 7176 7177 28
5742 7176 7178 28
5743 7176 7179 28
5744 7176 7180 28
5745 7181 7182 28
5746 7181 7183 28
5747 7181 7184 28
5748 7181 7185 28
5749 7186 7187 28
5750 7186 7188 28
5751 7186 7189 28
5752 7186 7190 28
5753 7191 7192 28
5754 7191 7193 28
5755 7191 7194 28
5756 7191 7195 28
5757 7196 7197 28
5758 7196 7198 28
5759 7196 7199 28
5760 7196 7200 28
5761 7201 7202 28
5762 7201 7203 28
5763 7201 7204 28
5764 7201 7205 28
5765 7206 7207 28
5766 7206 7208 28
5767 7206 7209 28
5768 7206 7210 28
5769 7211 7212 28
5770 7211 7213 28
5771 7211 7214 28
5772 7211 7215 28
5773 7216 7217 28
5774 7216 7218 28
5775 7216 7219 28
5776 7216 7220 28
5777 7221 7222 28
5778 7221 7223 28
5779 7221 7224 28
5780 7221 7225 28
5781 7226 7227 28
5782 7226 7228 28
5783 7226 7229 28
5784 7226 7230 28
5785 7231 7232 28
5786 7231 7233 28
5787 7231 7234 28
5788 7231 7235 28
5789 7236 7237 28
5790 7236 7238 28
5791 7236 7239 28
5792 7236 7240 28
5793 7241 7242 28
5794 7241 7243 28
5795 7241 7244 28
5796 7241 7245 28
5797 7246 7247 28
5798 7246 7248 28
5799 7246 7249 28
5800 7246 7250 28
5801 7251 7252 28
5802 7251 7253 28
5803 7251 7254 28
5804 7251 7255 28
5805 7256 7257 28
5806 7256 7258 28
5807 7256 7259 28
5808 7256 7260 28
5809 7261 7262 28
5810 7261 7263 28
5811 7261 7264 28
5812 7261 7265 28
5813 7266 7267 28
5814 7266 7268 28
5815 7266 7269 28
5816 7266 7270 28
5817 7271 7272 28
5818 7271 7273 28
5819 7271 7274 28
5820 7271 7275 28
5821 7276 7277 28
5822 7276 7278 28
5823 7276 7279 28
5824 7276 7280 28
5825 7281 7282 28
5826 7281 7283 28
5827 7281 7284 28
5828 7281 7285 28
5829 7286 7287 28
5830 7286 7288 28
5831 7286 7289 28
5832 7286 7290 28
5833 7291 7292 28
5834 7291 7293 28
5835 7291 7294 28
5836 7291 7295 28
5837 7296 7297 28
5838 7296 7298 28
5839 7296 7299 28
5840 7296 7300 28
5841 7301 7302 28
5842 7301 7303 28
5843 7301 7304 28
5844 7301 7305 28
5845 7306 7307 28
5846 7306 7308 28
5847 7306 7309 28
5848 7306 7310 28
5849 7311 7312 28
5850 7311 7313 28
5851 7311 7314 28
5852 7311 7315 28
5853 7316 7317 28
5854 7316 7318 28
5855 7316 7319 28
5856 7316 7320 28
5857 7321 7322 28
5858 7321 7323 28
5859 7321 7324 28
5860 7321 7325 28
5861 7326 7327 28
5862 7326 7328 28
5863 7326 7329 28
5864 7326 7330 28
5865 7331 7332 28
5866 7331 7333 28
5867 7331 7334 28
5868 7331 7335 28
5869 7336 7337 28
5870 7336 7338 28
5871 7336 7339 28
5872 7336 7340 28
5873 7341 7342 28
5874 7341 7343 28
5875 7341 7344 28
5876 7341 7345 28
5877 7346 7347 28
5878 7346 7348 28
5879 7346 7349 28
5880 7346 7350 28
5881 7351 7352 28
5882 7351 7353 28
5883 7351 7354 28
5884 7351 7355 28
5885 7356 7357 28
5886 7356 7358 28
5887 7356 7359 28
5888 7356 7360 28
5889 7361 7362 28
5890 7361 7363 28
5891 7361 7364 28
5892 7361 7365 28
5893 7366 7367 28
5894 7366 7368 28
5895 7366 7369 28
5896 7366 7370 28
5897 7371 7372 28
5898 7371 7373 28
5899 7371 7374 28
5900 7371 7375 28
5901 7376 7377 28
5902 7376 7378 28
5903 7376 7379 28
5904 7376 7380 28
5905 7381 7382 28
5906 7381 7383 28
5907 7381 7384 28
5908 7381 7385 28
5909 7386 7387 28
5910 7386 7388 28
5911 7386 7389 28
5912 7386 7390 28
5913 7391 7392 28
5914 7391 7393 28
5915 7391 7394 28
5916 7391 7395 28
5917 7396 7397 28
5918 7396 7398 28
5919 7396 7399 28
5920 7396 7400 28
5921 7401 7402 28
5922 7401 7403 28
5923 7401 7404 28
5924 7401 7405 28
5925 7406 7407 28
5926 7406 7408 28
5927 7406 7409 28
5928 7406 7410 28
5929 7411 7412 28
5930 7411 7413 28
5931 7411 7414 28
5932 7411 7415 28
5933 7416 7417 28
5934 7416 7418 28
5935 7416 7419 28
5936 7416 7420 28
5937 7421 7422 28
5938 7421 7423 28
5939 7421 7424 28
5940 7421 7425 28
5941 7426 7427 28
5942 7426 7428 28
5943 7426 7429 28
5944 7426 7430 28
5945 7431 7432 28
5946 7431 7433 28
5947 7431 7434 28
5948 7431 7435 28
5949 7436 7437 28
5950 7436 7438 28
5951 7436 7439 28
5952 7436 7440 28
5953 7441 7442 28
5954 7441 7443 28
5955 7441 7444 28
5956 7441 7445 28
5957 7446 7447 28
5958 7446 7448 28
5959 7446 7449 28
5960 7446 7450 28
5961 7451 7452 28
5962 7451 7453 28
5963 7451 7454 28
5964 7451 7455 28
5965 7456 7457 28
5966 7456 7458 28
5967 7456 7459 28
5968 7456 7460 28
5969 7461 7462 28
5970 7461 7463 28
5971 7461 7464 28
5972 7461 7465 28
5973 7466 7467 28
5974 7466 7468 28
5975 7466 7469 28
5976 7466 7470 28
5977 7471 7472 28
5978 7471 7473 28
5979 7471 7474 28
5980 7471 7475 28
5981 7476 7477 28
5982 7476 7478 28
5983 7476 7479 28
5984 7476 7480 28
5985 7481 7482 28
5986 7481 7483 28
5987 7481 7484 28
5988 7481 7485 28
5989 7486 7487 28
5990 7486 7488 28
5991 7486 7489 28
5992 7486 7490 28
5993 7491 7492 28
5994 7491 7493 28
5995 7491 7494 28
5996 7491 7495 28
5997 7496 7497 28
5998 7496 7498 28
5999 7496 7499 28
6000 7496 7500 28
6001 7501 7502 28
6002 7501 7503 28
6003 7501 7504 28
6004 7501 7505 28
6005 7506 7507 28
6006 7506 7508 28
6007 7506 7509 28
6008 7506 7510 28
6009 7511 7512 28
6010 7511 7513 28
6011 7511 7514 28
6012 7511 7515 28
6013 7516 7517 28
6014 7516 7518 28
6015 7516 7519 28
6016 7516 7520 28
6017 7521 7522 28
6018 7521 7523 28
6019 7521 7524 28
6020 7521 7525 28
6021 7526 7527 28
6022 7526 7528 28
6023 7526 7529 28
6024 7526 7530 28
6025 7531 7532 28
6026 7531 7533 28
6027 7531 7534 28
6028 7531 7535 28
6029 7536 7537 28
6030 7536 7538 28
6031 7536 7539 28
6032 7536 7540 28
6033 7541 7542 28
6034 7541 7543 28
6035 7541 7544 28
6036 7541 7545 28
6037 7546 7547 28
6038 7546 7548 28
6039 7546 7549 28
6040 7546 7550 28
6041 7551 7552 28
6042 7551 7553 28
6043 7551 7554 28
6044 7551 7555 28
6045 7556 7557 28
6046 7556 7558 28
6047 7556 7559 28
6048 7556 7560 28
6049 7561 7562 28
6050 7561 7563 28
6051 7561 7564 28
6052 7561 7565 28
6053 7566 7567 28
6054 7566 7568 28
6055 7566 7569 28
6056 7566 7570 28
6057 7571 7572 28
6058 7571 7573 28
6059 7571 7574 28
6060 7571 7575 28
6061 7576 7577 28
6062 7576 7578 28
6063 7576 7579 28
6064 7576 7580 28
6065 7581 7582 28
6066 7581 7583 28
6067 7581 7584 28
6068 7581 7585 28
6069 7586 7587 28
6070 7586 7588 28
6071 7586 7589 28
6072 7586 7590 28
6073 7591 7592 28
6074 7591 7593 28
6075 7591 7594 28
6076 7591 7595 28
6077 7596 7597 28
6078 7596 7598 28
6079 7596 7599 28
6080 7596 7600 28
6081 7601 7602 28
6082 7601 7603 28
6083 7601 7604 28
6084 7601 7605 28
6085 7606 7607 28
6086 7606 7608 28
6087 7606 7609 28
6088 7606 7610 28
6089 7611 7612 28
6090 7611 7613 28
6091 7611 7614 28
6092 7611 7615 28
6093 7616 7617 28
6094 7616 7618 28
6095 7616 7619 28
6096 7616 7620 28
6097 7621 7622 28
6098 7621 7623 28
6099 7621 7624 28
6100 7621 7625 28
6101 7626 7627 28
6102 7626 7628 28
6103 7626 7629 28
6104 7626 7630 28
6105 7631 7632 28
6106 7631 7633 28
6107 7631 7634 28
6108 7631 7635 28
6109 7636 7637 28
6110 7636 7638 28
6111 7636 7639 28
6112 7636 7640 28
6113 7641 7642 28
6114 7641 7643 28
6115 7641 7644 28
6116 7641 7645 28
6117 7646 7647 28
6118 7646 7648 28
6119 7646 7649 28
6120 7646 7650 28
6121 7651 7652 28
6122 7651 7653 28
6123 7651 7654 28
6124 7651 7655 28
6125 7656 7657 28
6126 7656 7658 28
6127 7656 7659 28
6128 7656 7660 28
6129 7661 7662 28
6130 7661 7663 28
6131 7661 7664 28
6132 7661 7665 28
6133 7666 7667 28
6134 7666 7668 28
6135 7666 7669 28
6136 7666 7670 28
6137 7671 7672 28
6138 7671 7673 28
6139 7671 7674 28
6140 7671 7675 28
6141 7676 7677 28
6142 7676 7678 28
6143 7676 7679 28
6144 7676 7680 28
6145 7681 7682 28
6146 7681 7683 28
6147 7681 7684 28
6148 7681 7685 28
6149 7686 7687 28
6150 7686 7688 28
6151 7686 7689 28
6152 7686 7690 28
6153 7691 7692 28
6154 7691 7693 28
6155 7691 7694 28
6156 7691 7695 28
6157 7696 7697 28
6158 7696 7698 28
6159 7696 7699 28
6160 7696 7700 28
6161 7701 7702 28
6162 7701 7703 28
6163 7701 7704 28
6164 7701 7705 28
6165 7706 7707 28
6166 7706 7708 28
6167 7706 7709 28
6168 7706 7710 28
6169 7711 7712 28
6170 7711 7713 28
6171 7711 7714 28
6172 7711 7715 28
6173 7716 7717 28
6174 7716 7718 28
6175 7716 7719 28
6176 7716 7720 28
6177 7721 7722 28
6178 7721 7723 28
6179 7721 7724 28
6180 7721 7725 28
6181 7726 7727 28
6182 7726 7728 28
6183 7726 7729 28
6184 7726 7730 28
6185 7731 7732 28
6186 7731 7733 28
6187 7731 7734 28
6188 7731 7735 28
6189 7736 7737 28
6190 7736 7738 28
6191 7736 7739 28
6192 7736 7740 28
6193 7741 7742 28
6194 7741 7743 28
6195 7741 7744 28
6196 7741 7745 28
6197 7746 7747 28
6198 7746 7748 28
6199 7746 7749 28
6200 7746 7750 28
6201 7751 7752 28
6202 7751 7753 28
6203 7751 7754 28
6204 7751 7755 28
6205 7756 7757 28
6206 7756 7758 28
6207 7756 7759 28
6208 7756 7760 28
6209 7761 7762 28
6210 7761 7763 28
6211 7761 7764 28
6212 7761 7765 28
6213 7766 7767 28
6214 7766 7768 28
6215 7766 7769 28
6216 7766 7770 28
6217 7771 7772 28
6218 7771 7773 28
6219 7771 7774 28
6220 7771 7775 28
6221 7776 7777 28
6222 7776 7778 28
6223 7776 7779 28
6224 7776 7780 28
6225 7781 7782 28
6226 7781 7783 28
6227 7781 7784 28
6228 7781 7785 28
6229 7786 7787 28
6230 7786 7788 28
6231 7786 7789 28
6232 7786 7790 28
6233 7791 7792 28
6234 7791 7793 28
6235 7791 7794 28
6236 7791 7795 28
6237 7796 7797 28
6238 7796 7798 28
6239 7796 7799 28
6240 7796 7800 28
6241 7801 7802 28
6242 7801 7803 28
6243 7801 7804 28
6244 7801 7805 28
6245 7806 7807 28
6246 7806 7808 28
6247 7806 7809 28
6248 7806 7810 28
6249 7811 7812 28
6250 7811 7813 28
6251 7811 7814 28
6252 7811 7815 28
6253 7816 7817 28
6254 7816 7818 28
6255 7816 7819 28
6256 7816 7820 28
6257 7821 7822 28
6258 7821 7823 28
6259 7821 7824 28
6260 7821 7825 28
6261 7826 7827 28
6262 7826 7828 28
6263 7826 7829 28
6264 7826 7830 28
6265 7831 7832 28
6266 7831 7833 28
6267 7831 7834 28
6268 7831 7835 28
6269 7836 7837 28
6270 7836 7838 28
6271 7836 7839 28
6272 7836 7840 28
6273 7841 7842 28
6274 7841 7843 28
6275 7841 7844 28
6276 7841 7845 28
6277 7846 7847 28
6278 7846 7848 28
6279 7846 7849 28
6280 7846 7850 28
6281 7851 7852 28
6282 7851 7853 28
6283 7851 7854 28
6284 7851 7855 28
6285 7856 7857 28
6286 7856 7858 28
6287 7856 7859 28
6288 7856 7860 28
6289 7861 7862 28
6290 7861 7863 28
6291 7861 7864 28
6292 7861 7865 28
6293 7866 7867 28
6294 7866 7868 28
6295 7866 7869 28
6296 7866 7870 28
6297 7871 7872 28
6298 7871 7873 28
6299 7871 7874 28
6300 7871 7875 28
6301 7876 7877 28
6302 7876 7878 28
6303 7876 7879 28
6304 7876 7880 28
6305 7881 7882 28
6306 7881 7883 28
6307 7881 7884 28
6308 7881 7885 28
6309 7886 7887 28
6310 7886 7888 28
6311 7886 7889 28
6312 7886 7890 28
6313 7891 7892 28
6314 7891 7893 28
6315 7891 7894 28
6316 7891 7895 28
6317 7896 7897 28
6318 7896 7898 28
6319 7896 7899 28
6320 7896 7900 28
6321 7901 7902 28
6322 7901 7903 28
6323 7901 7904 28
6324 7901 7905 28
6325 7906 7907 28
6326 7906 7908 28
6327 7906 7909 28
6328 7906 7910 28
6329 7911 7912 28
6330 7911 7913 28
6331 7911 7914 28
6332 7911 7915 28
6333 7916 7917 28
6334 7916 7918 28
6335 7916 7919 28
6336 7916 7920 28
6337 7921 7922 28
6338 7921 7923 28
6339 7921 7924 28
6340 7921 7925 28
6341 7926 7927 28
6342 7926 7928 28
6343 7926 7929 28
6344 7926 7930 28
6345 7931 7932 28
6346 7931 7933 28
6347 7931 7934 28
6348 7931 7935 28
6349 7936 7937 28
6350 7936 7938 28
6351 7936 7939 28
6352 7936 7940 28
6353 7941 7942 28
6354 7941 7943 28
6355 7941 7944 28
6356 7941 7945 28
6357 7946 7947 28
6358 7946 7948 28
6359 7946 7949 28
6360 7946 7950 28
6361 7951 7952 28
6362 7951 7953 28
6363 7951 7954 28
6364 7951 7955 28
6365 7956 7957 28
6366 7956 7958 28
6367 7956 7959 28
6368 7956 7960 28
6369 7961 7962 28
6370 7961 7963 28
6371 7961 7964 28
6372 7961 7965 28
6373 7966 7967 28
6374 7966 7968 28
6375 7966 7969 28
6376 7966 7970 28
6377 7971 7972 28
6378 7971 7973 28
6379 7971 7974 28
6380 7971 7975 28
6381 7976 7977 28
6382 7976 7978 28
6383 7976 7979 28
6384 7976 7980 28
6385 7981 7982 28
6386 7981 7983 28
6387 7981 7984 28
6388 7981 7985 28
6389 7986 7987 28
6390 7986 7988 28
6391 7986 7989 28
6392 7986 7990 28
6393 7991 7992 28
6394 7991 7993 28
6395 7991 7994 28
6396 7991 7995 28
6397 7996 7997 28
6398 7996 7998 28
6399 7996 7999 28
6400 7996 8000 28
6401 8001 8002 28
6402 8001 8003 28
6403 8001 8004 28
6404 8001 8005 28
6405 8006 8007 28
6406 8006 8008 28
6407 8006 8009 28
6408 8006 8010 28
6409 8011 8012 28
6410 8011 8013 28
6411 8011 8014 28
6412 8011 8015 28
6413 8016 8017 28
6414 8016 8018 28
6415 8016 8019 28
6416 8016 8020 28
6417 8021 8022 28
6418 8021 8023 28
6419 8021 8024 28
6420 8021 8025 28
6421 8026 8027 28
6422 8026 8028 28
6423 8026 8029 28
6424 8026 8030 28
6425 8031 8032 28
6426 8031 8033 28
6427 8031 8034 28
6428 8031 8035 28
6429 8036 8037 28
6430 8036 8038 28
6431 8036 8039 28
6432 8036 8040 28
6433 8041 8042 28
6434 8041 8043 28
6435 8041 8044 28
6436 8041 8045 28
6437 8046 8047 28
6438 8046 8048 28
6439 8046 8049 28
6440 8046 8050 28
6441 8051 8052 28
6442 8051 8053 28
6443 8051 8054 28
6444 8051 8055 28
6445 8056 8057 28
6446 8056 8058 28
6447 8056 8059 28
6448 8056 8060 28
6449 8061 8062 28
6450 8061 8063 28
6451 8061 8064 28
6452 8061 8065 28
6453 8066 8067 28
6454 8066 8068 28
6455 8066 8069 28
6456 8066 8070 28
6457 8071 8072 28
6458 8071 8073 28
6459 8071 8074 28
6460 8071 8075 28
6461 8076 8077 28
6462 8076 8078 28
6463 8076 8079 28
6464 8076 8080 28
6465 8081 8082 28
6466 8081 8083 28
6467 8081 8084 28
6468 8081 8085 28
6469 8086 8087 28
6470 8086 8088 28
6471 8086 8089 28
6472 8086 8090 28
6473 8091 8092 28
6474 8091 8093 28
6475 8091 8094 28
6476 8091 8095 28
6477 8096 8097 28
6478 8096 8098 28
6479 8096 8099 28
6480 8096 8100 28
6481 8101 8102 28
6482 8101 8103 28
6483 8101 8104 28
6484 8101 8105 28
6485 8106 8107 28
6486 8106 8108 28
6487 8106 8109 28
6488 8106 8110 28
6489 8111 8112 28
6490 8111 8113 28
6491 8111 8114 28
6492 8111 8115 28
6493 8116 8117 28
6494 8116 8118 28
6495 8116 8119 28
6496 8116 8120 28
6497 8121 8122 28
6498 8121 8123 28
6499 8121 8124 28
6500 8121 8125 28
6501 8126 8127 28
6502 8126 8128 28
6503 8126 8129 28
6504 8126 8130 28
6505 8131 8132 28
6506 8131 8133 28
6507 8131 8134 28
6508 8131 8135 28
6509 8136 8137 28
6510 8136 8138 28
6511 8136 8139 28
6512 8136 8140 28
6513 8141 8142 28
6514 8141 8143 28
6515 8141 8144 28
6516 8141 8145 28
6517 8146 8147 28
6518 8146 8148 28
6519 8146 8149 28
6520 8146 8150 28
6521 8151 8152 28
6522 8151 8153 28
6523 8151 8154 28
6524 8151 8155 28
6525 8156 8157 28
6526 8156 8158 28
6527 8156 8159 28
6528 8156 8160 28
6529 8161 8162 28
6530 8161 8163 28
6531 8161 8164 28
6532 8161 8165 28
6533 8166 8167 28
6534 8166 8168 28
6535 8166 8169 28
6536 8166 8170 28
6537 8171 8172 28
6538 8171 8173 28
6539 8171 8174 28
6540 8171 8175 28
6541 8176 8177 28
6542 8176 8178 28
6543 8176 8179 28
6544 8176 8180 28
6545 8181 8182 28
6546 8181 8183 28
6547 8181 8184 28
6548 8181 8185 28
6549 8186 8187 28
6550 8186 8188 28
6551 8186 8189 28
6552 8186 8190 28
6553 8191 8192 28
6554 8191 8193 28
6555 8191 8194 28
6556 8191 8195 28
6557 8196 8197 28
6558 8196 8198 28
6559 8196 8199 28
6560 8196 8200 28
6561 8201 8202 28
6562 8201 8203 28
6563 8201 8204 28
6564 8201 8205 28
6565 8206 8207 28
6566 8206 8208 28
6567 8206 8209 28
6568 8206 8210 28
6569 8211 8212 28
6570 8211 8213 28
6571 8211 8214 28
6572 8211 8215 28
6573 8216 8217 28
6574 8216 8218 28
6575 8216 8219 28
6576 8216 8220 28
6577 8221 8222 28
6578 8221 8223 28
6579 8221 8224 28
6580 8221 8225 28
6581 8226 8227 28
6582 8226 8228 28
6583 8226 8229 28
6584 8226 8230 28
6585 8231 8232 28
6586 8231 8233 28
6587 8231 8234 28
6588 8231 8235 28
6589 8236 8237 28
6590 8236 8238 28
6591 8236 8239 28
6592 8236 8240 28
6593 8241 8242 28
6594 8241 8243 28
6595 8241 8244 28
6596 8241 8245 28
6597 8246 8247 28
6598 8246 8248 28
6599 8246 8249 28
6600 8246 8250 28
6601 8251 8252 28
6602 8251 8253 28
6603 8251 8254 28
6604 8251 8255 28
6605 8256 8257 28
6606 8256 8258 28
6607 8256 8259 28
6608 8256 8260 28
6609 8261 8262 28
6610 8261 8263 28
6611 8261 8264 28
6612 8261 8265 28
6613 8266 8267 28
6614 8266 8268 28
6615 8266 8269 28
6616 8266 8270 28
6617 8271 8272 28
6618 8271 8273 28
6619 8271 8274 28
6620 8271 8275 28
6621 8276 8277 28
6622 8276 8278 28
6623 8276 8279 28
6624 8276 8280 28
6625 8281 8282 28
6626 8281 8283 28
6627 8281 8284 28
6628 8281 8285 28
6629 8286 8287 28
6630 8286 8288 28
6631 8286 8289 28
6632 8286 8290 28
6633 8291 8292 28
6634 8291 8293 28
6635 8291 8294 28
6636 8291 8295 28
6637 8296 8297 28
6638 8296 8298 28
6639 8296 8299 28
6640 8296 8300 28
6641 8301 8302 28
6642 8301 8303 28
6643 8301 8304 28
6644 8301 8305 28
6645 8306 8307 28
6646 8306 8308 28
6647 8306 8309 28
6648 8306 8310 28
6649 8311 8312 28
6650 8311 8313 28
6651 8311 8314 28
6652 8311 8315 28
6653 8316 8317 28
6654 8316 8318 28
6655 8316 8319 28
6656 8316 8320 28
6657 8321 8322 28
6658 8321 8323 28
6659 8321 8324 28
6660 8321 8325 28
6661 8326 8327 28
6662 8326 8328 28
6663 8326 8329 28
6664 8326 8330 28
6665 8331 8332 28
6666 8331 8333 28
6667 8331 8334 28
6668 8331 8335 28
6669 8336 8337 28
6670 8336 8338 28
6671 8336 8339 28
6672 8336 8340 28
6673 8341 8342 28
6674 8341 8343 28
6675 8341 8344 28
6676 8341 8345 28
6677 8346 8347 28
6678 8346 8348 28
6679 8346 8349 28
6680 8346 8350 28
6681 8351 8352 28
6682 8351 8353 28
6683 8351 8354 28
6684 8351 8355 28
6685 8356 8357 28
6686 8356 8358 28
6687 8356 8359 28
6688 8356 8360 28
6689 8361 8362 28
6690 8361 8363 28
6691 8361 8364 28
6692 8361 8365 28
6693 8366 8367 28
6694 8366 8368 28
6695 8366 8369 28
6696 8366 8370 28
6697 8371 8372 28
6698 8371 8373 28
6699 8371 8374 28
6700 8371 8375 28
6701 8376 8377 28
6702 8376 8378 28
6703 8376 8379 28
6704 8376 8380 28
6705 8381 8382 28
6706 8381 8383 28
6707 8381 8384 28
6708 8381 8385 28
6709 8386 8387 28
6710 8386 8388 28
6711 8386 8389 28
6712 8386 8390 28
6713 8391 8392 28
6714 8391 8393 28
6715 8391 8394 28
6716 8391 8395 28
6717 8396 8397 28
6718 8396 8398 28
6719 8396 8399 28
6720 8396 8400 28
6721 8401 8402 28
6722 8401 8403 28
6723 8401 8404 28
6724 8401 8405 28
6725 8406 8407 28
6726 8406 8408 28
6727 8406 8409 28
6728 8406 8410 28
6729 8411 8412 28
6730 8411 8413 28
6731 8411 8414 28
6732 8411 8415 28
6733 8416 8417 28
6734 8416 8418 28
6735 8416 8419 28
6736 8416 8420 28
6737 8421 8422 28
6738 8421 8423 28
6739 8421 8424 28
6740 8421 8425 28
6741 8426 8427 28
6742 8426 8428 28
6743 8426 8429 28
6744 8426 8430 28
6745 8431 8432 28
6746 8431 8433 28
6747 8431 8434 28
6748 8431 8435 28
6749 8436 8437 28
6750 8436 8438 28
6751 8436 8439 28
6752 8436 8440 28
6753 8441 8442 28
6754 8441 8443 28
6755 8441 8444 28
6756 8441 8445 28
6757 8446 8447 28
6758 8446 8448 28
6759 8446 8449 28
6760 8446 8450 28
6761 8451 8452 28
6762 8451 8453 28
6763 8451 8454 28
6764 8451 8455 28
6765 8456 8457 28
6766 8456 8458 28
6767 8456 8459 28
6768 8456 8460 28
6769 8461 8462 28
6770 8461 8463 28
6771 8461 8464 28
6772 8461 8465 28
6773 8466 8467 28
6774 8466 8468 28
6775 8466 8469 28
6776 8466 8470 28
6777 8471 8472 28
6778 8471 8473 28
6779 8471 8474 28
6780 8471 8475 28
6781 8476 8477 28
6782 8476 8478 28
6783 8476 8479 28
6784 8476 8480 28
6785 8481 8482 28
6786 8481 8483 28
6787 8481 8484 28
6788 8481 8485 28
6789 8486 8487 28
6790 8486 8488 28
6791 8486 8489 28
6792 8486 8490 28
6793 8491 8492 28
6794 8491 8493 28
6795 8491 8494 28
6796 8491 8495 28
6797 8496 8497 28
6798 8496 8498 28
6799 8496 8499 28
6800 8496 8500 28
6801 8501 8502 28
6802 8501 8503 28
6803 8501 8504 28
6804 8501 8505 28
6805 8506 8507 28
6806 8506 8508 28
6807 8506 8509 28
6808 8506 8510 28
6809 8511 8512 28
6810 8511 8513 28
6811 8511 8514 28
6812 8511 8515 28
6813 8516 8517 28
6814 8516 8518 28
6815 8516 8519 28
6816 8516 8520 28
6817 8521 8522 28
6818 8521 8523 28
6819 8521 8524 28
6820 8521 8525 28
6821 8526 8527 28
6822 8526 8528 28
6823 8526 8529 28
6824 8526 8530 28
6825 8531 8532 28
6826 8531 8533 28
6827 8531 8534 28
6828 8531 8535 28
6829 8536 8537 28
6830 8536 8538 28
6831 8536 8539 28
6832 8536 8540 28
6833 8541 8542 28
6834 8541 8543 28
6835 8541 8544 28
6836 8541 8545 28
6837 8546 8547 28
6838 8546 8548 28
6839 8546 8549 28
6840 8546 8550 28
6841 8551 8552 28
6842 8551 8553 28
6843 8551 8554 28
6844 8551 8555 28
6845 8556 8557 28
6846 8556 8558 28
6847 8556 8559 28
6848 8556 8560 28
6849 8561 8562 28
6850 8561 8563 28
6851 8561 8564 28
6852 8561 8565 28
6853 8566 8567 28
6854 8566 8568 28
6855 8566 8569 28
6856 8566 8570 28
6857 8571 8572 28
6858 8571 8573 28
6859 8571 8574 28
6860 8571 8575 28
6861 8576 8577 28
6862 8576 8578 28
6863 8576 8579 28
6864 8576 8580 28
6865 8581 8582 28
6866 8581 8583 28
6867 8581 8584 28
6868 8581 8585 28
6869 8586 8587 28
6870 8586 8588 28
6871 8586 8589 28
6872 8586 8590 28
6873 8591 8592 28
6874 8591 8593 28
6875 8591 8594 28
6876 8591 8595 28
6877 8596 8597 28
6878 8596 8598 28
6879 8596 8599 28
6880 8596 8600 28
6881 8601 8602 28
6882 8601 8603 28
6883 8601 8604 28
6884 8601 8605 28
6885 8606 8607 28
6886 8606 8608 28
6887 8606 8609 28
6888 8606 8610 28
6889 8611 8612 28
6890 8611 8613 28
6891 8611 8614 28
6892 8611 8615 28
6893 8616 8617 28
6894 8616 8618 28
6895 8616 8619 28
6896 8616 8620 28
6897 8621 8622 28
6898 8621 8623 28
6899 8621 8624 28
6900 8621 8625 28
6901 8626 8627 28
6902 8626 8628 28
6903 8626 8629 28
6904 8626 8630 28
6905 8631 8632 28
6906 8631 8633 28
6907 8631 8634 28
6908 8631 8635 28
6909 8636 8637 28
6910 8636 8638 28
6911 8636 8639 28
6912 8636 8640 28
6913 8641 8642 28
6914 8641 8643 28
6915 8641 8644 28
6916 8641 8645 28
6917 8646 8647 28
6918 8646 8648 28
6919 8646 8649 28
6920 8646 8650 28
6921 8651 8652 28
6922 8651 8653 28
6923 8651 8654 28
6924 8651 8655 28
6925 8656 8657 28
6926 8656 8658 28
6927 8656 8659 28
6928 8656 8660 28
6929 8661 8662 28
6930 8661 8663 28
6931 8661 8664 28
6932 8661 8665 28
6933 8666 8667 28
6934 8666 8668 28
6935 8666 8669 28
6936 8666 8670 28
6937 8671 8672 28
6938 8671 8673 28
6939 8671 8674 28
6940 8671 8675 28
6941 8676 8677 28
6942 8676 8678 28
6943 8676 8679 28
6944 8676 8680 28
6945 8681 8682 28
6946 8681 8683 28
6947 8681 8684 28
6948 8681 8685 28
6949 8686 8687 28
6950 8686 8688 28
6951 8686 8689 28
6952 8686 8690 28
6953 8691 8692 28
6954 8691 8693 28
6955 8691 8694 28
6956 8691 8695 28
6957 8696 8697 28
6958 8696 8698 28
6959 8696 8699 28
6960 8696 8700 28
6961 8701 8702 28
6962 8701 8703 28
6963 8701 8704 28
6964 8701 8705 28
6965 8706 8707 28
6966 8706 8708 28
6967 8706 8709 28
6968 8706 8710 28
6969 8711 8712 28
6970 8711 8713 28
6971 8711 8714 28
6972 8711 8715 28
6973 8716 8717 28
6974 8716 8718 28
6975 8716 8719 28
6976 8716 8720 28
6977 8721 8722 28
6978 8721 8723 28
6979 8721 8724 28
6980 8721 8725 28
6981 8726 8727 28
6982 8726 8728 28
6983 8726 8729 28
6984 8726 8730 28
6985 8731 8732 28
6986 8731 8733 28
6987 8731 8734 28
6988 8731 8735 28
6989 8736 8737 28
6990 8736 8738 28
6991 8736 8739 28
6992 8736 8740 28
6993 8741 8742 28
6994 8741 8743 28
6995 8741 8744 28
6996 8741 8745 28
6997 8746 8747 28
6998 8746 8748 28
6999 8746 8749 28
7000 8746 8750 28
7001 8751 8752 28
7002 8751 8753 28
7003 8751 8754 28
7004 8751 8755 28
7005 8756 8757 28
7006 8756 8758 28
7007 8756 8759 28
7008 8756 8760 28
7009 8761 8762 28
7010 8761 8763 28
7011 8761 8764 28
7012 8761 8765 28
7013 8766 8767 28
7014 8766 8768 28
7015 8766 8769 28
7016 8766 8770 28
7017 8771 8772 28
7018 8771 8773 28
7019 8771 8774 28
7020 8771 8775 28
7021 8776 8777 28
7022 8776 8778 28
7023 8776 8779 28
7024 8776 8780 28
7025 8781 8782 28
7026 8781 8783 28
7027 8781 8784 28
7028 8781 8785 28
7029 8786 8787 28
7030 8786 8788 28
7031 8786 8789 28
7032 8786 8790 28
7033 8791 8792 28
7034 8791 8793 28
7035 8791 8794 28
7036 8791 8795 28
7037 8796 8797 28
7038 8796 8798 28
7039 8796 8799 28
7040 8796 8800 28
7041 8801 8802 28
7042 8801 8803 28
7043 8801 8804 28
7044 8801 8805 28
7045 8806 8807 28
7046 8806 8808 28
7047 8806 8809 28
7048 8806 8810 28
7049 8811 8812 28
7050 8811 8813 28
7051 8811 8814 28
7052 8811 8815 28
7053 8816 8817 28
7054 8816 8818 28
7055 8816 8819 28
7056 8816 8820 28
7057 8821 8822 28
7058 8821 8823 28
7059 8821 8824 28
7060 8821 8825 28
7061 8826 8827 28
7062 8826 8828 28
7063 8826 8829 28
7064 8826 8830 28
7065 8831 8832 28
7066 8831 8833 28
7067 8831 8834 28
7068 8831 8835 28
7069 8836 8837 28
7070 8836 8838 28
7071 8836 8839 28
7072 8836 8840 28
7073 8841 8842 28
7074 8841 8843 28
7075 8841 8844 28
7076 8841 8845 28
7077 8846 8847 28
7078 8846 8848 28
7079 8846 8849 28
7080 8846 8850 28
7081 8851 8852 28
7082 8851 8853 28
7083 8851 8854 28
7084 8851 8855 28
7085 8856 8857 28
7086 8856 8858 28
7087 8856 8859 28
7088 8856 8860 28
7089 8861 8862 28
7090 8861 8863 28
7091 8861 8864 28
7092 8861 8865 28
7093 8866 8867 28
7094 8866 8868 28
7095 8866 8869 28
7096 8866 8870 28
7097 8871 8872 28
7098 8871 8873 28
7099 8871 8874 28
7100 8871 8875 28
7101 8876 8877 28
7102 8876 8878 28
7103 8876 8879 28
7104 8876 8880 28
7105 8881 8882 28
7106 8881 8883 28
7107 8881 8884 28
7108 8881 8885 28
7109 8886 8887 28
7110 8886 8888 28
7111 8886 8889 28
7112 8886 8890 28
7113 8891 8892 28
7114 8891 8893 28
7115 8891 8894 28
7116 8891 8895 28
7117 8896 8897 28
7118 8896 8898 28
7119 8896 8899 28
7120 8896 8900 28
7121 8901 8902 28
7122 8901 8903 28
7123 8901 8904 28
7124 8901 8905 28
7125 8906 8907 28
7126 8906 8908 28
7127 8906 8909 28
7128 8906 8910 28
7129 8911 8912 28
7130 8911 8913 28
7131 8911 8914 28
7132 8911 8915 28
7133 8916 8917 28
7134 8916 8918 28
7135 8916 8919 28
7136 8916 8920 28
7137 8921 8922 28
7138 8921 8923 28
7139 8921 8924 28
7140 8921 8925 28
7141 8926 8927 28
7142 8926 8928 28
7143 8926 8929 28
7144 8926 8930 28
7145 8931 8932 28
7146 8931 8933 28
7147 8931 8934 28
7148 8931 8935 28
7149 8936 8937 28
7150 8936 8938 28
7151 8936 8939 28
7152 8936 8940 28
7153 8941 8942 28
7154 8941 8943 28
7155 8941 8944 28
7156 8941 8945 28
7157 8946 8947 28
7158 8946 8948 28
7159 8946 8949 28
7160 8946 8950 28
7161 8951 8952 28
7162 8951 8953 28
7163 8951 8954 28
7164 8951 8955 28
7165 8956 8957 28
7166 8956 8958 28
7167 8956 8959 28
7168 8956 8960 28
7169 8961 8962 28
7170 8961 8963 28
7171 8961 8964 28
7172 8961 8965 28
7173 8966 8967 28
7174 8966 8968 28
7175 8966 8969 28
7176 8966 8970 28
7177 8971 8972 28
7178 8971 8973 28
7179 8971 8974 28
7180 8971 8975 28
7181 8976 8977 28
7182 8976 8978 28
7183 8976 8979 28
7184 8976 8980 28
7185 8981 8982 28
7186 8981 8983 28
7187 8981 8984 28
7188 8981 8985 28
7189 8986 8987 28
7190 8986 8988 28
7191 8986 8989 28
7192 8986 8990 28
7193 8991 8992 28
7194 8991 8993 28
7195 8991 8994 28
7196 8991 8995 28
7197 8996 8997 28
7198 8996 8998 28
7199 8996 8999 28
7200 8996 9000 28
7201 9001 9002 28
7202 9001 9003 28
7203 9001 9004 28
7204 9001 9005 28
7205 9006 9007 28
7206 9006 9008 28
7207 9006 9009 28
7208 9006 9010 28
7209 9011 9012 28
7210 9011 9013 28
7211 9011 9014 28
7212 9011 9015 28
7213 9016 9017 28
7214 9016 9018 28
7215 9016 9019 28
7216 9016 9020 28
7217 9021 9022 28
7218 9021 9023 28
7219 9021 9024 28
7220 9021 9025 28
7221 9026 9027 28
7222 9026 9028 28
7223 9026 9029 28
7224 9026 9030 28
7225 9031 9032 28
7226 9031 9033 28
7227 9031 9034 28
7228 9031 9035 28
7229 9036 9037 28
7230 9036 9038 28
7231 9036 9039 28
7232 9036 9040 28
7233 9041 9042 28
7234 9041 9043 28
7235 9041 9044 28
7236 9041 9045 28
7237 9046 9047 28
7238 9046 9048 28
7239 9046 9049 28
7240 9046 9050 28
7241 9051 9052 28
7242 9051 9053 28
7243 9051 9054 28
7244 9051 9055 28
7245 9056 9057 28
7246 9056 9058 28
7247 9056 9059 28
7248 9056 9060 28
7249 9061 9062 28
7250 9061 9063 28
7251 9061 9064 28
7252 9061 9065 28
7253 9066 9067 28
7254 9066 9068 28
7255 9066 9069 28
7256 9066 9070 28
7257 9071 9072 28
7258 9071 9073 28
7259 9071 9074 28
7260 9071 9075 28
7261 9076 9077 28
7262 9076 9078 28
7263 9076 9079 28
7264 9076 9080 28
7265 9081 9082 28
7266 9081 9083 28
7267 9081 9084 28
7268 9081 9085 28
7269 9086 9087 28
7270 9086 9088 28
7271 9086 9089 28
7272 9086 9090 28
7273 9091 9092 28
7274 9091 9093 28
7275 9091 9094 28
7276 9091 9095 28
7277 9096 9097 28
7278 9096 9098 28
7279 9096 9099 28
7280 9096 9100 28
7281 9101 9102 28
7282 9101 9103 28
7283 9101 9104 28
7284 9101 9105 28
7285 9106 9107 28
7286 9106 9108 28
7287 9106 9109 28
7288 9106 9110 28
7289 9111 9112 28
7290 9111 9113 28
7291 9111 9114 28
7292 9111 9115 28
7293 9116 9117 28
7294 9116 9118 28
7295 9116 9119 28
7296 9116 9120 28
7297 9121 9122 28
7298 9121 9123 28
7299 9121 9124 28
7300 9121 9125 28
7301 9126 9127 28
7302 9126 9128 28
7303 9126 9129 28
7304 9126 9130 28
7305 9131 9132 28
7306 9131 9133 28
7307 9131 9134 28
7308 9131 9135 28
7309 9136 9137 28
7310 9136 9138 28
7311 9136 9139 28
7312 9136 9140 28
7313 9141 9142 28
7314 9141 9143 28
7315 9141 9144 28
7316 9141 9145 28
7317 9146 9147 28
7318 9146 9148 28
7319 9146 9149 28
7320 9146 9150 28
7321 9151 9152 28
7322 9151 9153 28
7323 9151 9154 28
7324 9151 9155 28
7325 9156 9157 28
7326 9156 9158 28
7327 9156 9159 28
7328 9156 9160 28
7329 9161 9162 28
7330 9161 9163 28
7331 9161 9164 28
7332 9161 9165 28
7333 9166 9167 28
7334 9166 9168 28
7335 9166 9169 28
7336 9166 9170 28
7337 9171 9172 28
7338 9171 9173 28
7339 9171 9174 28
7340 9171 9175 28
7341 9176 9177 28
7342 9176 9178 28
7343 9176 9179 28
7344 9176 9180 28
7345 9181 9182 28
7346 9181 9183 28
7347 9181 9184 28
7348 9181 9185 28
7349 9186 9187 28
7350 9186 9188 28
7351 9186 9189 28
7352 9186 9190 28
7353 9191 9192 28
7354 9191 9193 28
7355 9191 9194 28
7356 9191 9195 28
7357 9196 9197 28
7358 9196 9198 28
7359 9196 9199 28
7360 9196 9200 28
7361 9201 9202 28
7362 9201 9203 28
7363 9201 9204 28
7364 9201 9205 28
7365 9206 9207 28
7366 9206 9208 28
7367 9206 9209 28
7368 9206 9210 28
7369 9211 9212 28
7370 9211 9213 28
7371 9211 9214 28
7372 9211 9215 28
7373 9216 9217 28
7374 9216 9218 28
7375 9216 9219 28
7376 9216 9220 28
7377 9221 9222 28
7378 9221 9223 28
7379 9221 9224 28
7380 9221 9225 28
7381 9226 9227 28
7382 9226 9228 28
7383 9226 9229 28
7384 9226 9230 28
7385 9231 9232 28
7386 9231 9233 28
7387 9231 9234 28
7388 9231 9235 28
7389 9236 9237 28
7390 9236 9238 28
7391 9236 9239 28
7392 9236 9240 28
7393 9241 9242 28
7394 9241 9243 28
7395 9241 9244 28
7396 9241 9245 28
7397 9246 9247 28
7398 9246 9248 28
7399 9246 9249 28
7400 9246 9250 28
7401 9251 9252 28
7402 9251 9253 28
7403 9251 9254 28
7404 9251 9255 28
7405 9256 9257 28
7406 9256 9258 28
7407 9256 9259 28
7408 9256 9260 28
7409 9261 9262 28
7410 9261 9263 28
7411 9261 9264 28
7412 9261 9265 28
7413 9266 9267 28
7414 9266 9268 28
7415 9266 9269 28
7416 9266 9270 28
7417 9271 9272 28
7418 9271 9273 28
7419 9271 9274 28
7420 9271 9275 28
7421 9276 9277 28
7422 9276 9278 28
7423 9276 9279 28
7424 9276 9280 28
7425 9281 9282 28
7426 9281 9283 28
7427 9281 9284 28
7428 9281 9285 28
7429 9286 9287 28
7430 9286 9288 28
7431 9286 9289 28
7432 9286 9290 28
7433 9291 9292 28
7434 9291 9293 28
7435 9291 9294 28
7436 9291 9295 28
7437 9296 9297 28
7438 9296 9298 28
7439 9296 9299 28
7440 9296 9300 28
7441 9301 9302 28
7442 9301 9303 28
7443 9301 9304 28
7444 9301 9305 28
7445 9306 9307 28
7446 9306 9308 28
7447 9306 9309 28
7448 9306 9310 28
7449 9311 9312 28
7450 9311 9313 28
7451 9311 9314 28
7452 9311 9315 28
7453 9316 9317 28
7454 9316 9318 28
7455 9316 9319 28
7456 9316 9320 28
7457 9321 9322 28
7458 9321 9323 28
7459 9321 9324 28
7460 9321 9325 28
7461 9326 9327 28
7462 9326 9328 28
7463 9326 9329 28
7464 9326 9330 28
7465 9331 9332 28
7466 9331 9333 28
7467 9331 9334 28
7468 9331 9335 28
7469 9336 9337 28
7470 9336 9338 28
7471 9336 9339 28
7472 9336 9340 28
7473 9341 9342 28
7474 9341 9343 28
7475 9341 9344 28
7476 9341 9345 28
7477 9346 9347 28
7478 9346 9348 28
7479 9346 9349 28
7480 9346 9350 28
7481 9351 9352 28
7482 9351 9353 28
7483 9351 9354 28
7484 9351 9355 28
7485 9356 9357 28
7486 9356 9358 28
7487 9356 9359 28
7488 9356 9360 28
7489 9361 9362 28
7490 9361 9363 28
7491 9361 9364 28
7492 9361 9365 28
7493 9366 9367 28
7494 9366 9368 28
7495 9366 9369 28
7496 9366 9370 28
7497 9371 9372 28
7498 9371 9373 28
7499 9371 9374 28
7500 9371 9375 28
7501 9376 9377 28
7502 9376 9378 28
7503 9376 9379 28
7504 9376 9380 28
7505 9381 9382 28
7506 9381 9383 28
7507 9381 9384 28
7508 9381 9385 28
7509 9386 9387 28
7510 9386 9388 28
7511 9386 9389 28
7512 9386 9390 28
7513 9391 9392 28
7514 9391 9393 28
7515 9391 9394 28
7516 9391 9395 28
7517 9396 9397 28
7518 9396 9398 28
7519 9396 9399 28
7520 9396 9400 28
7521 9401 9402 28
7522 9401 9403 28
7523 9401 9404 28
7524 9401 9405 28
7525 9406 9407 28
7526 9406 9408 28
7527 9406 9409 28
7528 9406 9410 28
7529 9411 9412 28
7530 9411 9413 28
7531 9411 9414 28
7532 9411 9415 28
7533 9416 9417 28
7534 9416 9418 28
7535 9416 9419 28
7536 9416 9420 28
7537 9421 9422 28
7538 9421 9423 28
7539 9421 9424 28
7540 9421 9425 28
7541 9426 9427 28
7542 9426 9428 28
7543 9426 9429 28
7544 9426 9430 28
7545 9431 9432 28
7546 9431 9433 28
7547 9431 9434 28
7548 9431 9435 28
7549 9436 9437 28
7550 9436 9438 28
7551 9436 9439 28
7552 9436 9440 28
7553 9441 9442 28
7554 9441 9443 28
7555 9441 9444 28
7556 9441 9445 28
7557 9446 9447 28
7558 9446 9448 28
7559 9446 9449 28
7560 9446 9450 28
7561 9451 9452 28
7562 9451 9453 28
7563 9451 9454 28
7564 9451 9455 28
7565 9456 9457 28
7566 9456 9458 28
7567 9456 9459 28
7568 9456 9460 28
7569 9461 9462 28
7570 9461 9463 28
7571 9461 9464 28
7572 9461 9465 28
7573 9466 9467 28
7574 9466 9468 28
7575 9466 9469 28
7576 9466 9470 28
7577 9471 9472 28
7578 9471 9473 28
7579 9471 9474 28
7580 9471 9475 28
7581 9476 9477 28
7582 9476 9478 28
7583 9476 9479 28
7584 9476 9480 28
7585 9481 9482 28
7586 9481 9483 28
7587 9481 9484 28
7588 9481 9485 28
7589 9486 9487 28
7590 9486 9488 28
7591 9486 9489 28
7592 9486 9490 28
7593 9491 9492 28
7594 9491 9493 28
7595 9491 9494 28
7596 9491 9495 28
7597 9496 9497 28
7598 9496 9498 28
7599 9496 9499 28
7600 9496 9500 28
7601 9501 9502 28
7602 9501 9503 28
7603 9501 9504 28
7604 9501 9505 28
7605 9506 9507 28
7606 9506 9508 28
7607 9506 9509 28
7608 9506 9510 28
7609 9511 9512 28
7610 9511 9513 28
7611 9511 9514 28
7612 9511 9515 28
7613 9516 9517 28
7614 9516 9518 28
7615 9516 9519 28
7616 9516 9520 28
7617 9521 9522 28
7618 9521 9523 28
7619 9521 9524 28
7620 9521 9525 28
7621 9526 9527 28
7622 9526 9528 28
7623 9526 9529 28
7624 9526 9530 28
7625 9531 9532 28
7626 9531 9533 28
7627 9531 9534 28
7628 9531 9535 28
7629 9536 9537 28
7630 9536 9538 28
7631 9536 9539 28
7632 9536 9540 28
7633 9541 9542 28
7634 9541 9543 28
7635 9541 9544 28
7636 9541 9545 28
7637 9546 9547 28
7638 9546 9548 28
7639 9546 9549 28
7640 9546 9550 28
7641 9551 9552 28
7642 9551 9553 28
7643 9551 9554 28
7644 9551 9555 28
7645 9556 9557 28
7646 9556 9558 28
7647 9556 9559 28
7648 9556 9560 28
7649 9561 9562 28
7650 9561 9563 28
7651 9561 9564 28
7652 9561 9565 28
7653 9566 9567 28
7654 9566 9568 28
7655 9566 9569 28
7656 9566 9570 28
7657 9571 9572 28
7658 9571 9573 28
7659 9571 9574 28
7660 9571 9575 28
7661 9576 9577 28
7662 9576 9578 28
7663 9576 9579 28
7664 9576 9580 28
7665 9581 9582 28
7666 9581 9583 28
7667 9581 9584 28
7668 9581 9585 28
7669 9586 9587 28
7670 9586 9588 28
7671 9586 9589 28
7672 9586 9590 28
7673 9591 9592 28
7674 9591 9593 28
7675 9591 9594 28
7676 9591 9595 28
7677 9596 9597 28
7678 9596 9598 28
7679 9596 9599 28
7680 9596 9600 28
7681 9601 9602 28
7682 9601 9603 28
7683 9601 9604 28
7684 9601 9605 28
7685 9606 9607 28
7686 9606 9608 28
7687 9606 9609 28
7688 9606 9610 28
7689 9611 9612 28
7690 9611 9613 28
7691 9611 9614 28
7692 9611 9615 28
7693 9616 9617 28
7694 9616 9618 28
7695 9616 9619 28
7696 9616 9620 28
7697 9621 9622 28
7698 9621 9623 28
7699 9621 9624 28
7700 9621 9625 28
7701 9626 9627 28
7702 9626 9628 28
7703 9626 9629 28
7704 9626 9630 28
7705 9631 9632 28
7706 9631 9633 28
7707 9631 9634 28
7708 9631 9635 28
7709 9636 9637 28
7710 9636 9638 28
7711 9636 9639 28
7712 9636 9640 28
7713 9641 9642 28
7714 9641 9643 28
7715 9641 9644 28
7716 9641 9645 28
7717 9646 9647 28
7718 9646 9648 28
7719 9646 9649 28
7720 9646 9650 28
7721 9651 9652 28
7722 9651 9653 28
7723 9651 9654 28
7724 9651 9655 28
7725 9656 9657 28
7726 9656 9658 28
7727 9656 9659 28
7728 9656 9660 28
7729 9661 9662 28
7730 9661 9663 28
7731 9661 9664 28
7732 9661 9665 28
7733 9666 9667 28
7734 9666 9668 28
7735 9666 9669 28
7736 9666 9670 28
7737 9671 9672 28
7738 9671 9673 28
7739 9671 9674 28
7740 9671 9675 28
7741 9676 9677 28
7742 9676 9678 28
7743 9676 9679 28
7744 9676 9680 28
7745 9681 9682 28
7746 9681 9683 28
7747 9681 9684 28
7748 9681 9685 28
7749 9686 9687 28
7750 9686 9688 28
7751 9686 9689 28
7752 9686 9690 28
7753 9691 9692 28
7754 9691 9693 28
7755 9691 9694 28
7756 9691 9695 28
7757 9696 9697 28
7758 9696 9698 28
7759 9696 9699 28
7760 9696 9700 28
7761 9701 9702 28
7762 9701 9703 28
7763 9701 9704 28
7764 9701 9705 28
7765 9706 9707 28
7766 9706 9708 28
7767 9706 9709 28
7768 9706 9710 28
7769 9711 9712 28
7770 9711 9713 28
7771 9711 9714 28
7772 9711 9715 28
7773 9716 9717 28
7774 9716 9718 28
7775 9716 9719 28
7776 9716 9720 28
7777 9721 9722 28
7778 9721 9723 28
7779 9721 9724 28
7780 9721 9725 28
7781 9726 9727 28
7782 9726 9728 28
7783 9726 9729 28
7784 9726 9730 28
7785 9731 9732 28
7786 9731 9733 28
7787 9731 9734 28
7788 9731 9735 28
7789 9736 9737 28
7790 9736 9738 28
7791 9736 9739 28
7792 9736 9740 28
7793 9741 9742 28
7794 9741 9743 28
7795 9741 9744 28
7796 9741 9745 28
7797 9746 9747 28
7798 9746 9748 28
7799 9746 9749 28
7800 9746 9750 28
7801 9751 9752 28
7802 9751 9753 28
7803 9751 9754 28
7804 9751 9755 28
7805 9756 9757 28
7806 9756 9758 28
7807 9756 9759 28
7808 9756 9760 28
7809 9761 9762 28
7810 9761 9763 28
7811 9761 9764 28
7812 9761 9765 28
7813 9766 9767 28
7814 9766 9768 28
7815 9766 9769 28
7816 9766 9770 28
7817 9771 9772 28
7818 9771 9773 28
7819 9771 9774 28
7820 9771 9775 28
7821 9776 9777 28
7822 9776 9778 28
7823 9776 9779 28
7824 9776 9780 28
7825 9781 9782 28
7826 9781 9783 28
7827 9781 9784 28
7828 9781 9785 28
7829 9786 9787 28
7830 9786 9788 28
7831 9786 9789 28
7832 9786 9790 28
7833 9791 9792 28
7834 9791 9793 28
7835 9791 9794 28
7836 9791 9795 28
7837 9796 9797 28
7838 9796 9798 28
7839 9796 9799 28
7840 9796 9800 28
7841 9801 9802 28
7842 9801 9803 28
7843 9801 9804 28
7844 9801 9805 28
7845 9806 9807 28
7846 9806 9808 28
7847 9806 9809 28
7848 9806 9810 28
7849 9811 9812 28
7850 9811 9813 28
7851 9811 9814 28
7852 9811 9815 28
7853 9816 9817 28
7854 9816 9818 28
7855 9816 9819 28
7856 9816 9820 28
7857 9821 9822 28
7858 9821 9823 28
7859 9821 9824 28
7860 9821 9825 28
7861 9826 9827 28
7862 9826 9828 28
7863 9826 9829 28
7864 9826 9830 28
7865 9831 9832 28
7866 9831 9833 28
7867 9831 9834 28
7868 9831 9835 28
7869 9836 9837 28
7870 9836 9838 28
7871 9836 9839 28
7872 9836 9840 28
7873 9841 9842 28
7874 9841 9843 28
7875 9841 9844 28
7876 9841 9845 28
7877 9846 9847 28
7878 9846 9848 28
7879 9846 9849 28
7880 9846 9850 28
7881 9851 9852 28
7882 9851 9853 28
7883 9851 9854 28
7884 9851 9855 28
7885 9856 9857 28
7886 9856 9858 28
7887 9856 9859 28
7888 9856 9860 28
7889 9861 9862 28
7890 9861 9863 28
7891 9861 9864 28
7892 9861 9865 28
7893 9866 9867 28
7894 9866 9868 28
7895 9866 9869 28
7896 9866 9870 28
7897 9871 9872 28
7898 9871 9873 28
7899 9871 9874 28
7900 9871 9875 28
7901 9876 9877 28
7902 9876 9878 28
7903 9876 9879 28
7904 9876 9880 28
7905 9881 9882 28
7906 9881 9883 28
7907 9881 9884 28
7908 9881 9885 28
7909 9886 9887 28
7910 9886 9888 28
7911 9886 9889 28
7912 9886 9890 28
7913 9891 9892 28
7914 9891 9893 28
7915 9891 9894 28
7916 9891 9895 28
7917 9896 9897 28
7918 9896 9898 28
7919 9896 9899 28
7920 9896 9900 28
7921 9901 9902 28
7922 9901 9903 28
7923 9901 9904 28
7924 9901 9905 28
7925 9906 9907 28
7926 9906 9908 28
7927 9906 9909 28
7928 9906 9910 28
7929 9911 9912 28
7930 9911 9913 28
7931 9911 9914 28
7932 9911 9915 28
7933 9916 9917 28
7934 9916 9918 28
7935 9916 9919 28
7936 9916 9920 28
7937 9921 9922 28
7938 9921 9923 28
7939 9921 9924 28
7940 9921 9925 28
7941 9926 9927 28
7942 9926 9928 28
7943 9926 9929 28
7944 9926 9930 28
7945 9931 9932 28
7946 9931 9933 28
7947 9931 9934 28
7948 9931 9935 28
7949 9936 9937 28
7950 9936 9938 28
7951 9936 9939 28
7952 9936 9940 28
7953 9941 9942 28
7954 9941 9943 28
7955 9941 9944 28
7956 9941 9945 28
7957 9946 9947 28
7958 9946 9948 28
7959 9946 9949 28
7960 9946 9950 28
7961 9951 9952 28
7962 9951 9953 28
7963 9951 9954 28
7964 9951 9955 28
7965 9956 9957 28
7966 9956 9958 28
7967 9956 9959 28
7968 9956 9960 28
7969 9961 9962 28
7970 9961 9963 28
7971 9961 9964 28
7972 9961 9965 28
7973 9966 9967 28
7974 9966 9968 28
7975 9966 9969 28
7976 9966 9970 28
7977 9971 9972 28
7978 9971 9973 28
7979 9971 9974 28
7980 9971 9975 28
7981 9976 9977 28
7982 9976 9978 28
7983 9976 9979 28
7984 9976 9980 28
7985 9981 9982 28
7986 9981 9983 28
7987 9981 9984 28
7988 9981 9985 28
7989 9986 9987 28
7990 9986 9988 28
7991 9986 9989 28
7992 9986 9990 28
7993 9991 9992 28
7994 9991 9993 28
7995 9991 9994 28
7996 9991 9995 28
7997 9996 9997 28
7998 9996 9998 28
7999 9996 9999 28
8000 9996 10000 28
8001 10001 10002 28
8002 10001 10003 28
8003 10001 10004 28
8004 10001 10005 28
8005 10006 10007 28
8006 10006 10008 28
8007 10006 10009 28
8008 10006 10010 28
8009 10011 10012 28
8010 10011 10013 28
8011 10011 10014 28
8012 10011 10015 28
8013 10016 10017 28
8014 10016 10018 28
8015 10016 10019 28
8016 10016 10020 28
8017 10021 10022 28
8018 10021 10023 28
8019 10021 10024 28
8020 10021 10025 28
8021 10026 10027 28
8022 10026 10028 28
8023 10026 10029 28
8024 10026 10030 28
8025 10031 10032 28
8026 10031 10033 28
8027 10031 10034 28
8028 10031 10035 28
8029 10036 10037 28
8030 10036 10038 28
8031 10036 10039 28
8032 10036 10040 28
8033 10041 10042 28
8034 10041 10043 28
8035 10041 10044 28
8036 10041 10045 28
8037 10046 10047 28
8038 10046 10048 28
8039 10046 10049 28
8040 10046 10050 28
8041 10051 10052 28
8042 10051 10053 28
8043 10051 10054 28
8044 10051 10055 28
8045 10056 10057 28
8046 10056 10058 28
8047 10056 10059 28
8048 10056 10060 28
8049 10061 10062 28
8050 10061 10063 28
8051 10061 10064 28
8052 10061 10065 28
8053 10066 10067 28
8054 10066 10068 28
8055 10066 10069 28
8056 10066 10070 28
8057 10071 10072 28
8058 10071 10073 28
8059 10071 10074 28
8060 10071 10075 28
8061 10076 10077 28
8062 10076 10078 28
8063 10076 10079 28
8064 10076 10080 28
8065 10081 10082 28
8066 10081 10083 28
8067 10081 10084 28
8068 10081 10085 28
8069 10086 10087 28
8070 10086 10088 28
8071 10086 10089 28
8072 10086 10090 28
8073 10091 10092 28
8074 10091 10093 28
8075 10091 10094 28
8076 10091 10095 28
8077 10096 10097 28
8078 10096 10098 28
8079 10096 10099 28
8080 10096 10100 28
8081 10101 10102 28
8082 10101 10103 28
8083 10101 10104 28
8084 10101 10105 28
8085 10106 10107 28
8086 10106 10108 28
8087 10106 10109 28
8088 10106 10110 28
8089 10111 10112 28
8090 10111 10113 28
8091 10111 10114 28
8092 10111 10115 28
8093 10116 10117 28
8094 10116 10118 28
8095 10116 10119 28
8096 10116 10120 28
8097 10121 10122 28
8098 10121 10123 28
8099 10121 10124 28
8100 10121 10125 28
8101 10126 10127 28
8102 10126 10128 28
8103 10126 10129 28
8104 10126 10130 28
8105 10131 10132 28
8106 10131 10133 28
8107 10131 10134 28
8108 10131 10135 28
8109 10136 10137 28
8110 10136 10138 28
8111 10136 10139 28
8112 10136 10140 28
8113 10141 10142 28
8114 10141 10143 28
8115 10141 10144 28
8116 10141 10145 28
8117 10146 10147 28
8118 10146 10148 28
8119 10146 10149 28
8120 10146 10150 28
8121 10151 10152 28
8122 10151 10153 28
8123 10151 10154 28
8124 10151 10155 28
8125 10156 10157 28
8126 10156 10158 28
8127 10156 10159 28
8128 10156 10160 28
8129 10161 10162 28
8130 10161 10163 28
8131 10161 10164 28
8132 10161 10165 28
8133 10166 10167 28
8134 10166 10168 28
8135 10166 10169 28
8136 10166 10170 28
8137 10171 10172 28
8138 10171 10173 28
8139 10171 10174 28
8140 10171 10175 28
8141 10176 10177 28
8142 10176 10178 28
8143 10176 10179 28
8144 10176 10180 28
8145 10181 10182 28
8146 10181 10183 28
8147 10181 10184 28
8148 10181 10185 28
8149 10186 10187 28
8150 10186 10188 28
8151 10186 10189 28
8152 10186 10190 28
8153 10191 10192 28
8154 10191 10193 28
8155 10191 10194 28
8156 10191 10195 28
8157 10196 10197 28
8158 10196 10198 28
8159 10196 10199 28
8160 10196 10200 28
8161 10201 10202 28
8162 10201 10203 28
8163 10201 10204 28
8164 10201 10205 28
8165 10206 10207 28
8166 10206 10208 28
8167 10206 10209 28
8168 10206 10210 28
8169 10211 10212 28
8170 10211 10213 28
8171 10211 10214 28
8172 10211 10215 28
8173 10216 10217 28
8174 10216 10218 28
8175 10216 10219 28
8176 10216 10220 28
8177 10221 10222 28
8178 10221 10223 28
8179 10221 10224 28
8180 10221 10225 28
8181 10226 10227 28
8182 10226 10228 28
8183 10226 10229 28
8184 10226 10230 28
8185 10231 10232 28
8186 10231 10233 28
8187 10231 10234 28
8188 10231 10235 28
8189 10236 10237 28
8190 10236 10238 28
8191 10236 10239 28
8192 10236 10240 28
8193 10241 10242 28
8194 10241 10243 28
8195 10241 10244 28
8196 10241 10245 28
8197 10246 10247 28
8198 10246 10248 28
8199 10246 10249 28
8200 10246 10250 28
8201 10251 10252 28
8202 10251 10253 28
8203 10251 10254 28
8204 10251 10255 28
8205 10256 10257 28
8206 10256 10258 28
8207 10256 10259 28
8208 10256 10260 28
8209 10261 10262 28
8210 10261 10263 28
8211 10261 10264 28
8212 10261 10265 28
8213 10266 10267 28
8214 10266 10268 28
8215 10266 10269 28
8216 10266 10270 28
8217 10271 10272 28
8218 10271 10273 28
8219 10271 10274 28
8220 10271 10275 28
8221 10276 10277 28
8222 10276 10278 28
8223 10276 10279 28
8224 10276 10280 28
8225 10281 10282 28
8226 10281 10283 28
8227 10281 10284 28
8228 10281 10285 28
8229 10286 10287 28
8230 10286 10288 28
8231 10286 10289 28
8232 10286 10290 28
8233 10291 10292 28
8234 10291 10293 28
8235 10291 10294 28
8236 10291 10295 28
8237 10296 10297 28
8238 10296 10298 28
8239 10296 10299 28
8240 10296 10300 28
8241 10301 10302 28
8242 10301 10303 28
8243 10301 10304 28
8244 10301 10305 28
8245 10306 10307 28
8246 10306 10308 28
8247 10306 10309 28
8248 10306 10310 28
8249 10311 10312 28
8250 10311 10313 28
8251 10311 10314 28
8252 10311 10315 28
8253 10316 10317 28
8254 10316 10318 28
8255 10316 10319 28
8256 10316 10320 28
8257 10321 10322 28
8258 10321 10323 28
8259 10321 10324 28
8260 10321 10325 28
8261 10326 10327 28
8262 10326 10328 28
8263 10326 10329 28
8264 10326 10330 28
8265 10331 10332 28
8266 10331 10333 28
8267 10331 10334 28
8268 10331 10335 28
8269 10336 10337 28
8270 10336 10338 28
8271 10336 10339 28
8272 10336 10340 28
8273 10341 10342 28
8274 10341 10343 28
8275 10341 10344 28
8276 10341 10345 28
8277 10346 10347 28
8278 10346 10348 28
8279 10346 10349 28
8280 10346 10350 28
8281 10351 10352 28
8282 10351 10353 28
8283 10351 10354 28
8284 10351 10355 28
8285 10356 10357 28
8286 10356 10358 28
8287 10356 10359 28
8288 10356 10360 28
8289 10361 10362 28
8290 10361 10363 28
8291 10361 10364 28
8292 10361 10365 28
8293 10366 10367 28
8294 10366 10368 28
8295 10366 10369 28
8296 10366 10370 28
8297 10371 10372 28
8298 10371 10373 28
8299 10371 10374 28
8300 10371 10375 28
8301 10376 10377 28
8302 10376 10378 28
8303 10376 10379 28
8304 10376 10380 28
8305 10381 10382 28
8306 10381 10383 28
8307 10381 10384 28
8308 10381 10385 28
8309 10386 10387 28
8310 10386 10388 28
8311 10386 10389 28
8312 10386 10390 28
8313 10391 10392 28
8314 10391 10393 28
8315 10391 10394 28
8316 10391 10395 28
8317 10396 10397 28
8318 10396 10398 28
8319 10396 10399 28
8320 10396 10400 28
8321 10401 10402 28
8322 10401 10403 28
8323 10401 10404 28
8324 10401 10405 28
8325 10406 10407 28
8326 10406 10408 28
8327 10406 10409 28
8328 10406 10410 28
8329 10411 10412 28
8330 10411 10413 28
8331 10411 10414 28
8332 10411 10415 28
8333 10416 10417 28
8334 10416 10418 28
8335 10416 10419 28
8336 10416 10420 28
8337 10421 10422 28
8338 10421 10423 28
8339 10421 10424 28
8340 10421 10425 28
8341 10426 10427 28
8342 10426 10428 28
8343 10426 10429 28
8344 10426 10430 28
8345 10431 10432 28
8346 10431 10433 28
8347 10431 10434 28
8348 10431 10435 28
8349 10436 10437 28
8350 10436 10438 28
8351 10436 10439 28
8352 10436 10440 28
8353 10441 10442 28
8354 10441 10443 28
8355 10441 10444 28
8356 10441 10445 28
8357 10446 10447 28
8358 10446 10448 28
8359 10446 10449 28
8360 10446 10450 28
8361 10451 10452 28
8362 10451 10453 28
8363 10451 10454 28
8364 10451 10455 28
8365 10456 10457 28
8366 10456 10458 28
8367 10456 10459 28
8368 10456 10460 28
8369 10461 10462 28
8370 10461 10463 28
8371 10461 10464 28
8372 10461 10465 28
8373 10466 10467 28
8374 10466 10468 28
8375 10466 10469 28
8376 10466 10470 28
8377 10471 10472 28
8378 10471 10473 28
8379 10471 10474 28
8380 10471 10475 28
8381 10476 10477 28
8382 10476 10478 28
8383 10476 10479 28
8384 10476 10480 28
8385 10481 10482 28
8386 10481 10483 28
8387 10481 10484 28
8388 10481 10485 28
8389 10486 10487 28
8390 10486 10488 28
8391 10486 10489 28
8392 10486 10490 28
8393 10491 10492 28
8394 10491 10493 28
8395 10491 10494 28
8396 10491 10495 28
8397 10496 10497 28
8398 10496 10498 28
8399 10496 10499 28
8400 10496 10500 28
8401 10501 10502 28
8402 10501 10503 28
8403 10501 10504 28
8404 10501 10505 28
8405 10506 10507 28
8406 10506 10508 28
8407 10506 10509 28
8408 10506 10510 28
8409 10511 10512 28
8410 10511 10513 28
8411 10511 10514 28
8412 10511 10515 28
8413 10516 10517 28
8414 10516 10518 28
8415 10516 10519 28
8416 10516 10520 28
8417 10521 10522 28
8418 10521 10523 28
8419 10521 10524 28
8420 10521 10525 28
8421 10526 10527 28
8422 10526 10528 28
8423 10526 10529 28
8424 10526 10530 28
8425 10531 10532 28
8426 10531 10533 28
8427 10531 10534 28
8428 10531 10535 28
8429 10536 10537 28
8430 10536 10538 28
8431 10536 10539 28
8432 10536 10540 28
8433 10541 10542 28
8434 10541 10543 28
8435 10541 10544 28
8436 10541 10545 28
8437 10546 10547 28
8438 10546 10548 28
8439 10546 10549 28
8440 10546 10550 28
8441 10551 10552 28
8442 10551 10553 28
8443 10551 10554 28
8444 10551 10555 28
8445 10556 10557 28
8446 10556 10558 28
8447 10556 10559 28
8448 10556 10560 28
8449 10561 10562 28
8450 10561 10563 28
8451 10561 10564 28
8452 10561 10565 28
8453 10566 10567 28
8454 10566 10568 28
8455 10566 10569 28
8456 10566 10570 28
8457 10571 10572 28
8458 10571 10573 28
8459 10571 10574 28
8460 10571 10575 28
8461 10576 10577 28
8462 10576 10578 28
8463 10576 10579 28
8464 10576 10580 28
8465 10581 10582 28
8466 10581 10583 28
8467 10581 10584 28
8468 10581 10585 28
8469 10586 10587 28
8470 10586 10588 28
8471 10586 10589 28
8472 10586 10590 28
8473 10591 10592 28
8474 10591 10593 28
8475 10591 10594 28
8476 10591 10595 28
8477 10596 10597 28
8478 10596 10598 28
8479 10596 10599 28
8480 10596 10600 28
8481 10601 10602 28
8482 10601 10603 28
8483 10601 10604 28
8484 10601 10605 28
8485 10606 10607 28
8486 10606 10608 28
8487 10606 10609 28
8488 10606 10610 28
8489 10611 10612 28
8490 10611 10613 28
8491 10611 10614 28
8492 10611 10615 28
8493 10616 10617 28
8494 10616 10618 28
8495 10616 10619 28
8496 10616 10620 28
8497 10621 10622 28
8498 10621 10623 28
8499 10621 10624 28
8500 10621 10625 28
8501 10626 10627 28
8502 10626 10628 28
8503 10626 10629 28
8504 10626 10630 28
8505 10631 10632 28
8506 10631 10633 28
8507 10631 10634 28
8508 10631 10635 28
8509 10636 10637 28
8510 10636 10638 28
8511 10636 10639 28
8512 10636 10640 28
8513 10641 10642 28
8514 10641 10643 28
8515 10641 10644 28
8516 10641 10645 28
8517 10646 10647 28
8518 10646 10648 28
8519 10646 10649 28
8520 10646 10650 28
8521 10651 10652 28
8522 10651 10653 28
8523 10651 10654 28
8524 10651 10655 28
8525 10656 10657 28
8526 10656 10658 28
8527 10656 10659 28
8528 10656 10660 28
8529 10661 10662 28
8530 10661 10663 28
8531 10661 10664 28
8532 10661 10665 28
8533 10666 10667 28
8534 10666 10668 28
8535 10666 10669 28
8536 10666 10670 28
8537 10671 10672 28
8538 10671 10673 28
8539 10671 10674 28
8540 10671 10675 28
8541 10676 10677 28
8542 10676 10678 28
8543 10676 10679 28
8544 10676 10680 28
8545 10681 10682 28
8546 10681 10683 28
8547 10681 10684 28
8548 10681 10685 28
8549 10686 10687 28
8550 10686 10688 28
8551 10686 10689 28
8552 10686 10690 28
8553 10691 10692 28
8554 10691 10693 28
8555 10691 10694 28
8556 10691 10695 28
8557 10696 10697 28
8558 10696 10698 28
8559 10696 10699 28
8560 10696 10700 28
8561 10701 10702 28
8562 10701 10703 28
8563 10701 10704 28
8564 10701 10705 28
8565 10706 10707 28
8566 10706 10708 28
8567 10706 10709 28
8568 10706 10710 28
8569 10711 10712 28
8570 10711 10713 28
8571 10711 10714 28
8572 10711 10715 28
8573 10716 10717 28
8574 10716 10718 28
8575 10716 10719 28
8576 10716 10720 28
8577 10721 10722 28
8578 10721 10723 28
8579 10721 10724 28
8580 10721 10725 28
8581 10726 10727 28
8582 10726 10728 28
8583 10726 10729 28
8584 10726 10730 28
8585 10731 10732 28
8586 10731 10733 28
8587 10731 10734 28
8588 10731 10735 28
8589 10736 10737 28
8590 10736 10738 28
8591 10736 10739 28
8592 10736 10740 28
8593 10741 10742 28
8594 10741 10743 28
8595 10741 10744 28
8596 10741 10745 28
8597 10746 10747 28
8598 10746 10748 28
8599 10746 10749 28
8600 10746 10750 28
8601 10751 10752 28
8602 10751 10753 28
8603 10751 10754 28
8604 10751 10755 28
8605 10756 10757 28
8606 10756 10758 28
8607 10756 10759 28
8608 10756 10760 28
8609 10761 10762 28
8610 10761 10763 28
8611 10761 10764 28
8612 10761 10765 28
8613 10766 10767 28
8614 10766 10768 28
8615 10766 10769 28
8616 10766 10770 28
8617 10771 10772 28
8618 10771 10773 28
8619 10771 10774 28
8620 10771 10775 28
8621 10776 10777 28
8622 10776 10778 28
8623 10776 10779 28
8624 10776 10780 28
8625 10781 10782 28
8626 10781 10783 28
8627 10781 10784 28
8628 10781 10785 28
8629 10786 10787 28
8630 10786 10788 28
8631 10786 10789 28
8632 10786 10790 28
8633 10791 10792 28
8634 10791 10793 28
8635 10791 10794 28
8636 10791 10795 28
8637 10796 10797 28
8638 10796 10798 28
8639 10796 10799 28
8640 10796 10800 28
8641 10801 10802 28
8642 10801 10803 28
8643 10801 10804 28
8644 10801 10805 28
8645 10806 10807 28
8646 10806 10808 28
8647 10806 10809 28
8648 10806 10810 28
8649 10811 10812 28
8650 10811 10813 28
8651 10811 10814 28
8652 10811 10815 28
8653 10816 10817 28
8654 10816 10818 28
8655 10816 10819 28
8656 10816 10820 28
8657 10821 10822 28
8658 10821 10823 28
8659 10821 10824 28
8660 10821 10825 28
8661 10826 10827 28
8662 10826 10828 28
8663 10826 10829 28
8664 10826 10830 28
8665 10831 10832 28
8666 10831 10833 28
8667 10831 10834 28
8668 10831 10835 28
8669 10836 10837 28
8670 10836 10838 28
8671 10836 10839 28
8672 10836 10840 28
8673 10841 10842 28
8674 10841 10843 28
8675 10841 10844 28
8676 10841 10845 28
8677 10846 10847 28
8678 10846 10848 28
8679 10846 10849 28
8680 10846 10850 28
8681 10851 10852 28
8682 10851 10853 28
8683 10851 10854 28
8684 10851 10855 28
8685 10856 10857 28
8686 10856 10858 28
8687 10856 10859 28
8688 10856 10860 28
8689 10861 10862 28
8690 10861 10863 28
8691 10861 10864 28
8692 10861 10865 28
8693 10866 10867 28
8694 10866 10868 28
8695 10866 10869 28
8696 10866 10870 28
8697 10871 10872 28
8698 10871 10873 28
8699 10871 10874 28
8700 10871 10875 28
8701 10876 10877 28
8702 10876 10878 28
8703 10876 10879 28
8704 10876 10880 28
8705 10881 10882 28
8706 10881 10883 28
8707 10881 10884 28
8708 10881 10885 28
8709 10886 10887 28
8710 10886 10888 28
8711 10886 10889 28
8712 10886 10890 28
8713 10891 10892 28
8714 10891 10893 28
8715 10891 10894 28
8716 10891 10895 28
8717 10896 10897 28
8718 10896 10898 28
8719 10896 10899 28
8720 10896 10900 28
8721 10901 10902 28
8722 10901 10903 28
8723 10901 10904 28
8724 10901 10905 28
8725 10906 10907 28
8726 10906 10908 28
8727 10906 10909 28
8728 10906 10910 28
8729 10911 10912 28
8730 10911 10913 28
8731 10911 10914 28
8732 10911 10915 28
8733 10916 10917 28
8734 10916 10918 28
8735 10916 10919 28
8736 10916 10920 28
8737 10921 10922 28
8738 10921 10923 28
8739 10921 10924 28
8740 10921 10925 28
8741 10926 10927 28
8742 10926 10928 28
8743 10926 10929 28
8744 10926 10930 28
8745 10931 10932 28
8746 10931 10933 28
8747 10931 10934 28
8748 10931 10935 28
8749 10936 10937 28
8750 10936 10938 28
8751 10936 10939 28
8752 10936 10940 28
8753 10941 10942 28
8754 10941 10943 28
8755 10941 10944 28
8756 10941 10945 28
8757 10946 10947 28
8758 10946 10948 28
8759 10946 10949 28
8760 10946 10950 28
8761 10951 10952 28
8762 10951 10953 28
8763 10951 10954 28
8764 10951 10955 28
8765 10956 10957 28
8766 10956 10958 28
8767 10956 10959 28
8768 10956 10960 28
8769 10961 10962 28
8770 10961 10963 28
8771 10961 10964 28
8772 10961 10965 28
8773 10966 10967 28
8774 10966 10968 28
8775 10966 10969 28
8776 10966 10970 28
8777 10971 10972 28
8778 10971 10973 28
8779 10971 10974 28
8780 10971 10975 28
8781 10976 10977 28
8782 10976 10978 28
8783 10976 10979 28
8784 10976 10980 28
8785 10981 10982 28
8786 10981 10983 28
8787 10981 10984 28
8788 10981 10985 28
8789 10986 10987 28
8790 10986 10988 28
8791 10986 10989 28
8792 10986 10990 28
8793 10991 10992 28
8794 10991 10993 28
8795 10991 10994 28
8796 10991 10995 28
8797 10996 10997 28
8798 10996 10998 28
8799 10996 10999 28
8800 10996 11000 28
8801 11001 11002 28
8802 11001 11003 28
8803 11001 11004 28
8804 11001 11005 28
8805 11006 11007 28
8806 11006 11008 28
8807 11006 11009 28
8808 11006 11010 28
8809 11011 11012 28
8810 11011 11013 28
8811 11011 11014 28
8812 11011 11015 28
8813 11016 11017 28
8814 11016 11018 28
8815 11016 11019 28
8816 11016 11020 28
8817 11021 11022 28
8818 11021 11023 28
8819 11021 11024 28
8820 11021 11025 28
8821 11026 11027 28
8822 11026 11028 28
8823 11026 11029 28
8824 11026 11030 28
8825 11031 11032 28
8826 11031 11033 28
8827 11031 11034 28
8828 11031 11035 28
8829 11036 11037 28
8830 11036 11038 28
8831 11036 11039 28
8832 11036 11040 28
8833 11041 11042 28
8834 11041 11043 28
8835 11041 11044 28
8836 11041 11045 28
8837 11046 11047 28
8838 11046 11048 28
8839 11046 11049 28
8840 11046 11050 28
8841 11051 11052 28
8842 11051 11053 28
8843 11051 11054 28
8844 11051 11055 28
8845 11056 11057 28
8846 11056 11058 28
8847 11056 11059 28
8848 11056 11060 28
8849 11061 11062 28
8850 11061 11063 28
8851 11061 11064 28
8852 11061 11065 28
8853 11066 11067 28
8854 11066 11068 28
8855 11066 11069 28
8856 11066 11070 28
8857 11071 11072 28
8858 11071 11073 28
8859 11071 11074 28
8860 11071 11075 28
8861 11076 11077 28
8862 11076 11078 28
8863 11076 11079 28
8864 11076 11080 28
8865 11081 11082 28
8866 11081 11083 28
8867 11081 11084 28
8868 11081 11085 28
8869 11086 11087 28
8870 11086 11088 28
8871 11086 11089 28
8872 11086 11090 28
8873 11091 11092 28
8874 11091 11093 28
8875 11091 11094 28
8876 11091 11095 28
8877 11096 11097 28
8878 11096 11098 28
8879 11096 11099 28
8880 11096 11100 28
8881 11101 11102 28
8882 11101 11103 28
8883 11101 11104 28
8884 11101 11105 28
8885 11106 11107 28
8886 11106 11108 28
8887 11106 11109 28
8888 11106 11110 28
8889 11111 11112 28
8890 11111 11113 28
8891 11111 11114 28
8892 11111 11115 28
8893 11116 11117 28
8894 11116 11118 28
8895 11116 11119 28
8896 11116 11120 28
8897 11121 11122 28
8898 11121 11123 28
8899 11121 11124 28
8900 11121 11125 28
8901 11126 11127 28
8902 11126 11128 28
8903 11126 11129 28
8904 11126 11130 28
8905 11131 11132 28
8906 11131 11133 28
8907 11131 11134 28
8908 11131 11135 28
8909 11136 11137 28
8910 11136 11138 28
8911 11136 11139 28
8912 11136 11140 28
8913 11141 11142 28
8914 11141 11143 28
8915 11141 11144 28
8916 11141 11145 28
8917 11146 11147 28
8918 11146 11148 28
8919 11146 11149 28
8920 11146 11150 28
8921 11151 11152 28
8922 11151 11153 28
8923 11151 11154 28
8924 11151 11155 28
8925 11156 11157 28
8926 11156 11158 28
8927 11156 11159 28
8928 11156 11160 28
8929 11161 11162 28
8930 11161 11163 28
8931 11161 11164 28
8932 11161 11165 28
8933 11166 11167 28
8934 11166 11168 28
8935 11166 11169 28
8936 11166 11170 28
8937 11171 11172 28
8938 11171 11173 28
8939 11171 11174 28
8940 11171 11175 28
8941 11176 11177 28
8942 11176 11178 28
8943 11176 11179 28
8944 11176 11180 28
8945 11181 11182 28
8946 11181 11183 28
8947 11181 11184 28
8948 11181 11185 28
8949 11186 11187 28
8950 11186 11188 28
8951 11186 11189 28
8952 11186 11190 28
8953 11191 11192 28
8954 11191 11193 28
8955 11191 11194 28
8956 11191 11195 28
8957 11196 11197 28
8958 11196 11198 28
8959 11196 11199 28
8960 11196 11200 28
8961 11201 11202 28
8962 11201 11203 28
8963 11201 11204 28
8964 11201 11205 28
8965 11206 11207 28
8966 11206 11208 28
8967 11206 11209 28
8968 11206 11210 28
8969 11211 11212 28
8970 11211 11213 28
8971 11211 11214 28
8972 11211 11215 28
8973 11216 11217 28
8974 11216 11218 28
8975 11216 11219 28
8976 11216 11220 28
8977 11221 11222 28
8978 11221 11223 28
8979 11221 11224 28
8980 11221 11225 28
8981 11226 11227 28
8982 11226 11228 28
8983 11226 11229 28
8984 11226 11230 28
8985 11231 11232 28
8986 11231 11233 28
8987 11231 11234 28
8988 11231 11235 28
8989 11236 11237 28
8990 11236 11238 28
8991 11236 11239 28
8992 11236 11240 28
8993 11241 11242 28
8994 11241 11243 28
8995 11241 11244 28
8996 11241 11245 28
8997 11246 11247 28
8998 11246 11248 28
8999 11246 11249 28
9000 11246 11250 28
9001 11251 11252 28
9002 11251 11253 28
9003 11251 11254 28
9004 11251 11255 28
9005 11256 11257 28
9006 11256 11258 28
9007 11256 11259 28
9008 11256 11260 28
9009 11261 11262 28
9010 11261 11263 28
9011 11261 11264 28
9012 11261 11265 28
9013 11266 11267 28
9014 11266 11268 28
9015 11266 11269 28
9016 11266 11270 28
9017 11271 11272 28
9018 11271 11273 28
9019 11271 11274 28
9020 11271 11275 28
9021 11276 11277 28
9022 11276 11278 28
9023 11276 11279 28
9024 11276 11280 28
9025 11281 11282 28
9026 11281 11283 28
9027 11281 11284 28
9028 11281 11285 28
9029 11286 11287 28
9030 11286 11288 28
9031 11286 11289 28
9032 11286 11290 28
9033 11291 11292 28
9034 11291 11293 28
9035 11291 11294 28
9036 11291 11295 28
9037 11296 11297 28
9038 11296 11298 28
9039 11296 11299 28
9040 11296 11300 28
9041 11301 11302 28
9042 11301 11303 28
9043 11301 11304 28
9044 11301 11305 28
9045 11306 11307 28
9046 11306 11308 28
9047 11306 11309 28
9048 11306 11310 28
9049 11311 11312 28
9050 11311 11313 28
9051 11311 11314 28
9052 11311 11315 28
9053 11316 11317 28
9054 11316 11318 28
9055 11316 11319 28
9056 11316 11320 28
9057 11321 11322 28
9058 11321 11323 28
9059 11321 11324 28
9060 11321 11325 28
9061 11326 11327 28
9062 11326 11328 28
9063 11326 11329 28
9064 11326 11330 28
9065 11331 11332 28
9066 11331 11333 28
9067 11331 11334 28
9068 11331 11335 28
9069 11336 11337 28
9070 11336 11338 28
9071 11336 11339 28
9072 11336 11340 28
9073 11341 11342 28
9074 11341 11343 28
9075 11341 11344 28
9076 11341 11345 28
9077 11346 11347 28
9078 11346 11348 28
9079 11346 11349 28
9080 11346 11350 28
9081 11351 11352 28
9082 11351 11353 28
9083 11351 11354 28
9084 11351 11355 28
9085 11356 11357 28
9086 11356 11358 28
9087 11356 11359 28
9088 11356 11360 28
9089 11361 11362 28
9090 11361 11363 28
9091 11361 11364 28
9092 11361 11365 28
9093 11366 11367 28
9094 11366 11368 28
9095 11366 11369 28
9096 11366 11370 28
9097 11371 11372 28
9098 11371 11373 28
9099 11371 11374 28
9100 11371 11375 28
9101 11376 11377 28
9102 11376 11378 28
9103 11376 11379 28
9104 11376 11380 28
9105 11381 11382 28
9106 11381 11383 28
9107 11381 11384 28
9108 11381 11385 28
9109 11386 11387 28
9110 11386 11388 28
9111 11386 11389 28
9112 11386 11390 28
9113 11391 11392 28
9114 11391 11393 28
9115 11391 11394 28
9116 11391 11395 28
9117 11396 11397 28
9118 11396 11398 28
9119 11396 11399 28
9120 11396 11400 28
9121 11401 11402 28
9122 11401 11403 28
9123 11401 11404 28
9124 11401 11405 28
9125 11406 11407 28
9126 11406 11408 28
9127 11406 11409 28
9128 11406 11410 28
9129 11411 11412 28
9130 11411 11413 28
9131 11411 11414 28
9132 11411 11415 28
9133 11416 11417 28
9134 11416 11418 28
9135 11416 11419 28
9136 11416 11420 28
9137 11421 11422 28
9138 11421 11423 28
9139 11421 11424 28
9140 11421 11425 28
9141 11426 11427 28
9142 11426 11428 28
9143 11426 11429 28
9144 11426 11430 28
9145 11431 11432 28
9146 11431 11433 28
9147 11431 11434 28
9148 11431 11435 28
9149 11436 11437 28
9150 11436 11438 28
9151 11436 11439 28
9152 11436 11440 28
9153 11441 11442 28
9154 11441 11443 28
9155 11441 11444 28
9156 11441 11445 28
9157 11446 11447 28
9158 11446 11448 28
9159 11446 11449 28
9160 11446 11450 28
9161 11451 11452 28
9162 11451 11453 28
9163 11451 11454 28
9164 11451 11455 28
9165 11456 11457 28
9166 11456 11458 28
9167 11456 11459 28
9168 11456 11460 28
9169 11461 11462 28
9170 11461 11463 28
9171 11461 11464 28
9172 11461 11465 28
9173 11466 11467 28
9174 11466 11468 28
9175 11466 11469 28
9176 11466 11470 28
9177 11471 11472 28
9178 11471 11473 28
9179 11471 11474 28
9180 11471 11475 28
9181 11476 11477 28
9182 11476 11478 28
9183 11476 11479 28
9184 11476 11480 28
9185 11481 11482 28
9186 11481 11483 28
9187 11481 11484 28
9188 11481 11485 28
9189 11486 11487 28
9190 11486 11488 28
9191 11486 11489 28
9192 11486 11490 28
9193 11491 11492 28
9194 11491 11493 28
9195 11491 11494 28
9196 11491 11495 28
9197 11496 11497 28
9198 11496 11498 28
9199 11496 11499 28
9200 11496 11500 28
9201 11501 11502 28
9202 11501 11503 28
9203 11501 11504 28
9204 11501 11505 28
9205 11506 11507 28
9206 11506 11508 28
9207 11506 11509 28
9208 11506 11510 28
9209 11511 11512 28
9210 11511 11513 28
9211 11511 11514 28
9212 11511 11515 28
9213 11516 11517 28
9214 11516 11518 28
9215 11516 11519 28
9216 11516 11520 28
9217 11521 11522 28
9218 11521 11523 28
9219 11521 11524 28
9220 11521 11525 28
9221 11526 11527 28
9222 11526 11528 28
9223 11526 11529 28
9224 11526 11530 28
9225 11531 11532 28
9226 11531 11533 28
9227 11531 11534 28
9228 11531 11535 28
9229 11536 11537 28
9230 11536 11538 28
9231 11536 11539 28
9232 11536 11540 28
9233 11541 11542 28
9234 11541 11543 28
9235 11541 11544 28
9236 11541 11545 28
9237 11546 11547 28
9238 11546 11548 28
9239 11546 11549 28
9240 11546 11550 28
9241 11551 11552 28
9242 11551 11553 28
9243 11551 11554 28
9244 11551 11555 28
9245 11556 11557 28
9246 11556 11558 28
9247 11556 11559 28
9248 11556 11560 28
9249 11561 11562 28
9250 11561 11563 28
9251 11561 11564 28
9252 11561 11565 28
9253 11566 11567 28
9254 11566 11568 28
9255 11566 11569 28
9256 11566 11570 28
9257 11571 11572 28
9258 11571 11573 28
9259 11571 11574 28
9260 11571 11575 28
9261 11576 11577 28
9262 11576 11578 28
9263 11576 11579 28
9264 11576 11580 28
9265 11581 11582 28
9266 11581 11583 28
9267 11581 11584 28
9268 11581 11585 28
9269 11586 11587 28
9270 11586 11588 28
9271 11586 11589 28
9272 11586 11590 28
9273 11591 11592 28
9274 11591 11593 28
9275 11591 11594 28
9276 11591 11595 28
9277 11596 11597 28
9278 11596 11598 28
9279 11596 11599 28
9280 11596 11600 28
9281 11601 11602 28
9282 11601 11603 28
9283 11601 11604 28
9284 11601 11605 28
9285 11606 11607 28
9286 11606 11608 28
9287 11606 11609 28
9288 11606 11610 28
9289 11611 11612 28
9290 11611 11613 28
9291 11611 11614 28
9292 11611 11615 28
9293 11616 11617 28
9294 11616 11618 28
9295 11616 11619 28
9296 11616 11620 28
9297 11621 11622 28
9298 11621 11623 28
9299 11621 11624 28
9300 11621 11625 28
9301 11626 11627 28
9302 11626 11628 28
9303 11626 11629 28
9304 11626 11630 28
9305 11631 11632 28
9306 11631 11633 28
9307 11631 11634 28
9308 11631 11635 28
9309 11636 11637 28
9310 11636 11638 28
9311 11636 11639 28
9312 11636 11640 28
9313 11641 11642 28
9314 11641 11643 28
9315 11641 11644 28
9316 11641 11645 28
9317 11646 11647 28
9318 11646 11648 28
9319 11646 11649 28
9320 11646 11650 28
9321 11651 11652 28
9322 11651 11653 28
9323 11651 11654 28
9324 11651 11655 28
9325 11656 11657 28
9326 11656 11658 28
9327 11656 11659 28
9328 11656 11660 28
9329 11661 11662 28
9330 11661 11663 28
9331 11661 11664 28
9332 11661 11665 28
9333 11666 11667 28
9334 11666 11668 28
9335 11666 11669 28
9336 11666 11670 28
9337 11671 11672 28
9338 11671 11673 28
9339 11671 11674 28
9340 11671 11675 28
9341 11676 11677 28
9342 11676 11678 28
9343 11676 11679 28
9344 11676 11680 28
9345 11681 11682 28
9346 11681 11683 28
9347 11681 11684 28
9348 11681 11685 28
9349 11686 11687 28
9350 11686 11688 28
9351 11686 11689 28
9352 11686 11690 28
9353 11691 11692 28
9354 11691 11693 28
9355 11691 11694 28
9356 11691 11695 28
9357 11696 11697 28
9358 11696 11698 28
9359 11696 11699 28
9360 11696 11700 28
9361 11701 11702 28
9362 11701 11703 28
9363 11701 11704 28
9364 11701 11705 28
9365 11706 11707 28
9366 11706 11708 28
9367 11706 11709 28
9368 11706 11710 28
9369 11711 11712 28
9370 11711 11713 28
9371 11711 11714 28
9372 11711 11715 28
9373 11716 11717 28
9374 11716 11718 28
9375 11716 11719 28
9376 11716 11720 28
9377 11721 11722 28
9378 11721 11723 28
9379 11721 11724 28
9380 11721 11725 28
9381 11726 11727 28
9382 11726 11728 28
9383 11726 11729 28
9384 11726 11730 28
9385 11731 11732 28
9386 11731 11733 28
9387 11731 11734 28
9388 11731 11735 28
9389 11736 11737 28
9390 11736 11738 28
9391 11736 11739 28
9392 11736 11740 28
9393 11741 11742 28
9394 11741 11743 28
9395 11741 11744 28
9396 11741 11745 28
9397 11746 11747 28
9398 11746 11748 28
9399 11746 11749 28
9400 11746 11750 28
9401 11751 11752 28
9402 11751 11753 28
9403 11751 11754 28
9404 11751 11755 28
9405 11756 11757 28
9406 11756 11758 28
9407 11756 11759 28
9408 11756 11760 28
9409 11761 11762 28
9410 11761 11763 28
9411 11761 11764 28
9412 11761 11765 28
9413 11766 11767 28
9414 11766 11768 28
9415 11766 11769 28
9416 11766 11770 28
9417 11771 11772 28
9418 11771 11773 28
9419 11771 11774 28
9420 11771 11775 28
9421 11776 11777 28
9422 11776 11778 28
9423 11776 11779 28
9424 11776 11780 28
9425 11781 11782 28
9426 11781 11783 28
9427 11781 11784 28
9428 11781 11785 28
9429 11786 11787 28
9430 11786 11788 28
9431 11786 11789 28
9432 11786 11790 28
9433 11791 11792 28
9434 11791 11793 28
9435 11791 11794 28
9436 11791 11795 28
9437 11796 11797 28
9438 11796 11798 28
9439 11796 11799 28
9440 11796 11800 28
9441 11801 11802 28
9442 11801 11803 28
9443 11801 11804 28
9444 11801 11805 28
9445 11806 11807 28
9446 11806 11808 28
9447 11806 11809 28
9448 11806 11810 28
9449 11811 11812 28
9450 11811 11813 28
9451 11811 11814 28
9452 11811 11815 28
9453 11816 11817 28
9454 11816 11818 28
9455 11816 11819 28
9456 11816 11820 28
9457 11821 11822 28
9458 11821 11823 28
9459 11821 11824 28
9460 11821 11825 28
9461 11826 11827 28
9462 11826 11828 28
9463 11826 11829 28
9464 11826 11830 28
9465 11831 11832 28
9466 11831 11833 28
9467 11831 11834 28
9468 11831 11835 28
9469 11836 11837 28
9470 11836 11838 28
9471 11836 11839 28
9472 11836 11840 28
9473 11841 11842 28
9474 11841 11843 28
9475 11841 11844 28
9476 11841 11845 28
9477 11846 11847 28
9478 11846 11848 28
9479 11846 11849 28
9480 11846 11850 28
9481 11851 11852 28
9482 11851 11853 28
9483 11851 11854 28
9484 11851 11855 28
9485 11856 11857 28
9486 11856 11858 28
9487 11856 11859 28
9488 11856 11860 28
9489 11861 11862 28
9490 11861 11863 28
9491 11861 11864 28
9492 11861 11865 28
9493 11866 11867 28
9494 11866 11868 28
9495 11866 11869 28
9496 11866 11870 28
9497 11871 11872 28
9498 11871 11873 28
9499 11871 11874 28
9500 11871 11875 28
9501 11876 11877 28
9502 11876 11878 28
9503 11876 11879 28
9504 11876 11880 28
9505 11881 11882 28
9506 11881 11883 28
9507 11881 11884 28
9508 11881 11885 28
9509 11886 11887 28
9510 11886 11888 28
9511 11886 11889 28
9512 11886 11890 28
9513 11891 11892 28
9514 11891 11893 28
9515 11891 11894 28
9516 11891 11895 28
9517 11896 11897 28
9518 11896 11898 28
9519 11896 11899 28
9520 11896 11900 28
9521 11901 11902 28
9522 11901 11903 28
9523 11901 11904 28
9524 11901 11905 28
9525 11906 11907 28
9526 11906 11908 28
9527 11906 11909 28
9528 11906 11910 28
9529 11911 11912 28
9530 11911 11913 28
9531 11911 11914 28
9532 11911 11915 28
9533 11916 11917 28
9534 11916 11918 28
9535 11916 11919 28
9536 11916 11920 28
9537 11921 11922 28
9538 11921 11923 28
9539 11921 11924 28
9540 11921 11925 28
9541 11926 11927 28
9542 11926 11928 28
9543 11926 11929 28
9544 11926 11930 28
9545 11931 11932 28
9546 11931 11933 28
9547 11931 11934 28
9548 11931 11935 28
9549 11936 11937 28
9550 11936 11938 28
9551 11936 11939 28
9552 11936 11940 28
9553 11941 11942 28
9554 11941 11943 28
9555 11941 11944 28
9556 11941 11945 28
9557 11946 11947 28
9558 11946 11948 28
9559 11946 11949 28
9560 11946 11950 28
9561 11951 11952 28
9562 11951 11953 28
9563 11951 11954 28
9564 11951 11955 28
9565 11956 11957 28
9566 11956 11958 28
9567 11956 11959 28
9568 11956 11960 28
9569 11961 11962 28
9570 11961 11963 28
9571 11961 11964 28
9572 11961 11965 28
9573 11966 11967 28
9574 11966 11968 28
9575 11966 11969 28
9576 11966 11970 28
9577 11971 11972 28
9578 11971 11973 28
9579 11971 11974 28
9580 11971 11975 28
9581 11976 11977 28
9582 11976 11978 28
9583 11976 11979 28
9584 11976 11980 28
9585 11981 11982 28
9586 11981 11983 28
9587 11981 11984 28
9588 11981 11985 28
9589 11986 11987 28
9590 11986 11988 28
9591 11986 11989 28
9592 11986 11990 28
9593 11991 11992 28
9594 11991 11993 28
9595 11991 11994 28
9596 11991 11995 28
9597 11996 11997 28
9598 11996 11998 28
9599 11996 11999 28
9600 11996 12000 28
9601 12001 12002 28
9602 12001 12003 28
9603 12001 12004 28
9604 12001 12005 28
9605 12006 12007 28
9606 12006 12008 28
9607 12006 12009 28
9608 12006 12010 28
9609 12011 12012 28
9610 12011 12013 28
9611 12011 12014 28
9612 12011 12015 28
9613 12016 12017 28
9614 12016 12018 28
9615 12016 12019 28
9616 12016 12020 28
9617 12021 12022 28
9618 12021 12023 28
9619 12021 12024 28
9620 12021 12025 28
9621 12026 12027 28
9622 12026 12028 28
9623 12026 12029 28
9624 12026 12030 28
9625 12031 12032 28
9626 12031 12033 28
9627 12031 12034 28
9628 12031 12035 28
9629 12036 12037 28
9630 12036 12038 28
9631 12036 12039 28
9632 12036 12040 28
9633 12041 12042 28
9634 12041 12043 28
9635 12041 12044 28
9636 12041 12045 28
9637 12046 12047 28
9638 12046 12048 28
9639 12046 12049 28
9640 12046 12050 28
9641 12051 12052 28
9642 12051 12053 28
9643 12051 12054 28
9644 12051 12055 28
9645 12056 12057 28
9646 12056 12058 28
9647 12056 12059 28
9648 12056 12060 28
9649 12061 12062 28
9650 12061 12063 28
9651 12061 12064 28
9652 12061 12065 28
9653 12066 12067 28
9654 12066 12068 28
9655 12066 12069 28
9656 12066 12070 28
9657 12071 12072 28
9658 12071 12073 28
9659 12071 12074 28
9660 12071 12075 28
9661 12076 12077 28
9662 12076 12078 28
9663 12076 12079 28
9664 12076 12080 28
9665 12081 12082 28
9666 12081 12083 28
9667 12081 12084 28
9668 12081 12085 28
9669 12086 12087 28
9670 12086 12088 28
9671 12086 12089 28
9672 12086 12090 28
9673 12091 12092 28
9674 12091 12093 28
9675 12091 12094 28
9676 12091 12095 28
9677 12096 12097 28
9678 12096 12098 28
9679 12096 12099 28
9680 12096 12100 28
9681 12101 12102 28
9682 12101 12103 28
9683 12101 12104 28
9684 12101 12105 28
9685 12106 12107 28
9686 12106 12108 28
9687 12106 12109 28
9688 12106 12110 28
9689 12111 12112 28
9690 12111 12113 28
9691 12111 12114 28
9692 12111 12115 28
9693 12116 12117 28
9694 12116 12118 28
9695 12116 12119 28
9696 12116 12120 28
9697 12121 12122 28
9698 12121 12123 28
9699 12121 12124 28
9700 12121 12125 28
9701 12126 12127 28
9702 12126 12128 28
9703 12126 12129 28
9704 12126 12130 28
9705 12131 12132 28
9706 12131 12133 28
9707 12131 12134 28
9708 12131 12135 28
9709 12136 12137 28
9710 12136 12138 28
9711 12136 12139 28
9712 12136 12140 28
9713 12141 12142 28
9714 12141 12143 28
9715 12141 12144 28
9716 12141 12145 28
9717 12146 12147 28
9718 12146 12148 28
9719 12146 12149 28
9720 12146 12150 28
9721 12151 12152 28
9722 12151 12153 28
9723 12151 12154 28
9724 12151 12155 28
9725 12156 12157 28
9726 12156 12158 28
9727 12156 12159 28
9728 12156 12160 28
9729 12161 12162 28
9730 12161 12163 28
9731 12161 12164 28
9732 12161 12165 28
9733 12166 12167 28
9734 12166 12168 28
9735 12166 12169 28
9736 12166 12170 28
9737 12171 12172 28
9738 12171 12173 28
9739 12171 12174 28
9740 12171 12175 28
9741 12176 12177 28
9742 12176 12178 28
9743 12176 12179 28
9744 12176 12180 28
9745 12181 12182 28
9746 12181 12183 28
9747 12181 12184 28
9748 12181 12185 28
9749 12186 12187 28
9750 12186 12188 28
9751 12186 12189 28
9752 12186 12190 28
9753 12191 12192 28
9754 12191 12193 28
9755 12191 12194 28
9756 12191 12195 28
9757 12196 12197 28
9758 12196 12198 28
9759 12196 12199 28
9760 12196 12200 28
9761 12201 12202 28
9762 12201 12203 28
9763 12201 12204 28
9764 12201 12205 28
9765 12206 12207 28
9766 12206 12208 28
9767 12206 12209 28
9768 12206 12210 28
9769 12211 12212 28
9770 12211 12213 28
9771 12211 12214 28
9772 12211 12215 28
9773 12216 12217 28
9774 12216 12218 28
9775 12216 12219 28
9776 12216 12220 28
9777 12221 12222 28
9778 12221 12223 28
9779 12221 12224 28
9780 12221 12225 28
9781 12226 12227 28
9782 12226 12228 28
9783 12226 12229 28
9784 12226 12230 28
9785 12231 12232 28
9786 12231 12233 28
9787 12231 12234 28
9788 12231 12235 28
9789 12236 12237 28
9790 12236 12238 28
9791 12236 12239 28
9792 12236 12240 28
9793 12241 12242 28
9794 12241 12243 28
9795 12241 12244 28
9796 12241 12245 28
9797 12246 12247 28
9798 12246 12248 28
9799 12246 12249 28
9800 12246 12250 28
9801 12251 12252 28
9802 12251 12253 28
9803 12251 12254 28
9804 12251 12255 28
9805 12256 12257 28
9806 12256 12258 28
9807 12256 12259 28
9808 12256 12260 28
9809 12261 12262 28
9810 12261 12263 28
9811 12261 12264 28
9812 12261 12265 28
9813 12266 12267 28
9814 12266 12268 28
9815 12266 12269 28
9816 12266 12270 28
9817 12271 12272 28
9818 12271 12273 28
9819 12271 12274 28
9820 12271 12275 28
9821 12276 12277 28
9822 12276 12278 28
9823 12276 12279 28
9824 12276 12280 28
9825 12281 12282 28
9826 12281 12283 28
9827 12281 12284 28
9828 12281 12285 28
9829 12286 12287 28
9830 12286 12288 28
9831 12286 12289 28
9832 12286 12290 28
9833 12291 12292 28
9834 12291 12293 28
9835 12291 12294 28
9836 12291 12295 28
9837 12296 12297 28
9838 12296 12298 28
9839 12296 12299 28
9840 12296 12300 28
9841 12301 12302 28
9842 12301 12303 28
9843 12301 12304 28
9844 12301 12305 28
9845 12306 12307 28
9846 12306 12308 28
9847 12306 12309 28
9848 12306 12310 28
9849 12311 12312 28
9850 12311 12313 28
9851 12311 12314 28
9852 12311 12315 28
9853 12316 12317 28
9854 12316 12318 28
9855 12316 12319 28
9856 12316 12320 28
9857 12321 12322 28
9858 12321 12323 28
9859 12321 12324 28
9860 12321 12325 28
9861 12326 12327 28
9862 12326 12328 28
9863 12326 12329 28
9864 12326 12330 28
9865 12331 12332 28
9866 12331 12333 28
9867 12331 12334 28
9868 12331 12335 28
9869 12336 12337 28
9870 12336 12338 28
9871 12336 12339 28
9872 12336 12340 28
9873 12341 12342 28
9874 12341 12343 28
9875 12341 12344 28
9876 12341 12345 28
9877 12346 12347 28
9878 12346 12348 28
9879 12346 12349 28
9880 12346 12350 28
9881 12351 12352 28
9882 12351 12353 28
9883 12351 12354 28
9884 12351 12355 28
9885 12356 12357 28
9886 12356 12358 28
9887 12356 12359 28
9888 12356 12360 28
9889 12361 12362 28
9890 12361 12363 28
9891 12361 12364 28
9892 12361 12365 28
9893 12366 12367 28
9894 12366 12368 28
9895 12366 12369 28
9896 12366 12370 28
9897 12371 12372 28
9898 12371 12373 28
9899 12371 12374 28
9900 12371 12375 28
9901 12376 12377 28
9902 12376 12378 28
9903 12376 12379 28
9904 12376 12380 28
9905 12381 12382 28
9906 12381 12383 28
9907 12381 12384 28
9908 12381 12385 28
9909 12386 12387 28
9910 12386 12388 28
9911 12386 12389 28
9912 12386 12390 28
9913 12391 12392 28
9914 12391 12393 28
9915 12391 12394 28
9916 12391 12395 28
9917 12396 12397 28
9918 12396 12398 28
9919 12396 12399 28
9920 12396 12400 28
9921 12401 12402 28
9922 12401 12403 28
9923 12401 12404 28
9924 12401 12405 28
9925 12406 12407 28
9926 12406 12408 28
9927 12406 12409 28
9928 12406 12410 28
9929 12411 12412 28
9930 12411 12413 28
9931 12411 12414 28
9932 12411 12415 28
9933 12416 12417 28
9934 12416 12418 28
9935 12416 12419 28
9936 12416 12420 28
9937 12421 12422 28
9938 12421 12423 28
9939 12421 12424 28
9940 12421 12425 28
9941 12426 12427 28
9942 12426 12428 28
9943 12426 12429 28
9944 12426 12430 28
9945 12431 12432 28
9946 12431 12433 28
9947 12431 12434 28
9948 12431 12435 28
9949 12436 12437 28
9950 12436 12438 28
9951 12436 12439 28
9952 12436 12440 28
9953 12441 12442 28
9954 12441 12443 28
9955 12441 12444 28
9956 12441 12445 28
9957 12446 12447 28
9958 12446 12448 28
9959 12446 12449 28
9960 12446 12450 28
9961 12451 12452 28
9962 12451 12453 28
9963 12451 12454 28
9964 12451 12455 28
9965 12456 12457 28
9966 12456 12458 28
9967 12456 12459 28
9968 12456 12460 28
9969 12461 12462 28
9970 12461 12463 28
9971 12461 12464 28
9972 12461 12465 28
9973 12466 12467 28
9974 12466 12468 28
9975 12466 12469 28
9976 12466 12470 28
9977 12471 12472 28
9978 12471 12473 28
9979 12471 12474 28
9980 12471 12475 28
9981 12476 12477 28
9982 12476 12478 28
9983 12476 12479 28
9984 12476 12480 28
9985 12481 12482 28
9986 12481 12483 28
9987 12481 12484 28
9988 12481 12485 28
9989 12486 12487 28
9990 12486 12488 28
9991 12486 12489 28
9992 12486 12490 28
9993 12491 12492 28
9994 12491 12493 28
9995 12491 12494 28
9996 12491 12495 28
9997 12496 12497 28
9998 12496 12498 28
9999 12496 12499 28
10000 12496 12500 28
10001 12501 12502 28
10002 12501 12503 28
10003 12501 12504 28
10004 12501 12505 28
10005 12506 12507 28
10006 12506 12508 28
10007 12506 12509 28
10008 12506 12510 28
10009 12511 12512 28
10010 12511 12513 28
10011 12511 12514 28
10012 12511 12515 28
10013 12516 12517 28
10014 12516 12518 28
10015 12516 12519 28
10016 12516 12520 28
10017 12521 12522 28
10018 12521 12523 28
10019 12521 12524 28
10020 12521 12525 28
10021 12526 12527 28
10022 12526 12528 28
10023 12526 12529 28
10024 12526 12530 28
10025 12531 12532 28
10026 12531 12533 28
10027 12531 12534 28
10028 12531 12535 28
10029 12536 12537 28
10030 12536 12538 28
10031 12536 12539 28
10032 12536 12540 28
10033 12541 12542 28
10034 12541 12543 28
10035 12541 12544 28
10036 12541 12545 28
10037 12546 12547 28
10038 12546 12548 28
10039 12546 12549 28
10040 12546 12550 28
10041 12551 12552 28
10042 12551 12553 28
10043 12551 12554 28
10044 12551 12555 28
10045 12556 12557 28
10046 12556 12558 28
10047 12556 12559 28
10048 12556 12560 28
10049 12561 12562 28
10050 12561 12563 28
10051 12561 12564 28
10052 12561 12565 28
10053 12566 12567 28
10054 12566 12568 28
10055 12566 12569 28
10056 12566 12570 28
10057 12571 12572 28
10058 12571 12573 28
10059 12571 12574 28
10060 12571 12575 28
10061 12576 12577 28
10062 12576 12578 28
10063 12576 12579 28
10064 12576 12580 28
10065 12581 12582 28
10066 12581 12583 28
10067 12581 12584 28
10068 12581 12585 28
10069 12586 12587 28
10070 12586 12588 28
10071 12586 12589 28
10072 12586 12590 28
10073 12591 12592 28
10074 12591 12593 28
10075 12591 12594 28
10076 12591 12595 28
10077 12596 12597 28
10078 12596 12598 28
10079 12596 12599 28
10080 12596 12600 28
10081 12601 12602 28
10082 12601 12603 28
10083 12601 12604 28
10084 12601 12605 28
10085 12606 12607 28
10086 12606 12608 28
10087 12606 12609 28
10088 12606 12610 28
10089 12611 12612 28
10090 12611 12613 28
10091 12611 12614 28
10092 12611 12615 28
10093 12616 12617 28
10094 12616 12618 28
10095 12616 12619 28
10096 12616 12620 28
10097 12621 12622 28
10098 12621 12623 28
10099 12621 12624 28
10100 12621 12625 28
10101 12626 12627 28
10102 12626 12628 28
10103 12626 12629 28
10104 12626 12630 28
10105 12631 12632 28
10106 12631 12633 28
10107 12631 12634 28
10108 12631 12635 28
10109 12636 12637 28
10110 12636 12638 28
10111 12636 12639 28
10112 12636 12640 28
10113 12641 12642 28
10114 12641 12643 28
10115 12641 12644 28
10116 12641 12645 28
10117 12646 12647 28
10118 12646 12648 28
10119 12646 12649 28
10120 12646 12650 28
10121 12651 12652 28
10122 12651 12653 28
10123 12651 12654 28
10124 12651 12655 28
10125 12656 12657 28
10126 12656 12658 28
10127 12656 12659 28
10128 12656 12660 28
10129 12661 12662 28
10130 12661 12663 28
10131 12661 12664 28
10132 12661 12665 28
10133 12666 12667 28
10134 12666 12668 28
10135 12666 12669 28
10136 12666 12670 28
10137 12671 12672 28
10138 12671 12673 28
10139 12671 12674 28
10140 12671 12675 28
10141 12676 12677 28
10142 12676 12678 28
10143 12676 12679 28
10144 12676 12680 28
10145 12681 12682 28
10146 12681 12683 28
10147 12681 12684 28
10148 12681 12685 28
10149 12686 12687 28
10150 12686 12688 28
10151 12686 12689 28
10152 12686 12690 28
10153 12691 12692 28
10154 12691 12693 28
10155 12691 12694 28
10156 12691 12695 28
10157 12696 12697 28
10158 12696 12698 28
10159 12696 12699 28
10160 12696 12700 28
10161 12701 12702 28
10162 12701 12703 28
10163 12701 12704 28
10164 12701 12705 28
10165 12706 12707 28
10166 12706 12708 28
10167 12706 12709 28
10168 12706 12710 28
10169 12711 12712 28
10170 12711 12713 28
10171 12711 12714 28
10172 12711 12715 28
10173 12716 12717 28
10174 12716 12718 28
10175 12716 12719 28
10176 12716 12720 28
10177 12721 12722 28
10178 12721 12723 28
10179 12721 12724 28
10180 12721 12725 28
10181 12726 12727 28
10182 12726 12728 28
10183 12726 12729 28
10184 12726 12730 28
10185 12731 12732 28
10186 12731 12733 28
10187 12731 12734 28
10188 12731 12735 28
10189 12736 12737 28
10190 12736 12738 28
10191 12736 12739 28
10192 12736 12740 28
10193 12741 12742 28
10194 12741 12743 28
10195 12741 12744 28
10196 12741 12745 28
10197 12746 12747 28
10198 12746 12748 28
10199 12746 12749 28
10200 12746 12750 28
10201 12751 12752 28
10202 12751 12753 28
10203 12751 12754 28
10204 12751 12755 28
10205 12756 12757 28
10206 12756 12758 28
10207 12756 12759 28
10208 12756 12760 28
10209 12761 12762 28
10210 12761 12763 28
10211 12761 12764 28
10212 12761 12765 28
10213 12766 12767 28
10214 12766 12768 28
10215 12766 12769 28
10216 12766 12770 28
10217 12771 12772 28
10218 12771 12773 28
10219 12771 12774 28
10220 12771 12775 28
10221 12776 12777 28
10222 12776 12778 28
10223 12776 12779 28
10224 12776 12780 28
10225 12781 12782 28
10226 12781 12783 28
10227 12781 12784 28
10228 12781 12785 28
10229 12786 12787 28
10230 12786 12788 28
10231 12786 12789 28
10232 12786 12790 28
10233 12791 12792 28
10234 12791 12793 28
10235 12791 12794 28
10236 12791 12795 28
10237 12796 12797 28
10238 12796 12798 28
10239 12796 12799 28
10240 12796 12800 28
10241 12801 12802 28
10242 12801 12803 28
10243 12801 12804 28
10244 12801 12805 28
10245 12806 12807 28
10246 12806 12808 28
10247 12806 12809 28
10248 12806 12810 28
10249 12811 12812 28
10250 12811 12813 28
10251 12811 12814 28
10252 12811 12815 28
10253 12816 12817 28
10254 12816 12818 28
10255 12816 12819 28
10256 12816 12820 28
10257 12821 12822 28
10258 12821 12823 28
10259 12821 12824 28
10260 12821 12825 28
10261 12826 12827 28
10262 12826 12828 28
10263 12826 12829 28
10264 12826 12830 28
10265 12831 12832 28
10266 12831 12833 28
10267 12831 12834 28
10268 12831 12835 28
10269 12836 12837 28
10270 12836 12838 28
10271 12836 12839 28
10272 12836 12840 28
10273 12841 12842 28
10274 12841 12843 28
10275 12841 12844 28
10276 12841 12845 28
10277 12846 12847 28
10278 12846 12848 28
10279 12846 12849 28
10280 12846 12850 28
10281 12851 12852 28
10282 12851 12853 28
10283 12851 12854 28
10284 12851 12855 28
10285 12856 12857 28
10286 12856 12858 28
10287 12856 12859 28
10288 12856 12860 28
10289 12861 12862 28
10290 12861 12863 28
10291 12861 12864 28
10292 12861 12865 28
10293 12866 12867 28
10294 12866 12868 28
10295 12866 12869 28
10296 12866 12870 28
10297 12871 12872 28
10298 12871 12873 28
10299 12871 12874 28
10300 12871 12875 28
10301 12876 12877 28
10302 12876 12878 28
10303 12876 12879 28
10304 12876 12880 28
10305 12881 12882 28
10306 12881 12883 28
10307 12881 12884 28
10308 12881 12885 28
10309 12886 12887 28
10310 12886 12888 28
10311 12886 12889 28
10312 12886 12890 28
10313 12891 12892 28
10314 12891 12893 28
10315 12891 12894 28
10316 12891 12895 28
10317 12896 12897 28
10318 12896 12898 28
10319 12896 12899 28
10320 12896 12900 28
10321 12901 12902 28
10322 12901 12903 28
10323 12901 12904 28
10324 12901 12905 28
10325 12906 12907 28
10326 12906 12908 28
10327 12906 12909 28
10328 12906 12910 28
10329 12911 12912 28
10330 12911 12913 28
10331 12911 12914 28
10332 12911 12915 28
10333 12916 12917 28
10334 12916 12918 28
10335 12916 12919 28
10336 12916 12920 28
10337 12921 12922 28
10338 12921 12923 28
10339 12921 12924 28
10340 12921 12925 28
10341 12926 12927 28
10342 12926 12928 28
10343 12926 12929 28
10344 12926 12930 28
10345 12931 12932 28
10346 12931 12933 28
10347 12931 12934 28
10348 12931 12935 28
10349 12936 12937 28
10350 12936 12938 28
10351 12936 12939 28
10352 12936 12940 28
10353 12941 12942 28
10354 12941 12943 28
10355 12941 12944 28
10356 12941 12945 28
10357 12946 12947 28
10358 12946 12948 28
10359 12946 12949 28
10360 12946 12950 28
10361 12951 12952 28
10362 12951 12953 28
10363 12951 12954 28
10364 12951 12955 28
10365 12956 12957 28
10366 12956 12958 28
10367 12956 12959 28
10368 12956 12960 28
10369 12961 12962 28
10370 12961 12963 28
10371 12961 12964 28
10372 12961 12965 28
10373 12966 12967 28
10374 12966 12968 28
10375 12966 12969 28
10376 12966 12970 28
10377 12971 12972 28
10378 12971 12973 28
10379 12971 12974 28
10380 12971 12975 28
10381 12976 12977 28
10382 12976 12978 28
10383 12976 12979 28
10384 12976 12980 28
10385 12981 12982 28
10386 12981 12983 28
10387 12981 12984 28
10388 12981 12985 28
10389 12986 12987 28
10390 12986 12988 28
10391 12986 12989 28
10392 12986 12990 28
10393 12991 12992 28
10394 12991 12993 28
10395 12991 12994 28
10396 12991 12995 28
10397 12996 12997 28
10398 12996 12998 28
10399 12996 12999 28
10400 12996 13000 28
10401 13001 13002 28
10402 13001 13003 28
10403 13001 13004 28
10404 13001 13005 28
10405 13006 13007 28
10406 13006 13008 28
10407 13006 13009 28
10408 13006 13010 28
10409 13011 13012 28
10410 13011 13013 28
10411 13011 13014 28
10412 13011 13015 28
10413 13016 13017 28
10414 13016 13018 28
10415 13016 13019 28
10416 13016 13020 28
10417 13021 13022 28
10418 13021 13023 28
10419 13021 13024 28
10420 13021 13025 28
10421 13026 13027 28
10422 13026 13028 28
10423 13026 13029 28
10424 13026 13030 28
10425 13031 13032 28
10426 13031 13033 28
10427 13031 13034 28
10428 13031 13035 28
10429 13036 13037 28
10430 13036 13038 28
10431 13036 13039 28
10432 13036 13040 28
10433 13041 13042 28
10434 13041 13043 28
10435 13041 13044 28
10436 13041 13045 28
10437 13046 13047 28
10438 13046 13048 28
10439 13046 13049 28
10440 13046 13050 28
10441 13051 13052 28
10442 13051 13053 28
10443 13051 13054 28
10444 13051 13055 28
10445 13056 13057 28
10446 13056 13058 28
10447 13056 13059 28
10448 13056 13060 28
10449 13061 13062 28
10450 13061 13063 28
10451 13061 13064 28
10452 13061 13065 28
10453 13066 13067 28
10454 13066 13068 28
10455 13066 13069 28
10456 13066 13070 28
10457 13071 13072 28
10458 13071 13073 28
10459 13071 13074 28
10460 13071 13075 28
10461 13076 13077 28
10462 13076 13078 28
10463 13076 13079 28
10464 13076 13080 28
10465 13081 13082 28
10466 13081 13083 28
10467 13081 13084 28
10468 13081 13085 28
10469 13086 13087 28
10470 13086 13088 28
10471 13086 13089 28
10472 13086 13090 28
10473 13091 13092 28
10474 13091 13093 28
10475 13091 13094 28
10476 13091 13095 28
10477 13096 13097 28
10478 13096 13098 28
10479 13096 13099 28
10480 13096 13100 28
10481 13101 13102 28
10482 13101 13103 28
10483 13101 13104 28
10484 13101 13105 28
10485 13106 13107 28
10486 13106 13108 28
10487 13106 13109 28
10488 13106 13110 28
10489 13111 13112 28
10490 13111 13113 28
10491 13111 13114 28
10492 13111 13115 28
10493 13116 13117 28
10494 13116 13118 28
10495 13116 13119 28
10496 13116 13120 28
10497 13121 13122 28
10498 13121 13123 28
10499 13121 13124 28
10500 13121 13125 28
10501 13126 13127 28
10502 13126 13128 28
10503 13126 13129 28
10504 13126 13130 28
10505 13131 13132 28
10506 13131 13133 28
10507 13131 13134 28
10508 13131 13135 28
10509 13136 13137 28
10510 13136 13138 28
10511 13136 13139 28
10512 13136 13140 28
10513 13141 13142 28
10514 13141 13143 28
10515 13141 13144 28
10516 13141 13145 28
10517 13146 13147 28
10518 13146 13148 28
10519 13146 13149 28
10520 13146 13150 28
10521 13151 13152 28
10522 13151 13153 28
10523 13151 13154 28
10524 13151 13155 28
10525 13156 13157 28
10526 13156 13158 28
10527 13156 13159 28
10528 13156 13160 28
10529 13161 13162 28
10530 13161 13163 28
10531 13161 13164 28
10532 13161 13165 28
10533 13166 13167 28
10534 13166 13168 28
10535 13166 13169 28
10536 13166 13170 28
10537 13171 13172 28
10538 13171 13173 28
10539 13171 13174 28
10540 13171 13175 28
10541 13176 13177 28
10542 13176 13178 28
10543 13176 13179 28
10544 13176 13180 28
10545 13181 13182 28
10546 13181 13183 28
10547 13181 13184 28
10548 13181 13185 28
10549 13186 13187 28
10550 13186 13188 28
10551 13186 13189 28
10552 13186 13190 28
10553 13191 13192 28
10554 13191 13193 28
10555 13191 13194 28
10556 13191 13195 28
10557 13196 13197 28
10558 13196 13198 28
10559 13196 13199 28
10560 13196 13200 28
10561 13201 13202 28
10562 13201 13203 28
10563 13201 13204 28
10564 13201 13205 28
10565 13206 13207 28
10566 13206 13208 28
10567 13206 13209 28
10568 13206 13210 28
10569 13211 13212 28
10570 13211 13213 28
10571 13211 13214 28
10572 13211 13215 28
10573 13216 13217 28
10574 13216 13218 28
10575 13216 13219 28
10576 13216 13220 28
10577 13221 13222 28
10578 13221 13223 28
10579 13221 13224 28
10580 13221 13225 28
10581 13226 13227 28
10582 13226 13228 28
10583 13226 13229 28
10584 13226 13230 28
10585 13231 13232 28
10586 13231 13233 28
10587 13231 13234 28
10588 13231 13235 28
10589 13236 13237 28
10590 13236 13238 28
10591 13236 13239 28
10592 13236 13240 28
10593 13241 13242 28
10594 13241 13243 28
10595 13241 13244 28
10596 13241 13245 28
10597 13246 13247 28
10598 13246 13248 28
10599 13246 13249 28
10600 13246 13250 28
10601 13251 13252 28
10602 13251 13253 28
10603 13251 13254 28
10604 13251 13255 28
10605 13256 13257 28
10606 13256 13258 28
10607 13256 13259 28
10608 13256 13260 28
10609 13261 13262 28
10610 13261 13263 28
10611 13261 13264 28
10612 13261 13265 28
10613 13266 13267 28
10614 13266 13268 28
10615 13266 13269 28
10616 13266 13270 28
10617 13271 13272 28
10618 13271 13273 28
10619 13271 13274 28
10620 13271 13275 28
10621 13276 13277 28
10622 13276 13278 28
10623 13276 13279 28
10624 13276 13280 28
10625 13281 13282 28
10626 13281 13283 28
10627 13281 13284 28
10628 13281 13285 28
10629 13286 13287 28
10630 13286 13288 28
10631 13286 13289 28
10632 13286 13290 28
10633 13291 13292 28
10634 13291 13293 28
10635 13291 13294 28
10636 13291 13295 28
10637 13296 13297 28
10638 13296 13298 28
10639 13296 13299 28
10640 13296 13300 28
10641 13301 13302 28
10642 13301 13303 28
10643 13301 13304 28
10644 13301 13305 28
10645 13306 13307 28
10646 13306 13308 28
10647 13306 13309 28
10648 13306 13310 28
10649 13311 13312 28
10650 13311 13313 28
10651 13311 13314 28
10652 13311 13315 28
10653 13316 13317 28
10654 13316 13318 28
10655 13316 13319 28
10656 13316 13320 28
10657 13321 13322 28
10658 13321 13323 28
10659 13321 13324 28
10660 13321 13325 28
10661 13326 13327 28
10662 13326 13328 28
10663 13326 13329 28
10664 13326 13330 28
10665 13331 13332 28
10666 13331 13333 28
10667 13331 13334 28
10668 13331 13335 28
10669 13336 13337 28
10670 13336 13338 28
10671 13336 13339 28
10672 13336 13340 28
10673 13341 13342 28
10674 13341 13343 28
10675 13341 13344 28
10676 13341 13345 28
10677 13346 13347 28
10678 13346 13348 28
10679 13346 13349 28
10680 13346 13350 28
10681 13351 13352 28
10682 13351 13353 28
10683 13351 13354 28
10684 13351 13355 28
10685 13356 13357 28
10686 13356 13358 28
10687 13356 13359 28
10688 13356 13360 28
10689 13361 13362 28
10690 13361 13363 28
10691 13361 13364 28
10692 13361 13365 28
10693 13366 13367 28
10694 13366 13368 28
10695 13366 13369 28
10696 13366 13370 28
10697 13371 13372 28
10698 13371 13373 28
10699 13371 13374 28
10700 13371 13375 28
10701 13376 13377 28
10702 13376 13378 28
10703 13376 13379 28
10704 13376 13380 28
10705 13381 13382 28
10706 13381 13383 28
10707 13381 13384 28
10708 13381 13385 28
10709 13386 13387 28
10710 13386 13388 28
10711 13386 13389 28
10712 13386 13390 28
10713 13391 13392 28
10714 13391 13393 28
10715 13391 13394 28
10716 13391 13395 28
10717 13396 13397 28
10718 13396 13398 28
10719 13396 13399 28
10720 13396 13400 28
10721 13401 13402 28
10722 13401 13403 28
10723 13401 13404 28
10724 13401 13405 28
10725 13406 13407 28
10726 13406 13408 28
10727 13406 13409 28
10728 13406 13410 28
10729 13411 13412 28
10730 13411 13413 28
10731 13411 13414 28
10732 13411 13415 28
10733 13416 13417 28
10734 13416 13418 28
10735 13416 13419 28
10736 13416 13420 28
10737 13421 13422 28
10738 13421 13423 28
10739 13421 13424 28
10740 13421 13425 28
10741 13426 13427 28
10742 13426 13428 28
10743 13426 13429 28
10744 13426 13430 28
10745 13431 13432 28
10746 13431 13433 28
10747 13431 13434 28
10748 13431 13435 28
10749 13436 13437 28
10750 13436 13438 28
10751 13436 13439 28
10752 13436 13440 28
10753 13441 13442 28
10754 13441 13443 28
10755 13441 13444 28
10756 13441 13445 28
10757 13446 13447 28
10758 13446 13448 28
10759 13446 13449 28
10760 13446 13450 28
10761 13451 13452 28
10762 13451 13453 28
10763 13451 13454 28
10764 13451 13455 28
10765 13456 13457 28
10766 13456 13458 28
10767 13456 13459 28
10768 13456 13460 28
10769 13461 13462 28
10770 13461 13463 28
10771 13461 13464 28
10772 13461 13465 28
10773 13466 13467 28
10774 13466 13468 28
10775 13466 13469 28
10776 13466 13470 28
10777 13471 13472 28
10778 13471 13473 28
10779 13471 13474 28
10780 13471 13475 28
10781 13476 13477 28
10782 13476 13478 28
10783 13476 13479 28
10784 13476 13480 28
10785 13481 13482 28
10786 13481 13483 28
10787 13481 13484 28
10788 13481 13485 28
10789 13486 13487 28
10790 13486 13488 28
10791 13486 13489 28
10792 13486 13490 28
10793 13491 13492 28
10794 13491 13493 28
10795 13491 13494 28
10796 13491 13495 28
10797 13496 13497 28
10798 13496 13498 28
10799 13496 13499 28
10800 13496 13500 28
10801 13501 13502 28
10802 13501 13503 28
10803 13501 13504 28
10804 13501 13505 28
10805 13506 13507 28
10806 13506 13508 28
10807 13506 13509 28
10808 13506 13510 28
10809 13511 13512 28
10810 13511 13513 28
10811 13511 13514 28
10812 13511 13515 28
10813 13516 13517 28
10814 13516 13518 28
10815 13516 13519 28
10816 13516 13520 28
10817 13521 13522 28
10818 13521 13523 28
10819 13521 13524 28
10820 13521 13525 28
10821 13526 13527 28
10822 13526 13528 28
10823 13526 13529 28
10824 13526 13530 28
10825 13531 13532 28
10826 13531 13533 28
10827 13531 13534 28
10828 13531 13535 28
10829 13536 13537 28
10830 13536 13538 28
10831 13536 13539 28
10832 13536 13540 28
10833 13541 13542 28
10834 13541 13543 28
10835 13541 13544 28
10836 13541 13545 28
10837 13546 13547 28
10838 13546 13548 28
10839 13546 13549 28
10840 13546 13550 28
10841 13551 13552 28
10842 13551 13553 28
10843 13551 13554 28
10844 13551 13555 28
10845 13556 13557 28
10846 13556 13558 28
10847 13556 13559 28
10848 13556 13560 28
10849 13561 13562 28
10850 13561 13563 28
10851 13561 13564 28
10852 13561 13565 28
10853 13566 13567 28
10854 13566 13568 28
10855 13566 13569 28
10856 13566 13570 28
10857 13571 13572 28
10858 13571 13573 28
10859 13571 13574 28
10860 13571 13575 28
10861 13576 13577 28
10862 13576 13578 28
10863 13576 13579 28
10864 13576 13580 28
10865 13581 13582 28
10866 13581 13583 28
10867 13581 13584 28
10868 13581 13585 28
10869 13586 13587 28
10870 13586 13588 28
10871 13586 13589 28
10872 13586 13590 28
10873 13591 13592 28
10874 13591 13593 28
10875 13591 13594 28
10876 13591 13595 28
10877 13596 13597 28
10878 13596 13598 28
10879 13596 13599 28
10880 13596 13600 28
10881 13601 13602 28
10882 13601 13603 28
10883 13601 13604 28
10884 13601 13605 28
10885 13606 13607 28
10886 13606 13608 28
10887 13606 13609 28
10888 13606 13610 28
10889 13611 13612 28
10890 13611 13613 28
10891 13611 13614 28
10892 13611 13615 28
10893 13616 13617 28
10894 13616 13618 28
10895 13616 13619 28
10896 13616 13620 28
10897 13621 13622 28
10898 13621 13623 28
10899 13621 13624 28
10900 13621 13625 28
10901 13626 13627 28
10902 13626 13628 28
10903 13626 13629 28
10904 13626 13630 28
10905 13631 13632 28
10906 13631 13633 28
10907 13631 13634 28
10908 13631 13635 28
10909 13636 13637 28
10910 13636 13638 28
10911 13636 13639 28
10912 13636 13640 28
10913 13641 13642 28
10914 13641 13643 28
10915 13641 13644 28
10916 13641 13645 28
10917 13646 13647 28
10918 13646 13648 28
10919 13646 13649 28
10920 13646 13650 28
10921 13651 13652 28
10922 13651 13653 28
10923 13651 13654 28
10924 13651 13655 28
10925 13656 13657 28
10926 13656 13658 28
10927 13656 13659 28
10928 13656 13660 28
10929 13661 13662 28
10930 13661 13663 28
10931 13661 13664 28
10932 13661 13665 28
10933 13666 13667 28
10934 13666 13668 28
10935 13666 13669 28
10936 13666 13670 28
10937 13671 13672 28
10938 13671 13673 28
10939 13671 13674 28
10940 13671 13675 28
10941 13676 13677 28
10942 13676 13678 28
10943 13676 13679 28
10944 13676 13680 28
10945 13681 13682 28
10946 13681 13683 28
10947 13681 13684 28
10948 13681 13685 28
10949 13686 13687 28
10950 13686 13688 28
10951 13686 13689 28
10952 13686 13690 28
10953 13691 13692 28
10954 13691 13693 28
10955 13691 13694 28
10956 13691 13695 28
10957 13696 13697 28
10958 13696 13698 28
10959 13696 13699 28
10960 13696 13700 28
10961 13701 13702 28
10962 13701 13703 28
10963 13701 13704 28
10964 13701 13705 28
10965 13706 13707 28
10966 13706 13708 28
10967 13706 13709 28
10968 13706 13710 28
10969 13711 13712 28
10970 13711 13713 28
10971 13711 13714 28
10972 13711 13715 28
10973 13716 13717 28
10974 13716 13718 28
10975 13716 13719 28
10976 13716 13720 28
10977 13721 13722 28
10978 13721 13723 28
10979 13721 13724 28
10980 13721 13725 28
10981 13726 13727 28
10982 13726 13728 28
10983 13726 13729 28
10984 13726 13730 28
10985 13731 13732 28
10986 13731 13733 28
10987 13731 13734 28
10988 13731 13735 28
10989 13736 13737 28
10990 13736 13738 28
10991 13736 13739 28
10992 13736 13740 28
10993 13741 13742 28
10994 13741 13743 28
10995 13741 13744 28
10996 13741 13745 28
10997 13746 13747 28
10998 13746 13748 28
10999 13746 13749 28
11000 13746 13750 28
11001 13751 13752 28
11002 13751 13753 28
11003 13751 13754 28
11004 13751 13755 28
11005 13756 13757 28
11006 13756 13758 28
11007 13756 13759 28
11008 13756 13760 28
11009 13761 13762 28
11010 13761 13763 28
11011 13761 13764 28
11012 13761 13765 28
11013 13766 13767 28
11014 13766 13768 28
11015 13766 13769 28
11016 13766 13770 28
11017 13771 13772 28
11018 13771 13773 28
11019 13771 13774 28
11020 13771 13775 28
11021 13776 13777 28
11022 13776 13778 28
11023 13776 13779 28
11024 13776 13780 28
11025 13781 13782 28
11026 13781 13783 28
11027 13781 13784 28
11028 13781 13785 28
11029 13786 13787 28
11030 13786 13788 28
11031 13786 13789 28
11032 13786 13790 28
11033 13791 13792 28
11034 13791 13793 28
11035 13791 13794 28
11036 13791 13795 28
11037 13796 13797 28
11038 13796 13798 28
11039 13796 13799 28
11040 13796 13800 28
11041 13801 13802 28
11042 13801 13803 28
11043 13801 13804 28
11044 13801 13805 28
11045 13806 13807 28
11046 13806 13808 28
11047 13806 13809 28
11048 13806 13810 28
11049 13811 13812 28
11050 13811 13813 28
11051 13811 13814 28
11052 13811 13815 28
11053 13816 13817 28
11054 13816 13818 28
11055 13816 13819 28
11056 13816 13820 28
11057 13821 13822 28
11058 13821 13823 28
11059 13821 13824 28
11060 13821 13825 28
11061 13826 13827 28
11062 13826 13828 28
11063 13826 13829 28
11064 13826 13830 28
11065 13831 13832 28
11066 13831 13833 28
11067 13831 13834 28
11068 13831 13835 28
11069 13836 13837 28
11070 13836 13838 28
11071 13836 13839 28
11072 13836 13840 28
11073 13841 13842 28
11074 13841 13843 28
11075 13841 13844 28
11076 13841 13845 28
11077 13846 13847 28
11078 13846 13848 28
11079 13846 13849 28
11080 13846 13850 28
11081 13851 13852 28
11082 13851 13853 28
11083 13851 13854 28
11084 13851 13855 28
11085 13856 13857 28
11086 13856 13858 28
11087 13856 13859 28
11088 13856 13860 28
11089 13861 13862 28
11090 13861 13863 28
11091 13861 13864 28
11092 13861 13865 28
11093 13866 13867 28
11094 13866 13868 28
11095 13866 13869 28
11096 13866 13870 28
11097 13871 13872 28
11098 13871 13873 28
11099 13871 13874 28
11100 13871 13875 28
11101 13876 13877 28
11102 13876 13878 28
11103 13876 13879 28
11104 13876 13880 28
11105 13881 13882 28
11106 13881 13883 28
11107 13881 13884 28
11108 13881 13885 28
11109 13886 13887 28
11110 13886 13888 28
11111 13886 13889 28
11112 13886 13890 28
11113 13891 13892 28
11114 13891 13893 28
11115 13891 13894 28
11116 13891 13895 28
11117 13896 13897 28
11118 13896 13898 28
11119 13896 13899 28
11120 13896 13900 28
11121 13901 13902 28
11122 13901 13903 28
11123 13901 13904 28
11124 13901 13905 28
11125 13906 13907 28
11126 13906 13908 28
11127 13906 13909 28
11128 13906 13910 28
11129 13911 13912 28
11130 13911 13913 28
11131 13911 13914 28
11132 13911 13915 28
11133 13916 13917 28
11134 13916 13918 28
11135 13916 13919 28
11136 13916 13920 28
11137 13921 13922 28
11138 13921 13923 28
11139 13921 13924 28
11140 13921 13925 28
11141 13926 13927 28
11142 13926 13928 28
11143 13926 13929 28
11144 13926 13930 28
11145 13931 13932 28
11146 13931 13933 28
11147 13931 13934 28
11148 13931 13935 28
11149 13936 13937 28
11150 13936 13938 28
11151 13936 13939 28
11152 13936 13940 28
11153 13941 13942 28
11154 13941 13943 28
11155 13941 13944 28
11156 13941 13945 28
11157 13946 13947 28
11158 13946 13948 28
11159 13946 13949 28
11160 13946 13950 28
11161 13951 13952 28
11162 13951 13953 28
11163 13951 13954 28
11164 13951 13955 28
11165 13956 13957 28
11166 13956 13958 28
11167 13956 13959 28
11168 13956 13960 28
11169 13961 13962 28
11170 13961 13963 28
11171 13961 13964 28
11172 13961 13965 28
11173 13966 13967 28
11174 13966 13968 28
11175 13966 13969 28
11176 13966 13970 28
11177 13971 13972 28
11178 13971 13973 28
11179 13971 13974 28
11180 13971 13975 28
11181 13976 13977 28
11182 13976 13978 28
11183 13976 13979 28
11184 13976 13980 28
11185 13981 13982 28
11186 13981 13983 28
11187 13981 13984 28
11188 13981 13985 28
11189 13986 13987 28
11190 13986 13988 28
11191 13986 13989 28
11192 13986 13990 28
11193 13991 13992 28
11194 13991 13993 28
11195 13991 13994 28
11196 13991 13995 28
11197 13996 13997 28
11198 13996 13998 28
11199 13996 13999 28
11200 13996 14000 28
11201 14001 14002 28
11202 14001 14003 28
11203 14001 14004 28
11204 14001 14005 28
11205 14006 14007 28
11206 14006 14008 28
11207 14006 14009 28
11208 14006 14010 28
11209 14011 14012 28
11210 14011 14013 28
11211 14011 14014 28
11212 14011 14015 28
11213 14016 14017 28
11214 14016 14018 28
11215 14016 14019 28
11216 14016 14020 28
11217 14021 14022 28
11218 14021 14023 28
11219 14021 14024 28
11220 14021 14025 28
11221 14026 14027 28
11222 14026 14028 28
11223 14026 14029 28
11224 14026 14030 28
11225 14031 14032 28
11226 14031 14033 28
11227 14031 14034 28
11228 14031 14035 28
11229 14036 14037 28
11230 14036 14038 28
11231 14036 14039 28
11232 14036 14040 28
11233 14041 14042 28
11234 14041 14043 28
11235 14041 14044 28
11236 14041 14045 28
11237 14046 14047 28
11238 14046 14048 28
11239 14046 14049 28
11240 14046 14050 28
11241 14051 14052 28
11242 14051 14053 28
11243 14051 14054 28
11244 14051 14055 28
11245 14056 14057 28
11246 14056 14058 28
11247 14056 14059 28
11248 14056 14060 28
11249 14061 14062 28
11250 14061 14063 28
11251 14061 14064 28
11252 14061 14065 28
11253 14066 14067 28
11254 14066 14068 28
11255 14066 14069 28
11256 14066 14070 28
11257 14071 14072 28
11258 14071 14073 28
11259 14071 14074 28
11260 14071 14075 28
11261 14076 14077 28
11262 14076 14078 28
11263 14076 14079 28
11264 14076 14080 28
11265 14081 14082 28
11266 14081 14083 28
11267 14081 14084 28
11268 14081 14085 28
11269 14086 14087 28
11270 14086 14088 28
11271 14086 14089 28
11272 14086 14090 28
11273 14091 14092 28
11274 14091 14093 28
11275 14091 14094 28
11276 14091 14095 28
11277 14096 14097 28
11278 14096 14098 28
11279 14096 14099 28
11280 14096 14100 28
11281 14101 14102 28
11282 14101 14103 28
11283 14101 14104 28
11284 14101 14105 28
11285 14106 14107 28
11286 14106 14108 28
11287 14106 14109 28
11288 14106 14110 28
11289 14111 14112 28
11290 14111 14113 28
11291 14111 14114 28
11292 14111 14115 28
11293 14116 14117 28
11294 14116 14118 28
11295 14116 14119 28
11296 14116 14120 28
11297 14121 14122 28
11298 14121 14123 28
11299 14121 14124 28
11300 14121 14125 28
11301 14126 14127 28
11302 14126 14128 28
11303 14126 14129 28
11304 14126 14130 28
11305 14131 14132 28
11306 14131 14133 28
11307 14131 14134 28
11308 14131 14135 28
11309 14136 14137 28
11310 14136 14138 28
11311 14136 14139 28
11312 14136 14140 28
11313 14141 14142 28
11314 14141 14143 28
11315 14141 14144 28
11316 14141 14145 28
11317 14146 14147 28
11318 14146 14148 28
11319 14146 14149 28
11320 14146 14150 28
11321 14151 14152 28
11322 14151 14153 28
11323 14151 14154 28
11324 14151 14155 28
11325 14156 14157 28
11326 14156 14158 28
11327 14156 14159 28
11328 14156 14160 28
11329 14161 14162 28
11330 14161 14163 28
11331 14161 14164 28
11332 14161 14165 28
11333 14166 14167 28
11334 14166 14168 28
11335 14166 14169 28
11336 14166 14170 28
11337 14171 14172 28
11338 14171 14173 28
11339 14171 14174 28
11340 14171 14175 28
11341 14176 14177 28
11342 14176 14178 28
11343 14176 14179 28
11344 14176 14180 28
11345 14181 14182 28
11346 14181 14183 28
11347 14181 14184 28
11348 14181 14185 28
11349 14186 14187 28
11350 14186 14188 28
11351 14186 14189 28
11352 14186 14190 28
11353 14191 14192 28
11354 14191 14193 28
11355 14191 14194 28
11356 14191 14195 28
11357 14196 14197 28
11358 14196 14198 28
11359 14196 14199 28
11360 14196 14200 28
11361 14201 14202 28
11362 14201 14203 28
11363 14201 14204 28
11364 14201 14205 28
11365 14206 14207 28
11366 14206 14208 28
11367 14206 14209 28
11368 14206 14210 28
11369 14211 14212 28
11370 14211 14213 28
11371 14211 14214 28
11372 14211 14215 28
11373 14216 14217 28
11374 14216 14218 28
11375 14216 14219 28
11376 14216 14220 28
11377 14221 14222 28
11378 14221 14223 28
11379 14221 14224 28
11380 14221 14225 28
11381 14226 14227 28
11382 14226 14228 28
11383 14226 14229 28
11384 14226 14230 28
11385 14231 14232 28
11386 14231 14233 28
11387 14231 14234 28
11388 14231 14235 28
11389 14236 14237 28
11390 14236 14238 28
11391 14236 14239 28
11392 14236 14240 28
11393 14241 14242 28
11394 14241 14243 28
11395 14241 14244 28
11396 14241 14245 28
11397 14246 14247 28
11398 14246 14248 28
11399 14246 14249 28
11400 14246 14250 28
11401 14251 14252 28
11402 14251 14253 28
11403 14251 14254 28
11404 14251 14255 28
11405 14256 14257 28
11406 14256 14258 28
11407 14256 14259 28
11408 14256 14260 28
11409 14261 14262 28
11410 14261 14263 28
11411 14261 14264 28
11412 14261 14265 28
11413 14266 14267 28
11414 14266 14268 28
11415 14266 14269 28
11416 14266 14270 28
11417 14271 14272 28
11418 14271 14273 28
11419 14271 14274 28
11420 14271 14275 28
11421 14276 14277 28
11422 14276 14278 28
11423 14276 14279 28
11424 14276 14280 28
11425 14281 14282 28
11426 14281 14283 28
11427 14281 14284 28
11428 14281 14285 28
11429 14286 14287 28
11430 14286 14288 28
11431 14286 14289 28
11432 14286 14290 28
11433 14291 14292 28
11434 14291 14293 28
11435 14291 14294 28
11436 14291 14295 28
11437 14296 14297 28
11438 14296 14298 28
11439 14296 14299 28
11440 14296 14300 28
11441 14301 14302 28
11442 14301 14303 28
11443 14301 14304 28
11444 14301 14305 28
11445 14306 14307 28
11446 14306 14308 28
11447 14306 14309 28
11448 14306 14310 28
11449 14311 14312 28
11450 14311 14313 28
11451 14311 14314 28
11452 14311 14315 28
11453 14316 14317 28
11454 14316 14318 28
11455 14316 14319 28
11456 14316 14320 28
11457 14321 14322 28
11458 14321 14323 28
11459 14321 14324 28
11460 14321 14325 28
11461 14326 14327 28
11462 14326 14328 28
11463 14326 14329 28
11464 14326 14330 28
11465 14331 14332 28
11466 14331 14333 28
11467 14331 14334 28
11468 14331 14335 28
11469 14336 14337 28
11470 14336 14338 28
11471 14336 14339 28
11472 14336 14340 28
11473 14341 14342 28
11474 14341 14343 28
11475 14341 14344 28
11476 14341 14345 28
11477 14346 14347 28
11478 14346 14348 28
11479 14346 14349 28
11480 14346 14350 28
11481 14351 14352 28
11482 14351 14353 28
11483 14351 14354 28
11484 14351 14355 28
11485 14356 14357 28
11486 14356 14358 28
11487 14356 14359 28
11488 14356 14360 28
11489 14361 14362 28
11490 14361 14363 28
11491 14361 14364 28
11492 14361 14365 28
11493 14366 14367 28
11494 14366 14368 28
11495 14366 14369 28
11496 14366 14370 28
11497 14371 14372 28
11498 14371 14373 28
11499 14371 14374 28
11500 14371 14375 28
11501 14376 14377 28
11502 14376 14378 28
11503 14376 14379 28
11504 14376 14380 28
11505 14381 14382 28
11506 14381 14383 28
11507 14381 14384 28
11508 14381 14385 28
11509 14386 14387 28
11510 14386 14388 28
11511 14386 14389 28
11512 14386 14390 28
11513 14391 14392 28
11514 14391 14393 28
11515 14391 14394 28
11516 14391 14395 28
11517 14396 14397 28
11518 14396 14398 28
11519 14396 14399 28
11520 14396 14400 28
11521 14401 14402 28
11522 14401 14403 28
11523 14401 14404 28
11524 14401 14405 28
11525 14406 14407 28
11526 14406 14408 28
11527 14406 14409 28
11528 14406 14410 28
11529 14411 14412 28
11530 14411 14413 28
11531 14411 14414 28
11532 14411 14415 28
11533 14416 14417 28
11534 14416 14418 28
11535 14416 14419 28
11536 14416 14420 28
11537 14421 14422 28
11538 14421 14423 28
11539 14421 14424 28
11540 14421 14425 28
11541 14426 14427 28
11542 14426 14428 28
11543 14426 14429 28
11544 14426 14430 28
11545 14431 14432 28
11546 14431 14433 28
11547 14431 14434 28
11548 14431 14435 28
11549 14436 14437 28
11550 14436 14438 28
11551 14436 14439 28
11552 14436 14440 28
11553 14441 14442 28
11554 14441 14443 28
11555 14441 14444 28
11556 14441 14445 28
11557 14446 14447 28
11558 14446 14448 28
11559 14446 14449 28
11560 14446 14450 28
11561 14451 14452 28
11562 14451 14453 28
11563 14451 14454 28
11564 14451 14455 28
11565 14456 14457 28
11566 14456 14458 28
11567 14456 14459 28
11568 14456 14460 28
11569 14461 14462 28
11570 14461 14463 28
11571 14461 14464 28
11572 14461 14465 28
11573 14466 14467 28
11574 14466 14468 28
11575 14466 14469 28
11576 14466 14470 28
11577 14471 14472 28
11578 14471 14473 28
11579 14471 14474 28
11580 14471 14475 28
11581 14476 14477 28
11582 14476 14478 28
11583 14476 14479 28
11584 14476 14480 28
11585 14481 14482 28
11586 14481 14483 28
11587 14481 14484 28
11588 14481 14485 28
11589 14486 14487 28
11590 14486 14488 28
11591 14486 14489 28
11592 14486 14490 28
11593 14491 14492 28
11594 14491 14493 28
11595 14491 14494 28
11596 14491 14495 28
11597 14496 14497 28
11598 14496 14498 28
11599 14496 14499 28
11600 14496 14500 28
11601 14501 14502 28
11602 14501 14503 28
11603 14501 14504 28
11604 14501 14505 28
11605 14506 14507 28
11606 14506 14508 28
11607 14506 14509 28
11608 14506 14510 28
11609 14511 14512 28
11610 14511 14513 28
11611 14511 14514 28
11612 14511 14515 28
11613 14516 14517 28
11614 14516 14518 28
11615 14516 14519 28
11616 14516 14520 28
11617 14521 14522 28
11618 14521 14523 28
11619 14521 14524 28
11620 14521 14525 28
11621 14526 14527 28
11622 14526 14528 28
11623 14526 14529 28
11624 14526 14530 28
11625 14531 14532 28
11626 14531 14533 28
11627 14531 14534 28
11628 14531 14535 28
11629 14536 14537 28
11630 14536 14538 28
11631 14536 14539 28
11632 14536 14540 28
11633 14541 14542 28
11634 14541 14543 28
11635 14541 14544 28
11636 14541 14545 28
11637 14546 14547 28
11638 14546 14548 28
11639 14546 14549 28
11640 14546 14550 28
11641 14551 14552 28
11642 14551 14553 28
11643 14551 14554 28
11644 14551 14555 28
11645 14556 14557 28
11646 14556 14558 28
11647 14556 14559 28
11648 14556 14560 28
11649 14561 14562 28
11650 14561 14563 28
11651 14561 14564 28
11652 14561 14565 28
11653 14566 14567 28
11654 14566 14568 28
11655 14566 14569 28
11656 14566 14570 28
11657 14571 14572 28
11658 14571 14573 28
11659 14571 14574 28
11660 14571 14575 28
11661 14576 14577 28
11662 14576 14578 28
11663 14576 14579 28
11664 14576 14580 28
11665 14581 14582 28
11666 14581 14583 28
11667 14581 14584 28
11668 14581 14585 28
11669 14586 14587 28
11670 14586 14588 28
11671 14586 14589 28
11672 14586 14590 28
11673 14591 14592 28
11674 14591 14593 28
11675 14591 14594 28
11676 14591 14595 28
11677 14596 14597 28
11678 14596 14598 28
11679 14596 14599 28
11680 14596 14600 28
11681 14601 14602 28
11682 14601 14603 28
11683 14601 14604 28
11684 14601 14605 28
11685 14606 14607 28
11686 14606 14608 28
11687 14606 14609 28
11688 14606 14610 28
11689 14611 14612 28
11690 14611 14613 28
11691 14611 14614 28
11692 14611 14615 28
11693 14616 14617 28
11694 14616 14618 28
11695 14616 14619 28
11696 14616 14620 28
11697 14621 14622 28
11698 14621 14623 28
11699 14621 14624 28
11700 14621 14625 28
11701 14626 14627 28
11702 14626 14628 28
11703 14626 14629 28
11704 14626 14630 28
11705 14631 14632 28
11706 14631 14633 28
11707 14631 14634 28
11708 14631 14635 28
11709 14636 14637 28
11710 14636 14638 28
11711 14636 14639 28
11712 14636 14640 28
11713 14641 14642 28
11714 14641 14643 28
11715 14641 14644 28
11716 14641 14645 28
11717 14646 14647 28
11718 14646 14648 28
11719 14646 14649 28
11720 14646 14650 28
11721 14651 14652 28
11722 14651 14653 28
11723 14651 14654 28
11724 14651 14655 28
11725 14656 14657 28
11726 14656 14658 28
11727 14656 14659 28
11728 14656 14660 28
11729 14661 14662 28
11730 14661 14663 28
11731 14661 14664 28
11732 14661 14665 28
11733 14666 14667 28
11734 14666 14668 28
11735 14666 14669 28
11736 14666 14670 28
11737 14671 14672 28
11738 14671 14673 28
11739 14671 14674 28
11740 14671 14675 28
11741 14676 14677 28
11742 14676 14678 28
11743 14676 14679 28
11744 14676 14680 28
11745 14681 14682 28
11746 14681 14683 28
11747 14681 14684 28
11748 14681 14685 28
11749 14686 14687 28
11750 14686 14688 28
11751 14686 14689 28
11752 14686 14690 28
11753 14691 14692 28
11754 14691 14693 28
11755 14691 14694 28
11756 14691 14695 28
11757 14696 14697 28
11758 14696 14698 28
11759 14696 14699 28
11760 14696 14700 28
11761 14701 14702 28
11762 14701 14703 28
11763 14701 14704 28
11764 14701 14705 28
11765 14706 14707 28
11766 14706 14708 28
11767 14706 14709 28
11768 14706 14710 28
11769 14711 14712 28
11770 14711 14713 28
11771 14711 14714 28
11772 14711 14715 28
11773 14716 14717 28
11774 14716 14718 28
11775 14716 14719 28
11776 14716 14720 28
11777 14721 14722 28
11778 14721 14723 28
11779 14721 14724 28
11780 14721 14725 28
11781 14726 14727 28
11782 14726 14728 28
11783 14726 14729 28
11784 14726 14730 28
11785 14731 14732 28
11786 14731 14733 28
11787 14731 14734 28
11788 14731 14735 28
11789 14736 14737 28
11790 14736 14738 28
11791 14736 14739 28
11792 14736 14740 28
11793 14741 14742 28
11794 14741 14743 28
11795 14741 14744 28
11796 14741 14745 28
11797 14746 14747 28
11798 14746 14748 28
11799 14746 14749 28
11800 14746 14750 28
11801 14751 14752 28
11802 14751 14753 28
11803 14751 14754 28
11804 14751 14755 28
11805 14756 14757 28
11806 14756 14758 28
11807 14756 14759 28
11808 14756 14760 28
11809 14761 14762 28
11810 14761 14763 28
11811 14761 14764 28
11812 14761 14765 28
11813 14766 14767 28
11814 14766 14768 28
11815 14766 14769 28
11816 14766 14770 28
11817 14771 14772 28
11818 14771 14773 28
11819 14771 14774 28
11820 14771 14775 28
11821 14776 14777 28
11822 14776 14778 28
11823 14776 14779 28
11824 14776 14780 28
11825 14781 14782 28
11826 14781 14783 28
11827 14781 14784 28
11828 14781 14785 28
11829 14786 14787 28
11830 14786 14788 28
11831 14786 14789 28
11832 14786 14790 28
11833 14791 14792 28
11834 14791 14793 28
11835 14791 14794 28
11836 14791 14795 28
11837 14796 14797 28
11838 14796 14798 28
11839 14796 14799 28
11840 14796 14800 28
11841 14801 14802 28
11842 14801 14803 28
11843 14801 14804 28
11844 14801 14805 28
11845 14806 14807 28
11846 14806 14808 28
11847 14806 14809 28
11848 14806 14810 28
11849 14811 14812 28
11850 14811 14813 28
11851 14811 14814 28
11852 14811 14815 28
11853 14816 14817 28
11854 14816 14818 28
11855 14816 14819 28
11856 14816 14820 28
11857 14821 14822 28
11858 14821 14823 28
11859 14821 14824 28
11860 14821 14825 28
11861 14826 14827 28
11862 14826 14828 28
11863 14826 14829 28
11864 14826 14830 28
11865 14831 14832 28
11866 14831 14833 28
11867 14831 14834 28
11868 14831 14835 28
11869 14836 14837 28
11870 14836 14838 28
11871 14836 14839 28
11872 14836 14840 28
11873 14841 14842 28
11874 14841 14843 28
11875 14841 14844 28
11876 14841 14845 28
11877 14846 14847 28
11878 14846 14848 28
11879 14846 14849 28
11880 14846 14850 28
11881 14851 14852 28
11882 14851 14853 28
11883 14851 14854 28
11884 14851 14855 28
11885 14856 14857 28
11886 14856 14858 28
11887 14856 14859 28
11888 14856 14860 28
11889 14861 14862 28
11890 14861 14863 28
11891 14861 14864 28
11892 14861 14865 28
11893 14866 14867 28
11894 14866 14868 28
11895 14866 14869 28
11896 14866 14870 28
11897 14871 14872 28
11898 14871 14873 28
11899 14871 14874 28
11900 14871 14875 28
11901 14876 14877 28
11902 14876 14878 28
11903 14876 14879 28
11904 14876 14880 28
11905 14881 14882 28
11906 14881 14883 28
11907 14881 14884 28
11908 14881 14885 28
11909 14886 14887 28
11910 14886 14888 28
11911 14886 14889 28
11912 14886 14890 28
11913 14891 14892 28
11914 14891 14893 28
11915 14891 14894 28
11916 14891 14895 28
11917 14896 14897 28
11918 14896 14898 28
11919 14896 14899 28
11920 14896 14900 28
11921 14901 14902 28
11922 14901 14903 28
11923 14901 14904 28
11924 14901 14905 28
11925 14906 14907 28
11926 14906 14908 28
11927 14906 14909 28
11928 14906 14910 28
11929 14911 14912 28
11930 14911 14913 28
11931 14911 14914 28
11932 14911 14915 28
11933 14916 14917 28
11934 14916 14918 28
11935 14916 14919 28
11936 14916 14920 28
11937 14921 14922 28
11938 14921 14923 28
11939 14921 14924 28
11940 14921 14925 28
11941 14926 14927 28
11942 14926 14928 28
11943 14926 14929 28
11944 14926 14930 28
11945 14931 14932 28
11946 14931 14933 28
11947 14931 14934 28
11948 14931 14935 28
11949 14936 14937 28
11950 14936 14938 28
11951 14936 14939 28
11952 14936 14940 28
11953 14941 14942 28
11954 14941 14943 28
11955 14941 14944 28
11956 14941 14945 28
11957 14946 14947 28
11958 14946 14948 28
11959 14946 14949 28
11960 14946 14950 28
11961 14951 14952 28
11962 14951 14953 28
11963 14951 14954 28
11964 14951 14955 28
11965 14956 14957 28
11966 14956 14958 28
11967 14956 14959 28
11968 14956 14960 28
11969 14961 14962 28
11970 14961 14963 28
11971 14961 14964 28
11972 14961 14965 28
11973 14966 14967 28
11974 14966 14968 28
11975 14966 14969 28
11976 14966 14970 28
11977 14971 14972 28
11978 14971 14973 28
11979 14971 14974 28
11980 14971 14975 28
11981 14976 14977 28
11982 14976 14978 28
11983 14976 14979 28
11984 14976 14980 28
11985 14981 14982 28
11986 14981 14983 28
11987 14981 14984 28
11988 14981 14985 28
11989 14986 14987 28
11990 14986 14988 28
11991 14986 14989 28
11992 14986 14990 28
11993 14991 14992 28
11994 14991 14993 28
11995 14991 14994 28
11996 14991 14995 28
11997 14996 14997 28
11998 14996 14998 28
11999 14996 14999 28
12000 14996 15000 28
12001 15001 15002 28
12002 15001 15003 28
12003 15001 15004 28
12004 15001 15005 28
12005 15006 15007 28
12006 15006 15008 28
12007 15006 15009 28
12008 15006 15010 28
12009 15011 15012 28
12010 15011 15013 28
12011 15011 15014 28
12012 15011 15015 28
12013 15016 15017 28
12014 15016 15018 28
12015 15016 15019 28
12016 15016 15020 28
12017 15021 15022 28
12018 15021 15023 28
12019 15021 15024 28
12020 15021 15025 28
12021 15026 15027 28
12022 15026 15028 28
12023 15026 15029 28
12024 15026 15030 28
12025 15031 15032 28
12026 15031 15033 28
12027 15031 15034 28
12028 15031 15035 28
12029 15036 15037 28
12030 15036 15038 28
12031 15036 15039 28
12032 15036 15040 28
12033 15041 15042 28
12034 15041 15043 28
12035 15041 15044 28
12036 15041 15045 28
12037 15046 15047 28
12038 15046 15048 28
12039 15046 15049 28
12040 15046 15050 28
12041 15051 15052 28
12042 15051 15053 28
12043 15051 15054 28
12044 15051 15055 28
12045 15056 15057 28
12046 15056 15058 28
12047 15056 15059 28
12048 15056 15060 28
12049 15061 15062 28
12050 15061 15063 28
12051 15061 15064 28
12052 15061 15065 28
12053 15066 15067 28
12054 15066 15068 28
12055 15066 15069 28
12056 15066 15070 28
12057 15071 15072 28
12058 15071 15073 28
12059 15071 15074 28
12060 15071 15075 28
12061 15076 15077 28
12062 15076 15078 28
12063 15076 15079 28
12064 15076 15080 28
12065 15081 15082 28
12066 15081 15083 28
12067 15081 15084 28
12068 15081 15085 28
12069 15086 15087 28
12070 15086 15088 28
12071 15086 15089 28
12072 15086 15090 28
12073 15091 15092 28
12074 15091 15093 28
12075 15091 15094 28
12076 15091 15095 28
12077 15096 15097 28
12078 15096 15098 28
12079 15096 15099 28
12080 15096 15100 28
12081 15101 15102 28
12082 15101 15103 28
12083 15101 15104 28
12084 15101 15105 28
12085 15106 15107 28
12086 15106 15108 28
12087 15106 15109 28
12088 15106 15110 28
12089 15111 15112 28
12090 15111 15113 28
12091 15111 15114 28
12092 15111 15115 28
12093 15116 15117 28
12094 15116 15118 28
12095 15116 15119 28
12096 15116 15120 28
12097 15121 15122 28
12098 15121 15123 28
12099 15121 15124 28
12100 15121 15125 28
12101 15126 15127 28
12102 15126 15128 28
12103 15126 15129 28
12104 15126 15130 28
12105 15131 15132 28
12106 15131 15133 28
12107 15131 15134 28
12108 15131 15135 28
12109 15136 15137 28
12110 15136 15138 28
12111 15136 15139 28
12112 15136 15140 28
12113 15141 15142 28
12114 15141 15143 28
12115 15141 15144 28
12116 15141 15145 28
12117 15146 15147 28
12118 15146 15148 28
12119 15146 15149 28
12120 15146 15150 28
12121 15151 15152 28
12122 15151 15153 28
12123 15151 15154 28
12124 15151 15155 28
12125 15156 15157 28
12126 15156 15158 28
12127 15156 15159 28
12128 15156 15160 28
12129 15161 15162 28
12130 15161 15163 28
12131 15161 15164 28
12132 15161 15165 28
12133 15166 15167 28
12134 15166 15168 28
12135 15166 15169 28
12136 15166 15170 28
12137 15171 15172 28
12138 15171 15173 28
12139 15171 15174 28
12140 15171 15175 28
12141 15176 15177 28
12142 15176 15178 28
12143 15176 15179 28
12144 15176 15180 28
12145 15181 15182 28
12146 15181 15183 28
12147 15181 15184 28
12148 15181 15185 28
12149 15186 15187 28
12150 15186 15188 28
12151 15186 15189 28
12152 15186 15190 28
12153 15191 15192 28
12154 15191 15193 28
12155 15191 15194 28
12156 15191 15195 28
12157 15196 15197 28
12158 15196 15198 28
12159 15196 15199 28
12160 15196 15200 28
12161 15201 15202 28
12162 15201 15203 28
12163 15201 15204 28
12164 15201 15205 28
12165 15206 15207 28
12166 15206 15208 28
12167 15206 15209 28
12168 15206 15210 28
12169 15211 15212 28
12170 15211 15213 28
12171 15211 15214 28
12172 15211 15215 28
12173 15216 15217 28
12174 15216 15218 28
12175 15216 15219 28
12176 15216 15220 28
12177 15221 15222 28
12178 15221 15223 28
12179 15221 15224 28
12180 15221 15225 28
12181 15226 15227 28
12182 15226 15228 28
12183 15226 15229 28
12184 15226 15230 28
12185 15231 15232 28
12186 15231 15233 28
12187 15231 15234 28
12188 15231 15235 28
12189 15236 15237 28
12190 15236 15238 28
12191 15236 15239 28
12192 15236 15240 28
12193 15241 15242 28
12194 15241 15243 28
12195 15241 15244 28
12196 15241 15245 28
12197 15246 15247 28
12198 15246 15248 28
12199 15246 15249 28
12200 15246 15250 28
12201 15251 15252 28
12202 15251 15253 28
12203 15251 15254 28
12204 15251 15255 28
12205 15256 15257 28
12206 15256 15258 28
12207 15256 15259 28
12208 15256 15260 28
12209 15261 15262 28
12210 15261 15263 28
12211 15261 15264 28
12212 15261 15265 28
12213 15266 15267 28
12214 15266 15268 28
12215 15266 15269 28
12216 15266 15270 28
12217 15271 15272 28
12218 15271 15273 28
12219 15271 15274 28
12220 15271 15275 28
12221 15276 15277 28
12222 15276 15278 28
12223 15276 15279 28
12224 15276 15280 28
12225 15281 15282 28
12226 15281 15283 28
12227 15281 15284 28
12228 15281 15285 28
12229 15286 15287 28
12230 15286 15288 28
12231 15286 15289 28
12232 15286 15290 28
12233 15291 15292 28
12234 15291 15293 28
12235 15291 15294 28
12236 15291 15295 28
12237 15296 15297 28
12238 15296 15298 28
12239 15296 15299 28
12240 15296 15300 28
12241 15301 15302 28
12242 15301 15303 28
12243 15301 15304 28
12244 15301 15305 28
12245 15306 15307 28
12246 15306 15308 28
12247 15306 15309 28
12248 15306 15310 28
12249 15311 15312 28
12250 15311 15313 28
12251 15311 15314 28
12252 15311 15315 28
12253 15316 15317 28
12254 15316 15318 28
12255 15316 15319 28
12256 15316 15320 28
12257 15321 15322 28
12258 15321 15323 28
12259 15321 15324 28
12260 15321 15325 28
12261 15326 15327 28
12262 15326 15328 28
12263 15326 15329 28
12264 15326 15330 28
12265 15331 15332 28
12266 15331 15333 28
12267 15331 15334 28
12268 15331 15335 28
12269 15336 15337 28
12270 15336 15338 28
12271 15336 15339 28
12272 15336 15340 28
12273 15341 15342 28
12274 15341 15343 28
12275 15341 15344 28
12276 15341 15345 28
12277 15346 15347 28
12278 15346 15348 28
12279 15346 15349 28
12280 15346 15350 28
12281 15351 15352 28
12282 15351 15353 28
12283 15351 15354 28
12284 15351 15355 28
12285 15356 15357 28
12286 15356 15358 28
12287 15356 15359 28
12288 15356 15360 28
12289 15361 15362 28
12290 15361 15363 28
12291 15361 15364 28
12292 15361 15365 28
12293 15366 15367 28
12294 15366 15368 28
12295 15366 15369 28
12296 15366 15370 28
12297 15371 15372 28
12298 15371 15373 28
12299 15371 15374 28
12300 15371 15375 28
12301 15376 15377 28
12302 15376 15378 28
12303 15376 15379 28
12304 15376 15380 28
12305 15381 15382 28
12306 15381 15383 28
12307 15381 15384 28
12308 15381 15385 28
12309 15386 15387 28
12310 15386 15388 28
12311 15386 15389 28
12312 15386 15390 28
12313 15391 15392 28
12314 15391 15393 28
12315 15391 15394 28
12316 15391 15395 28
12317 15396 15397 28
12318 15396 15398 28
12319 15396 15399 28
12320 15396 15400 28
12321 15401 15402 28
12322 15401 15403 28
12323 15401 15404 28
12324 15401 15405 28
12325 15406 15407 28
12326 15406 15408 28
12327 15406 15409 28
12328 15406 15410 28
12329 15411 15412 28
12330 15411 15413 28
12331 15411 15414 28
12332 15411 15415 28
12333 15416 15417 28
12334 15416 15418 28
12335 15416 15419 28
12336 15416 15420 28
12337 15421 15422 28
12338 15421 15423 28
12339 15421 15424 28
12340 15421 15425 28
12341 15426 15427 28
12342 15426 15428 28
12343 15426 15429 28
12344 15426 15430 28
12345 15431 15432 28
12346 15431 15433 28
12347 15431 15434 28
12348 15431 15435 28
12349 15436 15437 28
12350 15436 15438 28
12351 15436 15439 28
12352 15436 15440 28
12353 15441 15442 28
12354 15441 15443 28
12355 15441 15444 28
12356 15441 15445 28
12357 15446 15447 28
12358 15446 15448 28
12359 15446 15449 28
12360 15446 15450 28
12361 15451 15452 28
12362 15451 15453 28
12363 15451 15454 28
12364 15451 15455 28
12365 15456 15457 28
12366 15456 15458 28
12367 15456 15459 28
12368 15456 15460 28
12369 15461 15462 28
12370 15461 15463 28
12371 15461 15464 28
12372 15461 15465 28
12373 15466 15467 28
12374 15466 15468 28
12375 15466 15469 28
12376 15466 15470 28
12377 15471 15472 28
12378 15471 15473 28
12379 15471 15474 28
12380 15471 15475 28
12381 15476 15477 28
12382 15476 15478 28
12383 15476 15479 28
12384 15476 15480 28
12385 15481 15482 28
12386 15481 15483 28
12387 15481 15484 28
12388 15481 15485 28
12389 15486 15487 28
12390 15486 15488 28
12391 15486 15489 28
12392 15486 15490 28
12393 15491 15492 28
12394 15491 15493 28
12395 15491 15494 28
12396 15491 15495 28
12397 15496 15497 28
12398 15496 15498 28
12399 15496 15499 28
12400 15496 15500 28
12401 15501 15502 28
12402 15501 15503 28
12403 15501 15504 28
12404 15501 15505 28
12405 15506 15507 28
12406 15506 15508 28
12407 15506 15509 28
12408 15506 15510 28
12409 15511 15512 28
12410 15511 15513 28
12411 15511 15514 28
12412 15511 15515 28
12413 15516 15517 28
12414 15516 15518 28
12415 15516 15519 28
12416 15516 15520 28
12417 15521 15522 28
12418 15521 15523 28
12419 15521 15524 28
12420 15521 15525 28
12421 15526 15527 28
12422 15526 15528 28
12423 15526 15529 28
12424 15526 15530 28
12425 15531 15532 28
12426 15531 15533 28
12427 15531 15534 28
12428 15531 15535 28
12429 15536 15537 28
12430 15536 15538 28
12431 15536 15539 28
12432 15536 15540 28
12433 15541 15542 28
12434 15541 15543 28
12435 15541 15544 28
12436 15541 15545 28
12437 15546 15547 28
12438 15546 15548 28
12439 15546 15549 28
12440 15546 15550 28
12441 15551 15552 28
12442 15551 15553 28
12443 15551 15554 28
12444 15551 15555 28
12445 15556 15557 28
12446 15556 15558 28
12447 15556 15559 28
12448 15556 15560 28
12449 15561 15562 28
12450 15561 15563 28
12451 15561 15564 28
12452 15561 15565 28
12453 15566 15567 28
12454 15566 15568 28
12455 15566 15569 28
12456 15566 15570 28
12457 15571 15572 28
12458 15571 15573 28
12459 15571 15574 28
12460 15571 15575 28
12461 15576 15577 28
12462 15576 15578 28
12463 15576 15579 28
12464 15576 15580 28
12465 15581 15582 28
12466 15581 15583 28
12467 15581 15584 28
12468 15581 15585 28
12469 15586 15587 28
12470 15586 15588 28
12471 15586 15589 28
12472 15586 15590 28
12473 15591 15592 28
12474 15591 15593 28
12475 15591 15594 28
12476 15591 15595 28
12477 15596 15597 28
12478 15596 15598 28
12479 15596 15599 28
12480 15596 15600 28
12481 15601 15602 28
12482 15601 15603 28
12483 15601 15604 28
12484 15601 15605 28
12485 15606 15607 28
12486 15606 15608 28
12487 15606 15609 28
12488 15606 15610 28
12489 15611 15612 28
12490 15611 15613 28
12491 15611 15614 28
12492 15611 15615 28
12493 15616 15617 28
12494 15616 15618 28
12495 15616 15619 28
12496 15616 15620 28
12497 15621 15622 28
12498 15621 15623 28
12499 15621 15624 28
12500 15621 15625 28
12501 15626 15627 28
12502 15626 15628 28
12503 15626 15629 28
12504 15626 15630 28
12505 15631 15632 28
12506 15631 15633 28
12507 15631 15634 28
12508 15631 15635 28
12509 15636 15637 28
12510 15636 15638 28
12511 15636 15639 28
12512 15636 15640 28
12513 15641 15642 28
12514 15641 15643 28
12515 15641 15644 28
12516 15641 15645 28
12517 15646 15647 28
12518 15646 15648 28
12519 15646 15649 28
12520 15646 15650 28
12521 15651 15652 28
12522 15651 15653 28
12523 15651 15654 28
12524 15651 15655 28
12525 15656 15657 28
12526 15656 15658 28
12527 15656 15659 28
12528 15656 15660 28
12529 15661 15662 28
12530 15661 15663 28
12531 15661 15664 28
12532 15661 15665 28
12533 15666 15667 28
12534 15666 15668 28
12535 15666 15669 28
12536 15666 15670 28
12537 15671 15672 28
12538 15671 15673 28
12539 15671 15674 28
12540 15671 15675 28
12541 15676 15677 28
12542 15676 15678 28
12543 15676 15679 28
12544 15676 15680 28
12545 15681 15682 28
12546 15681 15683 28
12547 15681 15684 28
12548 15681 15685 28
12549 15686 15687 28
12550 15686 15688 28
12551 15686 15689 28
12552 15686 15690 28
12553 15691 15692 28
12554 15691 15693 28
12555 15691 15694 28
12556 15691 15695 28
12557 15696 15697 28
12558 15696 15698 28
12559 15696 15699 28
12560 15696 15700 28
12561 15701 15702 28
12562 15701 15703 28
12563 15701 15704 28
12564 15701 15705 28
12565 15706 15707 28
12566 15706 15708 28
12567 15706 15709 28
12568 15706 15710 28
12569 15711 15712 28
12570 15711 15713 28
12571 15711 15714 28
12572 15711 15715 28
12573 15716 15717 28
12574 15716 15718 28
12575 15716 15719 28
12576 15716 15720 28
12577 15721 15722 28
12578 15721 15723 28
12579 15721 15724 28
12580 15721 15725 28
12581 15726 15727 28
12582 15726 15728 28
12583 15726 15729 28
12584 15726 15730 28
12585 15731 15732 28
12586 15731 15733 28
12587 15731 15734 28
12588 15731 15735 28
12589 15736 15737 28
12590 15736 15738 28
12591 15736 15739 28
12592 15736 15740 28
12593 15741 15742 28
12594 15741 15743 28
12595 15741 15744 28
12596 15741 15745 28
12597 15746 15747 28
12598 15746 15748 28
12599 15746 15749 28
12600 15746 15750 28
12601 15751 15752 28
12602 15751 15753 28
12603 15751 15754 28
12604 15751 15755 28
12605 15756 15757 28
12606 15756 15758 28
12607 15756 15759 28
12608 15756 15760 28
12609 15761 15762 28
12610 15761 15763 28
12611 15761 15764 28
12612 15761 15765 28
12613 15766 15767 28
12614 15766 15768 28
12615 15766 15769 28
12616 15766 15770 28
12617 15771 15772 28
12618 15771 15773 28
12619 15771 15774 28
12620 15771 15775 28
12621 15776 15777 28
12622 15776 15778 28
12623 15776 15779 28
12624 15776 15780 28
12625 15781 15782 28
12626 15781 15783 28
12627 15781 15784 28
12628 15781 15785 28
12629 15786 15787 28
12630 15786 15788 28
12631 15786 15789 28
12632 15786 15790 28
12633 15791 15792 28
12634 15791 15793 28
12635 15791 15794 28
12636 15791 15795 28
12637 15796 15797 28
12638 15796 15798 28
12639 15796 15799 28
12640 15796 15800 28
12641 15801 15802 28
12642 15801 15803 28
12643 15801 15804 28
12644 15801 15805 28
12645 15806 15807 28
12646 15806 15808 28
12647 15806 15809 28
12648 15806 15810 28
12649 15811 15812 28
12650 15811 15813 28
12651 15811 15814 28
12652 15811 15815 28
12653 15816 15817 28
12654 15816 15818 28
12655 15816 15819 28
12656 15816 15820 28
12657 15821 15822 28
12658 15821 15823 28
12659 15821 15824 28
12660 15821 15825 28
12661 15826 15827 28
12662 15826 15828 28
12663 15826 15829 28
12664 15826 15830 28
12665 15831 15832 28
12666 15831 15833 28
12667 15831 15834 28
12668 15831 15835 28
12669 15836 15837 28
12670 15836 15838 28
12671 15836 15839 28
12672 15836 15840 28
12673 15841 15842 28
12674 15841 15843 28
12675 15841 15844 28
12676 15841 15845 28
12677 15846 15847 28
12678 15846 15848 28
12679 15846 15849 28
12680 15846 15850 28
12681 15851 15852 28
12682 15851 15853 28
12683 15851 15854 28
12684 15851 15855 28
12685 15856 15857 28
12686 15856 15858 28
12687 15856 15859 28
12688 15856 15860 28
12689 15861 15862 28
12690 15861 15863 28
12691 15861 15864 28
12692 15861 15865 28
12693 15866 15867 28
12694 15866 15868 28
12695 15866 15869 28
12696 15866 15870 28
12697 15871 15872 28
12698 15871 15873 28
12699 15871 15874 28
12700 15871 15875 28
12701 15876 15877 28
12702 15876 15878 28
12703 15876 15879 28
12704 15876 15880 28
12705 15881 15882 28
12706 15881 15883 28
12707 15881 15884 28
12708 15881 15885 28
12709 15886 15887 28
12710 15886 15888 28
12711 15886 15889 28
12712 15886 15890 28
12713 15891 15892 28
12714 15891 15893 28
12715 15891 15894 28
12716 15891 15895 28
12717 15896 15897 28
12718 15896 15898 28
12719 15896 15899 28
12720 15896 15900 28
12721 15901 15902 28
12722 15901 15903 28
12723 15901 15904 28
12724 15901 15905 28
12725 15906 15907 28
12726 15906 15908 28
12727 15906 15909 28
12728 15906 15910 28
12729 15911 15912 28
12730 15911 15913 28
12731 15911 15914 28
12732 15911 15915 28
12733 15916 15917 28
12734 15916 15918 28
12735 15916 15919 28
12736 15916 15920 28
12737 15921 15922 28
12738 15921 15923 28
12739 15921 15924 28
12740 15921 15925 28
12741 15926 15927 28
12742 15926 15928 28
12743 15926 15929 28
12744 15926 15930 28
12745 15931 15932 28
12746 15931 15933 28
12747 15931 15934 28
12748 15931 15935 28
12749 15936 15937 28
12750 15936 15938 28
12751 15936 15939 28
12752 15936 15940 28
12753 15941 15942 28
12754 15941 15943 28
12755 15941 15944 28
12756 15941 15945 28
12757 15946 15947 28
12758 15946 15948 28
12759 15946 15949 28
12760 15946 15950 28
12761 15951 15952 28
12762 15951 15953 28
12763 15951 15954 28
12764 15951 15955 28
12765 15956 15957 28
12766 15956 15958 28
12767 15956 15959 28
12768 15956 15960 28
12769 15961 15962 28
12770 15961 15963 28
12771 15961 15964 28
12772 15961 15965 28
12773 15966 15967 28
12774 15966 15968 28
12775 15966 15969 28
12776 15966 15970 28
12777 15971 15972 28
12778 15971 15973 28
12779 15971 15974 28
12780 15971 15975 28
12781 15976 15977 28
12782 15976 15978 28
12783 15976 15979 28
12784 15976 15980 28
12785 15981 15982 28
12786 15981 15983 28
12787 15981 15984 28
12788 15981 15985 28
12789 15986 15987 28
12790 15986 15988 28
12791 15986 15989 28
12792 15986 15990 28
12793 15991 15992 28
12794 15991 15993 28
12795 15991 15994 28
12796 15991 15995 28
12797 15996 15997 28
12798 15996 15998 28
12799 15996 15999 28
12800 15996 16000 28
12801 16001 16002 28
12802 16001 16003 28
12803 16001 16004 28
12804 16001 16005 28
12805 16006 16007 28
12806 16006 16008 28
12807 16006 16009 28
12808 16006 16010 28
12809 16011 16012 28
12810 16011 16013 28
12811 16011 16014 28
12812 16011 16015 28
12813 16016 16017 28
12814 16016 16018 28
12815 16016 16019 28
12816 16016 16020 28
12817 16021 16022 28
12818 16021 16023 28
12819 16021 16024 28
12820 16021 16025 28
12821 16026 16027 28
12822 16026 16028 28
12823 16026 16029 28
12824 16026 16030 28
12825 16031 16032 28
12826 16031 16033 28
12827 16031 16034 28
12828 16031 16035 28
12829 16036 16037 28
12830 16036 16038 28
12831 16036 16039 28
12832 16036 16040 28
12833 16041 16042 28
12834 16041 16043 28
12835 16041 16044 28
12836 16041 16045 28
12837 16046 16047 28
12838 16046 16048 28
12839 16046 16049 28
12840 16046 16050 28
12841 16051 16052 28
12842 16051 16053 28
12843 16051 16054 28
12844 16051 16055 28
12845 16056 16057 28
12846 16056 16058 28
12847 16056 16059 28
12848 16056 16060 28
12849 16061 16062 28
12850 16061 16063 28
12851 16061 16064 28
12852 16061 16065 28
12853 16066 16067 28
12854 16066 16068 28
12855 16066 16069 28
12856 16066 16070 28
12857 16071 16072 28
12858 16071 16073 28
12859 16071 16074 28
12860 16071 16075 28
12861 16076 16077 28
12862 16076 16078 28
12863 16076 16079 28
12864 16076 16080 28
12865 16081 16082 28
12866 16081 16083 28
12867 16081 16084 28
12868 16081 16085 28
12869 16086 16087 28
12870 16086 16088 28
12871 16086 16089 28
12872 16086 16090 28
12873 16091 16092 28
12874 16091 16093 28
12875 16091 16094 28
12876 16091 16095 28
12877 16096 16097 28
12878 16096 16098 28
12879 16096 16099 28
12880 16096 16100 28
12881 16101 16102 28
12882 16101 16103 28
12883 16101 16104 28
12884 16101 16105 28
12885 16106 16107 28
12886 16106 16108 28
12887 16106 16109 28
12888 16106 16110 28
12889 16111 16112 28
12890 16111 16113 28
12891 16111 16114 28
12892 16111 16115 28
12893 16116 16117 28
12894 16116 16118 28
12895 16116 16119 28
12896 16116 16120 28
12897 16121 16122 28
12898 16121 16123 28
12899 16121 16124 28
12900 16121 16125 28
12901 16126 16127 28
12902 16126 16128 28
12903 16126 16129 28
12904 16126 16130 28
12905 16131 16132 28
12906 16131 16133 28
12907 16131 16134 28
12908 16131 16135 28
12909 16136 16137 28
12910 16136 16138 28
12911 16136 16139 28
12912 16136 16140 28
12913 16141 16142 28
12914 16141 16143 28
12915 16141 16144 28
12916 16141 16145 28
12917 16146 16147 28
12918 16146 16148 28
12919 16146 16149 28
12920 16146 16150 28
12921 16151 16152 28
12922 16151 16153 28
12923 16151 16154 28
12924 16151 16155 28
12925 16156 16157 28
12926 16156 16158 28
12927 16156 16159 28
12928 16156 16160 28
12929 16161 16162 28
12930 16161 16163 28
12931 16161 16164 28
12932 16161 16165 28
12933 16166 16167 28
12934 16166 16168 28
12935 16166 16169 28
12936 16166 16170 28
12937 16171 16172 28
12938 16171 16173 28
12939 16171 16174 28
12940 16171 16175 28
12941 16176 16177 28
12942 16176 16178 28
12943 16176 16179 28
12944 16176 16180 28
12945 16181 16182 28
12946 16181 16183 28
12947 16181 16184 28
12948 16181 16185 28
12949 16186 16187 28
12950 16186 16188 28
12951 16186 16189 28
12952 16186 16190 28
12953 16191 16192 28
12954 16191 16193 28
12955 16191 16194 28
12956 16191 16195 28
12957 16196 16197 28
12958 16196 16198 28
12959 16196 16199 28
12960 16196 16200 28
12961 16201 16202 28
12962 16201 16203 28
12963 16201 16204 28
12964 16201 16205 28
12965 16206 16207 28
12966 16206 16208 28
12967 16206 16209 28
12968 16206 16210 28
12969 16211 16212 28
12970 16211 16213 28
12971 16211 16214 28
12972 16211 16215 28
12973 16216 16217 28
12974 16216 16218 28
12975 16216 16219 28
12976 16216 16220 28
12977 16221 16222 28
12978 16221 16223 28
12979 16221 16224 28
12980 16221 16225 28
12981 16226 16227 28
12982 16226 16228 28
12983 16226 16229 28
12984 16226 16230 28
12985 16231 16232 28
12986 16231 16233 28
12987 16231 16234 28
12988 16231 16235 28
12989 16236 16237 28
12990 16236 16238 28
12991 16236 16239 28
12992 16236 16240 28
12993 16241 16242 28
12994 16241 16243 28
12995 16241 16244 28
12996 16241 16245 28
12997 16246 16247 28
12998 16246 16248 28
12999 16246 16249 28
13000 16246 16250 28
13001 16251 16252 28
13002 16251 16253 28
13003 16251 16254 28
13004 16251 16255 28
13005 16256 16257 28
13006 16256 16258 28
13007 16256 16259 28
13008 16256 16260 28
13009 16261 16262 28
13010 16261 16263 28
13011 16261 16264 28
13012 16261 16265 28
13013 16266 16267 28
13014 16266 16268 28
13015 16266 16269 28
13016 16266 16270 28
13017 16271 16272 28
13018 16271 16273 28
13019 16271 16274 28
13020 16271 16275 28
13021 16276 16277 28
13022 16276 16278 28
13023 16276 16279 28
13024 16276 16280 28
13025 16281 16282 28
13026 16281 16283 28
13027 16281 16284 28
13028 16281 16285 28
13029 16286 16287 28
13030 16286 16288 28
13031 16286 16289 28
13032 16286 16290 28
13033 16291 16292 28
13034 16291 16293 28
13035 16291 16294 28
13036 16291 16295 28
13037 16296 16297 28
13038 16296 16298 28
13039 16296 16299 28
13040 16296 16300 28
13041 16301 16302 28
13042 16301 16303 28
13043 16301 16304 28
13044 16301 16305 28
13045 16306 16307 28
13046 16306 16308 28
13047 16306 16309 28
13048 16306 16310 28
13049 16311 16312 28
13050 16311 16313 28
13051 16311 16314 28
13052 16311 16315 28
13053 16316 16317 28
13054 16316 16318 28
13055 16316 16319 28
13056 16316 16320 28
13057 16321 16322 28
13058 16321 16323 28
13059 16321 16324 28
13060 16321 16325 28
13061 16326 16327 28
13062 16326 16328 28
13063 16326 16329 28
13064 16326 16330 28
13065 16331 16332 28
13066 16331 16333 28
13067 16331 16334 28
13068 16331 16335 28
13069 16336 16337 28
13070 16336 16338 28
13071 16336 16339 28
13072 16336 16340 28
13073 16341 16342 28
13074 16341 16343 28
13075 16341 16344 28
13076 16341 16345 28
13077 16346 16347 28
13078 16346 16348 28
13079 16346 16349 28
13080 16346 16350 28
13081 16351 16352 28
13082 16351 16353 28
13083 16351 16354 28
13084 16351 16355 28
13085 16356 16357 28
13086 16356 16358 28
13087 16356 16359 28
13088 16356 16360 28
13089 16361 16362 28
13090 16361 16363 28
13091 16361 16364 28
13092 16361 16365 28
13093 16366 16367 28
13094 16366 16368 28
13095 16366 16369 28
13096 16366 16370 28
13097 16371 16372 28
13098 16371 16373 28
13099 16371 16374 28
13100 16371 16375 28
13101 16376 16377 28
13102 16376 16378 28
13103 16376 16379 28
13104 16376 16380 28
13105 16381 16382 28
13106 16381 16383 28
13107 16381 16384 28
13108 16381 16385 28
13109 16386 16387 28
13110 16386 16388 28
13111 16386 16389 28
13112 16386 16390 28
13113 16391 16392 28
13114 16391 16393 28
13115 16391 16394 28
13116 16391 16395 28
13117 16396 16397 28
13118 16396 16398 28
13119 16396 16399 28
13120 16396 16400 28
13121 16401 16402 28
13122 16401 16403 28
13123 16401 16404 28
13124 16401 16405 28
13125 16406 16407 28
13126 16406 16408 28
13127 16406 16409 28
13128 16406 16410 28
13129 16411 16412 28
13130 16411 16413 28
13131 16411 16414 28
13132 16411 16415 28
13133 16416 16417 28
13134 16416 16418 28
13135 16416 16419 28
13136 16416 16420 28
13137 16421 16422 28
13138 16421 16423 28
13139 16421 16424 28
13140 16421 16425 28
13141 16426 16427 28
13142 16426 16428 28
13143 16426 16429 28
13144 16426 16430 28
13145 16431 16432 28
13146 16431 16433 28
13147 16431 16434 28
13148 16431 16435 28
13149 16436 16437 28
13150 16436 16438 28
13151 16436 16439 28
13152 16436 16440 28
13153 16441 16442 28
13154 16441 16443 28
13155 16441 16444 28
13156 16441 16445 28
13157 16446 16447 28
13158 16446 16448 28
13159 16446 16449 28
13160 16446 16450 28
13161 16451 16452 28
13162 16451 16453 28
13163 16451 16454 28
13164 16451 16455 28
13165 16456 16457 28
13166 16456 16458 28
13167 16456 16459 28
13168 16456 16460 28
13169 16461 16462 28
13170 16461 16463 28
13171 16461 16464 28
13172 16461 16465 28
13173 16466 16467 28
13174 16466 16468 28
13175 16466 16469 28
13176 16466 16470 28
13177 16471 16472 28
13178 16471 16473 28
13179 16471 16474 28
13180 16471 16475 28
13181 16476 16477 28
13182 16476 16478 28
13183 16476 16479 28
13184 16476 16480 28
13185 16481 16482 28
13186 16481 16483 28
13187 16481 16484 28
13188 16481 16485 28
13189 16486 16487 28
13190 16486 16488 28
13191 16486 16489 28
13192 16486 16490 28
13193 16491 16492 28
13194 16491 16493 28
13195 16491 16494 28
13196 16491 16495 28
13197 16496 16497 28
13198 16496 16498 28
13199 16496 16499 28
13200 16496 16500 28
13201 16501 16502 28
13202 16501 16503 28
13203 16501 16504 28
13204 16501 16505 28
13205 16506 16507 28
13206 16506 16508 28
13207 16506 16509 28
13208 16506 16510 28
13209 16511 16512 28
13210 16511 16513 28
13211 16511 16514 28
13212 16511 16515 28
13213 16516 16517 28
13214 16516 16518 28
13215 16516 16519 28
13216 16516 16520 28
13217 16521 16522 28
13218 16521 16523 28
13219 16521 16524 28
13220 16521 16525 28
13221 16526 16527 28
13222 16526 16528 28
13223 16526 16529 28
13224 16526 16530 28
13225 16531 16532 28
13226 16531 16533 28
13227 16531 16534 28
13228 16531 16535 28
13229 16536 16537 28
13230 16536 16538 28
13231 16536 16539 28
13232 16536 16540 28
13233 16541 16542 28
13234 16541 16543 28
13235 16541 16544 28
13236 16541 16545 28
13237 16546 16547 28
13238 16546 16548 28
13239 16546 16549 28
13240 16546 16550 28
13241 16551 16552 28
13242 16551 16553 28
13243 16551 16554 28
13244 16551 16555 28
13245 16556 16557 28
13246 16556 16558 28
13247 16556 16559 28
13248 16556 16560 28
13249 16561 16562 28
13250 16561 16563 28
13251 16561 16564 28
13252 16561 16565 28
13253 16566 16567 28
13254 16566 16568 28
13255 16566 16569 28
13256 16566 16570 28
13257 16571 16572 28
13258 16571 16573 28
13259 16571 16574 28
13260 16571 16575 28
13261 16576 16577 28
13262 16576 16578 28
13263 16576 16579 28
13264 16576 16580 28
13265 16581 16582 28
13266 16581 16583 28
13267 16581 16584 28
13268 16581 16585 28
13269 16586 16587 28
13270 16586 16588 28
13271 16586 16589 28
13272 16586 16590 28
13273 16591 16592 28
13274 16591 16593 28
13275 16591 16594 28
13276 16591 16595 28
13277 16596 16597 28
13278 16596 16598 28
13279 16596 16599 28
13280 16596 16600 28
13281 16601 16602 28
13282 16601 16603 28
13283 16601 16604 28
13284 16601 16605 28
13285 16606 16607 28
13286 16606 16608 28
13287 16606 16609 28
13288 16606 16610 28
13289 16611 16612 28
13290 16611 16613 28
13291 16611 16614 28
13292 16611 16615 28
13293 16616 16617 28
13294 16616 16618 28
13295 16616 16619 28
13296 16616 16620 28
13297 16621 16622 28
13298 16621 16623 28
13299 16621 16624 28
13300 16621 16625 28
13301 16626 16627 28
13302 16626 16628 28
13303 16626 16629 28
13304 16626 16630 28
13305 16631 16632 28
13306 16631 16633 28
13307 16631 16634 28
13308 16631 16635 28
13309 16636 16637 28
13310 16636 16638 28
13311 16636 16639 28
13312 16636 16640 28
13313 16641 16642 28
13314 16641 16643 28
13315 16641 16644 28
13316 16641 16645 28
13317 16646 16647 28
13318 16646 16648 28
13319 16646 16649 28
13320 16646 16650 28
13321 16651 16652 28
13322 16651 16653 28
13323 16651 16654 28
13324 16651 16655 28
13325 16656 16657 28
13326 16656 16658 28
13327 16656 16659 28
13328 16656 16660 28
13329 16661 16662 28
13330 16661 16663 28
13331 16661 16664 28
13332 16661 16665 28
13333 16666 16667 28
13334 16666 16668 28
13335 16666 16669 28
13336 16666 16670 28
13337 16671 16672 28
13338 16671 16673 28
13339 16671 16674 28
13340 16671 16675 28
13341 16676 16677 28
13342 16676 16678 28
13343 16676 16679 28
13344 16676 16680 28
13345 16681 16682 28
13346 16681 16683 28
13347 16681 16684 28
13348 16681 16685 28
13349 16686 16687 28
13350 16686 16688 28
13351 16686 16689 28
13352 16686 16690 28
13353 16691 16692 28
13354 16691 16693 28
13355 16691 16694 28
13356 16691 16695 28
13357 16696 16697 28
13358 16696 16698 28
13359 16696 16699 28
13360 16696 16700 28
13361 16701 16702 28
13362 16701 16703 28
13363 16701 16704 28
13364 16701 16705 28
13365 16706 16707 28
13366 16706 16708 28
13367 16706 16709 28
13368 16706 16710 28
13369 16711 16712 28
13370 16711 16713 28
13371 16711 16714 28
13372 16711 16715 28
13373 16716 16717 28
13374 16716 16718 28
13375 16716 16719 28
13376 16716 16720 28
13377 16721 16722 28
13378 16721 16723 28
13379 16721 16724 28
13380 16721 16725 28
13381 16726 16727 28
13382 16726 16728 28
13383 16726 16729 28
13384 16726 16730 28
13385 16731 16732 28
13386 16731 16733 28
13387 16731 16734 28
13388 16731 16735 28
13389 16736 16737 28
13390 16736 16738 28
13391 16736 16739 28
13392 16736 16740 28
13393 16741 16742 28
13394 16741 16743 28
13395 16741 16744 28
13396 16741 16745 28
13397 16746 16747 28
13398 16746 16748 28
13399 16746 16749 28
13400 16746 16750 28
13401 16751 16752 28
13402 16751 16753 28
13403 16751 16754 28
13404 16751 16755 28
13405 16756 16757 28
13406 16756 16758 28
13407 16756 16759 28
13408 16756 16760 28
13409 16761 16762 28
13410 16761 16763 28
13411 16761 16764 28
13412 16761 16765 28
13413 16766 16767 28
13414 16766 16768 28
13415 16766 16769 28
13416 16766 16770 28
13417 16771 16772 28
13418 16771 16773 28
13419 16771 16774 28
13420 16771 16775 28
13421 16776 16777 28
13422 16776 16778 28
13423 16776 16779 28
13424 16776 16780 28
13425 16781 16782 28
13426 16781 16783 28
13427 16781 16784 28
13428 16781 16785 28
13429 16786 16787 28
13430 16786 16788 28
13431 16786 16789 28
13432 16786 16790 28
13433 16791 16792 28
13434 16791 16793 28
13435 16791 16794 28
13436 16791 16795 28
13437 16796 16797 28
13438 16796 16798 28
13439 16796 16799 28
13440 16796 16800 28
13441 16801 16802 28
13442 16801 16803 28
13443 16801 16804 28
13444 16801 16805 28
13445 16806 16807 28
13446 16806 16808 28
13447 16806 16809 28
13448 16806 16810 28
13449 16811 16812 28
13450 16811 16813 28
13451 16811 16814 28
13452 16811 16815 28
13453 16816 16817 28
13454 16816 16818 28
13455 16816 16819 28
13456 16816 16820 28
13457 16821 16822 28
13458 16821 16823 28
13459 16821 16824 28
13460 16821 16825 28
13461 16826 16827 28
13462 16826 16828 28
13463 16826 16829 28
13464 16826 16830 28
13465 16831 16832 28
13466 16831 16833 28
13467 16831 16834 28
13468 16831 16835 28
13469 16836 16837 28
13470 16836 16838 28
13471 16836 16839 28
13472 16836 16840 28
13473 16841 16842 28
13474 16841 16843 28
13475 16841 16844 28
13476 16841 16845 28
13477 16846 16847 28
13478 16846 16848 28
13479 16846 16849 28
13480 16846 16850 28
13481 16851 16852 28
13482 16851 16853 28
13483 16851 16854 28
13484 16851 16855 28
13485 16856 16857 28
13486 16856 16858 28
13487 16856 16859 28
13488 16856 16860 28
13489 16861 16862 28
13490 16861 16863 28
13491 16861 16864 28
13492 16861 16865 28
13493 16866 16867 28
13494 16866 16868 28
13495 16866 16869 28
13496 16866 16870 28
13497 16871 16872 28
13498 16871 16873 28
13499 16871 16874 28
13500 16871 16875 28
13501 16876 16877 28
13502 16876 16878 28
13503 16876 16879 28
13504 16876 16880 28
13505 16881 16882 28
13506 16881 16883 28
13507 16881 16884 28
13508 16881 16885 28
13509 16886 16887 28
13510 16886 16888 28
13511 16886 16889 28
13512 16886 16890 28
13513 16891 16892 28
13514 16891 16893 28
13515 16891 16894 28
13516 16891 16895 28
13517 16896 16897 28
13518 16896 16898 28
13519 16896 16899 28
13520 16896 16900 28
13521 16901 16902 28
13522 16901 16903 28
13523 16901 16904 28
13524 16901 16905 28
13525 16906 16907 28
13526 16906 16908 28
13527 16906 16909 28
13528 16906 16910 28
13529 16911 16912 28
13530 16911 16913 28
13531 16911 16914 28
13532 16911 16915 28
13533 16916 16917 28
13534 16916 16918 28
13535 16916 16919 28
13536 16916 16920 28
13537 16921 16922 28
13538 16921 16923 28
13539 16921 16924 28
13540 16921 16925 28
13541 16926 16927 28
13542 16926 16928 28
13543 16926 16929 28
13544 16926 16930 28
13545 16931 16932 28
13546 16931 16933 28
13547 16931 16934 28
13548 16931 16935 28
13549 16936 16937 28
13550 16936 16938 28
13551 16936 16939 28
13552 16936 16940 28
13553 16941 16942 28
13554 16941 16943 28
13555 16941 16944 28
13556 16941 16945 28
13557 16946 16947 28
13558 16946 16948 28
13559 16946 16949 28
13560 16946 16950 28
13561 16951 16952 28
13562 16951 16953 28
13563 16951 16954 28
13564 16951 16955 28
13565 16956 16957 28
13566 16956 16958 28
13567 16956 16959 28
13568 16956 16960 28
13569 16961 16962 28
13570 16961 16963 28
13571 16961 16964 28
13572 16961 16965 28
13573 16966 16967 28
13574 16966 16968 28
13575 16966 16969 28
13576 16966 16970 28
13577 16971 16972 28
13578 16971 16973 28
13579 16971 16974 28
13580 16971 16975 28
13581 16976 16977 28
13582 16976 16978 28
13583 16976 16979 28
13584 16976 16980 28
13585 16981 16982 28
13586 16981 16983 28
13587 16981 16984 28
13588 16981 16985 28
13589 16986 16987 28
13590 16986 16988 28
13591 16986 16989 28
13592 16986 16990 28
13593 16991 16992 28
13594 16991 16993 28
13595 16991 16994 28
13596 16991 16995 28
13597 16996 16997 28
13598 16996 16998 28
13599 16996 16999 28
13600 16996 17000 28
13601 17001 17002 28
13602 17001 17003 28
13603 17001 17004 28
13604 17001 17005 28
13605 17006 17007 28
13606 17006 17008 28
13607 17006 17009 28
13608 17006 17010 28
13609 17011 17012 28
13610 17011 17013 28
13611 17011 17014 28
13612 17011 17015 28
13613 17016 17017 28
13614 17016 17018 28
13615 17016 17019 28
13616 17016 17020 28
13617 17021 17022 28
13618 17021 17023 28
13619 17021 17024 28
13620 17021 17025 28
13621 17026 17027 28
13622 17026 17028 28
13623 17026 17029 28
13624 17026 17030 28
13625 17031 17032 28
13626 17031 17033 28
13627 17031 17034 28
13628 17031 17035 28
13629 17036 17037 28
13630 17036 17038 28
13631 17036 17039 28
13632 17036 17040 28
13633 17041 17042 28
13634 17041 17043 28
13635 17041 17044 28
13636 17041 17045 28
13637 17046 17047 28
13638 17046 17048 28
13639 17046 17049 28
13640 17046 17050 28
13641 17051 17052 28
13642 17051 17053 28
13643 17051 17054 28
13644 17051 17055 28
13645 17056 17057 28
13646 17056 17058 28
13647 17056 17059 28
13648 17056 17060 28
13649 17061 17062 28
13650 17061 17063 28
13651 17061 17064 28
13652 17061 17065 28
13653 17066 17067 28
13654 17066 17068 28
13655 17066 17069 28
13656 17066 17070 28
13657 17071 17072 28
13658 17071 17073 28
13659 17071 17074 28
13660 17071 17075 28
13661 17076 17077 28
13662 17076 17078 28
13663 17076 17079 28
13664 17076 17080 28
13665 17081 17082 28
13666 17081 17083 28
13667 17081 17084 28
13668 17081 17085 28
13669 17086 17087 28
13670 17086 17088 28
13671 17086 17089 28
13672 17086 17090 28
13673 17091 17092 28
13674 17091 17093 28
13675 17091 17094 28
13676 17091 17095 28
13677 17096 17097 28
13678 17096 17098 28
13679 17096 17099 28
13680 17096 17100 28
13681 17101 17102 28
13682 17101 17103 28
13683 17101 17104 28
13684 17101 17105 28
13685 17106 17107 28
13686 17106 17108 28
13687 17106 17109 28
13688 17106 17110 28
13689 17111 17112 28
13690 17111 17113 28
13691 17111 17114 28
13692 17111 17115 28
13693 17116 17117 28
13694 17116 17118 28
13695 17116 17119 28
13696 17116 17120 28
13697 17121 17122 28
13698 17121 17123 28
13699 17121 17124 28
13700 17121 17125 28
13701 17126 17127 28
13702 17126 17128 28
13703 17126 17129 28
13704 17126 17130 28
13705 17131 17132 28
13706 17131 17133 28
13707 17131 17134 28
13708 17131 17135 28
13709 17136 17137 28
13710 17136 17138 28
13711 17136 17139 28
13712 17136 17140 28
13713 17141 17142 28
13714 17141 17143 28
13715 17141 17144 28
13716 17141 17145 28
13717 17146 17147 28
13718 17146 17148 28
13719 17146 17149 28
13720 17146 17150 28
13721 17151 17152 28
13722 17151 17153 28
13723 17151 17154 28
13724 17151 17155 28
13725 17156 17157 28
13726 17156 17158 28
13727 17156 17159 28
13728 17156 17160 28
13729 17161 17162 28
13730 17161 17163 28
13731 17161 17164 28
13732 17161 17165 28
13733 17166 17167 28
13734 17166 17168 28
13735 17166 17169 28
13736 17166 17170 28
13737 17171 17172 28
13738 17171 17173 28
13739 17171 17174 28
13740 17171 17175 28
13741 17176 17177 28
13742 17176 17178 28
13743 17176 17179 28
13744 17176 17180 28
13745 17181 17182 28
13746 17181 17183 28
13747 17181 17184 28
13748 17181 17185 28
13749 17186 17187 28
13750 17186 17188 28
13751 17186 17189 28
13752 17186 17190 28
13753 17191 17192 28
13754 17191 17193 28
13755 17191 17194 28
13756 17191 17195 28
13757 17196 17197 28
13758 17196 17198 28
13759 17196 17199 28
13760 17196 17200 28
13761 17201 17202 28
13762 17201 17203 28
13763 17201 17204 28
13764 17201 17205 28
13765 17206 17207 28
13766 17206 17208 28
13767 17206 17209 28
13768 17206 17210 28
13769 17211 17212 28
13770 17211 17213 28
13771 17211 17214 28
13772 17211 17215 28
13773 17216 17217 28
13774 17216 17218 28
13775 17216 17219 28
13776 17216 17220 28
13777 17221 17222 28
13778 17221 17223 28
13779 17221 17224 28
13780 17221 17225 28
13781 17226 17227 28
13782 17226 17228 28
13783 17226 17229 28
13784 17226 17230 28
13785 17231 17232 28
13786 17231 17233 28
13787 17231 17234 28
13788 17231 17235 28
13789 17236 17237 28
13790 17236 17238 28
13791 17236 17239 28
13792 17236 17240 28
13793 17241 17242 28
13794 17241 17243 28
13795 17241 17244 28
13796 17241 17245 28
13797 17246 17247 28
13798 17246 17248 28
13799 17246 17249 28
13800 17246 17250 28
13801 17251 17252 28
13802 17251 17253 28
13803 17251 17254 28
13804 17251 17255 28
13805 17256 17257 28
13806 17256 17258 28
13807 17256 17259 28
13808 17256 17260 28
13809 17261 17262 28
13810 17261 17263 28
13811 17261 17264 28
13812 17261 17265 28
13813 17266 17267 28
13814 17266 17268 28
13815 17266 17269 28
13816 17266 17270 28
13817 17271 17272 28
13818 17271 17273 28
13819 17271 17274 28
13820 17271 17275 28
13821 17276 17277 28
13822 17276 17278 28
13823 17276 17279 28
13824 17276 17280 28
13825 17281 17282 28
13826 17281 17283 28
13827 17281 17284 28
13828 17281 17285 28
13829 17286 17287 28
13830 17286 17288 28
13831 17286 17289 28
13832 17286 17290 28
13833 17291 17292 28
13834 17291 17293 28
13835 17291 17294 28
13836 17291 17295 28
13837 17296 17297 28
13838 17296 17298 28
13839 17296 17299 28
13840 17296 17300 28
13841 17301 17302 28
13842 17301 17303 28
13843 17301 17304 28
13844 17301 17305 28
13845 17306 17307 28
13846 17306 17308 28
13847 17306 17309 28
13848 17306 17310 28
13849 17311 17312 28
13850 17311 17313 28
13851 17311 17314 28
13852 17311 17315 28
13853 17316 17317 28
13854 17316 17318 28
13855 17316 17319 28
13856 17316 17320 28
13857 17321 17322 28
13858 17321 17323 28
13859 17321 17324 28
13860 17321 17325 28
13861 17326 17327 28
13862 17326 17328 28
13863 17326 17329 28
13864 17326 17330 28
13865 17331 17332 28
13866 17331 17333 28
13867 17331 17334 28
13868 17331 17335 28
13869 17336 17337 28
13870 17336 17338 28
13871 17336 17339 28
13872 17336 17340 28
13873 17341 17342 28
13874 17341 17343 28
13875 17341 17344 28
13876 17341 17345 28
13877 17346 17347 28
13878 17346 17348 28
13879 17346 17349 28
13880 17346 17350 28
13881 17351 17352 28
13882 17351 17353 28
13883 17351 17354 28
13884 17351 17355 28
13885 17356 17357 28
13886 17356 17358 28
13887 17356 17359 28
13888 17356 17360 28
13889 17361 17362 28
13890 17361 17363 28
13891 17361 17364 28
13892 17361 17365 28
13893 17366 17367 28
13894 17366 17368 28
13895 17366 17369 28
13896 17366 17370 28
13897 17371 17372 28
13898 17371 17373 28
13899 17371 17374 28
13900 17371 17375 28
13901 17376 17377 28
13902 17376 17378 28
13903 17376 17379 28
13904 17376 17380 28
13905 17381 17382 28
13906 17381 17383 28
13907 17381 17384 28
13908 17381 17385 28
13909 17386 17387 28
13910 17386 17388 28
13911 17386 17389 28
13912 17386 17390 28
13913 17391 17392 28
13914 17391 17393 28
13915 17391 17394 28
13916 17391 17395 28
13917 17396 17397 28
13918 17396 17398 28
13919 17396 17399 28
13920 17396 17400 28
13921 17401 17402 28
13922 17401 17403 28
13923 17401 17404 28
13924 17401 17405 28
13925 17406 17407 28
13926 17406 17408 28
13927 17406 17409 28
13928 17406 17410 28
13929 17411 17412 28
13930 17411 17413 28
13931 17411 17414 28
13932 17411 17415 28
13933 17416 17417 28
13934 17416 17418 28
13935 17416 17419 28
13936 17416 17420 28
13937 17421 17422 28
13938 17421 17423 28
13939 17421 17424 28
13940 17421 17425 28
13941 17426 17427 28
13942 17426 17428 28
13943 17426 17429 28
13944 17426 17430 28
13945 17431 17432 28
13946 17431 17433 28
13947 17431 17434 28
13948 17431 17435 28
13949 17436 17437 28
13950 17436 17438 28
13951 17436 17439 28
13952 17436 17440 28
13953 17441 17442 28
13954 17441 17443 28
13955 17441 17444 28
13956 17441 17445 28
13957 17446 17447 28
13958 17446 17448 28
13959 17446 17449 28
13960 17446 17450 28
13961 17451 17452 28
13962 17451 17453 28
13963 17451 17454 28
13964 17451 17455 28
13965 17456 17457 28
13966 17456 17458 28
13967 17456 17459 28
13968 17456 17460 28
13969 17461 17462 28
13970 17461 17463 28
13971 17461 17464 28
13972 17461 17465 28
13973 17466 17467 28
13974 17466 17468 28
13975 17466 17469 28
13976 17466 17470 28
13977 17471 17472 28
13978 17471 17473 28
13979 17471 17474 28
13980 17471 17475 28
13981 17476 17477 28
13982 17476 17478 28
13983 17476 17479 28
13984 17476 17480 28
13985 17481 17482 28
13986 17481 17483 28
13987 17481 17484 28
13988 17481 17485 28
13989 17486 17487 28
13990 17486 17488 28
13991 17486 17489 28
13992 17486 17490 28
13993 17491 17492 28
13994 17491 17493 28
13995 17491 17494 28
13996 17491 17495 28
13997 17496 17497 28
13998 17496 17498 28
13999 17496 17499 28
14000 17496 17500 28
14001 17501 17502 28
14002 17501 17503 28
14003 17501 17504 28
14004 17501 17505 28
14005 17506 17507 28
14006 17506 17508 28
14007 17506 17509 28
14008 17506 17510 28
14009 17511 17512 28
14010 17511 17513 28
14011 17511 17514 28
14012 17511 17515 28
14013 17516 17517 28
14014 17516 17518 28
14015 17516 17519 28
14016 17516 17520 28
14017 17521 17522 28
14018 17521 17523 28
14019 17521 17524 28
14020 17521 17525 28
14021 17526 17527 28
14022 17526 17528 28
14023 17526 17529 28
14024 17526 17530 28
14025 17531 17532 28
14026 17531 17533 28
14027 17531 17534 28
14028 17531 17535 28
14029 17536 17537 28
14030 17536 17538 28
14031 17536 17539 28
14032 17536 17540 28
14033 17541 17542 28
14034 17541 17543 28
14035 17541 17544 28
14036 17541 17545 28
14037 17546 17547 28
14038 17546 17548 28
14039 17546 17549 28
14040 17546 17550 28
14041 17551 17552 28
14042 17551 17553 28
14043 17551 17554 28
14044 17551 17555 28
14045 17556 17557 28
14046 17556 17558 28
14047 17556 17559 28
14048 17556 17560 28
14049 17561 17562 28
14050 17561 17563 28
14051 17561 17564 28
14052 17561 17565 28
14053 17566 17567 28
14054 17566 17568 28
14055 17566 17569 28
14056 17566 17570 28
14057 17571 17572 28
14058 17571 17573 28
14059 17571 17574 28
14060 17571 17575 28
14061 17576 17577 28
14062 17576 17578 28
14063 17576 17579 28
14064 17576 17580 28
14065 17581 17582 28
14066 17581 17583 28
14067 17581 17584 28
14068 17581 17585 28
14069 17586 17587 28
14070 17586 17588 28
14071 17586 17589 28
14072 17586 17590 28
14073 17591 17592 28
14074 17591 17593 28
14075 17591 17594 28
14076 17591 17595 28
14077 17596 17597 28
14078 17596 17598 28
14079 17596 17599 28
14080 17596 17600 28
14081 17601 17602 28
14082 17601 17603 28
14083 17601 17604 28
14084 17601 17605 28
14085 17606 17607 28
14086 17606 17608 28
14087 17606 17609 28
14088 17606 17610 28
14089 17611 17612 28
14090 17611 17613 28
14091 17611 17614 28
14092 17611 17615 28
14093 17616 17617 28
14094 17616 17618 28
14095 17616 17619 28
14096 17616 17620 28
14097 17621 17622 28
14098 17621 17623 28
14099 17621 17624 28
14100 17621 17625 28
14101 17626 17627 28
14102 17626 17628 28
14103 17626 17629 28
14104 17626 17630 28
14105 17631 17632 28
14106 17631 17633 28
14107 17631 17634 28
14108 17631 17635 28
14109 17636 17637 28
14110 17636 17638 28
14111 17636 17639 28
14112 17636 17640 28
14113 17641 17642 28
14114 17641 17643 28
14115 17641 17644 28
14116 17641 17645 28
14117 17646 17647 28
14118 17646 17648 28
14119 17646 17649 28
14120 17646 17650 28
14121 17651 17652 28
14122 17651 17653 28
14123 17651 17654 28
14124 17651 17655 28
14125 17656 17657 28
14126 17656 17658 28
14127 17656 17659 28
14128 17656 17660 28
14129 17661 17662 28
14130 17661 17663 28
14131 17661 17664 28
14132 17661 17665 28
14133 17666 17667 28
14134 17666 17668 28
14135 17666 17669 28
14136 17666 17670 28
14137 17671 17672 28
14138 17671 17673 28
14139 17671 17674 28
14140 17671 17675 28
14141 17676 17677 28
14142 17676 17678 28
14143 17676 17679 28
14144 17676 17680 28
14145 17681 17682 28
14146 17681 17683 28
14147 17681 17684 28
14148 17681 17685 28
14149 17686 17687 28
14150 17686 17688 28
14151 17686 17689 28
14152 17686 17690 28
14153 17691 17692 28
14154 17691 17693 28
14155 17691 17694 28
14156 17691 17695 28
14157 17696 17697 28
14158 17696 17698 28
14159 17696 17699 28
14160 17696 17700 28
14161 17701 17702 28
14162 17701 17703 28
14163 17701 17704 28
14164 17701 17705 28
14165 17706 17707 28
14166 17706 17708 28
14167 17706 17709 28
14168 17706 17710 28
14169 17711 17712 28
14170 17711 17713 28
14171 17711 17714 28
14172 17711 17715 28
14173 17716 17717 28
14174 17716 17718 28
14175 17716 17719 28
14176 17716 17720 28
14177 17721 17722 28
14178 17721 17723 28
14179 17721 17724 28
14180 17721 17725 28
14181 17726 17727 28
14182 17726 17728 28
14183 17726 17729 28
14184 17726 17730 28
14185 17731 17732 28
14186 17731 17733 28
14187 17731 17734 28
14188 17731 17735 28
14189 17736 17737 28
14190 17736 17738 28
14191 17736 17739 28
14192 17736 17740 28
14193 17741 17742 28
14194 17741 17743 28
14195 17741 17744 28
14196 17741 17745 28
14197 17746 17747 28
14198 17746 17748 28
14199 17746 17749 28
14200 17746 17750 28
14201 17751 17752 28
14202 17751 17753 28
14203 17751 17754 28
14204 17751 17755 28
14205 17756 17757 28
14206 17756 17758 28
14207 17756 17759 28
14208 17756 17760 28
14209 17761 17762 28
14210 17761 17763 28
14211 17761 17764 28
14212 17761 17765 28
14213 17766 17767 28
14214 17766 17768 28
14215 17766 17769 28
14216 17766 17770 28
14217 17771 17772 28
14218 17771 17773 28
14219 17771 17774 28
14220 17771 17775 28
14221 17776 17777 28
14222 17776 17778 28
14223 17776 17779 28
14224 17776 17780 28
14225 17781 17782 28
14226 17781 17783 28
14227 17781 17784 28
14228 17781 17785 28
14229 17786 17787 28
14230 17786 17788 28
14231 17786 17789 28
14232 17786 17790 28
14233 17791 17792 28
14234 17791 17793 28
14235 17791 17794 28
14236 17791 17795 28
14237 17796 17797 28
14238 17796 17798 28
14239 17796 17799 28
14240 17796 17800 28
14241 17801 17802 28
14242 17801 17803 28
14243 17801 17804 28
14244 17801 17805 28
14245 17806 17807 28
14246 17806 17808 28
14247 17806 17809 28
14248 17806 17810 28
14249 17811 17812 28
14250 17811 17813 28
14251 17811 17814 28
14252 17811 17815 28
14253 17816 17817 28
14254 17816 17818 28
14255 17816 17819 28
14256 17816 17820 28
14257 17821 17822 28
14258 17821 17823 28
14259 17821 17824 28
14260 17821 17825 28
14261 17826 17827 28
14262 17826 17828 28
14263 17826 17829 28
14264 17826 17830 28
14265 17831 17832 28
14266 17831 17833 28
14267 17831 17834 28
14268 17831 17835 28
14269 17836 17837 28
14270 17836 17838 28
14271 17836 17839 28
14272 17836 17840 28
14273 17841 17842 28
14274 17841 17843 28
14275 17841 17844 28
14276 17841 17845 28
14277 17846 17847 28
14278 17846 17848 28
14279 17846 17849 28
14280 17846 17850 28
14281 17851 17852 28
14282 17851 17853 28
14283 17851 17854 28
14284 17851 17855 28
14285 17856 17857 28
14286 17856 17858 28
14287 17856 17859 28
14288 17856 17860 28
14289 17861 17862 28
14290 17861 17863 28
14291 17861 17864 28
14292 17861 17865 28
14293 17866 17867 28
14294 17866 17868 28
14295 17866 17869 28
14296 17866 17870 28
14297 17871 17872 28
14298 17871 17873 28
14299 17871 17874 28
14300 17871 17875 28
14301 17876 17877 28
14302 17876 17878 28
14303 17876 17879 28
14304 17876 17880 28
14305 17881 17882 28
14306 17881 17883 28
14307 17881 17884 28
14308 17881 17885 28
14309 17886 17887 28
14310 17886 17888 28
14311 17886 17889 28
14312 17886 17890 28
14313 17891 17892 28
14314 17891 17893 28
14315 17891 17894 28
14316 17891 17895 28
14317 17896 17897 28
14318 17896 17898 28
14319 17896 17899 28
14320 17896 17900 28
14321 17901 17902 28
14322 17901 17903 28
14323 17901 17904 28
14324 17901 17905 28
14325 17906 17907 28
14326 17906 17908 28
14327 17906 17909 28
14328 17906 17910 28
14329 17911 17912 28
14330 17911 17913 28
14331 17911 17914 28
14332 17911 17915 28
14333 17916 17917 28
14334 17916 17918 28
14335 17916 17919 28
14336 17916 17920 28
14337 17921 17922 28
14338 17921 17923 28
14339 17921 17924 28
14340 17921 17925 28
14341 17926 17927 28
14342 17926 17928 28
14343 17926 17929 28
14344 17926 17930 28
14345 17931 17932 28
14346 17931 17933 28
14347 17931 17934 28
14348 17931 17935 28
14349 17936 17937 28
14350 17936 17938 28
14351 17936 17939 28
14352 17936 17940 28
14353 17941 17942 28
14354 17941 17943 28
14355 17941 17944 28
14356 17941 17945 28
14357 17946 17947 28
14358 17946 17948 28
14359 17946 17949 28
14360 17946 17950 28
14361 17951 17952 28
14362 17951 17953 28
14363 17951 17954 28
14364 17951 17955 28
14365 17956 17957 28
14366 17956 17958 28
14367 17956 17959 28
14368 17956 17960 28
14369 17961 17962 28
14370 17961 17963 28
14371 17961 17964 28
14372 17961 17965 28
14373 17966 17967 28
14374 17966 17968 28
14375 17966 17969 28
14376 17966 17970 28
14377 17971 17972 28
14378 17971 17973 28
14379 17971 17974 28
14380 17971 17975 28
14381 17976 17977 28
14382 17976 17978 28
14383 17976 17979 28
14384 17976 17980 28
14385 17981 17982 28
14386 17981 17983 28
14387 17981 17984 28
14388 17981 17985 28
14389 17986 17987 28
14390 17986 17988 28
14391 17986 17989 28
14392 17986 17990 28
14393 17991 17992 28
14394 17991 17993 28
14395 17991 17994 28
14396 17991 17995 28
14397 17996 17997 28
14398 17996 17998 28
14399 17996 17999 28
14400 17996 18000 28
14401 18001 18002 28
14402 18001 18003 28
14403 18001 18004 28
14404 18001 18005 28
14405 18006 18007 28
14406 18006 18008 28
14407 18006 18009 28
14408 18006 18010 28
14409 18011 18012 28
14410 18011 18013 28
14411 18011 18014 28
14412 18011 18015 28
14413 18016 18017 28
14414 18016 18018 28
14415 18016 18019 28
14416 18016 18020 28
14417 18021 18022 28
14418 18021 18023 28
14419 18021 18024 28
14420 18021 18025 28
14421 18026 18027 28
14422 18026 18028 28
14423 18026 18029 28
14424 18026 18030 28
14425 18031 18032 28
14426 18031 18033 28
14427 18031 18034 28
14428 18031 18035 28
14429 18036 18037 28
14430 18036 18038 28
14431 18036 18039 28
14432 18036 18040 28
14433 18041 18042 28
14434 18041 18043 28
14435 18041 18044 28
14436 18041 18045 28
14437 18046 18047 28
14438 18046 18048 28
14439 18046 18049 28
14440 18046 18050 28
14441 18051 18052 28
14442 18051 18053 28
14443 18051 18054 28
14444 18051 18055 28
14445 18056 18057 28
14446 18056 18058 28
14447 18056 18059 28
14448 18056 18060 28
14449 18061 18062 28
14450 18061 18063 28
14451 18061 18064 28
14452 18061 18065 28
14453 18066 18067 28
14454 18066 18068 28
14455 18066 18069 28
14456 18066 18070 28
14457 18071 18072 28
14458 18071 18073 28
14459 18071 18074 28
14460 18071 18075 28
14461 18076 18077 28
14462 18076 18078 28
14463 18076 18079 28
14464 18076 18080 28
14465 18081 18082 28
14466 18081 18083 28
14467 18081 18084 28
14468 18081 18085 28
14469 18086 18087 28
14470 18086 18088 28
14471 18086 18089 28
14472 18086 18090 28
14473 18091 18092 28
14474 18091 18093 28
14475 18091 18094 28
14476 18091 18095 28
14477 18096 18097 28
14478 18096 18098 28
14479 18096 18099 28
14480 18096 18100 28
14481 18101 18102 28
14482 18101 18103 28
14483 18101 18104 28
14484 18101 18105 28
14485 18106 18107 28
14486 18106 18108 28
14487 18106 18109 28
14488 18106 18110 28
14489 18111 18112 28
14490 18111 18113 28
14491 18111 18114 28
14492 18111 18115 28
14493 18116 18117 28
14494 18116 18118 28
14495 18116 18119 28
14496 18116 18120 28
14497 18121 18122 28
14498 18121 18123 28
14499 18121 18124 28
14500 18121 18125 28
14501 18126 18127 28
14502 18126 18128 28
14503 18126 18129 28
14504 18126 18130 28
14505 18131 18132 28
14506 18131 18133 28
14507 18131 18134 28
14508 18131 18135 28
14509 18136 18137 28
14510 18136 18138 28
14511 18136 18139 28
14512 18136 18140 28
14513 18141 18142 28
14514 18141 18143 28
14515 18141 18144 28
14516 18141 18145 28
14517 18146 18147 28
14518 18146 18148 28
14519 18146 18149 28
14520 18146 18150 28
14521 18151 18152 28
14522 18151 18153 28
14523 18151 18154 28
14524 18151 18155 28
14525 18156 18157 28
14526 18156 18158 28
14527 18156 18159 28
14528 18156 18160 28
14529 18161 18162 28
14530 18161 18163 28
14531 18161 18164 28
14532 18161 18165 28
14533 18166 18167 28
14534 18166 18168 28
14535 18166 18169 28
14536 18166 18170 28
14537 18171 18172 28
14538 18171 18173 28
14539 18171 18174 28
14540 18171 18175 28
14541 18176 18177 28
14542 18176 18178 28
14543 18176 18179 28
14544 18176 18180 28
14545 18181 18182 28
14546 18181 18183 28
14547 18181 18184 28
14548 18181 18185 28
14549 18186 18187 28
14550 18186 18188 28
14551 18186 18189 28
14552 18186 18190 28
14553 18191 18192 28
14554 18191 18193 28
14555 18191 18194 28
14556 18191 18195 28
14557 18196 18197 28
14558 18196 18198 28
14559 18196 18199 28
14560 18196 18200 28
14561 18201 18202 28
14562 18201 18203 28
14563 18201 18204 28
14564 18201 18205 28
14565 18206 18207 28
14566 18206 18208 28
14567 18206 18209 28
14568 18206 18210 28
14569 18211 18212 28
14570 18211 18213 28
14571 18211 18214 28
14572 18211 18215 28
14573 18216 18217 28
14574 18216 18218 28
14575 18216 18219 28
14576 18216 18220 28
14577 18221 18222 28
14578 18221 18223 28
14579 18221 18224 28
14580 18221 18225 28
14581 18226 18227 28
14582 18226 18228 28
14583 18226 18229 28
14584 18226 18230 28
14585 18231 18232 28
14586 18231 18233 28
14587 18231 18234 28
14588 18231 18235 28
14589 18236 18237 28
14590 18236 18238 28
14591 18236 18239 28
14592 18236 18240 28
14593 18241 18242 28
14594 18241 18243 28
14595 18241 18244 28
14596 18241 18245 28
14597 18246 18247 28
14598 18246 18248 28
14599 18246 18249 28
14600 18246 18250 28
14601 18251 18252 28
14602 18251 18253 28
14603 18251 18254 28
14604 18251 18255 28
14605 18256 18257 28
14606 18256 18258 28
14607 18256 18259 28
14608 18256 18260 28
14609 18261 18262 28
14610 18261 18263 28
14611 18261 18264 28
14612 18261 18265 28
14613 18266 18267 28
14614 18266 18268 28
14615 18266 18269 28
14616 18266 18270 28
14617 18271 18272 28
14618 18271 18273 28
14619 18271 18274 28
14620 18271 18275 28
14621 18276 18277 28
14622 18276 18278 28
14623 18276 18279 28
14624 18276 18280 28
14625 18281 18282 28
14626 18281 18283 28
14627 18281 18284 28
14628 18281 18285 28
14629 18286 18287 28
14630 18286 18288 28
14631 18286 18289 28
14632 18286 18290 28
14633 18291 18292 28
14634 18291 18293 28
14635 18291 18294 28
14636 18291 18295 28
14637 18296 18297 28
14638 18296 18298 28
14639 18296 18299 28
14640 18296 18300 28
14641 18301 18302 28
14642 18301 18303 28
14643 18301 18304 28
14644 18301 18305 28
14645 18306 18307 28
14646 18306 18308 28
14647 18306 18309 28
14648 18306 18310 28
14649 18311 18312 28
14650 18311 18313 28
14651 18311 18314 28
14652 18311 18315 28
14653 18316 18317 28
14654 18316 18318 28
14655 18316 18319 28
14656 18316 18320 28
14657 18321 18322 28
14658 18321 18323 28
14659 18321 18324 28
14660 18321 18325 28
14661 18326 18327 28
14662 18326 18328 28
14663 18326 18329 28
14664 18326 18330 28
14665 18331 18332 28
14666 18331 18333 28
14667 18331 18334 28
14668 18331 18335 28
14669 18336 18337 28
14670 18336 18338 28
14671 18336 18339 28
14672 18336 18340 28
14673 18341 18342 28
14674 18341 18343 28
14675 18341 18344 28
14676 18341 18345 28
14677 18346 18347 28
14678 18346 18348 28
14679 18346 18349 28
14680 18346 18350 28
14681 18351 18352 28
14682 18351 18353 28
14683 18351 18354 28
14684 18351 18355 28
14685 18356 18357 28
14686 18356 18358 28
14687 18356 18359 28
14688 18356 18360 28
14689 18361 18362 28
14690 18361 18363 28
14691 18361 18364 28
14692 18361 18365 28
14693 18366 18367 28
14694 18366 18368 28
14695 18366 18369 28
14696 18366 18370 28
14697 18371 18372 28
14698 18371 18373 28
14699 18371 18374 28
14700 18371 18375 28
14701 18376 18377 28
14702 18376 18378 28
14703 18376 18379 28
14704 18376 18380 28
14705 18381 18382 28
14706 18381 18383 28
14707 18381 18384 28
14708 18381 18385 28
14709 18386 18387 28
14710 18386 18388 28
14711 18386 18389 28
14712 18386 18390 28
14713 18391 18392 28
14714 18391 18393 28
14715 18391 18394 28
14716 18391 18395 28
14717 18396 18397 28
14718 18396 18398 28
14719 18396 18399 28
14720 18396 18400 28
14721 18401 18402 28
14722 18401 18403 28
14723 18401 18404 28
14724 18401 18405 28
14725 18406 18407 28
14726 18406 18408 28
14727 18406 18409 28
14728 18406 18410 28
14729 18411 18412 28
14730 18411 18413 28
14731 18411 18414 28
14732 18411 18415 28
14733 18416 18417 28
14734 18416 18418 28
14735 18416 18419 28
14736 18416 18420 28
14737 18421 18422 28
14738 18421 18423 28
14739 18421 18424 28
14740 18421 18425 28
14741 18426 18427 28
14742 18426 18428 28
14743 18426 18429 28
14744 18426 18430 28
14745 18431 18432 28
14746 18431 18433 28
14747 18431 18434 28
14748 18431 18435 28
14749 18436 18437 28
14750 18436 18438 28
14751 18436 18439 28
14752 18436 18440 28
14753 18441 18442 28
14754 18441 18443 28
14755 18441 18444 28
14756 18441 18445 28
14757 18446 18447 28
14758 18446 18448 28
14759 18446 18449 28
14760 18446 18450 28
14761 18451 18452 28
14762 18451 18453 28
14763 18451 18454 28
14764 18451 18455 28
14765 18456 18457 28
14766 18456 18458 28
14767 18456 18459 28
14768 18456 18460 28
14769 18461 18462 28
14770 18461 18463 28
14771 18461 18464 28
14772 18461 18465 28
14773 18466 18467 28
14774 18466 18468 28
14775 18466 18469 28
14776 18466 18470 28
14777 18471 18472 28
14778 18471 18473 28
14779 18471 18474 28
14780 18471 18475 28
14781 18476 18477 28
14782 18476 18478 28
14783 18476 18479 28
14784 18476 18480 28
14785 18481 18482 28
14786 18481 18483 28
14787 18481 18484 28
14788 18481 18485 28
14789 18486 18487 28
14790 18486 18488 28
14791 18486 18489 28
14792 18486 18490 28
14793 18491 18492 28
14794 18491 18493 28
14795 18491 18494 28
14796 18491 18495 28
14797 18496 18497 28
14798 18496 18498 28
14799 18496 18499 28
14800 18496 18500 28
14801 18501 18502 28
14802 18501 18503 28
14803 18501 18504 28
14804 18501 18505 28
14805 18506 18507 28
14806 18506 18508 28
14807 18506 18509 28
14808 18506 18510 28
14809 18511 18512 28
14810 18511 18513 28
14811 18511 18514 28
14812 18511 18515 28
14813 18516 18517 28
14814 18516 18518 28
14815 18516 18519 28
14816 18516 18520 28
14817 18521 18522 28
14818 18521 18523 28
14819 18521 18524 28
14820 18521 18525 28
14821 18526 18527 28
14822 18526 18528 28
14823 18526 18529 28
14824 18526 18530 28
14825 18531 18532 28
14826 18531 18533 28
14827 18531 18534 28
14828 18531 18535 28
14829 18536 18537 28
14830 18536 18538 28
14831 18536 18539 28
14832 18536 18540 28
14833 18541 18542 28
14834 18541 18543 28
14835 18541 18544 28
14836 18541 18545 28
14837 18546 18547 28
14838 18546 18548 28
14839 18546 18549 28
14840 18546 18550 28
14841 18551 18552 28
14842 18551 18553 28
14843 18551 18554 28
14844 18551 18555 28
14845 18556 18557 28
14846 18556 18558 28
14847 18556 18559 28
14848 18556 18560 28
14849 18561 18562 28
14850 18561 18563 28
14851 18561 18564 28
14852 18561 18565 28
14853 18566 18567 28
14854 18566 18568 28
14855 18566 18569 28
14856 18566 18570 28
14857 18571 18572 28
14858 18571 18573 28
14859 18571 18574 28
14860 18571 18575 28
14861 18576 18577 28
14862 18576 18578 28
14863 18576 18579 28
14864 18576 18580 28
14865 18581 18582 28
14866 18581 18583 28
14867 18581 18584 28
14868 18581 18585 28
14869 18586 18587 28
14870 18586 18588 28
14871 18586 18589 28
14872 18586 18590 28
14873 18591 18592 28
14874 18591 18593 28
14875 18591 18594 28
14876 18591 18595 28
14877 18596 18597 28
14878 18596 18598 28
14879 18596 18599 28
14880 18596 18600 28
14881 18601 18602 28
14882 18601 18603 28
14883 18601 18604 28
14884 18601 18605 28
14885 18606 18607 28
14886 18606 18608 28
14887 18606 18609 28
14888 18606 18610 28
14889 18611 18612 28
14890 18611 18613 28
14891 18611 18614 28
14892 18611 18615 28
14893 18616 18617 28
14894 18616 18618 28
14895 18616 18619 28
14896 18616 18620 28
14897 18621 18622 28
14898 18621 18623 28
14899 18621 18624 28
14900 18621 18625 28
14901 18626 18627 28
14902 18626 18628 28
14903 18626 18629 28
14904 18626 18630 28
14905 18631 18632 28
14906 18631 18633 28
14907 18631 18634 28
14908 18631 18635 28
14909 18636 18637 28
14910 18636 18638 28
14911 18636 18639 28
14912 18636 18640 28
14913 18641 18642 28
14914 18641 18643 28
14915 18641 18644 28
14916 18641 18645 28
14917 18646 18647 28
14918 18646 18648 28
14919 18646 18649 28
14920 18646 18650 28
14921 18651 18652 28
14922 18651 18653 28
14923 18651 18654 28
14924 18651 18655 28
14925 18656 18657 28
14926 18656 18658 28
14927 18656 18659 28
14928 18656 18660 28
14929 18661 18662 28
14930 18661 18663 28
14931 18661 18664 28
14932 18661 18665 28
14933 18666 18667 28
14934 18666 18668 28
14935 18666 18669 28
14936 18666 18670 28
14937 18671 18672 28
14938 18671 18673 28
14939 18671 18674 28
14940 18671 18675 28
14941 18676 18677 28
14942 18676 18678 28
14943 18676 18679 28
14944 18676 18680 28
14945 18681 18682 28
14946 18681 18683 28
14947 18681 18684 28
14948 18681 18685 28
14949 18686 18687 28
14950 18686 18688 28
14951 18686 18689 28
14952 18686 18690 28
14953 18691 18692 28
14954 18691 18693 28
14955 18691 18694 28
14956 18691 18695 28
14957 18696 18697 28
14958 18696 18698 28
14959 18696 18699 28
14960 18696 18700 28
14961 18701 18702 28
14962 18701 18703 28
14963 18701 18704 28
14964 18701 18705 28
14965 18706 18707 28
14966 18706 18708 28
14967 18706 18709 28
14968 18706 18710 28
14969 18711 18712 28
14970 18711 18713 28
14971 18711 18714 28
14972 18711 18715 28
14973 18716 18717 28
14974 18716 18718 28
14975 18716 18719 28
14976 18716 18720 28
14977 18721 18722 28
14978 18721 18723 28
14979 18721 18724 28
14980 18721 18725 28
14981 18726 18727 28
14982 18726 18728 28
14983 18726 18729 28
14984 18726 18730 28
14985 18731 18732 28
14986 18731 18733 28
14987 18731 18734 28
14988 18731 18735 28
14989 18736 18737 28
14990 18736 18738 28
14991 18736 18739 28
14992 18736 18740 28
14993 18741 18742 28
14994 18741 18743 28
14995 18741 18744 28
14996 18741 18745 28
14997 18746 18747 28
14998 18746 18748 28
14999 18746 18749 28
15000 18746 18750 28
15001 18751 18752 28
15002 18751 18753 28
15003 18751 18754 28
15004 18751 18755 28
15005 18756 18757 28
15006 18756 18758 28
15007 18756 18759 28
15008 18756 18760 28
15009 18761 18762 28
15010 18761 18763 28
15011 18761 18764 28
15012 18761 18765 28
15013 18766 18767 28
15014 18766 18768 28
15015 18766 18769 28
15016 18766 18770 28
15017 18771 18772 28
15018 18771 18773 28
15019 18771 18774 28
15020 18771 18775 28
15021 18776 18777 28
15022 18776 18778 28
15023 18776 18779 28
15024 18776 18780 28
15025 18781 18782 28
15026 18781 18783 28
15027 18781 18784 28
15028 18781 18785 28
15029 18786 18787 28
15030 18786 18788 28
15031 18786 18789 28
15032 18786 18790 28
15033 18791 18792 28
15034 18791 18793 28
15035 18791 18794 28
15036 18791 18795 28
15037 18796 18797 28
15038 18796 18798 28
15039 18796 18799 28
15040 18796 18800 28
15041 18801 18802 28
15042 18801 18803 28
15043 18801 18804 28
15044 18801 18805 28
15045 18806 18807 28
15046 18806 18808 28
15047 18806 18809 28
15048 18806 18810 28
15049 18811 18812 28
15050 18811 18813 28
15051 18811 18814 28
15052 18811 18815 28
15053 18816 18817 28
15054 18816 18818 28
15055 18816 18819 28
15056 18816 18820 28
15057 18821 18822 28
15058 18821 18823 28
15059 18821 18824 28
15060 18821 18825 28
15061 18826 18827 28
15062 18826 18828 28
15063 18826 18829 28
15064 18826 18830 28
15065 18831 18832 28
15066 18831 18833 28
15067 18831 18834 28
15068 18831 18835 28
15069 18836 18837 28
15070 18836 18838 28
15071 18836 18839 28
15072 18836 18840 28
15073 18841 18842 28
15074 18841 18843 28
15075 18841 18844 28
15076 18841 18845 28
15077 18846 18847 28
15078 18846 18848 28
15079 18846 18849 28
15080 18846 18850 28
15081 18851 18852 28
15082 18851 18853 28
15083 18851 18854 28
15084 18851 18855 28
15085 18856 18857 28
15086 18856 18858 28
15087 18856 18859 28
15088 18856 18860 28
15089 18861 18862 28
15090 18861 18863 28
15091 18861 18864 28
15092 18861 18865 28
15093 18866 18867 28
15094 18866 18868 28
15095 18866 18869 28
15096 18866 18870 28
15097 18871 18872 28
15098 18871 18873 28
15099 18871 18874 28
15100 18871 18875 28
15101 18876 18877 28
15102 18876 18878 28
15103 18876 18879 28
15104 18876 18880 28
15105 18881 18882 28
15106 18881 18883 28
15107 18881 18884 28
15108 18881 18885 28
15109 18886 18887 28
15110 18886 18888 28
15111 18886 18889 28
15112 18886 18890 28
15113 18891 18892 28
15114 18891 18893 28
15115 18891 18894 28
15116 18891 18895 28
15117 18896 18897 28
15118 18896 18898 28
15119 18896 18899 28
15120 18896 18900 28
15121 18901 18902 28
15122 18901 18903 28
15123 18901 18904 28
15124 18901 18905 28
15125 18906 18907 28
15126 18906 18908 28
15127 18906 18909 28
15128 18906 18910 28
15129 18911 18912 28
15130 18911 18913 28
15131 18911 18914 28
15132 18911 18915 28
15133 18916 18917 28
15134 18916 18918 28
15135 18916 18919 28
15136 18916 18920 28
15137 18921 18922 28
15138 18921 18923 28
15139 18921 18924 28
15140 18921 18925 28
15141 18926 18927 28
15142 18926 18928 28
15143 18926 18929 28
15144 18926 18930 28
15145 18931 18932 28
15146 18931 18933 28
15147 18931 18934 28
15148 18931 18935 28
15149 18936 18937 28
15150 18936 18938 28
15151 18936 18939 28
15152 18936 18940 28
15153 18941 18942 28
15154 18941 18943 28
15155 18941 18944 28
15156 18941 18945 28
15157 18946 18947 28
15158 18946 18948 28
15159 18946 18949 28
15160 18946 18950 28
15161 18951 18952 28
15162 18951 18953 28
15163 18951 18954 28
15164 18951 18955 28
15165 18956 18957 28
15166 18956 18958 28
15167 18956 18959 28
15168 18956 18960 28
15169 18961 18962 28
15170 18961 18963 28
15171 18961 18964 28
15172 18961 18965 28
15173 18966 18967 28
15174 18966 18968 28
15175 18966 18969 28
15176 18966 18970 28
15177 18971 18972 28
15178 18971 18973 28
15179 18971 18974 28
15180 18971 18975 28
15181 18976 18977 28
15182 18976 18978 28
15183 18976 18979 28
15184 18976 18980 28
15185 18981 18982 28
15186 18981 18983 28
15187 18981 18984 28
15188 18981 18985 28
15189 18986 18987 28
15190 18986 18988 28
15191 18986 18989 28
15192 18986 18990 28
15193 18991 18992 28
15194 18991 18993 28
15195 18991 18994 28
15196 18991 18995 28
15197 18996 18997 28
15198 18996 18998 28
15199 18996 18999 28
15200 18996 19000 28
15201 19001 19002 28
15202 19001 19003 28
15203 19001 19004 28
15204 19001 19005 28
15205 19006 19007 28
15206 19006 19008 28
15207 19006 19009 28
15208 19006 19010 28
15209 19011 19012 28
15210 19011 19013 28
15211 19011 19014 28
15212 19011 19015 28
15213 19016 19017 28
15214 19016 19018 28
15215 19016 19019 28
15216 19016 19020 28
15217 19021 19022 28
15218 19021 19023 28
15219 19021 19024 28
15220 19021 19025 28
15221 19026 19027 28
15222 19026 19028 28
15223 19026 19029 28
15224 19026 19030 28
15225 19031 19032 28
15226 19031 19033 28
15227 19031 19034 28
15228 19031 19035 28
15229 19036 19037 28
15230 19036 19038 28
15231 19036 19039 28
15232 19036 19040 28
15233 19041 19042 28
15234 19041 19043 28
15235 19041 19044 28
15236 19041 19045 28
15237 19046 19047 28
15238 19046 19048 28
15239 19046 19049 28
15240 19046 19050 28
15241 19051 19052 28
15242 19051 19053 28
15243 19051 19054 28
15244 19051 19055 28
15245 19056 19057 28
15246 19056 19058 28
15247 19056 19059 28
15248 19056 19060 28
15249 19061 19062 28
15250 19061 19063 28
15251 19061 19064 28
15252 19061 19065 28
15253 19066 19067 28
15254 19066 19068 28
15255 19066 19069 28
15256 19066 19070 28
15257 19071 19072 28
15258 19071 19073 28
15259 19071 19074 28
15260 19071 19075 28
15261 19076 19077 28
15262 19076 19078 28
15263 19076 19079 28
15264 19076 19080 28
15265 19081 19082 28
15266 19081 19083 28
15267 19081 19084 28
15268 19081 19085 28
15269 19086 19087 28
15270 19086 19088 28
15271 19086 19089 28
15272 19086 19090 28
15273 19091 19092 28
15274 19091 19093 28
15275 19091 19094 28
15276 19091 19095 28
15277 19096 19097 28
15278 19096 19098 28
15279 19096 19099 28
15280 19096 19100 28
15281 19101 19102 28
15282 19101 19103 28
15283 19101 19104 28
15284 19101 19105 28
15285 19106 19107 28
15286 19106 19108 28
15287 19106 19109 28
15288 19106 19110 28
15289 19111 19112 28
15290 19111 19113 28
15291 19111 19114 28
15292 19111 19115 28
15293 19116 19117 28
15294 19116 19118 28
15295 19116 19119 28
15296 19116 19120 28
15297 19121 19122 28
15298 19121 19123 28
15299 19121 19124 28
15300 19121 19125 28
15301 19126 19127 28
15302 19126 19128 28
15303 19126 19129 28
15304 19126 19130 28
15305 19131 19132 28
15306 19131 19133 28
15307 19131 19134 28
15308 19131 19135 28
15309 19136 19137 28
15310 19136 19138 28
15311 19136 19139 28
15312 19136 19140 28
15313 19141 19142 28
15314 19141 19143 28
15315 19141 19144 28
15316 19141 19145 28
15317 19146 19147 28
15318 19146 19148 28
15319 19146 19149 28
15320 19146 19150 28
15321 19151 19152 28
15322 19151 19153 28
15323 19151 19154 28
15324 19151 19155 28
15325 19156 19157 28
15326 19156 19158 28
15327 19156 19159 28
15328 19156 19160 28
15329 19161 19162 28
15330 19161 19163 28
15331 19161 19164 28
15332 19161 19165 28
15333 19166 19167 28
15334 19166 19168 28
15335 19166 19169 28
15336 19166 19170 28
15337 19171 19172 28
15338 19171 19173 28
15339 19171 19174 28
15340 19171 19175 28
15341 19176 19177 28
15342 19176 19178 28
15343 19176 19179 28
15344 19176 19180 28
15345 19181 19182 28
15346 19181 19183 28
15347 19181 19184 28
15348 19181 19185 28
15349 19186 19187 28
15350 19186 19188 28
15351 19186 19189 28
15352 19186 19190 28
15353 19191 19192 28
15354 19191 19193 28
15355 19191 19194 28
15356 19191 19195 28
15357 19196 19197 28
15358 19196 19198 28
15359 19196 19199 28
15360 19196 19200 28
15361 19201 19202 28
15362 19201 19203 28
15363 19201 19204 28
15364 19201 19205 28
15365 19206 19207 28
15366 19206 19208 28
15367 19206 19209 28
15368 19206 19210 28
15369 19211 19212 28
15370 19211 19213 28
15371 19211 19214 28
15372 19211 19215 28
15373 19216 19217 28
15374 19216 19218 28
15375 19216 19219 28
15376 19216 19220 28
15377 19221 19222 28
15378 19221 19223 28
15379 19221 19224 28
15380 19221 19225 28
15381 19226 19227 28
15382 19226 19228 28
15383 19226 19229 28
15384 19226 19230 28
15385 19231 19232 28
15386 19231 19233 28
15387 19231 19234 28
15388 19231 19235 28
15389 19236 19237 28
15390 19236 19238 28
15391 19236 19239 28
15392 19236 19240 28
15393 19241 19242 28
15394 19241 19243 28
15395 19241 19244 28
15396 19241 19245 28
15397 19246 19247 28
15398 19246 19248 28
15399 19246 19249 28
15400 19246 19250 28
15401 19251 19252 28
15402 19251 19253 28
15403 19251 19254 28
15404 19251 19255 28
15405 19256 19257 28
15406 19256 19258 28
15407 19256 19259 28
15408 19256 19260 28
15409 19261 19262 28
15410 19261 19263 28
15411 19261 19264 28
15412 19261 19265 28
15413 19266 19267 28
15414 19266 19268 28
15415 19266 19269 28
15416 19266 19270 28
15417 19271 19272 28
15418 19271 19273 28
15419 19271 19274 28
15420 19271 19275 28
15421 19276 19277 28
15422 19276 19278 28
15423 19276 19279 28
15424 19276 19280 28
15425 19281 19282 28
15426 19281 19283 28
15427 19281 19284 28
15428 19281 19285 28
15429 19286 19287 28
15430 19286 19288 28
15431 19286 19289 28
15432 19286 19290 28
15433 19291 19292 28
15434 19291 19293 28
15435 19291 19294 28
15436 19291 19295 28
15437 19296 19297 28
15438 19296 19298 28
15439 19296 19299 28
15440 19296 19300 28
15441 19301 19302 28
15442 19301 19303 28
15443 19301 19304 28
15444 19301 19305 28
15445 19306 19307 28
15446 19306 19308 28
15447 19306 19309 28
15448 19306 19310 28
15449 19311 19312 28
15450 19311 19313 28
15451 19311 19314 28
15452 19311 19315 28
15453 19316 19317 28
15454 19316 19318 28
15455 19316 19319 28
15456 19316 19320 28
15457 19321 19322 28
15458 19321 19323 28
15459 19321 19324 28
15460 19321 19325 28
15461 19326 19327 28
15462 19326 19328 28
15463 19326 19329 28
15464 19326 19330 28
15465 19331 19332 28
15466 19331 19333 28
15467 19331 19334 28
15468 19331 19335 28
15469 19336 19337 28
15470 19336 19338 28
15471 19336 19339 28
15472 19336 19340 28
15473 19341 19342 28
15474 19341 19343 28
15475 19341 19344 28
15476 19341 19345 28
15477 19346 19347 28
15478 19346 19348 28
15479 19346 19349 28
15480 19346 19350 28
15481 19351 19352 28
15482 19351 19353 28
15483 19351 19354 28
15484 19351 19355 28
15485 19356 19357 28
15486 19356 19358 28
15487 19356 19359 28
15488 19356 19360 28
15489 19361 19362 28
15490 19361 19363 28
15491 19361 19364 28
15492 19361 19365 28
15493 19366 19367 28
15494 19366 19368 28
15495 19366 19369 28
15496 19366 19370 28
15497 19371 19372 28
15498 19371 19373 28
15499 19371 19374 28
15500 19371 19375 28
15501 19376 19377 28
15502 19376 19378 28
15503 19376 19379 28
15504 19376 19380 28
15505 19381 19382 28
15506 19381 19383 28
15507 19381 19384 28
15508 19381 19385 28
15509 19386 19387 28
15510 19386 19388 28
15511 19386 19389 28
15512 19386 19390 28
15513 19391 19392 28
15514 19391 19393 28
15515 19391 19394 28
15516 19391 19395 28
15517 19396 19397 28
15518 19396 19398 28
15519 19396 19399 28
15520 19396 19400 28
15521 19401 19402 28
15522 19401 19403 28
15523 19401 19404 28
15524 19401 19405 28
15525 19406 19407 28
15526 19406 19408 28
15527 19406 19409 28
15528 19406 19410 28
15529 19411 19412 28
15530 19411 19413 28
15531 19411 19414 28
15532 19411 19415 28
15533 19416 19417 28
15534 19416 19418 28
15535 19416 19419 28
15536 19416 19420 28
15537 19421 19422 28
15538 19421 19423 28
15539 19421 19424 28
15540 19421 19425 28
15541 19426 19427 28
15542 19426 19428 28
15543 19426 19429 28
15544 19426 19430 28
15545 19431 19432 28
15546 19431 19433 28
15547 19431 19434 28
15548 19431 19435 28
15549 19436 19437 28
15550 19436 19438 28
15551 19436 19439 28
15552 19436 19440 28
15553 19441 19442 28
15554 19441 19443 28
15555 19441 19444 28
15556 19441 19445 28
15557 19446 19447 28
15558 19446 19448 28
15559 19446 19449 28
15560 19446 19450 28
15561 19451 19452 28
15562 19451 19453 28
15563 19451 19454 28
15564 19451 19455 28
15565 19456 19457 28
15566 19456 19458 28
15567 19456 19459 28
15568 19456 19460 28
15569 19461 19462 28
15570 19461 19463 28
15571 19461 19464 28
15572 19461 19465 28
15573 19466 19467 28
15574 19466 19468 28
15575 19466 19469 28
15576 19466 19470 28
15577 19471 19472 28
15578 19471 19473 28
15579 19471 19474 28
15580 19471 19475 28
15581 19476 19477 28
15582 19476 19478 28
15583 19476 19479 28
15584 19476 19480 28
15585 19481 19482 28
15586 19481 19483 28
15587 19481 19484 28
15588 19481 19485 28
15589 19486 19487 28
15590 19486 19488 28
15591 19486 19489 28
15592 19486 19490 28
15593 19491 19492 28
15594 19491 19493 28
15595 19491 19494 28
15596 19491 19495 28
15597 19496 19497 28
15598 19496 19498 28
15599 19496 19499 28
15600 19496 19500 28
15601 19501 19502 28
15602 19501 19503 28
15603 19501 19504 28
15604 19501 19505 28
15605 19506 19507 28
15606 19506 19508 28
15607 19506 19509 28
15608 19506 19510 28
15609 19511 19512 28
15610 19511 19513 28
15611 19511 19514 28
15612 19511 19515 28
15613 19516 19517 28
15614 19516 19518 28
15615 19516 19519 28
15616 19516 19520 28
15617 19521 19522 28
15618 19521 19523 28
15619 19521 19524 28
15620 19521 19525 28
15621 19526 19527 28
15622 19526 19528 28
15623 19526 19529 28
15624 19526 19530 28
15625 19531 19532 28
15626 19531 19533 28
15627 19531 19534 28
15628 19531 19535 28
15629 19536 19537 28
15630 19536 19538 28
15631 19536 19539 28
15632 19536 19540 28
15633 19541 19542 28
15634 19541 19543 28
15635 19541 19544 28
15636 19541 19545 28
15637 19546 19547 28
15638 19546 19548 28
15639 19546 19549 28
15640 19546 19550 28
15641 19551 19552 28
15642 19551 19553 28
15643 19551 19554 28
15644 19551 19555 28
15645 19556 19557 28
15646 19556 19558 28
15647 19556 19559 28
15648 19556 19560 28
15649 19561 19562 28
15650 19561 19563 28
15651 19561 19564 28
15652 19561 19565 28
15653 19566 19567 28
15654 19566 19568 28
15655 19566 19569 28
15656 19566 19570 28
15657 19571 19572 28
15658 19571 19573 28
15659 19571 19574 28
15660 19571 19575 28
15661 19576 19577 28
15662 19576 19578 28
15663 19576 19579 28
15664 19576 19580 28
15665 19581 19582 28
15666 19581 19583 28
15667 19581 19584 28
15668 19581 19585 28
15669 19586 19587 28
15670 19586 19588 28
15671 19586 19589 28
15672 19586 19590 28
15673 19591 19592 28
15674 19591 19593 28
15675 19591 19594 28
15676 19591 19595 28
15677 19596 19597 28
15678 19596 19598 28
15679 19596 19599 28
15680 19596 19600 28
15681 19601 19602 28
15682 19601 19603 28
15683 19601 19604 28
15684 19601 19605 28
15685 19606 19607 28
15686 19606 19608 28
15687 19606 19609 28
15688 19606 19610 28
15689 19611 19612 28
15690 19611 19613 28
15691 19611 19614 28
15692 19611 19615 28
15693 19616 19617 28
15694 19616 19618 28
15695 19616 19619 28
15696 19616 19620 28
15697 19621 19622 28
15698 19621 19623 28
15699 19621 19624 28
15700 19621 19625 28
15701 19626 19627 28
15702 19626 19628 28
15703 19626 19629 28
15704 19626 19630 28
15705 19631 19632 28
15706 19631 19633 28
15707 19631 19634 28
15708 19631 19635 28
15709 19636 19637 28
15710 19636 19638 28
15711 19636 19639 28
15712 19636 19640 28
15713 19641 19642 28
15714 19641 19643 28
15715 19641 19644 28
15716 19641 19645 28
15717 19646 19647 28
15718 19646 19648 28
15719 19646 19649 28
15720 19646 19650 28
15721 19651 19652 28
15722 19651 19653 28
15723 19651 19654 28
15724 19651 19655 28
15725 19656 19657 28
15726 19656 19658 28
15727 19656 19659 28
15728 19656 19660 28
15729 19661 19662 28
15730 19661 19663 28
15731 19661 19664 28
15732 19661 19665 28
15733 19666 19667 28
15734 19666 19668 28
15735 19666 19669 28
15736 19666 19670 28
15737 19671 19672 28
15738 19671 19673 28
15739 19671 19674 28
15740 19671 19675 28
15741 19676 19677 28
15742 19676 19678 28
15743 19676 19679 28
15744 19676 19680 28
15745 19681 19682 28
15746 19681 19683 28
15747 19681 19684 28
15748 19681 19685 28
15749 19686 19687 28
15750 19686 19688 28
15751 19686 19689 28
15752 19686 19690 28
15753 19691 19692 28
15754 19691 19693 28
15755 19691 19694 28
15756 19691 19695 28
15757 19696 19697 28
15758 19696 19698 28
15759 19696 19699 28
15760 19696 19700 28
15761 19701 19702 28
15762 19701 19703 28
15763 19701 19704 28
15764 19701 19705 28
15765 19706 19707 28
15766 19706 19708 28
15767 19706 19709 28
15768 19706 19710 28
15769 19711 19712 28
15770 19711 19713 28
15771 19711 19714 28
15772 19711 19715 28
15773 19716 19717 28
15774 19716 19718 28
15775 19716 19719 28
15776 19716 19720 28
15777 19721 19722 28
15778 19721 19723 28
15779 19721 19724 28
15780 19721 19725 28
15781 19726 19727 28
15782 19726 19728 28
15783 19726 19729 28
15784 19726 19730 28
15785 19731 19732 28
15786 19731 19733 28
15787 19731 19734 28
15788 19731 19735 28
15789 19736 19737 28
15790 19736 19738 28
15791 19736 19739 28
15792 19736 19740 28
15793 19741 19742 28
15794 19741 19743 28
15795 19741 19744 28
15796 19741 19745 28
15797 19746 19747 28
15798 19746 19748 28
15799 19746 19749 28
15800 19746 19750 28
15801 19751 19752 28
15802 19751 19753 28
15803 19751 19754 28
15804 19751 19755 28
15805 19756 19757 28
15806 19756 19758 28
15807 19756 19759 28
15808 19756 19760 28
15809 19761 19762 28
15810 19761 19763 28
15811 19761 19764 28
15812 19761 19765 28
15813 19766 19767 28
15814 19766 19768 28
15815 19766 19769 28
15816 19766 19770 28
15817 19771 19772 28
15818 19771 19773 28
15819 19771 19774 28
15820 19771 19775 28
15821 19776 19777 28
15822 19776 19778 28
15823 19776 19779 28
15824 19776 19780 28
15825 19781 19782 28
15826 19781 19783 28
15827 19781 19784 28
15828 19781 19785 28
15829 19786 19787 28
15830 19786 19788 28
15831 19786 19789 28
15832 19786 19790 28
15833 19791 19792 28
15834 19791 19793 28
15835 19791 19794 28
15836 19791 19795 28
15837 19796 19797 28
15838 19796 19798 28
15839 19796 19799 28
15840 19796 19800 28
15841 19801 19802 28
15842 19801 19803 28
15843 19801 19804 28
15844 19801 19805 28
15845 19806 19807 28
15846 19806 19808 28
15847 19806 19809 28
15848 19806 19810 28
15849 19811 19812 28
15850 19811 19813 28
15851 19811 19814 28
15852 19811 19815 28
15853 19816 19817 28
15854 19816 19818 28
15855 19816 19819 28
15856 19816 19820 28
15857 19821 19822 28
15858 19821 19823 28
15859 19821 19824 28
15860 19821 19825 28
15861 19826 19827 28
15862 19826 19828 28
15863 19826 19829 28
15864 19826 19830 28
15865 19831 19832 28
15866 19831 19833 28
15867 19831 19834 28
15868 19831 19835 28
15869 19836 19837 28
15870 19836 19838 28
15871 19836 19839 28
15872 19836 19840 28
15873 19841 19842 28
15874 19841 19843 28
15875 19841 19844 28
15876 19841 19845 28
15877 19846 19847 28
15878 19846 19848 28
15879 19846 19849 28
15880 19846 19850 28
15881 19851 19852 28
15882 19851 19853 28
15883 19851 19854 28
15884 19851 19855 28
15885 19856 19857 28
15886 19856 19858 28
15887 19856 19859 28
15888 19856 19860 28
15889 19861 19862 28
15890 19861 19863 28
15891 19861 19864 28
15892 19861 19865 28
15893 19866 19867 28
15894 19866 19868 28
15895 19866 19869 28
15896 19866 19870 28
15897 19871 19872 28
15898 19871 19873 28
15899 19871 19874 28
15900 19871 19875 28
15901 19876 19877 28
15902 19876 19878 28
15903 19876 19879 28
15904 19876 19880 28
15905 19881 19882 28
15906 19881 19883 28
15907 19881 19884 28
15908 19881 19885 28
15909 19886 19887 28
15910 19886 19888 28
15911 19886 19889 28
15912 19886 19890 28
15913 19891 19892 28
15914 19891 19893 28
15915 19891 19894 28
15916 19891 19895 28
15917 19896 19897 28
15918 19896 19898 28
15919 19896 19899 28
15920 19896 19900 28
15921 19901 19902 28
15922 19901 19903 28
15923 19901 19904 28
15924 19901 19905 28
15925 19906 19907 28
15926 19906 19908 28
15927 19906 19909 28
15928 19906 19910 28
15929 19911 19912 28
15930 19911 19913 28
15931 19911 19914 28
15932 19911 19915 28
15933 19916 19917 28
15934 19916 19918 28
15935 19916 19919 28
15936 19916 19920 28
15937 19921 19922 28
15938 19921 19923 28
15939 19921 19924 28
15940 19921 19925 28
15941 19926 19927 28
15942 19926 19928 28
15943 19926 19929 28
15944 19926 19930 28
15945 19931 19932 28
15946 19931 19933 28
15947 19931 19934 28
15948 19931 19935 28
15949 19936 19937 28
15950 19936 19938 28
15951 19936 19939 28
15952 19936 19940 28
15953 19941 19942 28
15954 19941 19943 28
15955 19941 19944 28
15956 19941 19945 28
15957 19946 19947 28
15958 19946 19948 28
15959 19946 19949 28
15960 19946 19950 28
15961 19951 19952 28
15962 19951 19953 28
15963 19951 19954 28
15964 19951 19955 28
15965 19956 19957 28
15966 19956 19958 28
15967 19956 19959 28
15968 19956 19960 28
15969 19961 19962 28
15970 19961 19963 28
15971 19961 19964 28
15972 19961 19965 28
15973 19966 19967 28
15974 19966 19968 28
15975 19966 19969 28
15976 19966 19970 28
15977 19971 19972 28
15978 19971 19973 28
15979 19971 19974 28
15980 19971 19975 28
15981 19976 19977 28
15982 19976 19978 28
15983 19976 19979 28
15984 19976 19980 28
15985 19981 19982 28
15986 19981 19983 28
15987 19981 19984 28
15988 19981 19985 28
15989 19986 19987 28
15990 19986 19988 28
15991 19986 19989 28
15992 19986 19990 28
15993 19991 19992 28
15994 19991 19993 28
15995 19991 19994 28
15996 19991 19995 28
15997 19996 19997 28
15998 19996 19998 28
15999 19996 19999 28
16000 19996 20000 28
16001 20001 20002 28
16002 20001 20003 28
16003 20001 20004 28
16004 20001 20005 28
16005 20006 20007 28
16006 20006 20008 28
16007 20006 20009 28
16008 20006 20010 28
16009 20011 20012 28
16010 20011 20013 28
16011 20011 20014 28
16012 20011 20015 28
16013 20016 20017 28
16014 20016 20018 28
16015 20016 20019 28
16016 20016 20020 28
16017 20021 20022 28
16018 20021 20023 28
16019 20021 20024 28
16020 20021 20025 28
16021 20026 20027 28
16022 20026 20028 28
16023 20026 20029 28
16024 20026 20030 28
16025 20031 20032 28
16026 20031 20033 28
16027 20031 20034 28
16028 20031 20035 28
16029 20036 20037 28
16030 20036 20038 28
16031 20036 20039 28
16032 20036 20040 28
16033 20041 20042 28
16034 20041 20043 28
16035 20041 20044 28
16036 20041 20045 28
16037 20046 20047 28
16038 20046 20048 28
16039 20046 20049 28
16040 20046 20050 28
16041 20051 20052 28
16042 20051 20053 28
16043 20051 20054 28
16044 20051 20055 28
16045 20056 20057 28
16046 20056 20058 28
16047 20056 20059 28
16048 20056 20060 28
16049 20061 20062 28
16050 20061 20063 28
16051 20061 20064 28
16052 20061 20065 28
16053 20066 20067 28
16054 20066 20068 28
16055 20066 20069 28
16056 20066 20070 28
16057 20071 20072 28
16058 20071 20073 28
16059 20071 20074 28
16060 20071 20075 28
16061 20076 20077 28
16062 20076 20078 28
16063 20076 20079 28
16064 20076 20080 28
16065 20081 20082 28
16066 20081 20083 28
16067 20081 20084 28
16068 20081 20085 28
16069 20086 20087 28
16070 20086 20088 28
16071 20086 20089 28
16072 20086 20090 28
16073 20091 20092 28
16074 20091 20093 28
16075 20091 20094 28
16076 20091 20095 28
16077 20096 20097 28
16078 20096 20098 28
16079 20096 20099 28
16080 20096 20100 28
16081 20101 20102 28
16082 20101 20103 28
16083 20101 20104 28
16084 20101 20105 28
16085 20106 20107 28
16086 20106 20108 28
16087 20106 20109 28
16088 20106 20110 28
16089 20111 20112 28
16090 20111 20113 28
16091 20111 20114 28
16092 20111 20115 28
16093 20116 20117 28
16094 20116 20118 28
16095 20116 20119 28
16096 20116 20120 28
16097 20121 20122 28
16098 20121 20123 28
16099 20121 20124 28
16100 20121 20125 28
16101 20126 20127 28
16102 20126 20128 28
16103 20126 20129 28
16104 20126 20130 28
16105 20131 20132 28
16106 20131 20133 28
16107 20131 20134 28
16108 20131 20135 28
16109 20136 20137 28
16110 20136 20138 28
16111 20136 20139 28
16112 20136 20140 28
16113 20141 20142 28
16114 20141 20143 28
16115 20141 20144 28
16116 20141 20145 28
16117 20146 20147 28
16118 20146 20148 28
16119 20146 20149 28
16120 20146 20150 28
16121 20151 20152 28
16122 20151 20153 28
16123 20151 20154 28
16124 20151 20155 28
16125 20156 20157 28
16126 20156 20158 28
16127 20156 20159 28
16128 20156 20160 28
16129 20161 20162 28
16130 20161 20163 28
16131 20161 20164 28
16132 20161 20165 28
16133 20166 20167 28
16134 20166 20168 28
16135 20166 20169 28
16136 20166 20170 28
16137 20171 20172 28
16138 20171 20173 28
16139 20171 20174 28
16140 20171 20175 28
16141 20176 20177 28
16142 20176 20178 28
16143 20176 20179 28
16144 20176 20180 28
16145 20181 20182 28
16146 20181 20183 28
16147 20181 20184 28
16148 20181 20185 28
16149 20186 20187 28
16150 20186 20188 28
16151 20186 20189 28
16152 20186 20190 28
16153 20191 20192 28
16154 20191 20193 28
16155 20191 20194 28
16156 20191 20195 28
16157 20196 20197 28
16158 20196 20198 28
16159 20196 20199 28
16160 20196 20200 28
16161 20201 20202 28
16162 20201 20203 28
16163 20201 20204 28
16164 20201 20205 28
16165 20206 20207 28
16166 20206 20208 28
16167 20206 20209 28
16168 20206 20210 28
16169 20211 20212 28
16170 20211 20213 28
16171 20211 20214 28
16172 20211 20215 28
16173 20216 20217 28
16174 20216 20218 28
16175 20216 20219 28
16176 20216 20220 28
16177 20221 20222 28
16178 20221 20223 28
16179 20221 20224 28
16180 20221 20225 28
16181 20226 20227 28
16182 20226 20228 28
16183 20226 20229 28
16184 20226 20230 28
16185 20231 20232 28
16186 20231 20233 28
16187 20231 20234 28
16188 20231 20235 28
16189 20236 20237 28
16190 20236 20238 28
16191 20236 20239 28
16192 20236 20240 28
16193 20241 20242 28
16194 20241 20243 28
16195 20241 20244 28
16196 20241 20245 28
16197 20246 20247 28
16198 20246 20248 28
16199 20246 20249 28
16200 20246 20250 28
16201 20251 20252 28
16202 20251 20253 28
16203 20251 20254 28
16204 20251 20255 28
16205 20256 20257 28
16206 20256 20258 28
16207 20256 20259 28
16208 20256 20260 28
16209 20261 20262 28
16210 20261 20263 28
16211 20261 20264 28
16212 20261 20265 28
16213 20266 20267 28
16214 20266 20268 28
16215 20266 20269 28
16216 20266 20270 28
16217 20271 20272 28
16218 20271 20273 28
16219 20271 20274 28
16220 20271 20275 28
16221 20276 20277 28
16222 20276 20278 28
16223 20276 20279 28
16224 20276 20280 28
16225 20281 20282 28
16226 20281 20283 28
16227 20281 20284 28
16228 20281 20285 28
16229 20286 20287 28
16230 20286 20288 28
16231 20286 20289 28
16232 20286 20290 28
16233 20291 20292 28
16234 20291 20293 28
16235 20291 20294 28
16236 20291 20295 28
16237 20296 20297 28
16238 20296 20298 28
16239 20296 20299 28
16240 20296 20300 28
16241 20301 20302 28
16242 20301 20303 28
16243 20301 20304 28
16244 20301 20305 28
16245 20306 20307 28
16246 20306 20308 28
16247 20306 20309 28
16248 20306 20310 28
16249 20311 20312 28
16250 20311 20313 28
16251 20311 20314 28
16252 20311 20315 28
16253 20316 20317 28
16254 20316 20318 28
16255 20316 20319 28
16256 20316 20320 28
16257 20321 20322 28
16258 20321 20323 28
16259 20321 20324 28
16260 20321 20325 28
16261 20326 20327 28
16262 20326 20328 28
16263 20326 20329 28
16264 20326 20330 28
16265 20331 20332 28
16266 20331 20333 28
16267 20331 20334 28
16268 20331 20335 28
16269 20336 20337 28
16270 20336 20338 28
16271 20336 20339 28
16272 20336 20340 28
16273 20341 20342 28
16274 20341 20343 28
16275 20341 20344 28
16276 20341 20345 28
16277 20346 20347 28
16278 20346 20348 28
16279 20346 20349 28
16280 20346 20350 28
16281 20351 20352 28
16282 20351 20353 28
16283 20351 20354 28
16284 20351 20355 28
16285 20356 20357 28
16286 20356 20358 28
16287 20356 20359 28
16288 20356 20360 28
16289 20361 20362 28
16290 20361 20363 28
16291 20361 20364 28
16292 20361 20365 28
16293 20366 20367 28
16294 20366 20368 28
16295 20366 20369 28
16296 20366 20370 28
16297 20371 20372 28
16298 20371 20373 28
16299 20371 20374 28
16300 20371 20375 28
16301 20376 20377 28
16302 20376 20378 28
16303 20376 20379 28
16304 20376 20380 28
16305 20381 20382 28
16306 20381 20383 28
16307 20381 20384 28
16308 20381 20385 28
16309 20386 20387 28
16310 20386 20388 28
16311 20386 20389 28
16312 20386 20390 28
16313 20391 20392 28
16314 20391 20393 28
16315 20391 20394 28
16316 20391 20395 28
16317 20396 20397 28
16318 20396 20398 28
16319 20396 20399 28
16320 20396 20400 28
16321 20401 20402 28
16322 20401 20403 28
16323 20401 20404 28
16324 20401 20405 28
16325 20406 20407 28
16326 20406 20408 28
16327 20406 20409 28
16328 20406 20410 28
16329 20411 20412 28
16330 20411 20413 28
16331 20411 20414 28
16332 20411 20415 28
16333 20416 20417 28
16334 20416 20418 28
16335 20416 20419 28
16336 20416 20420 28
16337 20421 20422 28
16338 20421 20423 28
16339 20421 20424 28
16340 20421 20425 28
16341 20426 20427 28
16342 20426 20428 28
16343 20426 20429 28
16344 20426 20430 28
16345 20431 20432 28
16346 20431 20433 28
16347 20431 20434 28
16348 20431 20435 28
16349 20436 20437 28
16350 20436 20438 28
16351 20436 20439 28
16352 20436 20440 28
16353 20441 20442 28
16354 20441 20443 28
16355 20441 20444 28
16356 20441 20445 28
16357 20446 20447 28
16358 20446 20448 28
16359 20446 20449 28
16360 20446 20450 28
16361 20451 20452 28
16362 20451 20453 28
16363 20451 20454 28
16364 20451 20455 28
16365 20456 20457 28
16366 20456 20458 28
16367 20456 20459 28
16368 20456 20460 28
16369 20461 20462 28
16370 20461 20463 28
16371 20461 20464 28
16372 20461 20465 28
16373 20466 20467 28
16374 20466 20468 28
16375 20466 20469 28
16376 20466 20470 28
16377 20471 20472 28
16378 20471 20473 28
16379 20471 20474 28
16380 20471 20475 28
16381 20476 20477 28
16382 20476 20478 28
16383 20476 20479 28
16384 20476 20480 28
16385 20481 20482 28
16386 20481 20483 28
16387 20481 20484 28
16388 20481 20485 28
16389 20486 20487 28
16390 20486 20488 28
16391 20486 20489 28
16392 20486 20490 28
16393 20491 20492 28
16394 20491 20493 28
16395 20491 20494 28
16396 20491 20495 28
16397 20496 20497 28
16398 20496 20498 28
16399 20496 20499 28
16400 20496 20500 28
16401 20501 20502 28
16402 20501 20503 28
16403 20501 20504 28
16404 20501 20505 28
16405 20506 20507 28
16406 20506 20508 28
16407 20506 20509 28
16408 20506 20510 28
16409 20511 20512 28
16410 20511 20513 28
16411 20511 20514 28
16412 20511 20515 28
16413 20516 20517 28
16414 20516 20518 28
16415 20516 20519 28
16416 20516 20520 28
16417 20521 20522 28
16418 20521 20523 28
16419 20521 20524 28
16420 20521 20525 28
16421 20526 20527 28
16422 20526 20528 28
16423 20526 20529 28
16424 20526 20530 28
16425 20531 20532 28
16426 20531 20533 28
16427 20531 20534 28
16428 20531 20535 28
16429 20536 20537 28
16430 20536 20538 28
16431 20536 20539 28
16432 20536 20540 28
16433 20541 20542 28
16434 20541 20543 28
16435 20541 20544 28
16436 20541 20545 28
16437 20546 20547 28
16438 20546 20548 28
16439 20546 20549 28
16440 20546 20550 28
16441 20551 20552 28
16442 20551 20553 28
16443 20551 20554 28
16444 20551 20555 28
16445 20556 20557 28
16446 20556 20558 28
16447 20556 20559 28
16448 20556 20560 28
16449 20561 20562 28
16450 20561 20563 28
16451 20561 20564 28
16452 20561 20565 28
16453 20566 20567 28
16454 20566 20568 28
16455 20566 20569 28
16456 20566 20570 28
16457 20571 20572 28
16458 20571 20573 28
16459 20571 20574 28
16460 20571 20575 28
16461 20576 20577 28
16462 20576 20578 28
16463 20576 20579 28
16464 20576 20580 28
16465 20581 20582 28
16466 20581 20583 28
16467 20581 20584 28
16468 20581 20585 28
16469 20586 20587 28
16470 20586 20588 28
16471 20586 20589 28
16472 20586 20590 28
16473 20591 20592 28
16474 20591 20593 28
16475 20591 20594 28
16476 20591 20595 28
16477 20596 20597 28
16478 20596 20598 28
16479 20596 20599 28
16480 20596 20600 28
16481 20601 20602 28
16482 20601 20603 28
16483 20601 20604 28
16484 20601 20605 28
16485 20606 20607 28
16486 20606 20608 28
16487 20606 20609 28
16488 20606 20610 28
16489 20611 20612 28
16490 20611 20613 28
16491 20611 20614 28
16492 20611 20615 28
16493 20616 20617 28
16494 20616 20618 28
16495 20616 20619 28
16496 20616 20620 28
16497 20621 20622 28
16498 20621 20623 28
16499 20621 20624 28
16500 20621 20625 28
16501 20626 20627 28
16502 20626 20628 28
16503 20626 20629 28
16504 20626 20630 28
16505 20631 20632 28
16506 20631 20633 28
16507 20631 20634 28
16508 20631 20635 28
16509 20636 20637 28
16510 20636 20638 28
16511 20636 20639 28
16512 20636 20640 28
16513 20641 20642 28
16514 20641 20643 28
16515 20641 20644 28
16516 20641 20645 28
16517 20646 20647 28
16518 20646 20648 28
16519 20646 20649 28
16520 20646 20650 28
16521 20651 20652 28
16522 20651 20653 28
16523 20651 20654 28
16524 20651 20655 28
16525 20656 20657 28
16526 20656 20658 28
16527 20656 20659 28
16528 20656 20660 28
16529 20661 20662 28
16530 20661 20663 28
16531 20661 20664 28
16532 20661 20665 28
16533 20666 20667 28
16534 20666 20668 28
16535 20666 20669 28
16536 20666 20670 28
16537 20671 20672 28
16538 20671 20673 28
16539 20671 20674 28
16540 20671 20675 28
16541 20676 20677 28
16542 20676 20678 28
16543 20676 20679 28
16544 20676 20680 28
16545 20681 20682 28
16546 20681 20683 28
16547 20681 20684 28
16548 20681 20685 28
16549 20686 20687 28
16550 20686 20688 28
16551 20686 20689 28
16552 20686 20690 28
16553 20691 20692 28
16554 20691 20693 28
16555 20691 20694 28
16556 20691 20695 28
16557 20696 20697 28
16558 20696 20698 28
16559 20696 20699 28
16560 20696 20700 28
16561 20701 20702 28
16562 20701 20703 28
16563 20701 20704 28
16564 20701 20705 28
16565 20706 20707 28
16566 20706 20708 28
16567 20706 20709 28
16568 20706 20710 28
16569 20711 20712 28
16570 20711 20713 28
16571 20711 20714 28
16572 20711 20715 28
16573 20716 20717 28
16574 20716 20718 28
16575 20716 20719 28
16576 20716 20720 28
16577 20721 20722 28
16578 20721 20723 28
16579 20721 20724 28
16580 20721 20725 28
16581 20726 20727 28
16582 20726 20728 28
16583 20726 20729 28
16584 20726 20730 28
16585 20731 20732 28
16586 20731 20733 28
16587 20731 20734 28
16588 20731 20735 28
16589 20736 20737 28
16590 20736 20738 28
16591 20736 20739 28
16592 20736 20740 28
16593 20741 20742 28
16594 20741 20743 28
16595 20741 20744 28
16596 20741 20745 28
16597 20746 20747 28
16598 20746 20748 28
16599 20746 20749 28
16600 20746 20750 28
16601 20751 20752 28
16602 20751 20753 28
16603 20751 20754 28
16604 20751 20755 28
16605 20756 20757 28
16606 20756 20758 28
16607 20756 20759 28
16608 20756 20760 28
16609 20761 20762 28
16610 20761 20763 28
16611 20761 20764 28
16612 20761 20765 28
16613 20766 20767 28
16614 20766 20768 28
16615 20766 20769 28
16616 20766 20770 28
16617 20771 20772 28
16618 20771 20773 28
16619 20771 20774 28
16620 20771 20775 28
16621 20776 20777 28
16622 20776 20778 28
16623 20776 20779 28
16624 20776 20780 28
16625 20781 20782 28
16626 20781 20783 28
16627 20781 20784 28
16628 20781 20785 28
16629 20786 20787 28
16630 20786 20788 28
16631 20786 20789 28
16632 20786 20790 28
16633 20791 20792 28
16634 20791 20793 28
16635 20791 20794 28
16636 20791 20795 28
16637 20796 20797 28
16638 20796 20798 28
16639 20796 20799 28
16640 20796 20800 28
16641 20801 20802 28
16642 20801 20803 28
16643 20801 20804 28
16644 20801 20805 28
16645 20806 20807 28
16646 20806 20808 28
16647 20806 20809 28
16648 20806 20810 28
16649 20811 20812 28
16650 20811 20813 28
16651 20811 20814 28
16652 20811 20815 28
16653 20816 20817 28
16654 20816 20818 28
16655 20816 20819 28
16656 20816 20820 28
16657 20821 20822 28
16658 20821 20823 28
16659 20821 20824 28
16660 20821 20825 28
16661 20826 20827 28
16662 20826 20828 28
16663 20826 20829 28
16664 20826 20830 28
16665 20831 20832 28
16666 20831 20833 28
16667 20831 20834 28
16668 20831 20835 28
16669 20836 20837 28
16670 20836 20838 28
16671 20836 20839 28
16672 20836 20840 28
16673 20841 20842 28
16674 20841 20843 28
16675 20841 20844 28
16676 20841 20845 28
16677 20846 20847 28
16678 20846 20848 28
16679 20846 20849 28
16680 20846 20850 28
16681 20851 20852 28
16682 20851 20853 28
16683 20851 20854 28
16684 20851 20855 28
16685 20856 20857 28
16686 20856 20858 28
16687 20856 20859 28
16688 20856 20860 28
16689 20861 20862 28
16690 20861 20863 28
16691 20861 20864 28
16692 20861 20865 28
16693 20866 20867 28
16694 20866 20868 28
16695 20866 20869 28
16696 20866 20870 28
16697 20871 20872 28
16698 20871 20873 28
16699 20871 20874 28
16700 20871 20875 28
16701 20876 20877 28
16702 20876 20878 28
16703 20876 20879 28
16704 20876 20880 28
16705 20881 20882 28
16706 20881 20883 28
16707 20881 20884 28
16708 20881 20885 28
16709 20886 20887 28
16710 20886 20888 28
16711 20886 20889 28
16712 20886 20890 28
16713 20891 20892 28
16714 20891 20893 28
16715 20891 20894 28
16716 20891 20895 28
16717 20896 20897 28
16718 20896 20898 28
16719 20896 20899 28
16720 20896 20900 28
16721 20901 20902 28
16722 20901 20903 28
16723 20901 20904 28
16724 20901 20905 28
16725 20906 20907 28
16726 20906 20908 28
16727 20906 20909 28
16728 20906 20910 28
16729 20911 20912 28
16730 20911 20913 28
16731 20911 20914 28
16732 20911 20915 28
16733 20916 20917 28
16734 20916 20918 28
16735 20916 20919 28
16736 20916 20920 28
16737 20921 20922 28
16738 20921 20923 28
16739 20921 20924 28
16740 20921 20925 28
16741 20926 20927 28
16742 20926 20928 28
16743 20926 20929 28
16744 20926 20930 28
16745 20931 20932 28
16746 20931 20933 28
16747 20931 20934 28
16748 20931 20935 28
16749 20936 20937 28
16750 20936 20938 28
16751 20936 20939 28
16752 20936 20940 28
16753 20941 20942 28
16754 20941 20943 28
16755 20941 20944 28
16756 20941 20945 28
16757 20946 20947 28
16758 20946 20948 28
16759 20946 20949 28
16760 20946 20950 28
16761 20951 20952 28
16762 20951 20953 28
16763 20951 20954 28
16764 20951 20955 28
16765 20956 20957 28
16766 20956 20958 28
16767 20956 20959 28
16768 20956 20960 28
16769 20961 20962 28
16770 20961 20963 28
16771 20961 20964 28
16772 20961 20965 28
16773 20966 20967 28
16774 20966 20968 28
16775 20966 20969 28
16776 20966 20970 28
16777 20971 20972 28
16778 20971 20973 28
16779 20971 20974 28
16780 20971 20975 28
16781 20976 20977 28
16782 20976 20978 28
16783 20976 20979 28
16784 20976 20980 28
16785 20981 20982 28
16786 20981 20983 28
16787 20981 20984 28
16788 20981 20985 28
16789 20986 20987 28
16790 20986 20988 28
16791 20986 20989 28
16792 20986 20990 28
16793 20991 20992 28
16794 20991 20993 28
16795 20991 20994 28
16796 20991 20995 28
16797 20996 20997 28
16798 20996 20998 28
16799 20996 20999 28
16800 20996 21000 28
16801 21001 21002 28
16802 21001 21003 28
16803 21001 21004 28
16804 21001 21005 28
16805 21006 21007 28
16806 21006 21008 28
16807 21006 21009 28
16808 21006 21010 28
16809 21011 21012 28
16810 21011 21013 28
16811 21011 21014 28
16812 21011 21015 28
16813 21016 21017 28
16814 21016 21018 28
16815 21016 21019 28
16816 21016 21020 28
16817 21021 21022 28
16818 21021 21023 28
16819 21021 21024 28
16820 21021 21025 28
16821 21026 21027 28
16822 21026 21028 28
16823 21026 21029 28
16824 21026 21030 28
16825 21031 21032 28
16826 21031 21033 28
16827 21031 21034 28
16828 21031 21035 28
16829 21036 21037 28
16830 21036 21038 28
16831 21036 21039 28
16832 21036 21040 28
16833 21041 21042 28
16834 21041 21043 28
16835 21041 21044 28
16836 21041 21045 28
16837 21046 21047 28
16838 21046 21048 28
16839 21046 21049 28
16840 21046 21050 28
16841 21051 21052 28
16842 21051 21053 28
16843 21051 21054 28
16844 21051 21055 28
16845 21056 21057 28
16846 21056 21058 28
16847 21056 21059 28
16848 21056 21060 28
16849 21061 21062 28
16850 21061 21063 28
16851 21061 21064 28
16852 21061 21065 28
16853 21066 21067 28
16854 21066 21068 28
16855 21066 21069 28
16856 21066 21070 28
16857 21071 21072 28
16858 21071 21073 28
16859 21071 21074 28
16860 21071 21075 28
16861 21076 21077 28
16862 21076 21078 28
16863 21076 21079 28
16864 21076 21080 28
16865 21081 21082 28
16866 21081 21083 28
16867 21081 21084 28
16868 21081 21085 28
16869 21086 21087 28
16870 21086 21088 28
16871 21086 21089 28
16872 21086 21090 28
16873 21091 21092 28
16874 21091 21093 28
16875 21091 21094 28
16876 21091 21095 28
16877 21096 21097 28
16878 21096 21098 28
16879 21096 21099 28
16880 21096 21100 28
16881 21101 21102 28
16882 21101 21103 28
16883 21101 21104 28
16884 21101 21105 28
16885 21106 21107 28
16886 21106 21108 28
16887 21106 21109 28
16888 21106 21110 28
16889 21111 21112 28
16890 21111 21113 28
16891 21111 21114 28
16892 21111 21115 28
16893 21116 21117 28
16894 21116 21118 28
16895 21116 21119 28
16896 21116 21120 28
16897 21121 21122 28
16898 21121 21123 28
16899 21121 21124 28
16900 21121 21125 28
16901 21126 21127 28
16902 21126 21128 28
16903 21126 21129 28
16904 21126 21130 28
16905 21131 21132 28
16906 21131 21133 28
16907 21131 21134 28
16908 21131 21135 28
16909 21136 21137 28
16910 21136 21138 28
16911 21136 21139 28
16912 21136 21140 28
16913 21141 21142 28
16914 21141 21143 28
16915 21141 21144 28
16916 21141 21145 28
16917 21146 21147 28
16918 21146 21148 28
16919 21146 21149 28
16920 21146 21150 28
16921 21151 21152 28
16922 21151 21153 28
16923 21151 21154 28
16924 21151 21155 28
16925 21156 21157 28
16926 21156 21158 28
16927 21156 21159 28
16928 21156 21160 28
16929 21161 21162 28
16930 21161 21163 28
16931 21161 21164 28
16932 21161 21165 28
16933 21166 21167 28
16934 21166 21168 28
16935 21166 21169 28
16936 21166 21170 28
16937 21171 21172 28
16938 21171 21173 28
16939 21171 21174 28
16940 21171 21175 28
16941 21176 21177 28
16942 21176 21178 28
16943 21176 21179 28
16944 21176 21180 28
16945 21181 21182 28
16946 21181 21183 28
16947 21181 21184 28
16948 21181 21185 28
16949 21186 21187 28
16950 21186 21188 28
16951 21186 21189 28
16952 21186 21190 28
16953 21191 21192 28
16954 21191 21193 28
16955 21191 21194 28
16956 21191 21195 28
16957 21196 21197 28
16958 21196 21198 28
16959 21196 21199 28
16960 21196 21200 28
16961 21201 21202 28
16962 21201 21203 28
16963 21201 21204 28
16964 21201 21205 28
16965 21206 21207 28
16966 21206 21208 28
16967 21206 21209 28
16968 21206 21210 28
16969 21211 21212 28
16970 21211 21213 28
16971 21211 21214 28
16972 21211 21215 28
16973 21216 21217 28
16974 21216 21218 28
16975 21216 21219 28
16976 21216 21220 28
16977 21221 21222 28
16978 21221 21223 28
16979 21221 21224 28
16980 21221 21225 28
16981 21226 21227 28
16982 21226 21228 28
16983 21226 21229 28
16984 21226 21230 28
16985 21231 21232 28
16986 21231 21233 28
16987 21231 21234 28
16988 21231 21235 28
16989 21236 21237 28
16990 21236 21238 28
16991 21236 21239 28
16992 21236 21240 28
16993 21241 21242 28
16994 21241 21243 28
16995 21241 21244 28
16996 21241 21245 28
16997 21246 21247 28
16998 21246 21248 28
16999 21246 21249 28
17000 21246 21250 28
17001 21251 21252 28
17002 21251 21253 28
17003 21251 21254 28
17004 21251 21255 28
17005 21256 21257 28
17006 21256 21258 28
17007 21256 21259 28
17008 21256 21260 28
17009 21261 21262 28
17010 21261 21263 28
17011 21261 21264 28
17012 21261 21265 28
17013 21266 21267 28
17014 21266 21268 28
17015 21266 21269 28
17016 21266 21270 28
17017 21271 21272 28
17018 21271 21273 28
17019 21271 21274 28
17020 21271 21275 28
17021 21276 21277 28
17022 21276 21278 28
17023 21276 21279 28
17024 21276 21280 28
17025 21281 21282 28
17026 21281 21283 28
17027 21281 21284 28
17028 21281 21285 28
17029 21286 21287 28
17030 21286 21288 28
17031 21286 21289 28
17032 21286 21290 28
17033 21291 21292 28
17034 21291 21293 28
17035 21291 21294 28
17036 21291 21295 28
17037 21296 21297 28
17038 21296 21298 28
17039 21296 21299 28
17040 21296 21300 28
17041 21301 21302 28
17042 21301 21303 28
17043 21301 21304 28
17044 21301 21305 28
17045 21306 21307 28
17046 21306 21308 28
17047 21306 21309 28
17048 21306 21310 28
17049 21311 21312 28
17050 21311 21313 28
17051 21311 21314 28
17052 21311 21315 28
17053 21316 21317 28
17054 21316 21318 28
17055 21316 21319 28
17056 21316 21320 28
17057 21321 21322 28
17058 21321 21323 28
17059 21321 21324 28
17060 21321 21325 28
17061 21326 21327 28
17062 21326 21328 28
17063 21326 21329 28
17064 21326 21330 28
17065 21331 21332 28
17066 21331 21333 28
17067 21331 21334 28
17068 21331 21335 28
17069 21336 21337 28
17070 21336 21338 28
17071 21336 21339 28
17072 21336 21340 28
17073 21341 21342 28
17074 21341 21343 28
17075 21341 21344 28
17076 21341 21345 28
17077 21346 21347 28
17078 21346 21348 28
17079 21346 21349 28
17080 21346 21350 28
17081 21351 21352 28
17082 21351 21353 28
17083 21351 21354 28
17084 21351 21355 28
17085 21356 21357 28
17086 21356 21358 28
17087 21356 21359 28
17088 21356 21360 28
17089 21361 21362 28
17090 21361 21363 28
17091 21361 21364 28
17092 21361 21365 28
17093 21366 21367 28
17094 21366 21368 28
17095 21366 21369 28
17096 21366 21370 28
17097 21371 21372 28
17098 21371 21373 28
17099 21371 21374 28
17100 21371 21375 28
17101 21376 21377 28
17102 21376 21378 28
17103 21376 21379 28
17104 21376 21380 28
17105 21381 21382 28
17106 21381 21383 28
17107 21381 21384 28
17108 21381 21385 28
17109 21386 21387 28
17110 21386 21388 28
17111 21386 21389 28
17112 21386 21390 28
17113 21391 21392 28
17114 21391 21393 28
17115 21391 21394 28
17116 21391 21395 28
17117 21396 21397 28
17118 21396 21398 28
17119 21396 21399 28
17120 21396 21400 28
17121 21401 21402 28
17122 21401 21403 28
17123 21401 21404 28
17124 21401 21405 28
17125 21406 21407 28
17126 21406 21408 28
17127 21406 21409 28
17128 21406 21410 28
17129 21411 21412 28
17130 21411 21413 28
17131 21411 21414 28
17132 21411 21415 28
17133 21416 21417 28
17134 21416 21418 28
17135 21416 21419 28
17136 21416 21420 28
17137 21421 21422 28
17138 21421 21423 28
17139 21421 21424 28
17140 21421 21425 28
17141 21426 21427 28
17142 21426 21428 28
17143 21426 21429 28
17144 21426 21430 28
17145 21431 21432 28
17146 21431 21433 28
17147 21431 21434 28
17148 21431 21435 28
17149 21436 21437 28
17150 21436 21438 28
17151 21436 21439 28
17152 21436 21440 28
17153 21441 21442 28
17154 21441 21443 28
17155 21441 21444 28
17156 21441 21445 28
17157 21446 21447 28
17158 21446 21448 28
17159 21446 21449 28
17160 21446 21450 28
17161 21451 21452 28
17162 21451 21453 28
17163 21451 21454 28
17164 21451 21455 28
17165 21456 21457 28
17166 21456 21458 28
17167 21456 21459 28
17168 21456 21460 28
17169 21461 21462 28
17170 21461 21463 28
17171 21461 21464 28
17172 21461 21465 28
17173 21466 21467 28
17174 21466 21468 28
17175 21466 21469 28
17176 21466 21470 28
17177 21471 21472 28
17178 21471 21473 28
17179 21471 21474 28
17180 21471 21475 28
17181 21476 21477 28
17182 21476 21478 28
17183 21476 21479 28
17184 21476 21480 28
17185 21481 21482 28
17186 21481 21483 28
17187 21481 21484 28
17188 21481 21485 28
17189 21486 21487 28
17190 21486 21488 28
17191 21486 21489 28
17192 21486 21490 28
17193 21491 21492 28
17194 21491 21493 28
17195 21491 21494 28
17196 21491 21495 28
17197 21496 21497 28
17198 21496 21498 28
17199 21496 21499 28
17200 21496 21500 28
17201 21501 21502 28
17202 21501 21503 28
17203 21501 21504 28
17204 21501 21505 28
17205 21506 21507 28
17206 21506 21508 28
17207 21506 21509 28
17208 21506 21510 28
17209 21511 21512 28
17210 21511 21513 28
17211 21511 21514 28
17212 21511 21515 28
17213 21516 21517 28
17214 21516 21518 28
17215 21516 21519 28
17216 21516 21520 28
17217 21521 21522 28
17218 21521 21523 28
17219 21521 21524 28
17220 21521 21525 28
17221 21526 21527 28
17222 21526 21528 28
17223 21526 21529 28
17224 21526 21530 28
17225 21531 21532 28
17226 21531 21533 28
17227 21531 21534 28
17228 21531 21535 28
17229 21536 21537 28
17230 21536 21538 28
17231 21536 21539 28
17232 21536 21540 28
17233 21541 21542 28
17234 21541 21543 28
17235 21541 21544 28
17236 21541 21545 28
17237 21546 21547 28
17238 21546 21548 28
17239 21546 21549 28
17240 21546 21550 28
17241 21551 21552 28
17242 21551 21553 28
17243 21551 21554 28
17244 21551 21555 28
17245 21556 21557 28
17246 21556 21558 28
17247 21556 21559 28
17248 21556 21560 28
17249 21561 21562 28
17250 21561 21563 28
17251 21561 21564 28
17252 21561 21565 28
17253 21566 21567 28
17254 21566 21568 28
17255 21566 21569 28
17256 21566 21570 28
17257 21571 21572 28
17258 21571 21573 28
17259 21571 21574 28
17260 21571 21575 28
17261 21576 21577 28
17262 21576 21578 28
17263 21576 21579 28
17264 21576 21580 28
17265 21581 21582 28
17266 21581 21583 28
17267 21581 21584 28
17268 21581 21585 28
17269 21586 21587 28
17270 21586 21588 28
17271 21586 21589 28
17272 21586 21590 28
17273 21591 21592 28
17274 21591 21593 28
17275 21591 21594 28
17276 21591 21595 28
17277 21596 21597 28
17278 21596 21598 28
17279 21596 21599 28
17280 21596 21600 28
17281 21601 21602 28
17282 21601 21603 28
17283 21601 21604 28
17284 21601 21605 28
17285 21606 21607 28
17286 21606 21608 28
17287 21606 21609 28
17288 21606 21610 28
17289 21611 21612 28
17290 21611 21613 28
17291 21611 21614 28
17292 21611 21615 28
17293 21616 21617 28
17294 21616 21618 28
17295 21616 21619 28
17296 21616 21620 28
17297 21621 21622 28
17298 21621 21623 28
17299 21621 21624 28
17300 21621 21625 28
17301 21626 21627 28
17302 21626 21628 28
17303 21626 21629 28
17304 21626 21630 28
17305 21631 21632 28
17306 21631 21633 28
17307 21631 21634 28
17308 21631 21635 28
17309 21636 21637 28
17310 21636 21638 28
17311 21636 21639 28
17312 21636 21640 28
17313 21641 21642 28
17314 21641 21643 28
17315 21641 21644 28
17316 21641 21645 28
17317 21646 21647 28
17318 21646 21648 28
17319 21646 21649 28
17320 21646 21650 28
17321 21651 21652 28
17322 21651 21653 28
17323 21651 21654 28
17324 21651 21655 28
17325 21656 21657 28
17326 21656 21658 28
17327 21656 21659 28
17328 21656 21660 28
17329 21661 21662 28
17330 21661 21663 28
17331 21661 21664 28
17332 21661 21665 28
17333 21666 21667 28
17334 21666 21668 28
17335 21666 21669 28
17336 21666 21670 28
17337 21671 21672 28
17338 21671 21673 28
17339 21671 21674 28
17340 21671 21675 28
17341 21676 21677 28
17342 21676 21678 28
17343 21676 21679 28
17344 21676 21680 28
17345 21681 21682 28
17346 21681 21683 28
17347 21681 21684 28
17348 21681 21685 28
17349 21686 21687 28
17350 21686 21688 28
17351 21686 21689 28
17352 21686 21690 28
17353 21691 21692 28
17354 21691 21693 28
17355 21691 21694 28
17356 21691 21695 28
17357 21696 21697 28
17358 21696 21698 28
17359 21696 21699 28
17360 21696 21700 28
17361 21701 21702 28
17362 21701 21703 28
17363 21701 21704 28
17364 21701 21705 28
17365 21706 21707 28
17366 21706 21708 28
17367 21706 21709 28
17368 21706 21710 28
17369 21711 21712 28
17370 21711 21713 28
17371 21711 21714 28
17372 21711 21715 28
17373 21716 21717 28
17374 21716 21718 28
17375 21716 21719 28
17376 21716 21720 28
17377 21721 21722 28
17378 21721 21723 28
17379 21721 21724 28
17380 21721 21725 28
17381 21726 21727 28
17382 21726 21728 28
17383 21726 21729 28
17384 21726 21730 28
17385 21731 21732 28
17386 21731 21733 28
17387 21731 21734 28
17388 21731 21735 28
17389 21736 21737 28
17390 21736 21738 28
17391 21736 21739 28
17392 21736 21740 28
17393 21741 21742 28
17394 21741 21743 28
17395 21741 21744 28
17396 21741 21745 28
17397 21746 21747 28
17398 21746 21748 28
17399 21746 21749 28
17400 21746 21750 28
17401 21751 21752 28
17402 21751 21753 28
17403 21751 21754 28
17404 21751 21755 28
17405 21756 21757 28
17406 21756 21758 28
17407 21756 21759 28
17408 21756 21760 28
17409 21761 21762 28
17410 21761 21763 28
17411 21761 21764 28
17412 21761 21765 28
17413 21766 21767 28
17414 21766 21768 28
17415 21766 21769 28
17416 21766 21770 28
17417 21771 21772 28
17418 21771 21773 28
17419 21771 21774 28
17420 21771 21775 28
17421 21776 21777 28
17422 21776 21778 28
17423 21776 21779 28
17424 21776 21780 28
17425 21781 21782 28
17426 21781 21783 28
17427 21781 21784 28
17428 21781 21785 28
17429 21786 21787 28
17430 21786 21788 28
17431 21786 21789 28
17432 21786 21790 28
17433 21791 21792 28
17434 21791 21793 28
17435 21791 21794 28
17436 21791 21795 28
17437 21796 21797 28
17438 21796 21798 28
17439 21796 21799 28
17440 21796 21800 28
17441 21801 21802 28
17442 21801 21803 28
17443 21801 21804 28
17444 21801 21805 28
17445 21806 21807 28
17446 21806 21808 28
17447 21806 21809 28
17448 21806 21810 28
17449 21811 21812 28
17450 21811 21813 28
17451 21811 21814 28
17452 21811 21815 28
17453 21816 21817 28
17454 21816 21818 28
17455 21816 21819 28
17456 21816 21820 28
17457 21821 21822 28
17458 21821 21823 28
17459 21821 21824 28
17460 21821 21825 28
17461 21826 21827 28
17462 21826 21828 28
17463 21826 21829 28
17464 21826 21830 28
17465 21831 21832 28
17466 21831 21833 28
17467 21831 21834 28
17468 21831 21835 28
17469 21836 21837 28
17470 21836 21838 28
17471 21836 21839 28
17472 21836 21840 28
17473 21841 21842 28
17474 21841 21843 28
17475 21841 21844 28
17476 21841 21845 28
17477 21846 21847 28
17478 21846 21848 28
17479 21846 21849 28
17480 21846 21850 28
17481 21851 21852 28
17482 21851 21853 28
17483 21851 21854 28
17484 21851 21855 28
17485 21856 21857 28
17486 21856 21858 28
17487 21856 21859 28
17488 21856 21860 28
17489 21861 21862 28
17490 21861 21863 28
17491 21861 21864 28
17492 21861 21865 28
17493 21866 21867 28
17494 21866 21868 28
17495 21866 21869 28
17496 21866 21870 28
17497 21871 21872 28
17498 21871 21873 28
17499 21871 21874 28
17500 21871 21875 28
17501 21876 21877 28
17502 21876 21878 28
17503 21876 21879 28
17504 21876 21880 28
17505 21881 21882 28
17506 21881 21883 28
17507 21881 21884 28
17508 21881 21885 28
17509 21886 21887 28
17510 21886 21888 28
17511 21886 21889 28
17512 21886 21890 28
17513 21891 21892 28
17514 21891 21893 28
17515 21891 21894 28
17516 21891 21895 28
17517 21896 21897 28
17518 21896 21898 28
17519 21896 21899 28
17520 21896 21900 28
17521 21901 21902 28
17522 21901 21903 28
17523 21901 21904 28
17524 21901 21905 28
17525 21906 21907 28
17526 21906 21908 28
17527 21906 21909 28
17528 21906 21910 28
17529 21911 21912 28
17530 21911 21913 28
17531 21911 21914 28
17532 21911 21915 28
17533 21916 21917 28
17534 21916 21918 28
17535 21916 21919 28
17536 21916 21920 28
17537 21921 21922 28
17538 21921 21923 28
17539 21921 21924 28
17540 21921 21925 28
17541 21926 21927 28
17542 21926 21928 28
17543 21926 21929 28
17544 21926 21930 28
17545 21931 21932 28
17546 21931 21933 28
17547 21931 21934 28
17548 21931 21935 28
17549 21936 21937 28
17550 21936 21938 28
17551 21936 21939 28
17552 21936 21940 28
17553 21941 21942 28
17554 21941 21943 28
17555 21941 21944 28
17556 21941 21945 28
17557 21946 21947 28
17558 21946 21948 28
17559 21946 21949 28
17560 21946 21950 28
17561 21951 21952 28
17562 21951 21953 28
17563 21951 21954 28
17564 21951 21955 28
17565 21956 21957 28
17566 21956 21958 28
17567 21956 21959 28
17568 21956 21960 28
17569 21961 21962 28
17570 21961 21963 28
17571 21961 21964 28
17572 21961 21965 28
17573 21966 21967 28
17574 21966 21968 28
17575 21966 21969 28
17576 21966 21970 28
17577 21971 21972 28
17578 21971 21973 28
17579 21971 21974 28
17580 21971 21975 28
17581 21976 21977 28
17582 21976 21978 28
17583 21976 21979 28
17584 21976 21980 28
17585 21981 21982 28
17586 21981 21983 28
17587 21981 21984 28
17588 21981 21985 28
17589 21986 21987 28
17590 21986 21988 28
17591 21986 21989 28
17592 21986 21990 28
17593 21991 21992 28
17594 21991 21993 28
17595 21991 21994 28
17596 21991 21995 28
17597 21996 21997 28
17598 21996 21998 28
17599 21996 21999 28
17600 21996 22000 28
17601 22001 22002 28
17602 22001 22003 28
17603 22001 22004 28
17604 22001 22005 28
17605 22006 22007 28
17606 22006 22008 28
17607 22006 22009 28
17608 22006 22010 28
17609 22011 22012 28
17610 22011 22013 28
17611 22011 22014 28
17612 22011 22015 28
17613 22016 22017 28
17614 22016 22018 28
17615 22016 22019 28
17616 22016 22020 28
17617 22021 22022 28
17618 22021 22023 28
17619 22021 22024 28
17620 22021 22025 28
17621 22026 22027 28
17622 22026 22028 28
17623 22026 22029 28
17624 22026 22030 28
17625 22031 22032 28
17626 22031 22033 28
17627 22031 22034 28
17628 22031 22035 28
17629 22036 22037 28
17630 22036 22038 28
17631 22036 22039 28
17632 22036 22040 28
17633 22041 22042 28
17634 22041 22043 28
17635 22041 22044 28
17636 22041 22045 28
17637 22046 22047 28
17638 22046 22048 28
17639 22046 22049 28
17640 22046 22050 28
17641 22051 22052 28
17642 22051 22053 28
17643 22051 22054 28
17644 22051 22055 28
17645 22056 22057 28
17646 22056 22058 28
17647 22056 22059 28
17648 22056 22060 28
17649 22061 22062 28
17650 22061 22063 28
17651 22061 22064 28
17652 22061 22065 28
17653 22066 22067 28
17654 22066 22068 28
17655 22066 22069 28
17656 22066 22070 28
17657 22071 22072 28
17658 22071 22073 28
17659 22071 22074 28
17660 22071 22075 28
17661 22076 22077 28
17662 22076 22078 28
17663 22076 22079 28
17664 22076 22080 28
17665 22081 22082 28
17666 22081 22083 28
17667 22081 22084 28
17668 22081 22085 28
17669 22086 22087 28
17670 22086 22088 28
17671 22086 22089 28
17672 22086 22090 28
17673 22091 22092 28
17674 22091 22093 28
17675 22091 22094 28
17676 22091 22095 28
17677 22096 22097 28
17678 22096 22098 28
17679 22096 22099 28
17680 22096 22100 28
17681 22101 22102 28
17682 22101 22103 28
17683 22101 22104 28
17684 22101 22105 28
17685 22106 22107 28
17686 22106 22108 28
17687 22106 22109 28
17688 22106 22110 28
17689 22111 22112 28
17690 22111 22113 28
17691 22111 22114 28
17692 22111 22115 28
17693 22116 22117 28
17694 22116 22118 28
17695 22116 22119 28
17696 22116 22120 28
17697 22121 22122 28
17698 22121 22123 28
17699 22121 22124 28
17700 22121 22125 28
17701 22126 22127 28
17702 22126 22128 28
17703 22126 22129 28
17704 22126 22130 28
17705 22131 22132 28
17706 22131 22133 28
17707 22131 22134 28
17708 22131 22135 28
17709 22136 22137 28
17710 22136 22138 28
17711 22136 22139 28
17712 22136 22140 28
17713 22141 22142 28
17714 22141 22143 28
17715 22141 22144 28
17716 22141 22145 28
17717 22146 22147 28
17718 22146 22148 28
17719 22146 22149 28
17720 22146 22150 28
17721 22151 22152 28
17722 22151 22153 28
17723 22151 22154 28
17724 22151 22155 28
17725 22156 22157 28
17726 22156 22158 28
17727 22156 22159 28
17728 22156 22160 28
17729 22161 22162 28
17730 22161 22163 28
17731 22161 22164 28
17732 22161 22165 28
17733 22166 22167 28
17734 22166 22168 28
17735 22166 22169 28
17736 22166 22170 28
17737 22171 22172 28
17738 22171 22173 28
17739 22171 22174 28
17740 22171 22175 28
17741 22176 22177 28
17742 22176 22178 28
17743 22176 22179 28
17744 22176 22180 28
17745 22181 22182 28
17746 22181 22183 28
17747 22181 22184 28
17748 22181 22185 28
17749 22186 22187 28
17750 22186 22188 28
17751 22186 22189 28
17752 22186 22190 28
17753 22191 22192 28
17754 22191 22193 28
17755 22191 22194 28
17756 22191 22195 28
17757 22196 22197 28
17758 22196 22198 28
17759 22196 22199 28
17760 22196 22200 28
17761 22201 22202 28
17762 22201 22203 28
17763 22201 22204 28
17764 22201 22205 28
17765 22206 22207 28
17766 22206 22208 28
17767 22206 22209 28
17768 22206 22210 28
17769 22211 22212 28
17770 22211 22213 28
17771 22211 22214 28
17772 22211 22215 28
17773 22216 22217 28
17774 22216 22218 28
17775 22216 22219 28
17776 22216 22220 28
17777 22221 22222 28
17778 22221 22223 28
17779 22221 22224 28
17780 22221 22225 28
17781 22226 22227 28
17782 22226 22228 28
17783 22226 22229 28
17784 22226 22230 28
17785 22231 22232 28
17786 22231 22233 28
17787 22231 22234 28
17788 22231 22235 28
17789 22236 22237 28
17790 22236 22238 28
17791 22236 22239 28
17792 22236 22240 28
17793 22241 22242 28
17794 22241 22243 28
17795 22241 22244 28
17796 22241 22245 28
17797 22246 22247 28
17798 22246 22248 28
17799 22246 22249 28
17800 22246 22250 28
17801 22251 22252 28
17802 22251 22253 28
17803 22251 22254 28
17804 22251 22255 28
17805 22256 22257 28
17806 22256 22258 28
17807 22256 22259 28
17808 22256 22260 28
17809 22261 22262 28
17810 22261 22263 28
17811 22261 22264 28
17812 22261 22265 28
17813 22266 22267 28
17814 22266 22268 28
17815 22266 22269 28
17816 22266 22270 28
17817 22271 22272 28
17818 22271 22273 28
17819 22271 22274 28
17820 22271 22275 28
17821 22276 22277 28
17822 22276 22278 28
17823 22276 22279 28
17824 22276 22280 28
17825 22281 22282 28
17826 22281 22283 28
17827 22281 22284 28
17828 22281 22285 28
17829 22286 22287 28
17830 22286 22288 28
17831 22286 22289 28
17832 22286 22290 28
17833 22291 22292 28
17834 22291 22293 28
17835 22291 22294 28
17836 22291 22295 28
17837 22296 22297 28
17838 22296 22298 28
17839 22296 22299 28
17840 22296 22300 28
17841 22301 22302 28
17842 22301 22303 28
17843 22301 22304 28
17844 22301 22305 28
17845 22306 22307 28
17846 22306 22308 28
17847 22306 22309 28
17848 22306 22310 28
17849 22311 22312 28
17850 22311 22313 28
17851 22311 22314 28
17852 22311 22315 28
17853 22316 22317 28
17854 22316 22318 28
17855 22316 22319 28
17856 22316 22320 28
17857 22321 22322 28
17858 22321 22323 28
17859 22321 22324 28
17860 22321 22325 28
17861 22326 22327 28
17862 22326 22328 28
17863 22326 22329 28
17864 22326 22330 28
17865 22331 22332 28
17866 22331 22333 28
17867 22331 22334 28
17868 22331 22335 28
17869 22336 22337 28
17870 22336 22338 28
17871 22336 22339 28
17872 22336 22340 28
17873 22341 22342 28
17874 22341 22343 28
17875 22341 22344 28
17876 22341 22345 28
17877 22346 22347 28
17878 22346 22348 28
17879 22346 22349 28
17880 22346 22350 28
17881 22351 22352 28
17882 22351 22353 28
17883 22351 22354 28
17884 22351 22355 28
17885 22356 22357 28
17886 22356 22358 28
17887 22356 22359 28
17888 22356 22360 28
17889 22361 22362 28
17890 22361 22363 28
17891 22361 22364 28
17892 22361 22365 28
17893 22366 22367 28
17894 22366 22368 28
17895 22366 22369 28
17896 22366 22370 28
17897 22371 22372 28
17898 22371 22373 28
17899 22371 22374 28
17900 22371 22375 28
17901 22376 22377 28
17902 22376 22378 28
17903 22376 22379 28
17904 22376 22380 28
17905 22381 22382 28
17906 22381 22383 28
17907 22381 22384 28
17908 22381 22385 28
17909 22386 22387 28
17910 22386 22388 28
17911 22386 22389 28
17912 22386 22390 28
17913 22391 22392 28
17914 22391 22393 28
17915 22391 22394 28
17916 22391 22395 28
17917 22396 22397 28
17918 22396 22398 28
17919 22396 22399 28
17920 22396 22400 28
17921 22401 22402 28
17922 22401 22403 28
17923 22401 22404 28
17924 22401 22405 28
17925 22406 22407 28
17926 22406 22408 28
17927 22406 22409 28
17928 22406 22410 28
17929 22411 22412 28
17930 22411 22413 28
17931 22411 22414 28
17932 22411 22415 28
17933 22416 22417 28
17934 22416 22418 28
17935 22416 22419 28
17936 22416 22420 28
17937 22421 22422 28
17938 22421 22423 28
17939 22421 22424 28
17940 22421 22425 28
17941 22426 22427 28
17942 22426 22428 28
17943 22426 22429 28
17944 22426 22430 28
17945 22431 22432 28
17946 22431 22433 28
17947 22431 22434 28
17948 22431 22435 28
17949 22436 22437 28
17950 22436 22438 28
17951 22436 22439 28
17952 22436 22440 28
17953 22441 22442 28
17954 22441 22443 28
17955 22441 22444 28
17956 22441 22445 28
17957 22446 22447 28
17958 22446 22448 28
17959 22446 22449 28
17960 22446 22450 28
17961 22451 22452 28
17962 22451 22453 28
17963 22451 22454 28
17964 22451 22455 28
17965 22456 22457 28
17966 22456 22458 28
17967 22456 22459 28
17968 22456 22460 28
17969 22461 22462 28
17970 22461 22463 28
17971 22461 22464 28
17972 22461 22465 28
17973 22466 22467 28
17974 22466 22468 28
17975 22466 22469 28
17976 22466 22470 28
17977 22471 22472 28
17978 22471 22473 28
17979 22471 22474 28
17980 22471 22475 28
17981 22476 22477 28
17982 22476 22478 28
17983 22476 22479 28
17984 22476 22480 28
17985 22481 22482 28
17986 22481 22483 28
17987 22481 22484 28
17988 22481 22485 28
17989 22486 22487 28
17990 22486 22488 28
17991 22486 22489 28
17992 22486 22490 28
17993 22491 22492 28
17994 22491 22493 28
17995 22491 22494 28
17996 22491 22495 28
17997 22496 22497 28
17998 22496 22498 28
17999 22496 22499 28
18000 22496 22500 28
18001 22501 22502 28
18002 22501 22503 28
18003 22501 22504 28
18004 22501 22505 28
18005 22506 22507 28
18006 22506 22508 28
18007 22506 22509 28
18008 22506 22510 28
18009 22511 22512 28
18010 22511 22513 28
18011 22511 22514 28
18012 22511 22515 28
18013 22516 22517 28
18014 22516 22518 28
18015 22516 22519 28
18016 22516 22520 28
18017 22521 22522 28
18018 22521 22523 28
18019 22521 22524 28
18020 22521 22525 28
18021 22526 22527 28
18022 22526 22528 28
18023 22526 22529 28
18024 22526 22530 28
18025 22531 22532 28
18026 22531 22533 28
18027 22531 22534 28
18028 22531 22535 28
18029 22536 22537 28
18030 22536 22538 28
18031 22536 22539 28
18032 22536 22540 28
18033 22541 22542 28
18034 22541 22543 28
18035 22541 22544 28
18036 22541 22545 28
18037 22546 22547 28
18038 22546 22548 28
18039 22546 22549 28
18040 22546 22550 28
18041 22551 22552 28
18042 22551 22553 28
18043 22551 22554 28
18044 22551 22555 28
18045 22556 22557 28
18046 22556 22558 28
18047 22556 22559 28
18048 22556 22560 28
18049 22561 22562 28
18050 22561 22563 28
18051 22561 22564 28
18052 22561 22565 28
18053 22566 22567 28
18054 22566 22568 28
18055 22566 22569 28
18056 22566 22570 28
18057 22571 22572 28
18058 22571 22573 28
18059 22571 22574 28
18060 22571 22575 28
18061 22576 22577 28
18062 22576 22578 28
18063 22576 22579 28
18064 22576 22580 28
18065 22581 22582 28
18066 22581 22583 28
18067 22581 22584 28
18068 22581 22585 28
18069 22586 22587 28
18070 22586 22588 28
18071 22586 22589 28
18072 22586 22590 28
18073 22591 22592 28
18074 22591 22593 28
18075 22591 22594 28
18076 22591 22595 28
18077 22596 22597 28
18078 22596 22598 28
18079 22596 22599 28
18080 22596 22600 28
18081 22601 22602 28
18082 22601 22603 28
18083 22601 22604 28
18084 22601 22605 28
18085 22606 22607 28
18086 22606 22608 28
18087 22606 22609 28
18088 22606 22610 28
18089 22611 22612 28
18090 22611 22613 28
18091 22611 22614 28
18092 22611 22615 28
18093 22616 22617 28
18094 22616 22618 28
18095 22616 22619 28
18096 22616 22620 28
18097 22621 22622 28
18098 22621 22623 28
18099 22621 22624 28
18100 22621 22625 28
18101 22626 22627 28
18102 22626 22628 28
18103 22626 22629 28
18104 22626 22630 28
18105 22631 22632 28
18106 22631 22633 28
18107 22631 22634 28
18108 22631 22635 28
18109 22636 22637 28
18110 22636 22638 28
18111 22636 22639 28
18112 22636 22640 28
18113 22641 22642 28
18114 22641 22643 28
18115 22641 22644 28
18116 22641 22645 28
18117 22646 22647 28
18118 22646 22648 28
18119 22646 22649 28
18120 22646 22650 28
18121 22651 22652 28
18122 22651 22653 28
18123 22651 22654 28
18124 22651 22655 28
18125 22656 22657 28
18126 22656 22658 28
18127 22656 22659 28
18128 22656 22660 28
18129 22661 22662 28
18130 22661 22663 28
18131 22661 22664 28
18132 22661 22665 28
18133 22666 22667 28
18134 22666 22668 28
18135 22666 22669 28
18136 22666 22670 28
18137 22671 22672 28
18138 22671 22673 28
18139 22671 22674 28
18140 22671 22675 28
18141 22676 22677 28
18142 22676 22678 28
18143 22676 22679 28
18144 22676 22680 28
18145 22681 22682 28
18146 22681 22683 28
18147 22681 22684 28
18148 22681 22685 28
18149 22686 22687 28
18150 22686 22688 28
18151 22686 22689 28
18152 22686 22690 28
18153 22691 22692 28
18154 22691 22693 28
18155 22691 22694 28
18156 22691 22695 28
18157 22696 22697 28
18158 22696 22698 28
18159 22696 22699 28
18160 22696 22700 28
18161 22701 22702 28
18162 22701 22703 28
18163 22701 22704 28
18164 22701 22705 28
18165 22706 22707 28
18166 22706 22708 28
18167 22706 22709 28
18168 22706 22710 28
18169 22711 22712 28
18170 22711 22713 28
18171 22711 22714 28
18172 22711 22715 28
18173 22716 22717 28
18174 22716 22718 28
18175 22716 22719 28
18176 22716 22720 28
18177 22721 22722 28
18178 22721 22723 28
18179 22721 22724 28
18180 22721 22725 28
18181 22726 22727 28
18182 22726 22728 28
18183 22726 22729 28
18184 22726 22730 28
18185 22731 22732 28
18186 22731 22733 28
18187 22731 22734 28
18188 22731 22735 28
18189 22736 22737 28
18190 22736 22738 28
18191 22736 22739 28
18192 22736 22740 28
18193 22741 22742 28
18194 22741 22743 28
18195 22741 22744 28
18196 22741 22745 28
18197 22746 22747 28
18198 22746 22748 28
18199 22746 22749 28
18200 22746 22750 28
18201 22751 22752 28
18202 22751 22753 28
18203 22751 22754 28
18204 22751 22755 28
18205 22756 22757 28
18206 22756 22758 28
18207 22756 22759 28
18208 22756 22760 28
18209 22761 22762 28
18210 22761 22763 28
18211 22761 22764 28
18212 22761 22765 28
18213 22766 22767 28
18214 22766 22768 28
18215 22766 22769 28
18216 22766 22770 28
18217 22771 22772 28
18218 22771 22773 28
18219 22771 22774 28
18220 22771 22775 28
18221 22776 22777 28
18222 22776 22778 28
18223 22776 22779 28
18224 22776 22780 28
18225 22781 22782 28
18226 22781 22783 28
18227 22781 22784 28
18228 22781 22785 28
18229 22786 22787 28
18230 22786 22788 28
18231 22786 22789 28
18232 22786 22790 28
18233 22791 22792 28
18234 22791 22793 28
18235 22791 22794 28
18236 22791 22795 28
18237 22796 22797 28
18238 22796 22798 28
18239 22796 22799 28
18240 22796 22800 28
18241 22801 22802 28
18242 22801 22803 28
18243 22801 22804 28
18244 22801 22805 28
18245 22806 22807 28
18246 22806 22808 28
18247 22806 22809 28
18248 22806 22810 28
18249 22811 22812 28
18250 22811 22813 28
18251 22811 22814 28
18252 22811 22815 28
18253 22816 22817 28
18254 22816 22818 28
18255 22816 22819 28
18256 22816 22820 28
18257 22821 22822 28
18258 22821 22823 28
18259 22821 22824 28
18260 22821 22825 28
18261 22826 22827 28
18262 22826 22828 28
18263 22826 22829 28
18264 22826 22830 28
18265 22831 22832 28
18266 22831 22833 28
18267 22831 22834 28
18268 22831 22835 28
18269 22836 22837 28
18270 22836 22838 28
18271 22836 22839 28
18272 22836 22840 28
18273 22841 22842 28
18274 22841 22843 28
18275 22841 22844 28
18276 22841 22845 28
18277 22846 22847 28
18278 22846 22848 28
18279 22846 22849 28
18280 22846 22850 28
18281 22851 22852 28
18282 22851 22853 28
18283 22851 22854 28
18284 22851 22855 28
18285 22856 22857 28
18286 22856 22858 28
18287 22856 22859 28
18288 22856 22860 28
18289 22861 22862 28
18290 22861 22863 28
18291 22861 22864 28
18292 22861 22865 28
18293 22866 22867 28
18294 22866 22868 28
18295 22866 22869 28
18296 22866 22870 28
18297 22871 22872 28
18298 22871 22873 28
18299 22871 22874 28
18300 22871 22875 28
18301 22876 22877 28
18302 22876 22878 28
18303 22876 22879 28
18304 22876 22880 28
18305 22881 22882 28
18306 22881 22883 28
18307 22881 22884 28
18308 22881 22885 28
18309 22886 22887 28
18310 22886 22888 28
18311 22886 22889 28
18312 22886 22890 28
18313 22891 22892 28
18314 22891 22893 28
18315 22891 22894 28
18316 22891 22895 28
18317 22896 22897 28
18318 22896 22898 28
18319 22896 22899 28
18320 22896 22900 28
18321 22901 22902 28
18322 22901 22903 28
18323 22901 22904 28
18324 22901 22905 28
18325 22906 22907 28
18326 22906 22908 28
18327 22906 22909 28
18328 22906 22910 28
18329 22911 22912 28
18330 22911 22913 28
18331 22911 22914 28
18332 22911 22915 28
18333 22916 22917 28
18334 22916 22918 28
18335 22916 22919 28
18336 22916 22920 28
18337 22921 22922 28
18338 22921 22923 28
18339 22921 22924 28
18340 22921 22925 28
18341 22926 22927 28
18342 22926 22928 28
18343 22926 22929 28
18344 22926 22930 28
18345 22931 22932 28
18346 22931 22933 28
18347 22931 22934 28
18348 22931 22935 28
18349 22936 22937 28
18350 22936 22938 28
18351 22936 22939 28
18352 22936 22940 28
18353 22941 22942 28
18354 22941 22943 28
18355 22941 22944 28
18356 22941 22945 28
18357 22946 22947 28
18358 22946 22948 28
18359 22946 22949 28
18360 22946 22950 28
18361 22951 22952 28
18362 22951 22953 28
18363 22951 22954 28
18364 22951 22955 28
18365 22956 22957 28
18366 22956 22958 28
18367 22956 22959 28
18368 22956 22960 28
18369 22961 22962 28
18370 22961 22963 28
18371 22961 22964 28
18372 22961 22965 28
18373 22966 22967 28
18374 22966 22968 28
18375 22966 22969 28
18376 22966 22970 28
18377 22971 22972 28
18378 22971 22973 28
18379 22971 22974 28
18380 22971 22975 28
18381 22976 22977 28
18382 22976 22978 28
18383 22976 22979 28
18384 22976 22980 28
18385 22981 22982 28
18386 22981 22983 28
18387 22981 22984 28
18388 22981 22985 28
18389 22986 22987 28
18390 22986 22988 28
18391 22986 22989 28
18392 22986 22990 28
18393 22991 22992 28
18394 22991 22993 28
18395 22991 22994 28
18396 22991 22995 28
18397 22996 22997 28
18398 22996 22998 28
18399 22996 22999 28
18400 22996 23000 28
18401 23001 23002 28
18402 23001 23003 28
18403 23001 23004 28
18404 23001 23005 28
18405 23006 23007 28
18406 23006 23008 28
18407 23006 23009 28
18408 23006 23010 28
18409 23011 23012 28
18410 23011 23013 28
18411 23011 23014 28
18412 23011 23015 28
18413 23016 23017 28
18414 23016 23018 28
18415 23016 23019 28
18416 23016 23020 28
18417 23021 23022 28
18418 23021 23023 28
18419 23021 23024 28
18420 23021 23025 28
18421 23026 23027 28
18422 23026 23028 28
18423 23026 23029 28
18424 23026 23030 28
18425 23031 23032 28
18426 23031 23033 28
18427 23031 23034 28
18428 23031 23035 28
18429 23036 23037 28
18430 23036 23038 28
18431 23036 23039 28
18432 23036 23040 28
18433 23041 23042 28
18434 23041 23043 28
18435 23041 23044 28
18436 23041 23045 28
18437 23046 23047 28
18438 23046 23048 28
18439 23046 23049 28
18440 23046 23050 28
18441 23051 23052 28
18442 23051 23053 28
18443 23051 23054 28
18444 23051 23055 28
18445 23056 23057 28
18446 23056 23058 28
18447 23056 23059 28
18448 23056 23060 28
18449 23061 23062 28
18450 23061 23063 28
18451 23061 23064 28
18452 23061 23065 28
18453 23066 23067 28
18454 23066 23068 28
18455 23066 23069 28
18456 23066 23070 28
18457 23071 23072 28
18458 23071 23073 28
18459 23071 23074 28
18460 23071 23075 28
18461 23076 23077 28
18462 23076 23078 28
18463 23076 23079 28
18464 23076 23080 28
18465 23081 23082 28
18466 23081 23083 28
18467 23081 23084 28
18468 23081 23085 28
18469 23086 23087 28
18470 23086 23088 28
18471 23086 23089 28
18472 23086 23090 28
18473 23091 23092 28
18474 23091 23093 28
18475 23091 23094 28
18476 23091 23095 28
18477 23096 23097 28
18478 23096 23098 28
18479 23096 23099 28
18480 23096 23100 28
18481 23101 23102 28
18482 23101 23103 28
18483 23101 23104 28
18484 23101 23105 28
18485 23106 23107 28
18486 23106 23108 28
18487 23106 23109 28
18488 23106 23110 28
18489 23111 23112 28
18490 23111 23113 28
18491 23111 23114 28
18492 23111 23115 28
18493 23116 23117 28
18494 23116 23118 28
18495 23116 23119 28
18496 23116 23120 28
18497 23121 23122 28
18498 23121 23123 28
18499 23121 23124 28
18500 23121 23125 28
18501 23126 23127 28
18502 23126 23128 28
18503 23126 23129 28
18504 23126 23130 28
18505 23131 23132 28
18506 23131 23133 28
18507 23131 23134 28
18508 23131 23135 28
18509 23136 23137 28
18510 23136 23138 28
18511 23136 23139 28
18512 23136 23140 28
18513 23141 23142 28
18514 23141 23143 28
18515 23141 23144 28
18516 23141 23145 28
18517 23146 23147 28
18518 23146 23148 28
18519 23146 23149 28
18520 23146 23150 28
18521 23151 23152 28
18522 23151 23153 28
18523 23151 23154 28
18524 23151 23155 28
18525 23156 23157 28
18526 23156 23158 28
18527 23156 23159 28
18528 23156 23160 28
18529 23161 23162 28
18530 23161 23163 28
18531 23161 23164 28
18532 23161 23165 28
18533 23166 23167 28
18534 23166 23168 28
18535 23166 23169 28
18536 23166 23170 28
18537 23171 23172 28
18538 23171 23173 28
18539 23171 23174 28
18540 23171 23175 28
18541 23176 23177 28
18542 23176 23178 28
18543 23176 23179 28
18544 23176 23180 28
18545 23181 23182 28
18546 23181 23183 28
18547 23181 23184 28
18548 23181 23185 28
18549 23186 23187 28
18550 23186 23188 28
18551 23186 23189 28
18552 23186 23190 28
18553 23191 23192 28
18554 23191 23193 28
18555 23191 23194 28
18556 23191 23195 28
18557 23196 23197 28
18558 23196 23198 28
18559 23196 23199 28
18560 23196 23200 28
18561 23201 23202 28
18562 23201 23203 28
18563 23201 23204 28
18564 23201 23205 28
18565 23206 23207 28
18566 23206 23208 28
18567 23206 23209 28
18568 23206 23210 28
18569 23211 23212 28
18570 23211 23213 28
18571 23211 23214 28
18572 23211 23215 28
18573 23216 23217 28
18574 23216 23218 28
18575 23216 23219 28
18576 23216 23220 28
18577 23221 23222 28
18578 23221 23223 28
18579 23221 23224 28
18580 23221 23225 28
18581 23226 23227 28
18582 23226 23228 28
18583 23226 23229 28
18584 23226 23230 28
18585 23231 23232 28
18586 23231 23233 28
18587 23231 23234 28
18588 23231 23235 28
18589 23236 23237 28
18590 23236 23238 28
18591 23236 23239 28
18592 23236 23240 28
18593 23241 23242 28
18594 23241 23243 28
18595 23241 23244 28
18596 23241 23245 28
18597 23246 23247 28
18598 23246 23248 28
18599 23246 23249 28
18600 23246 23250 28
18601 23251 23252 28
18602 23251 23253 28
18603 23251 23254 28
18604 23251 23255 28
18605 23256 23257 28
18606 23256 23258 28
18607 23256 23259 28
18608 23256 23260 28
18609 23261 23262 28
18610 23261 23263 28
18611 23261 23264 28
18612 23261 23265 28
18613 23266 23267 28
18614 23266 23268 28
18615 23266 23269 28
18616 23266 23270 28
18617 23271 23272 28
18618 23271 23273 28
18619 23271 23274 28
18620 23271 23275 28
18621 23276 23277 28
18622 23276 23278 28
18623 23276 23279 28
18624 23276 23280 28
18625 23281 23282 28
18626 23281 23283 28
18627 23281 23284 28
18628 23281 23285 28
18629 23286 23287 28
18630 23286 23288 28
18631 23286 23289 28
18632 23286 23290 28
18633 23291 23292 28
18634 23291 23293 28
18635 23291 23294 28
18636 23291 23295 28
18637 23296 23297 28
18638 23296 23298 28
18639 23296 23299 28
18640 23296 23300 28
18641 23301 23302 28
18642 23301 23303 28
18643 23301 23304 28
18644 23301 23305 28
18645 23306 23307 28
18646 23306 23308 28
18647 23306 23309 28
18648 23306 23310 28
18649 23311 23312 28
18650 23311 23313 28
18651 23311 23314 28
18652 23311 23315 28
18653 23316 23317 28
18654 23316 23318 28
18655 23316 23319 28
18656 23316 23320 28
18657 23321 23322 28
18658 23321 23323 28
18659 23321 23324 28
18660 23321 23325 28
18661 23326 23327 28
18662 23326 23328 28
18663 23326 23329 28
18664 23326 23330 28
18665 23331 23332 28
18666 23331 23333 28
18667 23331 23334 28
18668 23331 23335 28
18669 23336 23337 28
18670 23336 23338 28
18671 23336 23339 28
18672 23336 23340 28
18673 23341 23342 28
18674 23341 23343 28
18675 23341 23344 28
18676 23341 23345 28
18677 23346 23347 28
18678 23346 23348 28
18679 23346 23349 28
18680 23346 23350 28
18681 23351 23352 28
18682 23351 23353 28
18683 23351 23354 28
18684 23351 23355 28
18685 23356 23357 28
18686 23356 23358 28
18687 23356 23359 28
18688 23356 23360 28
18689 23361 23362 28
18690 23361 23363 28
18691 23361 23364 28
18692 23361 23365 28
18693 23366 23367 28
18694 23366 23368 28
18695 23366 23369 28
18696 23366 23370 28
18697 23371 23372 28
18698 23371 23373 28
18699 23371 23374 28
18700 23371 23375 28
18701 23376 23377 28
18702 23376 23378 28
18703 23376 23379 28
18704 23376 23380 28
18705 23381 23382 28
18706 23381 23383 28
18707 23381 23384 28
18708 23381 23385 28
18709 23386 23387 28
18710 23386 23388 28
18711 23386 23389 28
18712 23386 23390 28
18713 23391 23392 28
18714 23391 23393 28
18715 23391 23394 28
18716 23391 23395 28
18717 23396 23397 28
18718 23396 23398 28
18719 23396 23399 28
18720 23396 23400 28
18721 23401 23402 28
18722 23401 23403 28
18723 23401 23404 28
18724 23401 23405 28
18725 23406 23407 28
18726 23406 23408 28
18727 23406 23409 28
18728 23406 23410 28
18729 23411 23412 28
18730 23411 23413 28
18731 23411 23414 28
18732 23411 23415 28
18733 23416 23417 28
18734 23416 23418 28
18735 23416 23419 28
18736 23416 23420 28
18737 23421 23422 28
18738 23421 23423 28
18739 23421 23424 28
18740 23421 23425 28
18741 23426 23427 28
18742 23426 23428 28
18743 23426 23429 28
18744 23426 23430 28
18745 23431 23432 28
18746 23431 23433 28
18747 23431 23434 28
18748 23431 23435 28
18749 23436 23437 28
18750 23436 23438 28
18751 23436 23439 28
18752 23436 23440 28
18753 23441 23442 28
18754 23441 23443 28
18755 23441 23444 28
18756 23441 23445 28
18757 23446 23447 28
18758 23446 23448 28
18759 23446 23449 28
18760 23446 23450 28
18761 23451 23452 28
18762 23451 23453 28
18763 23451 23454 28
18764 23451 23455 28
18765 23456 23457 28
18766 23456 23458 28
18767 23456 23459 28
18768 23456 23460 28
18769 23461 23462 28
18770 23461 23463 28
18771 23461 23464 28
18772 23461 23465 28
18773 23466 23467 28
18774 23466 23468 28
18775 23466 23469 28
18776 23466 23470 28
18777 23471 23472 28
18778 23471 23473 28
18779 23471 23474 28
18780 23471 23475 28
18781 23476 23477 28
18782 23476 23478 28
18783 23476 23479 28
18784 23476 23480 28
18785 23481 23482 28
18786 23481 23483 28
18787 23481 23484 28
18788 23481 23485 28
18789 23486 23487 28
18790 23486 23488 28
18791 23486 23489 28
18792 23486 23490 28
18793 23491 23492 28
18794 23491 23493 28
18795 23491 23494 28
18796 23491 23495 28
18797 23496 23497 28
18798 23496 23498 28
18799 23496 23499 28
18800 23496 23500 28
18801 23501 23502 28
18802 23501 23503 28
18803 23501 23504 28
18804 23501 23505 28
18805 23506 23507 28
18806 23506 23508 28
18807 23506 23509 28
18808 23506 23510 28
18809 23511 23512 28
18810 23511 23513 28
18811 23511 23514 28
18812 23511 23515 28
18813 23516 23517 28
18814 23516 23518 28
18815 23516 23519 28
18816 23516 23520 28
18817 23521 23522 28
18818 23521 23523 28
18819 23521 23524 28
18820 23521 23525 28
18821 23526 23527 28
18822 23526 23528 28
18823 23526 23529 28
18824 23526 23530 28
18825 23531 23532 28
18826 23531 23533 28
18827 23531 23534 28
18828 23531 23535 28
18829 23536 23537 28
18830 23536 23538 28
18831 23536 23539 28
18832 23536 23540 28
18833 23541 23542 28
18834 23541 23543 28
18835 23541 23544 28
18836 23541 23545 28
18837 23546 23547 28
18838 23546 23548 28
18839 23546 23549 28
18840 23546 23550 28
18841 23551 23552 28
18842 23551 23553 28
18843 23551 23554 28
18844 23551 23555 28
18845 23556 23557 28
18846 23556 23558 28
18847 23556 23559 28
18848 23556 23560 28
18849 23561 23562 28
18850 23561 23563 28
18851 23561 23564 28
18852 23561 23565 28
18853 23566 23567 28
18854 23566 23568 28
18855 23566 23569 28
18856 23566 23570 28
18857 23571 23572 28
18858 23571 23573 28
18859 23571 23574 28
18860 23571 23575 28
18861 23576 23577 28
18862 23576 23578 28
18863 23576 23579 28
18864 23576 23580 28
18865 23581 23582 28
18866 23581 23583 28
18867 23581 23584 28
18868 23581 23585 28
18869 23586 23587 28
18870 23586 23588 28
18871 23586 23589 28
18872 23586 23590 28
18873 23591 23592 28
18874 23591 23593 28
18875 23591 23594 28
18876 23591 23595 28
18877 23596 23597 28
18878 23596 23598 28
18879 23596 23599 28
18880 23596 23600 28
18881 23601 23602 28
18882 23601 23603 28
18883 23601 23604 28
18884 23601 23605 28
18885 23606 23607 28
18886 23606 23608 28
18887 23606 23609 28
18888 23606 23610 28
18889 23611 23612 28
18890 23611 23613 28
18891 23611 23614 28
18892 23611 23615 28
18893 23616 23617 28
18894 23616 23618 28
18895 23616 23619 28
18896 23616 23620 28
18897 23621 23622 28
18898 23621 23623 28
18899 23621 23624 28
18900 23621 23625 28
18901 23626 23627 28
18902 23626 23628 28
18903 23626 23629 28
18904 23626 23630 28
18905 23631 23632 28
18906 23631 23633 28
18907 23631 23634 28
18908 23631 23635 28
18909 23636 23637 28
18910 23636 23638 28
18911 23636 23639 28
18912 23636 23640 28
18913 23641 23642 28
18914 23641 23643 28
18915 23641 23644 28
18916 23641 23645 28
18917 23646 23647 28
18918 23646 23648 28
18919 23646 23649 28
18920 23646 23650 28
18921 23651 23652 28
18922 23651 23653 28
18923 23651 23654 28
18924 23651 23655 28
18925 23656 23657 28
18926 23656 23658 28
18927 23656 23659 28
18928 23656 23660 28
18929 23661 23662 28
18930 23661 23663 28
18931 23661 23664 28
18932 23661 23665 28
18933 23666 23667 28
18934 23666 23668 28
18935 23666 23669 28
18936 23666 23670 28
18937 23671 23672 28
18938 23671 23673 28
18939 23671 23674 28
18940 23671 23675 28
18941 23676 23677 28
18942 23676 23678 28
18943 23676 23679 28
18944 23676 23680 28
18945 23681 23682 28
18946 23681 23683 28
18947 23681 23684 28
18948 23681 23685 28
18949 23686 23687 28
18950 23686 23688 28
18951 23686 23689 28
18952 23686 23690 28
18953 23691 23692 28
18954 23691 23693 28
18955 23691 23694 28
18956 23691 23695 28
18957 23696 23697 28
18958 23696 23698 28
18959 23696 23699 28
18960 23696 23700 28
18961 23701 23702 28
18962 23701 23703 28
18963 23701 23704 28
18964 23701 23705 28
18965 23706 23707 28
18966 23706 23708 28
18967 23706 23709 28
18968 23706 23710 28
18969 23711 23712 28
18970 23711 23713 28
18971 23711 23714 28
18972 23711 23715 28
18973 23716 23717 28
18974 23716 23718 28
18975 23716 23719 28
18976 23716 23720 28
18977 23721 23722 28
18978 23721 23723 28
18979 23721 23724 28
18980 23721 23725 28
18981 23726 23727 28
18982 23726 23728 28
18983 23726 23729 28
18984 23726 23730 28
18985 23731 23732 28
18986 23731 23733 28
18987 23731 23734 28
18988 23731 23735 28
18989 23736 23737 28
18990 23736 23738 28
18991 23736 23739 28
18992 23736 23740 28
18993 23741 23742 28
18994 23741 23743 28
18995 23741 23744 28
18996 23741 23745 28
18997 23746 23747 28
18998 23746 23748 28
18999 23746 23749 28
19000 23746 23750 28
19001 23751 23752 28
19002 23751 23753 28
19003 23751 23754 28
19004 23751 23755 28
19005 23756 23757 28
19006 23756 23758 28
19007 23756 23759 28
19008 23756 23760 28
19009 23761 23762 28
19010 23761 23763 28
19011 23761 23764 28
19012 23761 23765 28
19013 23766 23767 28
19014 23766 23768 28
19015 23766 23769 28
19016 23766 23770 28
19017 23771 23772 28
19018 23771 23773 28
19019 23771 23774 28
19020 23771 23775 28
19021 23776 23777 28
19022 23776 23778 28
19023 23776 23779 28
19024 23776 23780 28
19025 23781 23782 28
19026 23781 23783 28
19027 23781 23784 28
19028 23781 23785 28
19029 23786 23787 28
19030 23786 23788 28
19031 23786 23789 28
19032 23786 23790 28
19033 23791 23792 28
19034 23791 23793 28
19035 23791 23794 28
19036 23791 23795 28
19037 23796 23797 28
19038 23796 23798 28
19039 23796 23799 28
19040 23796 23800 28
19041 23801 23802 28
19042 23801 23803 28
19043 23801 23804 28
19044 23801 23805 28
19045 23806 23807 28
19046 23806 23808 28
19047 23806 23809 28
19048 23806 23810 28
19049 23811 23812 28
19050 23811 23813 28
19051 23811 23814 28
19052 23811 23815 28
19053 23816 23817 28
19054 23816 23818 28
19055 23816 23819 28
19056 23816 23820 28
19057 23821 23822 28
19058 23821 23823 28
19059 23821 23824 28
19060 23821 23825 28
19061 23826 23827 28
19062 23826 23828 28
19063 23826 23829 28
19064 23826 23830 28
19065 23831 23832 28
19066 23831 23833 28
19067 23831 23834 28
19068 23831 23835 28
19069 23836 23837 28
19070 23836 23838 28
19071 23836 23839 28
19072 23836 23840 28
19073 23841 23842 28
19074 23841 23843 28
19075 23841 23844 28
19076 23841 23845 28
19077 23846 23847 28
19078 23846 23848 28
19079 23846 23849 28
19080 23846 23850 28
19081 23851 23852 28
19082 23851 23853 28
19083 23851 23854 28
19084 23851 23855 28
19085 23856 23857 28
19086 23856 23858 28
19087 23856 23859 28
19088 23856 23860 28
19089 23861 23862 28
19090 23861 23863 28
19091 23861 23864 28
19092 23861 23865 28
19093 23866 23867 28
19094 23866 23868 28
19095 23866 23869 28
19096 23866 23870 28
19097 23871 23872 28
19098 23871 23873 28
19099 23871 23874 28
19100 23871 23875 28
19101 23876 23877 28
19102 23876 23878 28
19103 23876 23879 28
19104 23876 23880 28
19105 23881 23882 28
19106 23881 23883 28
19107 23881 23884 28
19108 23881 23885 28
19109 23886 23887 28
19110 23886 23888 28
19111 23886 23889 28
19112 23886 23890 28
19113 23891 23892 28
19114 23891 23893 28
19115 23891 23894 28
19116 23891 23895 28
19117 23896 23897 28
19118 23896 23898 28
19119 23896 23899 28
19120 23896 23900 28
19121 23901 23902 28
19122 23901 23903 28
19123 23901 23904 28
19124 23901 23905 28
19125 23906 23907 28
19126 23906 23908 28
19127 23906 23909 28
19128 23906 23910 28
19129 23911 23912 28
19130 23911 23913 28
19131 23911 23914 28
19132 23911 23915 28
19133 23916 23917 28
19134 23916 23918 28
19135 23916 23919 28
19136 23916 23920 28
19137 23921 23922 28
19138 23921 23923 28
19139 23921 23924 28
19140 23921 23925 28
19141 23926 23927 28
19142 23926 23928 28
19143 23926 23929 28
19144 23926 23930 28
19145 23931 23932 28
19146 23931 23933 28
19147 23931 23934 28
19148 23931 23935 28
19149 23936 23937 28
19150 23936 23938 28
19151 23936 23939 28
19152 23936 23940 28
19153 23941 23942 28
19154 23941 23943 28
19155 23941 23944 28
19156 23941 23945 28
19157 23946 23947 28
19158 23946 23948 28
19159 23946 23949 28
19160 23946 23950 28
19161 23951 23952 28
19162 23951 23953 28
19163 23951 23954 28
19164 23951 23955 28
19165 23956 23957 28
19166 23956 23958 28
19167 23956 23959 28
19168 23956 23960 28
19169 23961 23962 28
19170 23961 23963 28
19171 23961 23964 28
19172 23961 23965 28
19173 23966 23967 28
19174 23966 23968 28
19175 23966 23969 28
19176 23966 23970 28
19177 23971 23972 28
19178 23971 23973 28
19179 23971 23974 28
19180 23971 23975 28
19181 23976 23977 28
19182 23976 23978 28
19183 23976 23979 28
19184 23976 23980 28
19185 23981 23982 28
19186 23981 23983 28
19187 23981 23984 28
19188 23981 23985 28
19189 23986 23987 28
19190 23986 23988 28
19191 23986 23989 28
19192 23986 23990 28
19193 23991 23992 28
19194 23991 23993 28
19195 23991 23994 28
19196 23991 23995 28
19197 23996 23997 28
19198 23996 23998 28
19199 23996 23999 28
19200 23996 24000 28
19201 24001 24002 28
19202 24001 24003 28
19203 24001 24004 28
19204 24001 24005 28
19205 24006 24007 28
19206 24006 24008 28
19207 24006 24009 28
19208 24006 24010 28
19209 24011 24012 28
19210 24011 24013 28
19211 24011 24014 28
19212 24011 24015 28
19213 24016 24017 28
19214 24016 24018 28
19215 24016 24019 28
19216 24016 24020 28
19217 24021 24022 28
19218 24021 24023 28
19219 24021 24024 28
19220 24021 24025 28
19221 24026 24027 28
19222 24026 24028 28
19223 24026 24029 28
19224 24026 24030 28
19225 24031 24032 28
19226 24031 24033 28
19227 24031 24034 28
19228 24031 24035 28
19229 24036 24037 28
19230 24036 24038 28
19231 24036 24039 28
19232 24036 24040 28
19233 24041 24042 28
19234 24041 24043 28
19235 24041 24044 28
19236 24041 24045 28
19237 24046 24047 28
19238 24046 24048 28
19239 24046 24049 28
19240 24046 24050 28
19241 24051 24052 28
19242 24051 24053 28
19243 24051 24054 28
19244 24051 24055 28
19245 24056 24057 28
19246 24056 24058 28
19247 24056 24059 28
19248 24056 24060 28
19249 24061 24062 28
19250 24061 24063 28
19251 24061 24064 28
19252 24061 24065 28
19253 24066 24067 28
19254 24066 24068 28
19255 24066 24069 28
19256 24066 24070 28
19257 24071 24072 28
19258 24071 24073 28
19259 24071 24074 28
19260 24071 24075 28
19261 24076 24077 28
19262 24076 24078 28
19263 24076 24079 28
19264 24076 24080 28
19265 24081 24082 28
19266 24081 24083 28
19267 24081 24084 28
19268 24081 24085 28
19269 24086 24087 28
19270 24086 24088 28
19271 24086 24089 28
19272 24086 24090 28
19273 24091 24092 28
19274 24091 24093 28
19275 24091 24094 28
19276 24091 24095 28
19277 24096 24097 28
19278 24096 24098 28
19279 24096 24099 28
19280 24096 24100 28
19281 24101 24102 28
19282 24101 24103 28
19283 24101 24104 28
19284 24101 24105 28
19285 24106 24107 28
19286 24106 24108 28
19287 24106 24109 28
19288 24106 24110 28
19289 24111 24112 28
19290 24111 24113 28
19291 24111 24114 28
19292 24111 24115 28
19293 24116 24117 28
19294 24116 24118 28
19295 24116 24119 28
19296 24116 24120 28
19297 24121 24122 28
19298 24121 24123 28
19299 24121 24124 28
19300 24121 24125 28
19301 24126 24127 28
19302 24126 24128 28
19303 24126 24129 28
19304 24126 24130 28
19305 24131 24132 28
19306 24131 24133 28
19307 24131 24134 28
19308 24131 24135 28
19309 24136 24137 28
19310 24136 24138 28
19311 24136 24139 28
19312 24136 24140 28
19313 24141 24142 28
19314 24141 24143 28
19315 24141 24144 28
19316 24141 24145 28
19317 24146 24147 28
19318 24146 24148 28
19319 24146 24149 28
19320 24146 24150 28
19321 24151 24152 28
19322 24151 24153 28
19323 24151 24154 28
19324 24151 24155 28
19325 24156 24157 28
19326 24156 24158 28
19327 24156 24159 28
19328 24156 24160 28
19329 24161 24162 28
19330 24161 24163 28
19331 24161 24164 28
19332 24161 24165 28
19333 24166 24167 28
19334 24166 24168 28
19335 24166 24169 28
19336 24166 24170 28
19337 24171 24172 28
19338 24171 24173 28
19339 24171 24174 28
19340 24171 24175 28
19341 24176 24177 28
19342 24176 24178 28
19343 24176 24179 28
19344 24176 24180 28
19345 24181 24182 28
19346 24181 24183 28
19347 24181 24184 28
19348 24181 24185 28
19349 24186 24187 28
19350 24186 24188 28
19351 24186 24189 28
19352 24186 24190 28
19353 24191 24192 28
19354 24191 24193 28
19355 24191 24194 28
19356 24191 24195 28
19357 24196 24197 28
19358 24196 24198 28
19359 24196 24199 28
19360 24196 24200 28
19361 24201 24202 28
19362 24201 24203 28
19363 24201 24204 28
19364 24201 24205 28
19365 24206 24207 28
19366 24206 24208 28
19367 24206 24209 28
19368 24206 24210 28
19369 24211 24212 28
19370 24211 24213 28
19371 24211 24214 28
19372 24211 24215 28
19373 24216 24217 28
19374 24216 24218 28
19375 24216 24219 28
19376 24216 24220 28
19377 24221 24222 28
19378 24221 24223 28
19379 24221 24224 28
19380 24221 24225 28
19381 24226 24227 28
19382 24226 24228 28
19383 24226 24229 28
19384 24226 24230 28
19385 24231 24232 28
19386 24231 24233 28
19387 24231 24234 28
19388 24231 24235 28
19389 24236 24237 28
19390 24236 24238 28
19391 24236 24239 28
19392 24236 24240 28
19393 24241 24242 28
19394 24241 24243 28
19395 24241 24244 28
19396 24241 24245 28
19397 24246 24247 28
19398 24246 24248 28
19399 24246 24249 28
19400 24246 24250 28
19401 24251 24252 28
19402 24251 24253 28
19403 24251 24254 28
19404 24251 24255 28
19405 24256 24257 28
19406 24256 24258 28
19407 24256 24259 28
19408 24256 24260 28
19409 24261 24262 28
19410 24261 24263 28
19411 24261 24264 28
19412 24261 24265 28
19413 24266 24267 28
19414 24266 24268 28
19415 24266 24269 28
19416 24266 24270 28
19417 24271 24272 28
19418 24271 24273 28
19419 24271 24274 28
19420 24271 24275 28
19421 24276 24277 28
19422 24276 24278 28
19423 24276 24279 28
19424 24276 24280 28
19425 24281 24282 28
19426 24281 24283 28
19427 24281 24284 28
19428 24281 24285 28
19429 24286 24287 28
19430 24286 24288 28
19431 24286 24289 28
19432 24286 24290 28
19433 24291 24292 28
19434 24291 24293 28
19435 24291 24294 28
19436 24291 24295 28
19437 24296 24297 28
19438 24296 24298 28
19439 24296 24299 28
19440 24296 24300 28
19441 24301 24302 28
19442 24301 24303 28
19443 24301 24304 28
19444 24301 24305 28
19445 24306 24307 28
19446 24306 24308 28
19447 24306 24309 28
19448 24306 24310 28
19449 24311 24312 28
19450 24311 24313 28
19451 24311 24314 28
19452 24311 24315 28
19453 24316 24317 28
19454 24316 24318 28
19455 24316 24319 28
19456 24316 24320 28
19457 24321 24322 28
19458 24321 24323 28
19459 24321 24324 28
19460 24321 24325 28
19461 24326 24327 28
19462 24326 24328 28
19463 24326 24329 28
19464 24326 24330 28
19465 24331 24332 28
19466 24331 24333 28
19467 24331 24334 28
19468 24331 24335 28
19469 24336 24337 28
19470 24336 24338 28
19471 24336 24339 28
19472 24336 24340 28
19473 24341 24342 28
19474 24341 24343 28
19475 24341 24344 28
19476 24341 24345 28
19477 24346 24347 28
19478 24346 24348 28
19479 24346 24349 28
19480 24346 24350 28
19481 24351 24352 28
19482 24351 24353 28
19483 24351 24354 28
19484 24351 24355 28
19485 24356 24357 28
19486 24356 24358 28
19487 24356 24359 28
19488 24356 24360 28
19489 24361 24362 28
19490 24361 24363 28
19491 24361 24364 28
19492 24361 24365 28
19493 24366 24367 28
19494 24366 24368 28
19495 24366 24369 28
19496 24366 24370 28
19497 24371 24372 28
19498 24371 24373 28
19499 24371 24374 28
19500 24371 24375 28
19501 24376 24377 28
19502 24376 24378 28
19503 24376 24379 28
19504 24376 24380 28
19505 24381 24382 28
19506 24381 24383 28
19507 24381 24384 28
19508 24381 24385 28
19509 24386 24387 28
19510 24386 24388 28
19511 24386 24389 28
19512 24386 24390 28
19513 24391 24392 28
19514 24391 24393 28
19515 24391 24394 28
19516 24391 24395 28
19517 24396 24397 28
19518 24396 24398 28
19519 24396 24399 28
19520 24396 24400 28
19521 24401 24402 28
19522 24401 24403 28
19523 24401 24404 28
19524 24401 24405 28
19525 24406 24407 28
19526 24406 24408 28
19527 24406 24409 28
19528 24406 24410 28
19529 24411 24412 28
19530 24411 24413 28
19531 24411 24414 28
19532 24411 24415 28
19533 24416 24417 28
19534 24416 24418 28
19535 24416 24419 28
19536 24416 24420 28
19537 24421 24422 28
19538 24421 24423 28
19539 24421 24424 28
19540 24421 24425 28
19541 24426 24427 28
19542 24426 24428 28
19543 24426 24429 28
19544 24426 24430 28
19545 24431 24432 28
19546 24431 24433 28
19547 24431 24434 28
19548 24431 24435 28
19549 24436 24437 28
19550 24436 24438 28
19551 24436 24439 28
19552 24436 24440 28
19553 24441 24442 28
19554 24441 24443 28
19555 24441 24444 28
19556 24441 24445 28
19557 24446 24447 28
19558 24446 24448 28
19559 24446 24449 28
19560 24446 24450 28
19561 24451 24452 28
19562 24451 24453 28
19563 24451 24454 28
19564 24451 24455 28
19565 24456 24457 28
19566 24456 24458 28
19567 24456 24459 28
19568 24456 24460 28
19569 24461 24462 28
19570 24461 24463 28
19571 24461 24464 28
19572 24461 24465 28
19573 24466 24467 28
19574 24466 24468 28
19575 24466 24469 28
19576 24466 24470 28
19577 24471 24472 28
19578 24471 24473 28
19579 24471 24474 28
19580 24471 24475 28
19581 24476 24477 28
19582 24476 24478 28
19583 24476 24479 28
19584 24476 24480 28
19585 24481 24482 28
19586 24481 24483 28
19587 24481 24484 28
19588 24481 24485 28
19589 24486 24487 28
19590 24486 24488 28
19591 24486 24489 28
19592 24486 24490 28
19593 24491 24492 28
19594 24491 24493 28
19595 24491 24494 28
19596 24491 24495 28
19597 24496 24497 28
19598 24496 24498 28
19599 24496 24499 28
19600 24496 24500 28
19601 24501 24502 28
19602 24501 24503 28
19603 24501 24504 28
19604 24501 24505 28
19605 24506 24507 28
19606 24506 24508 28
19607 24506 24509 28
19608 24506 24510 28
19609 24511 24512 28
19610 24511 24513 28
19611 24511 24514 28
19612 24511 24515 28
19613 24516 24517 28
19614 24516 24518 28
19615 24516 24519 28
19616 24516 24520 28
19617 24521 24522 28
19618 24521 24523 28
19619 24521 24524 28
19620 24521 24525 28
19621 24526 24527 28
19622 24526 24528 28
19623 24526 24529 28
19624 24526 24530 28
19625 24531 24532 28
19626 24531 24533 28
19627 24531 24534 28
19628 24531 24535 28
19629 24536 24537 28
19630 24536 24538 28
19631 24536 24539 28
19632 24536 24540 28
19633 24541 24542 28
19634 24541 24543 28
19635 24541 24544 28
19636 24541 24545 28
19637 24546 24547 28
19638 24546 24548 28
19639 24546 24549 28
19640 24546 24550 28
19641 24551 24552 28
19642 24551 24553 28
19643 24551 24554 28
19644 24551 24555 28
19645 24556 24557 28
19646 24556 24558 28
19647 24556 24559 28
19648 24556 24560 28
19649 24561 24562 28
19650 24561 24563 28
19651 24561 24564 28
19652 24561 24565 28
19653 24566 24567 28
19654 24566 24568 28
19655 24566 24569 28
19656 24566 24570 28
19657 24571 24572 28
19658 24571 24573 28
19659 24571 24574 28
19660 24571 24575 28
19661 24576 24577 28
19662 24576 24578 28
19663 24576 24579 28
19664 24576 24580 28
19665 24581 24582 28
19666 24581 24583 28
19667 24581 24584 28
19668 24581 24585 28
19669 24586 24587 28
19670 24586 24588 28
19671 24586 24589 28
19672 24586 24590 28
19673 24591 24592 28
19674 24591 24593 28
19675 24591 24594 28
19676 24591 24595 28
19677 24596 24597 28
19678 24596 24598 28
19679 24596 24599 28
19680 24596 24600 28
19681 24601 24602 28
19682 24601 24603 28
19683 24601 24604 28
19684 24601 24605 28
19685 24606 24607 28
19686 24606 24608 28
19687 24606 24609 28
19688 24606 24610 28
19689 24611 24612 28
19690 24611 24613 28
19691 24611 24614 28
19692 24611 24615 28
19693 24616 24617 28
19694 24616 24618 28
19695 24616 24619 28
19696 24616 24620 28
19697 24621 24622 28
19698 24621 24623 28
19699 24621 24624 28
19700 24621 24625 28
19701 24626 24627 28
19702 24626 24628 28
19703 24626 24629 28
19704 24626 24630 28
19705 24631 24632 28
19706 24631 24633 28
19707 24631 24634 28
19708 24631 24635 28
19709 24636 24637 28
19710 24636 24638 28
19711 24636 24639 28
19712 24636 24640 28
19713 24641 24642 28
19714 24641 24643 28
19715 24641 24644 28
19716 24641 24645 28
19717 24646 24647 28
19718 24646 24648 28
19719 24646 24649 28
19720 24646 24650 28
19721 24651 24652 28
19722 24651 24653 28
19723 24651 24654 28
19724 24651 24655 28
19725 24656 24657 28
19726 24656 24658 28
19727 24656 24659 28
19728 24656 24660 28
19729 24661 24662 28
19730 24661 24663 28
19731 24661 24664 28
19732 24661 24665 28
19733 24666 24667 28
19734 24666 24668 28
19735 24666 24669 28
19736 24666 24670 28
19737 24671 24672 28
19738 24671 24673 28
19739 24671 24674 28
19740 24671 24675 28
19741 24676 24677 28
19742 24676 24678 28
19743 24676 24679 28
19744 24676 24680 28
19745 24681 24682 28
19746 24681 24683 28
19747 24681 24684 28
19748 24681 24685 28
19749 24686 24687 28
19750 24686 24688 28
19751 24686 24689 28
19752 24686 24690 28
19753 24691 24692 28
19754 24691 24693 28
19755 24691 24694 28
19756 24691 24695 28
19757 24696 24697 28
19758 24696 24698 28
19759 24696 24699 28
19760 24696 24700 28
19761 24701 24702 28
19762 24701 24703 28
19763 24701 24704 28
19764 24701 24705 28
19765 24706 24707 28
19766 24706 24708 28
19767 24706 24709 28
19768 24706 24710 28
19769 24711 24712 28
19770 24711 24713 28
19771 24711 24714 28
19772 24711 24715 28
19773 24716 24717 28
19774 24716 24718 28
19775 24716 24719 28
19776 24716 24720 28
19777 24721 24722 28
19778 24721 24723 28
19779 24721 24724 28
19780 24721 24725 28
19781 24726 24727 28
19782 24726 24728 28
19783 24726 24729 28
19784 24726 24730 28
19785 24731 24732 28
19786 24731 24733 28
19787 24731 24734 28
19788 24731 24735 28
19789 24736 24737 28
19790 24736 24738 28
19791 24736 24739 28
19792 24736 24740 28
19793 24741 24742 28
19794 24741 24743 28
19795 24741 24744 28
19796 24741 24745 28
19797 24746 24747 28
19798 24746 24748 28
19799 24746 24749 28
19800 24746 24750 28
19801 24751 24752 28
19802 24751 24753 28
19803 24751 24754 28
19804 24751 24755 28
19805 24756 24757 28
19806 24756 24758 28
19807 24756 24759 28
19808 24756 24760 28
19809 24761 24762 28
19810 24761 24763 28
19811 24761 24764 28
19812 24761 24765 28
19813 24766 24767 28
19814 24766 24768 28
19815 24766 24769 28
19816 24766 24770 28
19817 24771 24772 28
19818 24771 24773 28
19819 24771 24774 28
19820 24771 24775 28
19821 24776 24777 28
19822 24776 24778 28
19823 24776 24779 28
19824 24776 24780 28
19825 24781 24782 28
19826 24781 24783 28
19827 24781 24784 28
19828 24781 24785 28
19829 24786 24787 28
19830 24786 24788 28
19831 24786 24789 28
19832 24786 24790 28
19833 24791 24792 28
19834 24791 24793 28
19835 24791 24794 28
19836 24791 24795 28
19837 24796 24797 28
19838 24796 24798 28
19839 24796 24799 28
19840 24796 24800 28
19841 24801 24802 28
19842 24801 24803 28
19843 24801 24804 28
19844 24801 24805 28
19845 24806 24807 28
19846 24806 24808 28
19847 24806 24809 28
19848 24806 24810 28
19849 24811 24812 28
19850 24811 24813 28
19851 24811 24814 28
19852 24811 24815 28
19853 24816 24817 28
19854 24816 24818 28
19855 24816 24819 28
19856 24816 24820 28
19857 24821 24822 28
19858 24821 24823 28
19859 24821 24824 28
19860 24821 24825 28
19861 24826 24827 28
19862 24826 24828 28
19863 24826 24829 28
19864 24826 24830 28
19865 24831 24832 28
19866 24831 24833 28
19867 24831 24834 28
19868 24831 24835 28
19869 24836 24837 28
19870 24836 24838 28
19871 24836 24839 28
19872 24836 24840 28
19873 24841 24842 28
19874 24841 24843 28
19875 24841 24844 28
19876 24841 24845 28
19877 24846 24847 28
19878 24846 24848 28
19879 24846 24849 28
19880 24846 24850 28
19881 24851 24852 28
19882 24851 24853 28
19883 24851 24854 28
19884 24851 24855 28
19885 24856 24857 28
19886 24856 24858 28
19887 24856 24859 28
19888 24856 24860 28
19889 24861 24862 28
19890 24861 24863 28
19891 24861 24864 28
19892 24861 24865 28
19893 24866 24867 28
19894 24866 24868 28
19895 24866 24869 28
19896 24866 24870 28
19897 24871 24872 28
19898 24871 24873 28
19899 24871 24874 28
19900 24871 24875 28
19901 24876 24877 28
19902 24876 24878 28
19903 24876 24879 28
19904 24876 24880 28
19905 24881 24882 28
19906 24881 24883 28
19907 24881 24884 28
19908 24881 24885 28
19909 24886 24887 28
19910 24886 24888 28
19911 24886 24889 28
19912 24886 24890 28
19913 24891 24892 28
19914 24891 24893 28
19915 24891 24894 28
19916 24891 24895 28
19917 24896 24897 28
19918 24896 24898 28
19919 24896 24899 28
19920 24896 24900 28
19921 24901 24902 28
19922 24901 24903 28
19923 24901 24904 28
19924 24901 24905 28
19925 24906 24907 28
19926 24906 24908 28
19927 24906 24909 28
19928 24906 24910 28
19929 24911 24912 28
19930 24911 24913 28
19931 24911 24914 28
19932 24911 24915 28
19933 24916 24917 28
19934 24916 24918 28
19935 24916 24919 28
19936 24916 24920 28
19937 24921 24922 28
19938 24921 24923 28
19939 24921 24924 28
19940 24921 24925 28
19941 24926 24927 28
19942 24926 24928 28
19943 24926 24929 28
19944 24926 24930 28
19945 24931 24932 28
19946 24931 24933 28
19947 24931 24934 28
19948 24931 24935 28
19949 24936 24937 28
19950 24936 24938 28
19951 24936 24939 28
19952 24936 24940 28
19953 24941 24942 28
19954 24941 24943 28
19955 24941 24944 28
19956 24941 24945 28
19957 24946 24947 28
19958 24946 24948 28
19959 24946 24949 28
19960 24946 24950 28
19961 24951 24952 28
19962 24951 24953 28
19963 24951 24954 28
19964 24951 24955 28
19965 24956 24957 28
19966 24956 24958 28
19967 24956 24959 28
19968 24956 24960 28
19969 24961 24962 28
19970 24961 24963 28
19971 24961 24964 28
19972 24961 24965 28
19973 24966 24967 28
19974 24966 24968 28
19975 24966 24969 28
19976 24966 24970 28
19977 24971 24972 28
19978 24971 24973 28
19979 24971 24974 28
19980 24971 24975 28
19981 24976 24977 28
19982 24976 24978 28
19983 24976 24979 28
19984 24976 24980 28
19985 24981 24982 28
19986 24981 24983 28
19987 24981 24984 28
19988 24981 24985 28
19989 24986 24987 28
19990 24986 24988 28
19991 24986 24989 28
19992 24986 24990 28
19993 24991 24992 28
19994 24991 24993 28
19995 24991 24994 28
19996 24991 24995 28
19997 24996 24997 28
19998 24996 24998 28
19999 24996 24999 28
20000 24996 25000 28
20001 25001 25002 28
20002 25001 25003 28
20003 25001 25004 28
20004 25001 25005 28
20005 25006 25007 28
20006 25006 25008 28
20007 25006 25009 28
20008 25006 25010 28
20009 25011 25012 28
20010 25011 25013 28
20011 25011 25014 28
20012 25011 25015 28
20013 25016 25017 28
20014 25016 25018 28
20015 25016 25019 28
20016 25016 25020 28
20017 25021 25022 28
20018 25021 25023 28
20019 25021 25024 28
20020 25021 25025 28
20021 25026 25027 28
20022 25026 25028 28
20023 25026 25029 28
20024 25026 25030 28
20025 25031 25032 28
20026 25031 25033 28
20027 25031 25034 28
20028 25031 25035 28
20029 25036 25037 28
20030 25036 25038 28
20031 25036 25039 28
20032 25036 25040 28
20033 25041 25042 28
20034 25041 25043 28
20035 25041 25044 28
20036 25041 25045 28
20037 25046 25047 28
20038 25046 25048 28
20039 25046 25049 28
20040 25046 25050 28
20041 25051 25052 28
20042 25051 25053 28
20043 25051 25054 28
20044 25051 25055 28
20045 25056 25057 28
20046 25056 25058 28
20047 25056 25059 28
20048 25056 25060 28
20049 25061 25062 28
20050 25061 25063 28
20051 25061 25064 28
20052 25061 25065 28
20053 25066 25067 28
20054 25066 25068 28
20055 25066 25069 28
20056 25066 25070 28
20057 25071 25072 28
20058 25071 25073 28
20059 25071 25074 28
20060 25071 25075 28
20061 25076 25077 28
20062 25076 25078 28
20063 25076 25079 28
20064 25076 25080 28
20065 25081 25082 28
20066 25081 25083 28
20067 25081 25084 28
20068 25081 25085 28
20069 25086 25087 28
20070 25086 25088 28
20071 25086 25089 28
20072 25086 25090 28
20073 25091 25092 28
20074 25091 25093 28
20075 25091 25094 28
20076 25091 25095 28
20077 25096 25097 28
20078 25096 25098 28
20079 25096 25099 28
20080 25096 25100 28
20081 25101 25102 28
20082 25101 25103 28
20083 25101 25104 28
20084 25101 25105 28
20085 25106 25107 28
20086 25106 25108 28
20087 25106 25109 28
20088 25106 25110 28
20089 25111 25112 28
20090 25111 25113 28
20091 25111 25114 28
20092 25111 25115 28
20093 25116 25117 28
20094 25116 25118 28
20095 25116 25119 28
20096 25116 25120 28
20097 25121 25122 28
20098 25121 25123 28
20099 25121 25124 28
20100 25121 25125 28
20101 25126 25127 28
20102 25126 25128 28
20103 25126 25129 28
20104 25126 25130 28
20105 25131 25132 28
20106 25131 25133 28
20107 25131 25134 28
20108 25131 25135 28
20109 25136 25137 28
20110 25136 25138 28
20111 25136 25139 28
20112 25136 25140 28
20113 25141 25142 28
20114 25141 25143 28
20115 25141 25144 28
20116 25141 25145 28
20117 25146 25147 28
20118 25146 25148 28
20119 25146 25149 28
20120 25146 25150 28
20121 25151 25152 28
20122 25151 25153 28
20123 25151 25154 28
20124 25151 25155 28
20125 25156 25157 28
20126 25156 25158 28
20127 25156 25159 28
20128 25156 25160 28
20129 25161 25162 28
20130 25161 25163 28
20131 25161 25164 28
20132 25161 25165 28
20133 25166 25167 28
20134 25166 25168 28
20135 25166 25169 28
20136 25166 25170 28
20137 25171 25172 28
20138 25171 25173 28
20139 25171 25174 28
20140 25171 25175 28
20141 25176 25177 28
20142 25176 25178 28
20143 25176 25179 28
20144 25176 25180 28
20145 25181 25182 28
20146 25181 25183 28
20147 25181 25184 28
20148 25181 25185 28
20149 25186 25187 28
20150 25186 25188 28
20151 25186 25189 28
20152 25186 25190 28
20153 25191 25192 28
20154 25191 25193 28
20155 25191 25194 28
20156 25191 25195 28
20157 25196 25197 28
20158 25196 25198 28
20159 25196 25199 28
20160 25196 25200 28
20161 25201 25202 28
20162 25201 25203 28
20163 25201 25204 28
20164 25201 25205 28
20165 25206 25207 28
20166 25206 25208 28
20167 25206 25209 28
20168 25206 25210 28
20169 25211 25212 28
20170 25211 25213 28
20171 25211 25214 28
20172 25211 25215 28
20173 25216 25217 28
20174 25216 25218 28
20175 25216 25219 28
20176 25216 25220 28
20177 25221 25222 28
20178 25221 25223 28
20179 25221 25224 28
20180 25221 25225 28
20181 25226 25227 28
20182 25226 25228 28
20183 25226 25229 28
20184 25226 25230 28
20185 25231 25232 28
20186 25231 25233 28
20187 25231 25234 28
20188 25231 25235 28
20189 25236 25237 28
20190 25236 25238 28
20191 25236 25239 28
20192 25236 25240 28
20193 25241 25242 28
20194 25241 25243 28
20195 25241 25244 28
20196 25241 25245 28
20197 25246 25247 28
20198 25246 25248 28
20199 25246 25249 28
20200 25246 25250 28
20201 25251 25252 28
20202 25251 25253 28
20203 25251 25254 28
20204 25251 25255 28
20205 25256 25257 28
20206 25256 25258 28
20207 25256 25259 28
20208 25256 25260 28
20209 25261 25262 28
20210 25261 25263 28
20211 25261 25264 28
20212 25261 25265 28
20213 25266 25267 28
20214 25266 25268 28
20215 25266 25269 28
20216 25266 25270 28
20217 25271 25272 28
20218 25271 25273 28
20219 25271 25274 28
20220 25271 25275 28
20221 25276 25277 28
20222 25276 25278 28
20223 25276 25279 28
20224 25276 25280 28
20225 25281 25282 28
20226 25281 25283 28
20227 25281 25284 28
20228 25281 25285 28
20229 25286 25287 28
20230 25286 25288 28
20231 25286 25289 28
20232 25286 25290 28
20233 25291 25292 28
20234 25291 25293 28
20235 25291 25294 28
20236 25291 25295 28
20237 25296 25297 28
20238 25296 25298 28
20239 25296 25299 28
20240 25296 25300 28
20241 25301 25302 28
20242 25301 25303 28
20243 25301 25304 28
20244 25301 25305 28
20245 25306 25307 28
20246 25306 25308 28
20247 25306 25309 28
20248 25306 25310 28
20249 25311 25312 28
20250 25311 25313 28
20251 25311 25314 28
20252 25311 25315 28
20253 25316 25317 28
20254 25316 25318 28
20255 25316 25319 28
20256 25316 25320 28
20257 25321 25322 28
20258 25321 25323 28
20259 25321 25324 28
20260 25321 25325 28
20261 25326 25327 28
20262 25326 25328 28
20263 25326 25329 28
20264 25326 25330 28
20265 25331 25332 28
20266 25331 25333 28
20267 25331 25334 28
20268 25331 25335 28
20269 25336 25337 28
20270 25336 25338 28
20271 25336 25339 28
20272 25336 25340 28
20273 25341 25342 28
20274 25341 25343 28
20275 25341 25344 28
20276 25341 25345 28
20277 25346 25347 28
20278 25346 25348 28
20279 25346 25349 28
20280 25346 25350 28
20281 25351 25352 28
20282 25351 25353 28
20283 25351 25354 28
20284 25351 25355 28
20285 25356 25357 28
20286 25356 25358 28
20287 25356 25359 28
20288 25356 25360 28
20289 25361 25362 28
20290 25361 25363 28
20291 25361 25364 28
20292 25361 25365 28
20293 25366 25367 28
20294 25366 25368 28
20295 25366 25369 28
20296 25366 25370 28
20297 25371 25372 28
20298 25371 25373 28
20299 25371 25374 28
20300 25371 25375 28
20301 25376 25377 28
20302 25376 25378 28
20303 25376 25379 28
20304 25376 25380 28
20305 25381 25382 28
20306 25381 25383 28
20307 25381 25384 28
20308 25381 25385 28
20309 25386 25387 28
20310 25386 25388 28
20311 25386 25389 28
20312 25386 25390 28
20313 25391 25392 28
20314 25391 25393 28
20315 25391 25394 28
20316 25391 25395 28
20317 25396 25397 28
20318 25396 25398 28
20319 25396 25399 28
20320 25396 25400 28
20321 25401 25402 28
20322 25401 25403 28
20323 25401 25404 28
20324 25401 25405 28
20325 25406 25407 28
20326 25406 25408 28
20327 25406 25409 28
20328 25406 25410 28
20329 25411 25412 28
20330 25411 25413 28
20331 25411 25414 28
20332 25411 25415 28
20333 25416 25417 28
20334 25416 25418 28
20335 25416 25419 28
20336 25416 25420 28
20337 25421 25422 28
20338 25421 25423 28
20339 25421 25424 28
20340 25421 25425 28
20341 25426 25427 28
20342 25426 25428 28
20343 25426 25429 28
20344 25426 25430 28
20345 25431 25432 28
20346 25431 25433 28
20347 25431 25434 28
20348 25431 25435 28
20349 25436 25437 28
20350 25436 25438 28
20351 25436 25439 28
20352 25436 25440 28
20353 25441 25442 28
20354 25441 25443 28
20355 25441 25444 28
20356 25441 25445 28
20357 25446 25447 28
20358 25446 25448 28
20359 25446 25449 28
20360 25446 25450 28
20361 25451 25452 28
20362 25451 25453 28
20363 25451 25454 28
20364 25451 25455 28
20365 25456 25457 28
20366 25456 25458 28
20367 25456 25459 28
20368 25456 25460 28
20369 25461 25462 28
20370 25461 25463 28
20371 25461 25464 28
20372 25461 25465 28
20373 25466 25467 28
20374 25466 25468 28
20375 25466 25469 28
20376 25466 25470 28
20377 25471 25472 28
20378 25471 25473 28
20379 25471 25474 28
20380 25471 25475 28
20381 25476 25477 28
20382 25476 25478 28
20383 25476 25479 28
20384 25476 25480 28
20385 25481 25482 28
20386 25481 25483 28
20387 25481 25484 28
20388 25481 25485 28
20389 25486 25487 28
20390 25486 25488 28
20391 25486 25489 28
20392 25486 25490 28
20393 25491 25492 28
20394 25491 25493 28
20395 25491 25494 28
20396 25491 25495 28
20397 25496 25497 28
20398 25496 25498 28
20399 25496 25499 28
20400 25496 25500 28
20401 25501 25502 28
20402 25501 25503 28
20403 25501 25504 28
20404 25501 25505 28
20405 25506 25507 28
20406 25506 25508 28
20407 25506 25509 28
20408 25506 25510 28
20409 25511 25512 28
20410 25511 25513 28
20411 25511 25514 28
20412 25511 25515 28
20413 25516 25517 28
20414 25516 25518 28
20415 25516 25519 28
20416 25516 25520 28
20417 25521 25522 28
20418 25521 25523 28
20419 25521 25524 28
20420 25521 25525 28
20421 25526 25527 28
20422 25526 25528 28
20423 25526 25529 28
20424 25526 25530 28
20425 25531 25532 28
20426 25531 25533 28
20427 25531 25534 28
20428 25531 25535 28
20429 25536 25537 28
20430 25536 25538 28
20431 25536 25539 28
20432 25536 25540 28
20433 25541 25542 28
20434 25541 25543 28
20435 25541 25544 28
20436 25541 25545 28
20437 25546 25547 28
20438 25546 25548 28
20439 25546 25549 28
20440 25546 25550 28
20441 25551 25552 28
20442 25551 25553 28
20443 25551 25554 28
20444 25551 25555 28
20445 25556 25557 28
20446 25556 25558 28
20447 25556 25559 28
20448 25556 25560 28
20449 25561 25562 28
20450 25561 25563 28
20451 25561 25564 28
20452 25561 25565 28
20453 25566 25567 28
20454 25566 25568 28
20455 25566 25569 28
20456 25566 25570 28
20457 25571 25572 28
20458 25571 25573 28
20459 25571 25574 28
20460 25571 25575 28
20461 25576 25577 28
20462 25576 25578 28
20463 25576 25579 28
20464 25576 25580 28
20465 25581 25582 28
20466 25581 25583 28
20467 25581 25584 28
20468 25581 25585 28
20469 25586 25587 28
20470 25586 25588 28
20471 25586 25589 28
20472 25586 25590 28
20473 25591 25592 28
20474 25591 25593 28
20475 25591 25594 28
20476 25591 25595 28
20477 25596 25597 28
20478 25596 25598 28
20479 25596 25599 28
20480 25596 25600 28
20481 25601 25602 28
20482 25601 25603 28
20483 25601 25604 28
20484 25601 25605 28
20485 25606 25607 28
20486 25606 25608 28
20487 25606 25609 28
20488 25606 25610 28
20489 25611 25612 28
20490 25611 25613 28
20491 25611 25614 28
20492 25611 25615 28
20493 25616 25617 28
20494 25616 25618 28
20495 25616 25619 28
20496 25616 25620 28
20497 25621 25622 28
20498 25621 25623 28
20499 25621 25624 28
20500 25621 25625 28
20501 25626 25627 28
20502 25626 25628 28
20503 25626 25629 28
20504 25626 25630 28
20505 25631 25632 28
20506 25631 25633 28
20507 25631 25634 28
20508 25631 25635 28
20509 25636 25637 28
20510 25636 25638 28
20511 25636 25639 28
20512 25636 25640 28
20513 25641 25642 28
20514 25641 25643 28
20515 25641 25644 28
20516 25641 25645 28
20517 25646 25647 28
20518 25646 25648 28
20519 25646 25649 28
20520 25646 25650 28
20521 25651 25652 28
20522 25651 25653 28
20523 25651 25654 28
20524 25651 25655 28
20525 25656 25657 28
20526 25656 25658 28
20527 25656 25659 28
20528 25656 25660 28
20529 25661 25662 28
20530 25661 25663 28
20531 25661 25664 28
20532 25661 25665 28
20533 25666 25667 28
20534 25666 25668 28
20535 25666 25669 28
20536 25666 25670 28
20537 25671 25672 28
20538 25671 25673 28
20539 25671 25674 28
20540 25671 25675 28
20541 25676 25677 28
20542 25676 25678 28
20543 25676 25679 28
20544 25676 25680 28
20545 25681 25682 28
20546 25681 25683 28
20547 25681 25684 28
20548 25681 25685 28
20549 25686 25687 28
20550 25686 25688 28
20551 25686 25689 28
20552 25686 25690 28
20553 25691 25692 28
20554 25691 25693 28
20555 25691 25694 28
20556 25691 25695 28
20557 25696 25697 28
20558 25696 25698 28
20559 25696 25699 28
20560 25696 25700 28
20561 25701 25702 28
20562 25701 25703 28
20563 25701 25704 28
20564 25701 25705 28
20565 25706 25707 28
20566 25706 25708 28
20567 25706 25709 28
20568 25706 25710 28
20569 25711 25712 28
20570 25711 25713 28
20571 25711 25714 28
20572 25711 25715 28
20573 25716 25717 28
20574 25716 25718 28
20575 25716 25719 28
20576 25716 25720 28
20577 25721 25722 28
20578 25721 25723 28
20579 25721 25724 28
20580 25721 25725 28
20581 25726 25727 28
20582 25726 25728 28
20583 25726 25729 28
20584 25726 25730 28
20585 25731 25732 28
20586 25731 25733 28
20587 25731 25734 28
20588 25731 25735 28
20589 25736 25737 28
20590 25736 25738 28
20591 25736 25739 28
20592 25736 25740 28
20593 25741 25742 28
20594 25741 25743 28
20595 25741 25744 28
20596 25741 25745 28
20597 25746 25747 28
20598 25746 25748 28
20599 25746 25749 28
20600 25746 25750 28
20601 25751 25752 28
20602 25751 25753 28
20603 25751 25754 28
20604 25751 25755 28
20605 25756 25757 28
20606 25756 25758 28
20607 25756 25759 28
20608 25756 25760 28
20609 25761 25762 28
20610 25761 25763 28
20611 25761 25764 28
20612 25761 25765 28
20613 25766 25767 28
20614 25766 25768 28
20615 25766 25769 28
20616 25766 25770 28
20617 25771 25772 28
20618 25771 25773 28
20619 25771 25774 28
20620 25771 25775 28
20621 25776 25777 28
20622 25776 25778 28
20623 25776 25779 28
20624 25776 25780 28
20625 25781 25782 28
20626 25781 25783 28
20627 25781 25784 28
20628 25781 25785 28
20629 25786 25787 28
20630 25786 25788 28
20631 25786 25789 28
20632 25786 25790 28
20633 25791 25792 28
20634 25791 25793 28
20635 25791 25794 28
20636 25791 25795 28
20637 25796 25797 28
20638 25796 25798 28
20639 25796 25799 28
20640 25796 25800 28
20641 25801 25802 28
20642 25801 25803 28
20643 25801 25804 28
20644 25801 25805 28
20645 25806 25807 28
20646 25806 25808 28
20647 25806 25809 28
20648 25806 25810 28
20649 25811 25812 28
20650 25811 25813 28
20651 25811 25814 28
20652 25811 25815 28
20653 25816 25817 28
20654 25816 25818 28
20655 25816 25819 28
20656 25816 25820 28
20657 25821 25822 28
20658 25821 25823 28
20659 25821 25824 28
20660 25821 25825 28
20661 25826 25827 28
20662 25826 25828 28
20663 25826 25829 28
20664 25826 25830 28
20665 25831 25832 28
20666 25831 25833 28
20667 25831 25834 28
20668 25831 25835 28
20669 25836 25837 28
20670 25836 25838 28
20671 25836 25839 28
20672 25836 25840 28
20673 25841 25842 28
20674 25841 25843 28
20675 25841 25844 28
20676 25841 25845 28
20677 25846 25847 28
20678 25846 25848 28
20679 25846 25849 28
20680 25846 25850 28
20681 25851 25852 28
20682 25851 25853 28
20683 25851 25854 28
20684 25851 25855 28
20685 25856 25857 28
20686 25856 25858 28
20687 25856 25859 28
20688 25856 25860 28
20689 25861 25862 28
20690 25861 25863 28
20691 25861 25864 28
20692 25861 25865 28
20693 25866 25867 28
20694 25866 25868 28
20695 25866 25869 28
20696 25866 25870 28
20697 25871 25872 28
20698 25871 25873 28
20699 25871 25874 28
20700 25871 25875 28
20701 25876 25877 28
20702 25876 25878 28
20703 25876 25879 28
20704 25876 25880 28
20705 25881 25882 28
20706 25881 25883 28
20707 25881 25884 28
20708 25881 25885 28
20709 25886 25887 28
20710 25886 25888 28
20711 25886 25889 28
20712 25886 25890 28
20713 25891 25892 28
20714 25891 25893 28
20715 25891 25894 28
20716 25891 25895 28
20717 25896 25897 28
20718 25896 25898 28
20719 25896 25899 28
20720 25896 25900 28
20721 25901 25902 28
20722 25901 25903 28
20723 25901 25904 28
20724 25901 25905 28
20725 25906 25907 28
20726 25906 25908 28
20727 25906 25909 28
20728 25906 25910 28
20729 25911 25912 28
20730 25911 25913 28
20731 25911 25914 28
20732 25911 25915 28
20733 25916 25917 28
20734 25916 25918 28
20735 25916 25919 28
20736 25916 25920 28
20737 25921 25922 28
20738 25921 25923 28
20739 25921 25924 28
20740 25921 25925 28
20741 25926 25927 28
20742 25926 25928 28
20743 25926 25929 28
20744 25926 25930 28
20745 25931 25932 28
20746 25931 25933 28
20747 25931 25934 28
20748 25931 25935 28
20749 25936 25937 28
20750 25936 25938 28
20751 25936 25939 28
20752 25936 25940 28
20753 25941 25942 28
20754 25941 25943 28
20755 25941 25944 28
20756 25941 25945 28
20757 25946 25947 28
20758 25946 25948 28
20759 25946 25949 28
20760 25946 25950 28
20761 25951 25952 28
20762 25951 25953 28
20763 25951 25954 28
20764 25951 25955 28
20765 25956 25957 28
20766 25956 25958 28
20767 25956 25959 28
20768 25956 25960 28
20769 25961 25962 28
20770 25961 25963 28
20771 25961 25964 28
20772 25961 25965 28
20773 25966 25967 28
20774 25966 25968 28
20775 25966 25969 28
20776 25966 25970 28
20777 25971 25972 28
20778 25971 25973 28
20779 25971 25974 28
20780 25971 25975 28
20781 25976 25977 28
20782 25976 25978 28
20783 25976 25979 28
20784 25976 25980 28
20785 25981 25982 28
20786 25981 25983 28
20787 25981 25984 28
20788 25981 25985 28
20789 25986 25987 28
20790 25986 25988 28
20791 25986 25989 28
20792 25986 25990 28
20793 25991 25992 28
20794 25991 25993 28
20795 25991 25994 28
20796 25991 25995 28
20797 25996 25997 28
20798 25996 25998 28
20799 25996 25999 28
20800 25996 26000 28
20801 26001 26002 28
20802 26001 26003 28
20803 26001 26004 28
20804 26001 26005 28
20805 26006 26007 28
20806 26006 26008 28
20807 26006 26009 28
20808 26006 26010 28
20809 26011 26012 28
20810 26011 26013 28
20811 26011 26014 28
20812 26011 26015 28
20813 26016 26017 28
20814 26016 26018 28
20815 26016 26019 28
20816 26016 26020 28
20817 26021 26022 28
20818 26021 26023 28
20819 26021 26024 28
20820 26021 26025 28
20821 26026 26027 28
20822 26026 26028 28
20823 26026 26029 28
20824 26026 26030 28
20825 26031 26032 28
20826 26031 26033 28
20827 26031 26034 28
20828 26031 26035 28
20829 26036 26037 28
20830 26036 26038 28
20831 26036 26039 28
20832 26036 26040 28
20833 26041 26042 28
20834 26041 26043 28
20835 26041 26044 28
20836 26041 26045 28
20837 26046 26047 28
20838 26046 26048 28
20839 26046 26049 28
20840 26046 26050 28
20841 26051 26052 28
20842 26051 26053 28
20843 26051 26054 28
20844 26051 26055 28
20845 26056 26057 28
20846 26056 26058 28
20847 26056 26059 28
20848 26056 26060 28
20849 26061 26062 28
20850 26061 26063 28
20851 26061 26064 28
20852 26061 26065 28
20853 26066 26067 28
20854 26066 26068 28
20855 26066 26069 28
20856 26066 26070 28
20857 26071 26072 28
20858 26071 26073 28
20859 26071 26074 28
20860 26071 26075 28
20861 26076 26077 28
20862 26076 26078 28
20863 26076 26079 28
20864 26076 26080 28
20865 26081 26082 28
20866 26081 26083 28
20867 26081 26084 28
20868 26081 26085 28
20869 26086 26087 28
20870 26086 26088 28
20871 26086 26089 28
20872 26086 26090 28
20873 26091 26092 28
20874 26091 26093 28
20875 26091 26094 28
20876 26091 26095 28
20877 26096 26097 28
20878 26096 26098 28
20879 26096 26099 28
20880 26096 26100 28
20881 26101 26102 28
20882 26101 26103 28
20883 26101 26104 28
20884 26101 26105 28
20885 26106 26107 28
20886 26106 26108 28
20887 26106 26109 28
20888 26106 26110 28
20889 26111 26112 28
20890 26111 26113 28
20891 26111 26114 28
20892 26111 26115 28
20893 26116 26117 28
20894 26116 26118 28
20895 26116 26119 28
20896 26116 26120 28
20897 26121 26122 28
20898 26121 26123 28
20899 26121 26124 28
20900 26121 26125 28
20901 26126 26127 28
20902 26126 26128 28
20903 26126 26129 28
20904 26126 26130 28
20905 26131 26132 28
20906 26131 26133 28
20907 26131 26134 28
20908 26131 26135 28
20909 26136 26137 28
20910 26136 26138 28
20911 26136 26139 28
20912 26136 26140 28
20913 26141 26142 28
20914 26141 26143 28
20915 26141 26144 28
20916 26141 26145 28
20917 26146 26147 28
20918 26146 26148 28
20919 26146 26149 28
20920 26146 26150 28
20921 26151 26152 28
20922 26151 26153 28
20923 26151 26154 28
20924 26151 26155 28
20925 26156 26157 28
20926 26156 26158 28
20927 26156 26159 28
20928 26156 26160 28
20929 26161 26162 28
20930 26161 26163 28
20931 26161 26164 28
20932 26161 26165 28
20933 26166 26167 28
20934 26166 26168 28
20935 26166 26169 28
20936 26166 26170 28
20937 26171 26172 28
20938 26171 26173 28
20939 26171 26174 28
20940 26171 26175 28
20941 26176 26177 28
20942 26176 26178 28
20943 26176 26179 28
20944 26176 26180 28
20945 26181 26182 28
20946 26181 26183 28
20947 26181 26184 28
20948 26181 26185 28
20949 26186 26187 28
20950 26186 26188 28
20951 26186 26189 28
20952 26186 26190 28
20953 26191 26192 28
20954 26191 26193 28
20955 26191 26194 28
20956 26191 26195 28
20957 26196 26197 28
20958 26196 26198 28
20959 26196 26199 28
20960 26196 26200 28
20961 26201 26202 28
20962 26201 26203 28
20963 26201 26204 28
20964 26201 26205 28
20965 26206 26207 28
20966 26206 26208 28
20967 26206 26209 28
20968 26206 26210 28
20969 26211 26212 28
20970 26211 26213 28
20971 26211 26214 28
20972 26211 26215 28
20973 26216 26217 28
20974 26216 26218 28
20975 26216 26219 28
20976 26216 26220 28
20977 26221 26222 28
20978 26221 26223 28
20979 26221 26224 28
20980 26221 26225 28
20981 26226 26227 28
20982 26226 26228 28
20983 26226 26229 28
20984 26226 26230 28
20985 26231 26232 28
20986 26231 26233 28
20987 26231 26234 28
20988 26231 26235 28
20989 26236 26237 28
20990 26236 26238 28
20991 26236 26239 28
20992 26236 26240 28
20993 26241 26242 28
20994 26241 26243 28
20995 26241 26244 28
20996 26241 26245 28
20997 26246 26247 28
20998 26246 26248 28
20999 26246 26249 28
21000 26246 26250 28
21001 26251 26252 28
21002 26251 26253 28
21003 26251 26254 28
21004 26251 26255 28
21005 26256 26257 28
21006 26256 26258 28
21007 26256 26259 28
21008 26256 26260 28
21009 26261 26262 28
21010 26261 26263 28
21011 26261 26264 28
21012 26261 26265 28
21013 26266 26267 28
21014 26266 26268 28
21015 26266 26269 28
21016 26266 26270 28
21017 26271 26272 28
21018 26271 26273 28
21019 26271 26274 28
21020 26271 26275 28
21021 26276 26277 28
21022 26276 26278 28
21023 26276 26279 28
21024 26276 26280 28
21025 26281 26282 28
21026 26281 26283 28
21027 26281 26284 28
21028 26281 26285 28
21029 26286 26287 28
21030 26286 26288 28
21031 26286 26289 28
21032 26286 26290 28
21033 26291 26292 28
21034 26291 26293 28
21035 26291 26294 28
21036 26291 26295 28
21037 26296 26297 28
21038 26296 26298 28
21039 26296 26299 28
21040 26296 26300 28
21041 26301 26302 28
21042 26301 26303 28
21043 26301 26304 28
21044 26301 26305 28
21045 26306 26307 28
21046 26306 26308 28
21047 26306 26309 28
21048 26306 26310 28
21049 26311 26312 28
21050 26311 26313 28
21051 26311 26314 28
21052 26311 26315 28
21053 26316 26317 28
21054 26316 26318 28
21055 26316 26319 28
21056 26316 26320 28
21057 26321 26322 28
21058 26321 26323 28
21059 26321 26324 28
21060 26321 26325 28
21061 26326 26327 28
21062 26326 26328 28
21063 26326 26329 28
21064 26326 26330 28
21065 26331 26332 28
21066 26331 26333 28
21067 26331 26334 28
21068 26331 26335 28
21069 26336 26337 28
21070 26336 26338 28
21071 26336 26339 28
21072 26336 26340 28
21073 26341 26342 28
21074 26341 26343 28
21075 26341 26344 28
21076 26341 26345 28
21077 26346 26347 28
21078 26346 26348 28
21079 26346 26349 28
21080 26346 26350 28
21081 26351 26352 28
21082 26351 26353 28
21083 26351 26354 28
21084 26351 26355 28
21085 26356 26357 28
21086 26356 26358 28
21087 26356 26359 28
21088 26356 26360 28
21089 26361 26362 28
21090 26361 26363 28
21091 26361 26364 28
21092 26361 26365 28
21093 26366 26367 28
21094 26366 26368 28
21095 26366 26369 28
21096 26366 26370 28
21097 26371 26372 28
21098 26371 26373 28
21099 26371 26374 28
21100 26371 26375 28
21101 26376 26377 28
21102 26376 26378 28
21103 26376 26379 28
21104 26376 26380 28
21105 26381 26382 28
21106 26381 26383 28
21107 26381 26384 28
21108 26381 26385 28
21109 26386 26387 28
21110 26386 26388 28
21111 26386 26389 28
21112 26386 26390 28
21113 26391 26392 28
21114 26391 26393 28
21115 26391 26394 28
21116 26391 26395 28
21117 26396 26397 28
21118 26396 26398 28
21119 26396 26399 28
21120 26396 26400 28
21121 26401 26402 28
21122 26401 26403 28
21123 26401 26404 28
21124 26401 26405 28
21125 26406 26407 28
21126 26406 26408 28
21127 26406 26409 28
21128 26406 26410 28
21129 26411 26412 28
21130 26411 26413 28
21131 26411 26414 28
21132 26411 26415 28
21133 26416 26417 28
21134 26416 26418 28
21135 26416 26419 28
21136 26416 26420 28
21137 26421 26422 28
21138 26421 26423 28
21139 26421 26424 28
21140 26421 26425 28
21141 26426 26427 28
21142 26426 26428 28
21143 26426 26429 28
21144 26426 26430 28
21145 26431 26432 28
21146 26431 26433 28
21147 26431 26434 28
21148 26431 26435 28
21149 26436 26437 28
21150 26436 26438 28
21151 26436 26439 28
21152 26436 26440 28
21153 26441 26442 28
21154 26441 26443 28
21155 26441 26444 28
21156 26441 26445 28
21157 26446 26447 28
21158 26446 26448 28
21159 26446 26449 28
21160 26446 26450 28
21161 26451 26452 28
21162 26451 26453 28
21163 26451 26454 28
21164 26451 26455 28
21165 26456 26457 28
21166 26456 26458 28
21167 26456 26459 28
21168 26456 26460 28
21169 26461 26462 28
21170 26461 26463 28
21171 26461 26464 28
21172 26461 26465 28
21173 26466 26467 28
21174 26466 26468 28
21175 26466 26469 28
21176 26466 26470 28
21177 26471 26472 28
21178 26471 26473 28
21179 26471 26474 28
21180 26471 26475 28
21181 26476 26477 28
21182 26476 26478 28
21183 26476 26479 28
21184 26476 26480 28
21185 26481 26482 28
21186 26481 26483 28
21187 26481 26484 28
21188 26481 26485 28
21189 26486 26487 28
21190 26486 26488 28
21191 26486 26489 28
21192 26486 26490 28
21193 26491 26492 28
21194 26491 26493 28
21195 26491 26494 28
21196 26491 26495 28
21197 26496 26497 28
21198 26496 26498 28
21199 26496 26499 28
21200 26496 26500 28
21201 26501 26502 28
21202 26501 26503 28
21203 26501 26504 28
21204 26501 26505 28
21205 26506 26507 28
21206 26506 26508 28
21207 26506 26509 28
21208 26506 26510 28
21209 26511 26512 28
21210 26511 26513 28
21211 26511 26514 28
21212 26511 26515 28
21213 26516 26517 28
21214 26516 26518 28
21215 26516 26519 28
21216 26516 26520 28
21217 26521 26522 28
21218 26521 26523 28
21219 26521 26524 28
21220 26521 26525 28
21221 26526 26527 28
21222 26526 26528 28
21223 26526 26529 28
21224 26526 26530 28
21225 26531 26532 28
21226 26531 26533 28
21227 26531 26534 28
21228 26531 26535 28
21229 26536 26537 28
21230 26536 26538 28
21231 26536 26539 28
21232 26536 26540 28
21233 26541 26542 28
21234 26541 26543 28
21235 26541 26544 28
21236 26541 26545 28
21237 26546 26547 28
21238 26546 26548 28
21239 26546 26549 28
21240 26546 26550 28
21241 26551 26552 28
21242 26551 26553 28
21243 26551 26554 28
21244 26551 26555 28
21245 26556 26557 28
21246 26556 26558 28
21247 26556 26559 28
21248 26556 26560 28
21249 26561 26562 28
21250 26561 26563 28
21251 26561 26564 28
21252 26561 26565 28
21253 26566 26567 28
21254 26566 26568 28
21255 26566 26569 28
21256 26566 26570 28
21257 26571 26572 28
21258 26571 26573 28
21259 26571 26574 28
21260 26571 26575 28
21261 26576 26577 28
21262 26576 26578 28
21263 26576 26579 28
21264 26576 26580 28
21265 26581 26582 28
21266 26581 26583 28
21267 26581 26584 28
21268 26581 26585 28
21269 26586 26587 28
21270 26586 26588 28
21271 26586 26589 28
21272 26586 26590 28
21273 26591 26592 28
21274 26591 26593 28
21275 26591 26594 28
21276 26591 26595 28
21277 26596 26597 28
21278 26596 26598 28
21279 26596 26599 28
21280 26596 26600 28
21281 26601 26602 28
21282 26601 26603 28
21283 26601 26604 28
21284 26601 26605 28
21285 26606 26607 28
21286 26606 26608 28
21287 26606 26609 28
21288 26606 26610 28
21289 26611 26612 28
21290 26611 26613 28
21291 26611 26614 28
21292 26611 26615 28
21293 26616 26617 28
21294 26616 26618 28
21295 26616 26619 28
21296 26616 26620 28
21297 26621 26622 28
21298 26621 26623 28
21299 26621 26624 28
21300 26621 26625 28
21301 26626 26627 28
21302 26626 26628 28
21303 26626 26629 28
21304 26626 26630 28
21305 26631 26632 28
21306 26631 26633 28
21307 26631 26634 28
21308 26631 26635 28
21309 26636 26637 28
21310 26636 26638 28
21311 26636 26639 28
21312 26636 26640 28
21313 26641 26642 28
21314 26641 26643 28
21315 26641 26644 28
21316 26641 26645 28
21317 26646 26647 28
21318 26646 26648 28
21319 26646 26649 28
21320 26646 26650 28
21321 26651 26652 28
21322 26651 26653 28
21323 26651 26654 28
21324 26651 26655 28
21325 26656 26657 28
21326 26656 26658 28
21327 26656 26659 28
21328 26656 26660 28
21329 26661 26662 28
21330 26661 26663 28
21331 26661 26664 28
21332 26661 26665 28
21333 26666 26667 28
21334 26666 26668 28
21335 26666 26669 28
21336 26666 26670 28
21337 26671 26672 28
21338 26671 26673 28
21339 26671 26674 28
21340 26671 26675 28
21341 26676 26677 28
21342 26676 26678 28
21343 26676 26679 28
21344 26676 26680 28
21345 26681 26682 28
21346 26681 26683 28
21347 26681 26684 28
21348 26681 26685 28
21349 26686 26687 28
21350 26686 26688 28
21351 26686 26689 28
21352 26686 26690 28
21353 26691 26692 28
21354 26691 26693 28
21355 26691 26694 28
21356 26691 26695 28
21357 26696 26697 28
21358 26696 26698 28
21359 26696 26699 28
21360 26696 26700 28
21361 26701 26702 28
21362 26701 26703 28
21363 26701 26704 28
21364 26701 26705 28
21365 26706 26707 28
21366 26706 26708 28
21367 26706 26709 28
21368 26706 26710 28
21369 26711 26712 28
21370 26711 26713 28
21371 26711 26714 28
21372 26711 26715 28
21373 26716 26717 28
21374 26716 26718 28
21375 26716 26719 28
21376 26716 26720 28
21377 26721 26722 28
21378 26721 26723 28
21379 26721 26724 28
21380 26721 26725 28
21381 26726 26727 28
21382 26726 26728 28
21383 26726 26729 28
21384 26726 26730 28
21385 26731 26732 28
21386 26731 26733 28
21387 26731 26734 28
21388 26731 26735 28
21389 26736 26737 28
21390 26736 26738 28
21391 26736 26739 28
21392 26736 26740 28
21393 26741 26742 28
21394 26741 26743 28
21395 26741 26744 28
21396 26741 26745 28
21397 26746 26747 28
21398 26746 26748 28
21399 26746 26749 28
21400 26746 26750 28
21401 26751 26752 28
21402 26751 26753 28
21403 26751 26754 28
21404 26751 26755 28
21405 26756 26757 28
21406 26756 26758 28
21407 26756 26759 28
21408 26756 26760 28
21409 26761 26762 28
21410 26761 26763 28
21411 26761 26764 28
21412 26761 26765 28
21413 26766 26767 28
21414 26766 26768 28
21415 26766 26769 28
21416 26766 26770 28
21417 26771 26772 28
21418 26771 26773 28
21419 26771 26774 28
21420 26771 26775 28
21421 26776 26777 28
21422 26776 26778 28
21423 26776 26779 28
21424 26776 26780 28
21425 26781 26782 28
21426 26781 26783 28
21427 26781 26784 28
21428 26781 26785 28
21429 26786 26787 28
21430 26786 26788 28
21431 26786 26789 28
21432 26786 26790 28
21433 26791 26792 28
21434 26791 26793 28
21435 26791 26794 28
21436 26791 26795 28
21437 26796 26797 28
21438 26796 26798 28
21439 26796 26799 28
21440 26796 26800 28
21441 26801 26802 28
21442 26801 26803 28
21443 26801 26804 28
21444 26801 26805 28
21445 26806 26807 28
21446 26806 26808 28
21447 26806 26809 28
21448 26806 26810 28
21449 26811 26812 28
21450 26811 26813 28
21451 26811 26814 28
21452 26811 26815 28
21453 26816 26817 28
21454 26816 26818 28
21455 26816 26819 28
21456 26816 26820 28
21457 26821 26822 28
21458 26821 26823 28
21459 26821 26824 28
21460 26821 26825 28
21461 26826 26827 28
21462 26826 26828 28
21463 26826 26829 28
21464 26826 26830 28
21465 26831 26832 28
21466 26831 26833 28
21467 26831 26834 28
21468 26831 26835 28
21469 26836 26837 28
21470 26836 26838 28
21471 26836 26839 28
21472 26836 26840 28
21473 26841 26842 28
21474 26841 26843 28
21475 26841 26844 28
21476 26841 26845 28
21477 26846 26847 28
21478 26846 26848 28
21479 26846 26849 28
21480 26846 26850 28
21481 26851 26852 28
21482 26851 26853 28
21483 26851 26854 28
21484 26851 26855 28
21485 26856 26857 28
21486 26856 26858 28
21487 26856 26859 28
21488 26856 26860 28
21489 26861 26862 28
21490 26861 26863 28
21491 26861 26864 28
21492 26861 26865 28
21493 26866 26867 28
21494 26866 26868 28
21495 26866 26869 28
21496 26866 26870 28
21497 26871 26872 28
21498 26871 26873 28
21499 26871 26874 28
21500 26871 26875 28
21501 26876 26877 28
21502 26876 26878 28
21503 26876 26879 28
21504 26876 26880 28
21505 26881 26882 28
21506 26881 26883 28
21507 26881 26884 28
21508 26881 26885 28
21509 26886 26887 28
21510 26886 26888 28
21511 26886 26889 28
21512 26886 26890 28
21513 26891 26892 28
21514 26891 26893 28
21515 26891 26894 28
21516 26891 26895 28
21517 26896 26897 28
21518 26896 26898 28
21519 26896 26899 28
21520 26896 26900 28
21521 26901 26902 28
21522 26901 26903 28
21523 26901 26904 28
21524 26901 26905 28
21525 26906 26907 28
21526 26906 26908 28
21527 26906 26909 28
21528 26906 26910 28
21529 26911 26912 28
21530 26911 26913 28
21531 26911 26914 28
21532 26911 26915 28
21533 26916 26917 28
21534 26916 26918 28
21535 26916 26919 28
21536 26916 26920 28
21537 26921 26922 28
21538 26921 26923 28
21539 26921 26924 28
21540 26921 26925 28
21541 26926 26927 28
21542 26926 26928 28
21543 26926 26929 28
21544 26926 26930 28
21545 26931 26932 28
21546 26931 26933 28
21547 26931 26934 28
21548 26931 26935 28
21549 26936 26937 28
21550 26936 26938 28
21551 26936 26939 28
21552 26936 26940 28
21553 26941 26942 28
21554 26941 26943 28
21555 26941 26944 28
21556 26941 26945 28
21557 26946 26947 28
21558 26946 26948 28
21559 26946 26949 28
21560 26946 26950 28
21561 26951 26952 28
21562 26951 26953 28
21563 26951 26954 28
21564 26951 26955 28
21565 26956 26957 28
21566 26956 26958 28
21567 26956 26959 28
21568 26956 26960 28
21569 26961 26962 28
21570 26961 26963 28
21571 26961 26964 28
21572 26961 26965 28
21573 26966 26967 28
21574 26966 26968 28
21575 26966 26969 28
21576 26966 26970 28
21577 26971 26972 28
21578 26971 26973 28
21579 26971 26974 28
21580 26971 26975 28
21581 26976 26977 28
21582 26976 26978 28
21583 26976 26979 28
21584 26976 26980 28
21585 26981 26982 28
21586 26981 26983 28
21587 26981 26984 28
21588 26981 26985 28
21589 26986 26987 28
21590 26986 26988 28
21591 26986 26989 28
21592 26986 26990 28
21593 26991 26992 28
21594 26991 26993 28
21595 26991 26994 28
21596 26991 26995 28
21597 26996 26997 28
21598 26996 26998 28
21599 26996 26999 28
21600 26996 27000 28
21601 27001 27002 28
21602 27001 27003 28
21603 27001 27004 28
21604 27001 27005 28
21605 27006 27007 28
21606 27006 27008 28
21607 27006 27009 28
21608 27006 27010 28
21609 27011 27012 28
21610 27011 27013 28
21611 27011 27014 28
21612 27011 27015 28
21613 27016 27017 28
21614 27016 27018 28
21615 27016 27019 28
21616 27016 27020 28
21617 27021 27022 28
21618 27021 27023 28
21619 27021 27024 28
21620 27021 27025 28
21621 27026 27027 28
21622 27026 27028 28
21623 27026 27029 28
21624 27026 27030 28
21625 27031 27032 28
21626 27031 27033 28
21627 27031 27034 28
21628 27031 27035 28
21629 27036 27037 28
21630 27036 27038 28
21631 27036 27039 28
21632 27036 27040 28
21633 27041 27042 28
21634 27041 27043 28
21635 27041 27044 28
21636 27041 27045 28
21637 27046 27047 28
21638 27046 27048 28
21639 27046 27049 28
21640 27046 27050 28
21641 27051 27052 28
21642 27051 27053 28
21643 27051 27054 28
21644 27051 27055 28
21645 27056 27057 28
21646 27056 27058 28
21647 27056 27059 28
21648 27056 27060 28
21649 27061 27062 28
21650 27061 27063 28
21651 27061 27064 28
21652 27061 27065 28
21653 27066 27067 28
21654 27066 27068 28
21655 27066 27069 28
21656 27066 27070 28
21657 27071 27072 28
21658 27071 27073 28
21659 27071 27074 28
21660 27071 27075 28
21661 27076 27077 28
21662 27076 27078 28
21663 27076 27079 28
21664 27076 27080 28
21665 27081 27082 28
21666 27081 27083 28
21667 27081 27084 28
21668 27081 27085 28
21669 27086 27087 28
21670 27086 27088 28
21671 27086 27089 28
21672 27086 27090 28
21673 27091 27092 28
21674 27091 27093 28
21675 27091 27094 28
21676 27091 27095 28
21677 27096 27097 28
21678 27096 27098 28
21679 27096 27099 28
21680 27096 27100 28
21681 27101 27102 28
21682 27101 27103 28
21683 27101 27104 28
21684 27101 27105 28
21685 27106 27107 28
21686 27106 27108 28
21687 27106 27109 28
21688 27106 27110 28
21689 27111 27112 28
21690 27111 27113 28
21691 27111 27114 28
21692 27111 27115 28
21693 27116 27117 28
21694 27116 27118 28
21695 27116 27119 28
21696 27116 27120 28
21697 27121 27122 28
21698 27121 27123 28
21699 27121 27124 28
21700 27121 27125 28
21701 27126 27127 28
21702 27126 27128 28
21703 27126 27129 28
21704 27126 27130 28
21705 27131 27132 28
21706 27131 27133 28
21707 27131 27134 28
21708 27131 27135 28
21709 27136 27137 28
21710 27136 27138 28
21711 27136 27139 28
21712 27136 27140 28
21713 27141 27142 28
21714 27141 27143 28
21715 27141 27144 28
21716 27141 27145 28
21717 27146 27147 28
21718 27146 27148 28
21719 27146 27149 28
21720 27146 27150 28
21721 27151 27152 28
21722 27151 27153 28
21723 27151 27154 28
21724 27151 27155 28
21725 27156 27157 28
21726 27156 27158 28
21727 27156 27159 28
21728 27156 27160 28
21729 27161 27162 28
21730 27161 27163 28
21731 27161 27164 28
21732 27161 27165 28
21733 27166 27167 28
21734 27166 27168 28
21735 27166 27169 28
21736 27166 27170 28
21737 27171 27172 28
21738 27171 27173 28
21739 27171 27174 28
21740 27171 27175 28
21741 27176 27177 28
21742 27176 27178 28
21743 27176 27179 28
21744 27176 27180 28
21745 27181 27182 28
21746 27181 27183 28
21747 27181 27184 28
21748 27181 27185 28
21749 27186 27187 28
21750 27186 27188 28
21751 27186 27189 28
21752 27186 27190 28
21753 27191 27192 28
21754 27191 27193 28
21755 27191 27194 28
21756 27191 27195 28
21757 27196 27197 28
21758 27196 27198 28
21759 27196 27199 28
21760 27196 27200 28
21761 27201 27202 28
21762 27201 27203 28
21763 27201 27204 28
21764 27201 27205 28
21765 27206 27207 28
21766 27206 27208 28
21767 27206 27209 28
21768 27206 27210 28
21769 27211 27212 28
21770 27211 27213 28
21771 27211 27214 28
21772 27211 27215 28
21773 27216 27217 28
21774 27216 27218 28
21775 27216 27219 28
21776 27216 27220 28
21777 27221 27222 28
21778 27221 27223 28
21779 27221 27224 28
21780 27221 27225 28
21781 27226 27227 28
21782 27226 27228 28
21783 27226 27229 28
21784 27226 27230 28
21785 27231 27232 28
21786 27231 27233 28
21787 27231 27234 28
21788 27231 27235 28
21789 27236 27237 28
21790 27236 27238 28
21791 27236 27239 28
21792 27236 27240 28
21793 27241 27242 28
21794 27241 27243 28
21795 27241 27244 28
21796 27241 27245 28
21797 27246 27247 28
21798 27246 27248 28
21799 27246 27249 28
21800 27246 27250 28
21801 27251 27252 28
21802 27251 27253 28
21803 27251 27254 28
21804 27251 27255 28
21805 27256 27257 28
21806 27256 27258 28
21807 27256 27259 28
21808 27256 27260 28
21809 27261 27262 28
21810 27261 27263 28
21811 27261 27264 28
21812 27261 27265 28
21813 27266 27267 28
21814 27266 27268 28
21815 27266 27269 28
21816 27266 27270 28
21817 27271 27272 28
21818 27271 27273 28
21819 27271 27274 28
21820 27271 27275 28
21821 27276 27277 28
21822 27276 27278 28
21823 27276 27279 28
21824 27276 27280 28
21825 27281 27282 28
21826 27281 27283 28
21827 27281 27284 28
21828 27281 27285 28
21829 27286 27287 28
21830 27286 27288 28
21831 27286 27289 28
21832 27286 27290 28
21833 27291 27292 28
21834 27291 27293 28
21835 27291 27294 28
21836 27291 27295 28
21837 27296 27297 28
21838 27296 27298 28
21839 27296 27299 28
21840 27296 27300 28
21841 27301 27302 28
21842 27301 27303 28
21843 27301 27304 28
21844 27301 27305 28
21845 27306 27307 28
21846 27306 27308 28
21847 27306 27309 28
21848 27306 27310 28
21849 27311 27312 28
21850 27311 27313 28
21851 27311 27314 28
21852 27311 27315 28
21853 27316 27317 28
21854 27316 27318 28
21855 27316 27319 28
21856 27316 27320 28
21857 27321 27322 28
21858 27321 27323 28
21859 27321 27324 28
21860 27321 27325 28
21861 27326 27327 28
21862 27326 27328 28
21863 27326 27329 28
21864 27326 27330 28
21865 27331 27332 28
21866 27331 27333 28
21867 27331 27334 28
21868 27331 27335 28
21869 27336 27337 28
21870 27336 27338 28
21871 27336 27339 28
21872 27336 27340 28
21873 27341 27342 28
21874 27341 27343 28
21875 27341 27344 28
21876 27341 27345 28
21877 27346 27347 28
21878 27346 27348 28
21879 27346 27349 28
21880 27346 27350 28
21881 27351 27352 28
21882 27351 27353 28
21883 27351 27354 28
21884 27351 27355 28
21885 27356 27357 28
21886 27356 27358 28
21887 27356 27359 28
21888 27356 27360 28
21889 27361 27362 28
21890 27361 27363 28
21891 27361 27364 28
21892 27361 27365 28
21893 27366 27367 28
21894 27366 27368 28
21895 27366 27369 28
21896 27366 27370 28
21897 27371 27372 28
21898 27371 27373 28
21899 27371 27374 28
21900 27371 27375 28
21901 27376 27377 28
21902 27376 27378 28
21903 27376 27379 28
21904 27376 27380 28
21905 27381 27382 28
21906 27381 27383 28
21907 27381 27384 28
21908 27381 27385 28
21909 27386 27387 28
21910 27386 27388 28
21911 27386 27389 28
21912 27386 27390 28
21913 27391 27392 28
21914 27391 27393 28
21915 27391 27394 28
21916 27391 27395 28
21917 27396 27397 28
21918 27396 27398 28
21919 27396 27399 28
21920 27396 27400 28
21921 27401 27402 28
21922 27401 27403 28
21923 27401 27404 28
21924 27401 27405 28
21925 27406 27407 28
21926 27406 27408 28
21927 27406 27409 28
21928 27406 27410 28
21929 27411 27412 28
21930 27411 27413 28
21931 27411 27414 28
21932 27411 27415 28
21933 27416 27417 28
21934 27416 27418 28
21935 27416 27419 28
21936 27416 27420 28
21937 27421 27422 28
21938 27421 27423 28
21939 27421 27424 28
21940 27421 27425 28
21941 27426 27427 28
21942 27426 27428 28
21943 27426 27429 28
21944 27426 27430 28
21945 27431 27432 28
21946 27431 27433 28
21947 27431 27434 28
21948 27431 27435 28
21949 27436 27437 28
21950 27436 27438 28
21951 27436 27439 28
21952 27436 27440 28
21953 27441 27442 28
21954 27441 27443 28
21955 27441 27444 28
21956 27441 27445 28
21957 27446 27447 28
21958 27446 27448 28
21959 27446 27449 28
21960 27446 27450 28
21961 27451 27452 28
21962 27451 27453 28
21963 27451 27454 28
21964 27451 27455 28
21965 27456 27457 28
21966 27456 27458 28
21967 27456 27459 28
21968 27456 27460 28
21969 27461 27462 28
21970 27461 27463 28
21971 27461 27464 28
21972 27461 27465 28
21973 27466 27467 28
21974 27466 27468 28
21975 27466 27469 28
21976 27466 27470 28
21977 27471 27472 28
21978 27471 27473 28
21979 27471 27474 28
21980 27471 27475 28
21981 27476 27477 28
21982 27476 27478 28
21983 27476 27479 28
21984 27476 27480 28
21985 27481 27482 28
21986 27481 27483 28
21987 27481 27484 28
21988 27481 27485 28
21989 27486 27487 28
21990 27486 27488 28
21991 27486 27489 28
21992 27486 27490 28
21993 27491 27492 28
21994 27491 27493 28
21995 27491 27494 28
21996 27491 27495 28
21997 27496 27497 28
21998 27496 27498 28
21999 27496 27499 28
22000 27496 27500 28
22001 27501 27502 28
22002 27501 27503 28
22003 27501 27504 28
22004 27501 27505 28
22005 27506 27507 28
22006 27506 27508 28
22007 27506 27509 28
22008 27506 27510 28
22009 27511 27512 28
22010 27511 27513 28
22011 27511 27514 28
22012 27511 27515 28
22013 27516 27517 28
22014 27516 27518 28
22015 27516 27519 28
22016 27516 27520 28
22017 27521 27522 28
22018 27521 27523 28
22019 27521 27524 28
22020 27521 27525 28
22021 27526 27527 28
22022 27526 27528 28
22023 27526 27529 28
22024 27526 27530 28
22025 27531 27532 28
22026 27531 27533 28
22027 27531 27534 28
22028 27531 27535 28
22029 27536 27537 28
22030 27536 27538 28
22031 27536 27539 28
22032 27536 27540 28
22033 27541 27542 28
22034 27541 27543 28
22035 27541 27544 28
22036 27541 27545 28
22037 27546 27547 28
22038 27546 27548 28
22039 27546 27549 28
22040 27546 27550 28
22041 27551 27552 28
22042 27551 27553 28
22043 27551 27554 28
22044 27551 27555 28
22045 27556 27557 28
22046 27556 27558 28
22047 27556 27559 28
22048 27556 27560 28
22049 27561 27562 28
22050 27561 27563 28
22051 27561 27564 28
22052 27561 27565 28
22053 27566 27567 28
22054 27566 27568 28
22055 27566 27569 28
22056 27566 27570 28
22057 27571 27572 28
22058 27571 27573 28
22059 27571 27574 28
22060 27571 27575 28
22061 27576 27577 28
22062 27576 27578 28
22063 27576 27579 28
22064 27576 27580 28
22065 27581 27582 28
22066 27581 27583 28
22067 27581 27584 28
22068 27581 27585 28
22069 27586 27587 28
22070 27586 27588 28
22071 27586 27589 28
22072 27586 27590 28
22073 27591 27592 28
22074 27591 27593 28
22075 27591 27594 28
22076 27591 27595 28
22077 27596 27597 28
22078 27596 27598 28
22079 27596 27599 28
22080 27596 27600 28
22081 27601 27602 28
22082 27601 27603 28
22083 27601 27604 28
22084 27601 27605 28
22085 27606 27607 28
22086 27606 27608 28
22087 27606 27609 28
22088 27606 27610 28
22089 27611 27612 28
22090 27611 27613 28
22091 27611 27614 28
22092 27611 27615 28
22093 27616 27617 28
22094 27616 27618 28
22095 27616 27619 28
22096 27616 27620 28
22097 27621 27622 28
22098 27621 27623 28
22099 27621 27624 28
22100 27621 27625 28
22101 27626 27627 28
22102 27626 27628 28
22103 27626 27629 28
22104 27626 27630 28
22105 27631 27632 28
22106 27631 27633 28
22107 27631 27634 28
22108 27631 27635 28
22109 27636 27637 28
22110 27636 27638 28
22111 27636 27639 28
22112 27636 27640 28
22113 27641 27642 28
22114 27641 27643 28
22115 27641 27644 28
22116 27641 27645 28
22117 27646 27647 28
22118 27646 27648 28
22119 27646 27649 28
22120 27646 27650 28
22121 27651 27652 28
22122 27651 27653 28
22123 27651 27654 28
22124 27651 27655 28
22125 27656 27657 28
22126 27656 27658 28
22127 27656 27659 28
22128 27656 27660 28
22129 27661 27662 28
22130 27661 27663 28
22131 27661 27664 28
22132 27661 27665 28
22133 27666 27667 28
22134 27666 27668 28
22135 27666 27669 28
22136 27666 27670 28
22137 27671 27672 28
22138 27671 27673 28
22139 27671 27674 28
22140 27671 27675 28
22141 27676 27677 28
22142 27676 27678 28
22143 27676 27679 28
22144 27676 27680 28
22145 27681 27682 28
22146 27681 27683 28
22147 27681 27684 28
22148 27681 27685 28
22149 27686 27687 28
22150 27686 27688 28
22151 27686 27689 28
22152 27686 27690 28
22153 27691 27692 28
22154 27691 27693 28
22155 27691 27694 28
22156 27691 27695 28
22157 27696 27697 28
22158 27696 27698 28
22159 27696 27699 28
22160 27696 27700 28
22161 27701 27702 28
22162 27701 27703 28
22163 27701 27704 28
22164 27701 27705 28
22165 27706 27707 28
22166 27706 27708 28
22167 27706 27709 28
22168 27706 27710 28
22169 27711 27712 28
22170 27711 27713 28
22171 27711 27714 28
22172 27711 27715 28
22173 27716 27717 28
22174 27716 27718 28
22175 27716 27719 28
22176 27716 27720 28
22177 27721 27722 28
22178 27721 27723 28
22179 27721 27724 28
22180 27721 27725 28
22181 27726 27727 28
22182 27726 27728 28
22183 27726 27729 28
22184 27726 27730 28
22185 27731 27732 28
22186 27731 27733 28
22187 27731 27734 28
22188 27731 27735 28
22189 27736 27737 28
22190 27736 27738 28
22191 27736 27739 28
22192 27736 27740 28
22193 27741 27742 28
22194 27741 27743 28
22195 27741 27744 28
22196 27741 27745 28
22197 27746 27747 28
22198 27746 27748 28
22199 27746 27749 28
22200 27746 27750 28
22201 27751 27752 28
22202 27751 27753 28
22203 27751 27754 28
22204 27751 27755 28
22205 27756 27757 28
22206 27756 27758 28
22207 27756 27759 28
22208 27756 27760 28
22209 27761 27762 28
22210 27761 27763 28
22211 27761 27764 28
22212 27761 27765 28
22213 27766 27767 28
22214 27766 27768 28
22215 27766 27769 28
22216 27766 27770 28
22217 27771 27772 28
22218 27771 27773 28
22219 27771 27774 28
22220 27771 27775 28
22221 27776 27777 28
22222 27776 27778 28
22223 27776 27779 28
22224 27776 27780 28
22225 27781 27782 28
22226 27781 27783 28
22227 27781 27784 28
22228 27781 27785 28
22229 27786 27787 28
22230 27786 27788 28
22231 27786 27789 28
22232 27786 27790 28
22233 27791 27792 28
22234 27791 27793 28
22235 27791 27794 28
22236 27791 27795 28
22237 27796 27797 28
22238 27796 27798 28
22239 27796 27799 28
22240 27796 27800 28
22241 27801 27802 28
22242 27801 27803 28
22243 27801 27804 28
22244 27801 27805 28
22245 27806 27807 28
22246 27806 27808 28
22247 27806 27809 28
22248 27806 27810 28
22249 27811 27812 28
22250 27811 27813 28
22251 27811 27814 28
22252 27811 27815 28
22253 27816 27817 28
22254 27816 27818 28
22255 27816 27819 28
22256 27816 27820 28
22257 27821 27822 28
22258 27821 27823 28
22259 27821 27824 28
22260 27821 27825 28
22261 27826 27827 28
22262 27826 27828 28
22263 27826 27829 28
22264 27826 27830 28
22265 27831 27832 28
22266 27831 27833 28
22267 27831 27834 28
22268 27831 27835 28
22269 27836 27837 28
22270 27836 27838 28
22271 27836 27839 28
22272 27836 27840 28
22273 27841 27842 28
22274 27841 27843 28
22275 27841 27844 28
22276 27841 27845 28
22277 27846 27847 28
22278 27846 27848 28
22279 27846 27849 28
22280 27846 27850 28
22281 27851 27852 28
22282 27851 27853 28
22283 27851 27854 28
22284 27851 27855 28
22285 27856 27857 28
22286 27856 27858 28
22287 27856 27859 28
22288 27856 27860 28
22289 27861 27862 28
22290 27861 27863 28
22291 27861 27864 28
22292 27861 27865 28
22293 27866 27867 28
22294 27866 27868 28
22295 27866 27869 28
22296 27866 27870 28
22297 27871 27872 28
22298 27871 27873 28
22299 27871 27874 28
22300 27871 27875 28
22301 27876 27877 28
22302 27876 27878 28
22303 27876 27879 28
22304 27876 27880 28
22305 27881 27882 28
22306 27881 27883 28
22307 27881 27884 28
22308 27881 27885 28
22309 27886 27887 28
22310 27886 27888 28
22311 27886 27889 28
22312 27886 27890 28
22313 27891 27892 28
22314 27891 27893 28
22315 27891 27894 28
22316 27891 27895 28
22317 27896 27897 28
22318 27896 27898 28
22319 27896 27899 28
22320 27896 27900 28
22321 27901 27902 28
22322 27901 27903 28
22323 27901 27904 28
22324 27901 27905 28
22325 27906 27907 28
22326 27906 27908 28
22327 27906 27909 28
22328 27906 27910 28
22329 27911 27912 28
22330 27911 27913 28
22331 27911 27914 28
22332 27911 27915 28
22333 27916 27917 28
22334 27916 27918 28
22335 27916 27919 28
22336 27916 27920 28
22337 27921 27922 28
22338 27921 27923 28
22339 27921 27924 28
22340 27921 27925 28
22341 27926 27927 28
22342 27926 27928 28
22343 27926 27929 28
22344 27926 27930 28
22345 27931 27932 28
22346 27931 27933 28
22347 27931 27934 28
22348 27931 27935 28
22349 27936 27937 28
22350 27936 27938 28
22351 27936 27939 28
22352 27936 27940 28
22353 27941 27942 28
22354 27941 27943 28
22355 27941 27944 28
22356 27941 27945 28
22357 27946 27947 28
22358 27946 27948 28
22359 27946 27949 28
22360 27946 27950 28
22361 27951 27952 28
22362 27951 27953 28
22363 27951 27954 28
22364 27951 27955 28
22365 27956 27957 28
22366 27956 27958 28
22367 27956 27959 28
22368 27956 27960 28
22369 27961 27962 28
22370 27961 27963 28
22371 27961 27964 28
22372 27961 27965 28
22373 27966 27967 28
22374 27966 27968 28
22375 27966 27969 28
22376 27966 27970 28
22377 27971 27972 28
22378 27971 27973 28
22379 27971 27974 28
22380 27971 27975 28
22381 27976 27977 28
22382 27976 27978 28
22383 27976 27979 28
22384 27976 27980 28
22385 27981 27982 28
22386 27981 27983 28
22387 27981 27984 28
22388 27981 27985 28
22389 27986 27987 28
22390 27986 27988 28
22391 27986 27989 28
22392 27986 27990 28
22393 27991 27992 28
22394 27991 27993 28
22395 27991 27994 28
22396 27991 27995 28
22397 27996 27997 28
22398 27996 27998 28
22399 27996 27999 28
22400 27996 28000 28
22401 28001 28002 28
22402 28001 28003 28
22403 28001 28004 28
22404 28001 28005 28
22405 28006 28007 28
22406 28006 28008 28
22407 28006 28009 28
22408 28006 28010 28
22409 28011 28012 28
22410 28011 28013 28
22411 28011 28014 28
22412 28011 28015 28
22413 28016 28017 28
22414 28016 28018 28
22415 28016 28019 28
22416 28016 28020 28
22417 28021 28022 28
22418 28021 28023 28
22419 28021 28024 28
22420 28021 28025 28
22421 28026 28027 28
22422 28026 28028 28
22423 28026 28029 28
22424 28026 28030 28
22425 28031 28032 28
22426 28031 28033 28
22427 28031 28034 28
22428 28031 28035 28
22429 28036 28037 28
22430 28036 28038 28
22431 28036 28039 28
22432 28036 28040 28
22433 28041 28042 28
22434 28041 28043 28
22435 28041 28044 28
22436 28041 28045 28
22437 28046 28047 28
22438 28046 28048 28
22439 28046 28049 28
22440 28046 28050 28
22441 28051 28052 28
22442 28051 28053 28
22443 28051 28054 28
22444 28051 28055 28
22445 28056 28057 28
22446 28056 28058 28
22447 28056 28059 28
22448 28056 28060 28
22449 28061 28062 28
22450 28061 28063 28
22451 28061 28064 28
22452 28061 28065 28
22453 28066 28067 28
22454 28066 28068 28
22455 28066 28069 28
22456 28066 28070 28
22457 28071 28072 28
22458 28071 28073 28
22459 28071 28074 28
22460 28071 28075 28
22461 28076 28077 28
22462 28076 28078 28
22463 28076 28079 28
22464 28076 28080 28
22465 28081 28082 28
22466 28081 28083 28
22467 28081 28084 28
22468 28081 28085 28
22469 28086 28087 28
22470 28086 28088 28
22471 28086 28089 28
22472 28086 28090 28
22473 28091 28092 28
22474 28091 28093 28
22475 28091 28094 28
22476 28091 28095 28
22477 28096 28097 28
22478 28096 28098 28
22479 28096 28099 28
22480 28096 28100 28
22481 28101 28102 28
22482 28101 28103 28
22483 28101 28104 28
22484 28101 28105 28
22485 28106 28107 28
22486 28106 28108 28
22487 28106 28109 28
22488 28106 28110 28
22489 28111 28112 28
22490 28111 28113 28
22491 28111 28114 28
22492 28111 28115 28
22493 28116 28117 28
22494 28116 28118 28
22495 28116 28119 28
22496 28116 28120 28
22497 28121 28122 28
22498 28121 28123 28
22499 28121 28124 28
22500 28121 28125 28
22501 28126 28127 28
22502 28126 28128 28
22503 28126 28129 28
22504 28126 28130 28
22505 28131 28132 28
22506 28131 28133 28
22507 28131 28134 28
22508 28131 28135 28
22509 28136 28137 28
22510 28136 28138 28
22511 28136 28139 28
22512 28136 28140 28
22513 28141 28142 28
22514 28141 28143 28
22515 28141 28144 28
22516 28141 28145 28
22517 28146 28147 28
22518 28146 28148 28
22519 28146 28149 28
22520 28146 28150 28
22521 28151 28152 28
22522 28151 28153 28
22523 28151 28154 28
22524 28151 28155 28
22525 28156 28157 28
22526 28156 28158 28
22527 28156 28159 28
22528 28156 28160 28
22529 28161 28162 28
22530 28161 28163 28
22531 28161 28164 28
22532 28161 28165 28
22533 28166 28167 28
22534 28166 28168 28
22535 28166 28169 28
22536 28166 28170 28
22537 28171 28172 28
22538 28171 28173 28
22539 28171 28174 28
22540 28171 28175 28
22541 28176 28177 28
22542 28176 28178 28
22543 28176 28179 28
22544 28176 28180 28
22545 28181 28182 28
22546 28181 28183 28
22547 28181 28184 28
22548 28181 28185 28
22549 28186 28187 28
22550 28186 28188 28
22551 28186 28189 28
22552 28186 28190 28
22553 28191 28192 28
22554 28191 28193 28
22555 28191 28194 28
22556 28191 28195 28
22557 28196 28197 28
22558 28196 28198 28
22559 28196 28199 28
22560 28196 28200 28
22561 28201 28202 28
22562 28201 28203 28
22563 28201 28204 28
22564 28201 28205 28
22565 28206 28207 28
22566 28206 28208 28
22567 28206 28209 28
22568 28206 28210 28
22569 28211 28212 28
22570 28211 28213 28
22571 28211 28214 28
22572 28211 28215 28
22573 28216 28217 28
22574 28216 28218 28
22575 28216 28219 28
22576 28216 28220 28
22577 28221 28222 28
22578 28221 28223 28
22579 28221 28224 28
22580 28221 28225 28
22581 28226 28227 28
22582 28226 28228 28
22583 28226 28229 28
22584 28226 28230 28
22585 28231 28232 28
22586 28231 28233 28
22587 28231 28234 28
22588 28231 28235 28
22589 28236 28237 28
22590 28236 28238 28
22591 28236 28239 28
22592 28236 28240 28
22593 28241 28242 28
22594 28241 28243 28
22595 28241 28244 28
22596 28241 28245 28
22597 28246 28247 28
22598 28246 28248 28
22599 28246 28249 28
22600 28246 28250 28
22601 28251 28252 28
22602 28251 28253 28
22603 28251 28254 28
22604 28251 28255 28
22605 28256 28257 28
22606 28256 28258 28
22607 28256 28259 28
22608 28256 28260 28
22609 28261 28262 28
22610 28261 28263 28
22611 28261 28264 28
22612 28261 28265 28
22613 28266 28267 28
22614 28266 28268 28
22615 28266 28269 28
22616 28266 28270 28
22617 28271 28272 28
22618 28271 28273 28
22619 28271 28274 28
22620 28271 28275 28
22621 28276 28277 28
22622 28276 28278 28
22623 28276 28279 28
22624 28276 28280 28
22625 28281 28282 28
22626 28281 28283 28
22627 28281 28284 28
22628 28281 28285 28
22629 28286 28287 28
22630 28286 28288 28
22631 28286 28289 28
22632 28286 28290 28
22633 28291 28292 28
22634 28291 28293 28
22635 28291 28294 28
22636 28291 28295 28
22637 28296 28297 28
22638 28296 28298 28
22639 28296 28299 28
22640 28296 28300 28
22641 28301 28302 28
22642 28301 28303 28
22643 28301 28304 28
22644 28301 28305 28
22645 28306 28307 28
22646 28306 28308 28
22647 28306 28309 28
22648 28306 28310 28
22649 28311 28312 28
22650 28311 28313 28
22651 28311 28314 28
22652 28311 28315 28
22653 28316 28317 28
22654 28316 28318 28
22655 28316 28319 28
22656 28316 28320 28
22657 28321 28322 28
22658 28321 28323 28
22659 28321 28324 28
22660 28321 28325 28
22661 28326 28327 28
22662 28326 28328 28
22663 28326 28329 28
22664 28326 28330 28
22665 28331 28332 28
22666 28331 28333 28
22667 28331 28334 28
22668 28331 28335 28
22669 28336 28337 28
22670 28336 28338 28
22671 28336 28339 28
22672 28336 28340 28
22673 28341 28342 28
22674 28341 28343 28
22675 28341 28344 28
22676 28341 28345 28
22677 28346 28347 28
22678 28346 28348 28
22679 28346 28349 28
22680 28346 28350 28
22681 28351 28352 28
22682 28351 28353 28
22683 28351 28354 28
22684 28351 28355 28
22685 28356 28357 28
22686 28356 28358 28
22687 28356 28359 28
22688 28356 28360 28
22689 28361 28362 28
22690 28361 28363 28
22691 28361 28364 28
22692 28361 28365 28
22693 28366 28367 28
22694 28366 28368 28
22695 28366 28369 28
22696 28366 28370 28
22697 28371 28372 28
22698 28371 28373 28
22699 28371 28374 28
22700 28371 28375 28
22701 28376 28377 28
22702 28376 28378 28
22703 28376 28379 28
22704 28376 28380 28
22705 28381 28382 28
22706 28381 28383 28
22707 28381 28384 28
22708 28381 28385 28
22709 28386 28387 28
22710 28386 28388 28
22711 28386 28389 28
22712 28386 28390 28
22713 28391 28392 28
22714 28391 28393 28
22715 28391 28394 28
22716 28391 28395 28
22717 28396 28397 28
22718 28396 28398 28
22719 28396 28399 28
22720 28396 28400 28
22721 28401 28402 28
22722 28401 28403 28
22723 28401 28404 28
22724 28401 28405 28
22725 28406 28407 28
22726 28406 28408 28
22727 28406 28409 28
22728 28406 28410 28
22729 28411 28412 28
22730 28411 28413 28
22731 28411 28414 28
22732 28411 28415 28
22733 28416 28417 28
22734 28416 28418 28
22735 28416 28419 28
22736 28416 28420 28
22737 28421 28422 28
22738 28421 28423 28
22739 28421 28424 28
22740 28421 28425 28
22741 28426 28427 28
22742 28426 28428 28
22743 28426 28429 28
22744 28426 28430 28
22745 28431 28432 28
22746 28431 28433 28
22747 28431 28434 28
22748 28431 28435 28
22749 28436 28437 28
22750 28436 28438 28
22751 28436 28439 28
22752 28436 28440 28
22753 28441 28442 28
22754 28441 28443 28
22755 28441 28444 28
22756 28441 28445 28
22757 28446 28447 28
22758 28446 28448 28
22759 28446 28449 28
22760 28446 28450 28
22761 28451 28452 28
22762 28451 28453 28
22763 28451 28454 28
22764 28451 28455 28
22765 28456 28457 28
22766 28456 28458 28
22767 28456 28459 28
22768 28456 28460 28
22769 28461 28462 28
22770 28461 28463 28
22771 28461 28464 28
22772 28461 28465 28
22773 28466 28467 28
22774 28466 28468 28
22775 28466 28469 28
22776 28466 28470 28
22777 28471 28472 28
22778 28471 28473 28
22779 28471 28474 28
22780 28471 28475 28
22781 28476 28477 28
22782 28476 28478 28
22783 28476 28479 28
22784 28476 28480 28
22785 28481 28482 28
22786 28481 28483 28
22787 28481 28484 28
22788 28481 28485 28
22789 28486 28487 28
22790 28486 28488 28
22791 28486 28489 28
22792 28486 28490 28
22793 28491 28492 28
22794 28491 28493 28
22795 28491 28494 28
22796 28491 28495 28
22797 28496 28497 28
22798 28496 28498 28
22799 28496 28499 28
22800 28496 28500 28
22801 28501 28502 28
22802 28501 28503 28
22803 28501 28504 28
22804 28501 28505 28
22805 28506 28507 28
22806 28506 28508 28
22807 28506 28509 28
22808 28506 28510 28
22809 28511 28512 28
22810 28511 28513 28
22811 28511 28514 28
22812 28511 28515 28
22813 28516 28517 28
22814 28516 28518 28
22815 28516 28519 28
22816 28516 28520 28
22817 28521 28522 28
22818 28521 28523 28
22819 28521 28524 28
22820 28521 28525 28
22821 28526 28527 28
22822 28526 28528 28
22823 28526 28529 28
22824 28526 28530 28
22825 28531 28532 28
22826 28531 28533 28
22827 28531 28534 28
22828 28531 28535 28
22829 28536 28537 28
22830 28536 28538 28
22831 28536 28539 28
22832 28536 28540 28
22833 28541 28542 28
22834 28541 28543 28
22835 28541 28544 28
22836 28541 28545 28
22837 28546 28547 28
22838 28546 28548 28
22839 28546 28549 28
22840 28546 28550 28
22841 28551 28552 28
22842 28551 28553 28
22843 28551 28554 28
22844 28551 28555 28
22845 28556 28557 28
22846 28556 28558 28
22847 28556 28559 28
22848 28556 28560 28
22849 28561 28562 28
22850 28561 28563 28
22851 28561 28564 28
22852 28561 28565 28
22853 28566 28567 28
22854 28566 28568 28
22855 28566 28569 28
22856 28566 28570 28
22857 28571 28572 28
22858 28571 28573 28
22859 28571 28574 28
22860 28571 28575 28
22861 28576 28577 28
22862 28576 28578 28
22863 28576 28579 28
22864 28576 28580 28
22865 28581 28582 28
22866 28581 28583 28
22867 28581 28584 28
22868 28581 28585 28
22869 28586 28587 28
22870 28586 28588 28
22871 28586 28589 28
22872 28586 28590 28
22873 28591 28592 28
22874 28591 28593 28
22875 28591 28594 28
22876 28591 28595 28
22877 28596 28597 28
22878 28596 28598 28
22879 28596 28599 28
22880 28596 28600 28
22881 28601 28602 28
22882 28601 28603 28
22883 28601 28604 28
22884 28601 28605 28
22885 28606 28607 28
22886 28606 28608 28
22887 28606 28609 28
22888 28606 28610 28
22889 28611 28612 28
22890 28611 28613 28
22891 28611 28614 28
22892 28611 28615 28
22893 28616 28617 28
22894 28616 28618 28
22895 28616 28619 28
22896 28616 28620 28
22897 28621 28622 28
22898 28621 28623 28
22899 28621 28624 28
22900 28621 28625 28
22901 28626 28627 28
22902 28626 28628 28
22903 28626 28629 28
22904 28626 28630 28
22905 28631 28632 28
22906 28631 28633 28
22907 28631 28634 28
22908 28631 28635 28
22909 28636 28637 28
22910 28636 28638 28
22911 28636 28639 28
22912 28636 28640 28
22913 28641 28642 28
22914 28641 28643 28
22915 28641 28644 28
22916 28641 28645 28
22917 28646 28647 28
22918 28646 28648 28
22919 28646 28649 28
22920 28646 28650 28
22921 28651 28652 28
22922 28651 28653 28
22923 28651 28654 28
22924 28651 28655 28
22925 28656 28657 28
22926 28656 28658 28
22927 28656 28659 28
22928 28656 28660 28
22929 28661 28662 28
22930 28661 28663 28
22931 28661 28664 28
22932 28661 28665 28
22933 28666 28667 28
22934 28666 28668 28
22935 28666 28669 28
22936 28666 28670 28
22937 28671 28672 28
22938 28671 28673 28
22939 28671 28674 28
22940 28671 28675 28
22941 28676 28677 28
22942 28676 28678 28
22943 28676 28679 28
22944 28676 28680 28
22945 28681 28682 28
22946 28681 28683 28
22947 28681 28684 28
22948 28681 28685 28
22949 28686 28687 28
22950 28686 28688 28
22951 28686 28689 28
22952 28686 28690 28
22953 28691 28692 28
22954 28691 28693 28
22955 28691 28694 28
22956 28691 28695 28
22957 28696 28697 28
22958 28696 28698 28
22959 28696 28699 28
22960 28696 28700 28
22961 28701 28702 28
22962 28701 28703 28
22963 28701 28704 28
22964 28701 28705 28
22965 28706 28707 28
22966 28706 28708 28
22967 28706 28709 28
22968 28706 28710 28
22969 28711 28712 28
22970 28711 28713 28
22971 28711 28714 28
22972 28711 28715 28
22973 28716 28717 28
22974 28716 28718 28
22975 28716 28719 28
22976 28716 28720 28
22977 28721 28722 28
22978 28721 28723 28
22979 28721 28724 28
22980 28721 28725 28
22981 28726 28727 28
22982 28726 28728 28
22983 28726 28729 28
22984 28726 28730 28
22985 28731 28732 28
22986 28731 28733 28
22987 28731 28734 28
22988 28731 28735 28
22989 28736 28737 28
22990 28736 28738 28
22991 28736 28739 28
22992 28736 28740 28
22993 28741 28742 28
22994 28741 28743 28
22995 28741 28744 28
22996 28741 28745 28
22997 28746 28747 28
22998 28746 28748 28
22999 28746 28749 28
23000 28746 28750 28
23001 28751 28752 28
23002 28751 28753 28
23003 28751 28754 28
23004 28751 28755 28
23005 28756 28757 28
23006 28756 28758 28
23007 28756 28759 28
23008 28756 28760 28
23009 28761 28762 28
23010 28761 28763 28
23011 28761 28764 28
23012 28761 28765 28
23013 28766 28767 28
23014 28766 28768 28
23015 28766 28769 28
23016 28766 28770 28
23017 28771 28772 28
23018 28771 28773 28
23019 28771 28774 28
23020 28771 28775 28
23021 28776 28777 28
23022 28776 28778 28
23023 28776 28779 28
23024 28776 28780 28
23025 28781 28782 28
23026 28781 28783 28
23027 28781 28784 28
23028 28781 28785 28
23029 28786 28787 28
23030 28786 28788 28
23031 28786 28789 28
23032 28786 28790 28
23033 28791 28792 28
23034 28791 28793 28
23035 28791 28794 28
23036 28791 28795 28
23037 28796 28797 28
23038 28796 28798 28
23039 28796 28799 28
23040 28796 28800 28
23041 28801 28802 28
23042 28801 28803 28
23043 28801 28804 28
23044 28801 28805 28
23045 28806 28807 28
23046 28806 28808 28
23047 28806 28809 28
23048 28806 28810 28
23049 28811 28812 28
23050 28811 28813 28
23051 28811 28814 28
23052 28811 28815 28
23053 28816 28817 28
23054 28816 28818 28
23055 28816 28819 28
23056 28816 28820 28
23057 28821 28822 28
23058 28821 28823 28
23059 28821 28824 28
23060 28821 28825 28
23061 28826 28827 28
23062 28826 28828 28
23063 28826 28829 28
23064 28826 28830 28
23065 28831 28832 28
23066 28831 28833 28
23067 28831 28834 28
23068 28831 28835 28
23069 28836 28837 28
23070 28836 28838 28
23071 28836 28839 28
23072 28836 28840 28
23073 28841 28842 28
23074 28841 28843 28
23075 28841 28844 28
23076 28841 28845 28
23077 28846 28847 28
23078 28846 28848 28
23079 28846 28849 28
23080 28846 28850 28
23081 28851 28852 28
23082 28851 28853 28
23083 28851 28854 28
23084 28851 28855 28
23085 28856 28857 28
23086 28856 28858 28
23087 28856 28859 28
23088 28856 28860 28
23089 28861 28862 28
23090 28861 28863 28
23091 28861 28864 28
23092 28861 28865 28
23093 28866 28867 28
23094 28866 28868 28
23095 28866 28869 28
23096 28866 28870 28
23097 28871 28872 28
23098 28871 28873 28
23099 28871 28874 28
23100 28871 28875 28
23101 28876 28877 28
23102 28876 28878 28
23103 28876 28879 28
23104 28876 28880 28
23105 28881 28882 28
23106 28881 28883 28
23107 28881 28884 28
23108 28881 28885 28
23109 28886 28887 28
23110 28886 28888 28
23111 28886 28889 28
23112 28886 28890 28
23113 28891 28892 28
23114 28891 28893 28
23115 28891 28894 28
23116 28891 28895 28
23117 28896 28897 28
23118 28896 28898 28
23119 28896 28899 28
23120 28896 28900 28
23121 28901 28902 28
23122 28901 28903 28
23123 28901 28904 28
23124 28901 28905 28
23125 28906 28907 28
23126 28906 28908 28
23127 28906 28909 28
23128 28906 28910 28
23129 28911 28912 28
23130 28911 28913 28
23131 28911 28914 28
23132 28911 28915 28
23133 28916 28917 28
23134 28916 28918 28
23135 28916 28919 28
23136 28916 28920 28
23137 28921 28922 28
23138 28921 28923 28
23139 28921 28924 28
23140 28921 28925 28
23141 28926 28927 28
23142 28926 28928 28
23143 28926 28929 28
23144 28926 28930 28
23145 28931 28932 28
23146 28931 28933 28
23147 28931 28934 28
23148 28931 28935 28
23149 28936 28937 28
23150 28936 28938 28
23151 28936 28939 28
23152 28936 28940 28
23153 28941 28942 28
23154 28941 28943 28
23155 28941 28944 28
23156 28941 28945 28
23157 28946 28947 28
23158 28946 28948 28
23159 28946 28949 28
23160 28946 28950 28
23161 28951 28952 28
23162 28951 28953 28
23163 28951 28954 28
23164 28951 28955 28
23165 28956 28957 28
23166 28956 28958 28
23167 28956 28959 28
23168 28956 28960 28
23169 28961 28962 28
23170 28961 28963 28
23171 28961 28964 28
23172 28961 28965 28
23173 28966 28967 28
23174 28966 28968 28
23175 28966 28969 28
23176 28966 28970 28
23177 28971 28972 28
23178 28971 28973 28
23179 28971 28974 28
23180 28971 28975 28
23181 28976 28977 28
23182 28976 28978 28
23183 28976 28979 28
23184 28976 28980 28
23185 28981 28982 28
23186 28981 28983 28
23187 28981 28984 28
23188 28981 28985 28
23189 28986 28987 28
23190 28986 28988 28
23191 28986 28989 28
23192 28986 28990 28
23193 28991 28992 28
23194 28991 28993 28
23195 28991 28994 28
23196 28991 28995 28
23197 28996 28997 28
23198 28996 28998 28
23199 28996 28999 28
23200 28996 29000 28
23201 29001 29002 28
23202 29001 29003 28
23203 29001 29004 28
23204 29001 29005 28
23205 29006 29007 28
23206 29006 29008 28
23207 29006 29009 28
23208 29006 29010 28
23209 29011 29012 28
23210 29011 29013 28
23211 29011 29014 28
23212 29011 29015 28
23213 29016 29017 28
23214 29016 29018 28
23215 29016 29019 28
23216 29016 29020 28
23217 29021 29022 28
23218 29021 29023 28
23219 29021 29024 28
23220 29021 29025 28
23221 29026 29027 28
23222 29026 29028 28
23223 29026 29029 28
23224 29026 29030 28
23225 29031 29032 28
23226 29031 29033 28
23227 29031 29034 28
23228 29031 29035 28
23229 29036 29037 28
23230 29036 29038 28
23231 29036 29039 28
23232 29036 29040 28
23233 29041 29042 28
23234 29041 29043 28
23235 29041 29044 28
23236 29041 29045 28
23237 29046 29047 28
23238 29046 29048 28
23239 29046 29049 28
23240 29046 29050 28
23241 29051 29052 28
23242 29051 29053 28
23243 29051 29054 28
23244 29051 29055 28
23245 29056 29057 28
23246 29056 29058 28
23247 29056 29059 28
23248 29056 29060 28
23249 29061 29062 28
23250 29061 29063 28
23251 29061 29064 28
23252 29061 29065 28
23253 29066 29067 28
23254 29066 29068 28
23255 29066 29069 28
23256 29066 29070 28
23257 29071 29072 28
23258 29071 29073 28
23259 29071 29074 28
23260 29071 29075 28
23261 29076 29077 28
23262 29076 29078 28
23263 29076 29079 28
23264 29076 29080 28
23265 29081 29082 28
23266 29081 29083 28
23267 29081 29084 28
23268 29081 29085 28
23269 29086 29087 28
23270 29086 29088 28
23271 29086 29089 28
23272 29086 29090 28
23273 29091 29092 28
23274 29091 29093 28
23275 29091 29094 28
23276 29091 29095 28
23277 29096 29097 28
23278 29096 29098 28
23279 29096 29099 28
23280 29096 29100 28
23281 29101 29102 28
23282 29101 29103 28
23283 29101 29104 28
23284 29101 29105 28
23285 29106 29107 28
23286 29106 29108 28
23287 29106 29109 28
23288 29106 29110 28
23289 29111 29112 28
23290 29111 29113 28
23291 29111 29114 28
23292 29111 29115 28
23293 29116 29117 28
23294 29116 29118 28
23295 29116 29119 28
23296 29116 29120 28
23297 29121 29122 28
23298 29121 29123 28
23299 29121 29124 28
23300 29121 29125 28
23301 29126 29127 28
23302 29126 29128 28
23303 29126 29129 28
23304 29126 29130 28
23305 29131 29132 28
23306 29131 29133 28
23307 29131 29134 28
23308 29131 29135 28
23309 29136 29137 28
23310 29136 29138 28
23311 29136 29139 28
23312 29136 29140 28
23313 29141 29142 28
23314 29141 29143 28
23315 29141 29144 28
23316 29141 29145 28
23317 29146 29147 28
23318 29146 29148 28
23319 29146 29149 28
23320 29146 29150 28
23321 29151 29152 28
23322 29151 29153 28
23323 29151 29154 28
23324 29151 29155 28
23325 29156 29157 28
23326 29156 29158 28
23327 29156 29159 28
23328 29156 29160 28
23329 29161 29162 28
23330 29161 29163 28
23331 29161 29164 28
23332 29161 29165 28
23333 29166 29167 28
23334 29166 29168 28
23335 29166 29169 28
23336 29166 29170 28
23337 29171 29172 28
23338 29171 29173 28
23339 29171 29174 28
23340 29171 29175 28
23341 29176 29177 28
23342 29176 29178 28
23343 29176 29179 28
23344 29176 29180 28
23345 29181 29182 28
23346 29181 29183 28
23347 29181 29184 28
23348 29181 29185 28
23349 29186 29187 28
23350 29186 29188 28
23351 29186 29189 28
23352 29186 29190 28
23353 29191 29192 28
23354 29191 29193 28
23355 29191 29194 28
23356 29191 29195 28
23357 29196 29197 28
23358 29196 29198 28
23359 29196 29199 28
23360 29196 29200 28
23361 29201 29202 28
23362 29201 29203 28
23363 29201 29204 28
23364 29201 29205 28
23365 29206 29207 28
23366 29206 29208 28
23367 29206 29209 28
23368 29206 29210 28
23369 29211 29212 28
23370 29211 29213 28
23371 29211 29214 28
23372 29211 29215 28
23373 29216 29217 28
23374 29216 29218 28
23375 29216 29219 28
23376 29216 29220 28
23377 29221 29222 28
23378 29221 29223 28
23379 29221 29224 28
23380 29221 29225 28
23381 29226 29227 28
23382 29226 29228 28
23383 29226 29229 28
23384 29226 29230 28
23385 29231 29232 28
23386 29231 29233 28
23387 29231 29234 28
23388 29231 29235 28
23389 29236 29237 28
23390 29236 29238 28
23391 29236 29239 28
23392 29236 29240 28
23393 29241 29242 28
23394 29241 29243 28
23395 29241 29244 28
23396 29241 29245 28
23397 29246 29247 28
23398 29246 29248 28
23399 29246 29249 28
23400 29246 29250 28
23401 29251 29252 28
23402 29251 29253 28
23403 29251 29254 28
23404 29251 29255 28
23405 29256 29257 28
23406 29256 29258 28
23407 29256 29259 28
23408 29256 29260 28
23409 29261 29262 28
23410 29261 29263 28
23411 29261 29264 28
23412 29261 29265 28
23413 29266 29267 28
23414 29266 29268 28
23415 29266 29269 28
23416 29266 29270 28
23417 29271 29272 28
23418 29271 29273 28
23419 29271 29274 28
23420 29271 29275 28
23421 29276 29277 28
23422 29276 29278 28
23423 29276 29279 28
23424 29276 29280 28
23425 29281 29282 28
23426 29281 29283 28
23427 29281 29284 28
23428 29281 29285 28
23429 29286 29287 28
23430 29286 29288 28
23431 29286 29289 28
23432 29286 29290 28
23433 29291 29292 28
23434 29291 29293 28
23435 29291 29294 28
23436 29291 29295 28
23437 29296 29297 28
23438 29296 29298 28
23439 29296 29299 28
23440 29296 29300 28
23441 29301 29302 28
23442 29301 29303 28
23443 29301 29304 28
23444 29301 29305 28
23445 29306 29307 28
23446 29306 29308 28
23447 29306 29309 28
23448 29306 29310 28
23449 29311 29312 28
23450 29311 29313 28
23451 29311 29314 28
23452 29311 29315 28
23453 29316 29317 28
23454 29316 29318 28
23455 29316 29319 28
23456 29316 29320 28
23457 29321 29322 28
23458 29321 29323 28
23459 29321 29324 28
23460 29321 29325 28
23461 29326 29327 28
23462 29326 29328 28
23463 29326 29329 28
23464 29326 29330 28
23465 29331 29332 28
23466 29331 29333 28
23467 29331 29334 28
23468 29331 29335 28
23469 29336 29337 28
23470 29336 29338 28
23471 29336 29339 28
23472 29336 29340 28
23473 29341 29342 28
23474 29341 29343 28
23475 29341 29344 28
23476 29341 29345 28
23477 29346 29347 28
23478 29346 29348 28
23479 29346 29349 28
23480 29346 29350 28
23481 29351 29352 28
23482 29351 29353 28
23483 29351 29354 28
23484 29351 29355 28
23485 29356 29357 28
23486 29356 29358 28
23487 29356 29359 28
23488 29356 29360 28
23489 29361 29362 28
23490 29361 29363 28
23491 29361 29364 28
23492 29361 29365 28
23493 29366 29367 28
23494 29366 29368 28
23495 29366 29369 28
23496 29366 29370 28
23497 29371 29372 28
23498 29371 29373 28
23499 29371 29374 28
23500 29371 29375 28
23501 29376 29377 28
23502 29376 29378 28
23503 29376 29379 28
23504 29376 29380 28
23505 29381 29382 28
23506 29381 29383 28
23507 29381 29384 28
23508 29381 29385 28
23509 29386 29387 28
23510 29386 29388 28
23511 29386 29389 28
23512 29386 29390 28
23513 29391 29392 28
23514 29391 29393 28
23515 29391 29394 28
23516 29391 29395 28
23517 29396 29397 28
23518 29396 29398 28
23519 29396 29399 28
23520 29396 29400 28
23521 29401 29402 28
23522 29401 29403 28
23523 29401 29404 28
23524 29401 29405 28
23525 29406 29407 28
23526 29406 29408 28
23527 29406 29409 28
23528 29406 29410 28
23529 29411 29412 28
23530 29411 29413 28
23531 29411 29414 28
23532 29411 29415 28
23533 29416 29417 28
23534 29416 29418 28
23535 29416 29419 28
23536 29416 29420 28
23537 29421 29422 28
23538 29421 29423 28
23539 29421 29424 28
23540 29421 29425 28
23541 29426 29427 28
23542 29426 29428 28
23543 29426 29429 28
23544 29426 29430 28
23545 29431 29432 28
23546 29431 29433 28
23547 29431 29434 28
23548 29431 29435 28
23549 29436 29437 28
23550 29436 29438 28
23551 29436 29439 28
23552 29436 29440 28
23553 29441 29442 28
23554 29441 29443 28
23555 29441 29444 28
23556 29441 29445 28
23557 29446 29447 28
23558 29446 29448 28
23559 29446 29449 28
23560 29446 29450 28
23561 29451 29452 28
23562 29451 29453 28
23563 29451 29454 28
23564 29451 29455 28
23565 29456 29457 28
23566 29456 29458 28
23567 29456 29459 28
23568 29456 29460 28
23569 29461 29462 28
23570 29461 29463 28
23571 29461 29464 28
23572 29461 29465 28
23573 29466 29467 28
23574 29466 29468 28
23575 29466 29469 28
23576 29466 29470 28
23577 29471 29472 28
23578 29471 29473 28
23579 29471 29474 28
23580 29471 29475 28
23581 29476 29477 28
23582 29476 29478 28
23583 29476 29479 28
23584 29476 29480 28
23585 29481 29482 28
23586 29481 29483 28
23587 29481 29484 28
23588 29481 29485 28
23589 29486 29487 28
23590 29486 29488 28
23591 29486 29489 28
23592 29486 29490 28
23593 29491 29492 28
23594 29491 29493 28
23595 29491 29494 28
23596 29491 29495 28
23597 29496 29497 28
23598 29496 29498 28
23599 29496 29499 28
23600 29496 29500 28
23601 29501 29502 28
23602 29501 29503 28
23603 29501 29504 28
23604 29501 29505 28
23605 29506 29507 28
23606 29506 29508 28
23607 29506 29509 28
23608 29506 29510 28
23609 29511 29512 28
23610 29511 29513 28
23611 29511 29514 28
23612 29511 29515 28
23613 29516 29517 28
23614 29516 29518 28
23615 29516 29519 28
23616 29516 29520 28
23617 29521 29522 28
23618 29521 29523 28
23619 29521 29524 28
23620 29521 29525 28
23621 29526 29527 28
23622 29526 29528 28
23623 29526 29529 28
23624 29526 29530 28
23625 29531 29532 28
23626 29531 29533 28
23627 29531 29534 28
23628 29531 29535 28
23629 29536 29537 28
23630 29536 29538 28
23631 29536 29539 28
23632 29536 29540 28
23633 29541 29542 28
23634 29541 29543 28
23635 29541 29544 28
23636 29541 29545 28
23637 29546 29547 28
23638 29546 29548 28
23639 29546 29549 28
23640 29546 29550 28
23641 29551 29552 28
23642 29551 29553 28
23643 29551 29554 28
23644 29551 29555 28
23645 29556 29557 28
23646 29556 29558 28
23647 29556 29559 28
23648 29556 29560 28
23649 29561 29562 28
23650 29561 29563 28
23651 29561 29564 28
23652 29561 29565 28
23653 29566 29567 28
23654 29566 29568 28
23655 29566 29569 28
23656 29566 29570 28
23657 29571 29572 28
23658 29571 29573 28
23659 29571 29574 28
23660 29571 29575 28
23661 29576 29577 28
23662 29576 29578 28
23663 29576 29579 28
23664 29576 29580 28
23665 29581 29582 28
23666 29581 29583 28
23667 29581 29584 28
23668 29581 29585 28
23669 29586 29587 28
23670 29586 29588 28
23671 29586 29589 28
23672 29586 29590 28
23673 29591 29592 28
23674 29591 29593 28
23675 29591 29594 28
23676 29591 29595 28
23677 29596 29597 28
23678 29596 29598 28
23679 29596 29599 28
23680 29596 29600 28
23681 29601 29602 28
23682 29601 29603 28
23683 29601 29604 28
23684 29601 29605 28
23685 29606 29607 28
23686 29606 29608 28
23687 29606 29609 28
23688 29606 29610 28
23689 29611 29612 28
23690 29611 29613 28
23691 29611 29614 28
23692 29611 29615 28
23693 29616 29617 28
23694 29616 29618 28
23695 29616 29619 28
23696 29616 29620 28
23697 29621 29622 28
23698 29621 29623 28
23699 29621 29624 28
23700 29621 29625 28
23701 29626 29627 28
23702 29626 29628 28
23703 29626 29629 28
23704 29626 29630 28
23705 29631 29632 28
23706 29631 29633 28
23707 29631 29634 28
23708 29631 29635 28
23709 29636 29637 28
23710 29636 29638 28
23711 29636 29639 28
23712 29636 29640 28
23713 29641 29642 28
23714 29641 29643 28
23715 29641 29644 28
23716 29641 29645 28
23717 29646 29647 28
23718 29646 29648 28
23719 29646 29649 28
23720 29646 29650 28
23721 29651 29652 28
23722 29651 29653 28
23723 29651 29654 28
23724 29651 29655 28
23725 29656 29657 28
23726 29656 29658 28
23727 29656 29659 28
23728 29656 29660 28
23729 29661 29662 28
23730 29661 29663 28
23731 29661 29664 28
23732 29661 29665 28
23733 29666 29667 28
23734 29666 29668 28
23735 29666 29669 28
23736 29666 29670 28
23737 29671 29672 28
23738 29671 29673 28
23739 29671 29674 28
23740 29671 29675 28
23741 29676 29677 28
23742 29676 29678 28
23743 29676 29679 28
23744 29676 29680 28
23745 29681 29682 28
23746 29681 29683 28
23747 29681 29684 28
23748 29681 29685 28
23749 29686 29687 28
23750 29686 29688 28
23751 29686 29689 28
23752 29686 29690 28
23753 29691 29692 28
23754 29691 29693 28
23755 29691 29694 28
23756 29691 29695 28
23757 29696 29697 28
23758 29696 29698 28
23759 29696 29699 28
23760 29696 29700 28
23761 29701 29702 28
23762 29701 29703 28
23763 29701 29704 28
23764 29701 29705 28
23765 29706 29707 28
23766 29706 29708 28
23767 29706 29709 28
23768 29706 29710 28
23769 29711 29712 28
23770 29711 29713 28
23771 29711 29714 28
23772 29711 29715 28
23773 29716 29717 28
23774 29716 29718 28
23775 29716 29719 28
23776 29716 29720 28
23777 29721 29722 28
23778 29721 29723 28
23779 29721 29724 28
23780 29721 29725 28
23781 29726 29727 28
23782 29726 29728 28
23783 29726 29729 28
23784 29726 29730 28
23785 29731 29732 28
23786 29731 29733 28
23787 29731 29734 28
23788 29731 29735 28
23789 29736 29737 28
23790 29736 29738 28
23791 29736 29739 28
23792 29736 29740 28
23793 29741 29742 28
23794 29741 29743 28
23795 29741 29744 28
23796 29741 29745 28
23797 29746 29747 28
23798 29746 29748 28
23799 29746 29749 28
23800 29746 29750 28
23801 29751 29752 28
23802 29751 29753 28
23803 29751 29754 28
23804 29751 29755 28
23805 29756 29757 28
23806 29756 29758 28
23807 29756 29759 28
23808 29756 29760 28
23809 29761 29762 28
23810 29761 29763 28
23811 29761 29764 28
23812 29761 29765 28
23813 29766 29767 28
23814 29766 29768 28
23815 29766 29769 28
23816 29766 29770 28
23817 29771 29772 28
23818 29771 29773 28
23819 29771 29774 28
23820 29771 29775 28
23821 29776 29777 28
23822 29776 29778 28
23823 29776 29779 28
23824 29776 29780 28
23825 29781 29782 28
23826 29781 29783 28
23827 29781 29784 28
23828 29781 29785 28
23829 29786 29787 28
23830 29786 29788 28
23831 29786 29789 28
23832 29786 29790 28
23833 29791 29792 28
23834 29791 29793 28
23835 29791 29794 28
23836 29791 29795 28
23837 29796 29797 28
23838 29796 29798 28
23839 29796 29799 28
23840 29796 29800 28
23841 29801 29802 28
23842 29801 29803 28
23843 29801 29804 28
23844 29801 29805 28
23845 29806 29807 28
23846 29806 29808 28
23847 29806 29809 28
23848 29806 29810 28
23849 29811 29812 28
23850 29811 29813 28
23851 29811 29814 28
23852 29811 29815 28
23853 29816 29817 28
23854 29816 29818 28
23855 29816 29819 28
23856 29816 29820 28
23857 29821 29822 28
23858 29821 29823 28
23859 29821 29824 28
23860 29821 29825 28
23861 29826 29827 28
23862 29826 29828 28
23863 29826 29829 28
23864 29826 29830 28
23865 29831 29832 28
23866 29831 29833 28
23867 29831 29834 28
23868 29831 29835 28
23869 29836 29837 28
23870 29836 29838 28
23871 29836 29839 28
23872 29836 29840 28
23873 29841 29842 28
23874 29841 29843 28
23875 29841 29844 28
23876 29841 29845 28
23877 29846 29847 28
23878 29846 29848 28
23879 29846 29849 28
23880 29846 29850 28
23881 29851 29852 28
23882 29851 29853 28
23883 29851 29854 28
23884 29851 29855 28
23885 29856 29857 28
23886 29856 29858 28
23887 29856 29859 28
23888 29856 29860 28
23889 29861 29862 28
23890 29861 29863 28
23891 29861 29864 28
23892 29861 29865 28
23893 29866 29867 28
23894 29866 29868 28
23895 29866 29869 28
23896 29866 29870 28
23897 29871 29872 28
23898 29871 29873 28
23899 29871 29874 28
23900 29871 29875 28
23901 29876 29877 28
23902 29876 29878 28
23903 29876 29879 28
23904 29876 29880 28
23905 29881 29882 28
23906 29881 29883 28
23907 29881 29884 28
23908 29881 29885 28
23909 29886 29887 28
23910 29886 29888 28
23911 29886 29889 28
23912 29886 29890 28
23913 29891 29892 28
23914 29891 29893 28
23915 29891 29894 28
23916 29891 29895 28
23917 29896 29897 28
23918 29896 29898 28
23919 29896 29899 28
23920 29896 29900 28
23921 29901 29902 28
23922 29901 29903 28
23923 29901 29904 28
23924 29901 29905 28
23925 29906 29907 28
23926 29906 29908 28
23927 29906 29909 28
23928 29906 29910 28
23929 29911 29912 28
23930 29911 29913 28
23931 29911 29914 28
23932 29911 29915 28
23933 29916 29917 28
23934 29916 29918 28
23935 29916 29919 28
23936 29916 29920 28
23937 29921 29922 28
23938 29921 29923 28
23939 29921 29924 28
23940 29921 29925 28
23941 29926 29927 28
23942 29926 29928 28
23943 29926 29929 28
23944 29926 29930 28
23945 29931 29932 28
23946 29931 29933 28
23947 29931 29934 28
23948 29931 29935 28
23949 29936 29937 28
23950 29936 29938 28
23951 29936 29939 28
23952 29936 29940 28
23953 29941 29942 28
23954 29941 29943 28
23955 29941 29944 28
23956 29941 29945 28
23957 29946 29947 28
23958 29946 29948 28
23959 29946 29949 28
23960 29946 29950 28
23961 29951 29952 28
23962 29951 29953 28
23963 29951 29954 28
23964 29951 29955 28
23965 29956 29957 28
23966 29956 29958 28
23967 29956 29959 28
23968 29956 29960 28
23969 29961 29962 28
23970 29961 29963 28
23971 29961 29964 28
23972 29961 29965 28
23973 29966 29967 28
23974 29966 29968 28
23975 29966 29969 28
23976 29966 29970 28
23977 29971 29972 28
23978 29971 29973 28
23979 29971 29974 28
23980 29971 29975 28
23981 29976 29977 28
23982 29976 29978 28
23983 29976 29979 28
23984 29976 29980 28
23985 29981 29982 28
23986 29981 29983 28
23987 29981 29984 28
23988 29981 29985 28
23989 29986 29987 28
23990 29986 29988 28
23991 29986 29989 28
23992 29986 29990 28
23993 29991 29992 28
23994 29991 29993 28
23995 29991 29994 28
23996 29991 29995 28
23997 29996 29997 28
23998 29996 29998 28
23999 29996 29999 28
24000 29996 30000 28
24001 30001 30002 28
24002 30001 30003 28
24003 30001 30004 28
24004 30001 30005 28
24005 30006 30007 28
24006 30006 30008 28
24007 30006 30009 28
24008 30006 30010 28
24009 30011 30012 28
24010 30011 30013 28
24011 30011 30014 28
24012 30011 30015 28
24013 30016 30017 28
24014 30016 30018 28
24015 30016 30019 28
24016 30016 30020 28
24017 30021 30022 28
24018 30021 30023 28
24019 30021 30024 28
24020 30021 30025 28
24021 30026 30027 28
24022 30026 30028 28
24023 30026 30029 28
24024 30026 30030 28
24025 30031 30032 28
24026 30031 30033 28
24027 30031 30034 28
24028 30031 30035 28
24029 30036 30037 28
24030 30036 30038 28
24031 30036 30039 28
24032 30036 30040 28
24033 30041 30042 28
24034 30041 30043 28
24035 30041 30044 28
24036 30041 30045 28
24037 30046 30047 28
24038 30046 30048 28
24039 30046 30049 28
24040 30046 30050 28
24041 30051 30052 28
24042 30051 30053 28
24043 30051 30054 28
24044 30051 30055 28
24045 30056 30057 28
24046 30056 30058 28
24047 30056 30059 28
24048 30056 30060 28
24049 30061 30062 28
24050 30061 30063 28
24051 30061 30064 28
24052 30061 30065 28
24053 30066 30067 28
24054 30066 30068 28
24055 30066 30069 28
24056 30066 30070 28
24057 30071 30072 28
24058 30071 30073 28
24059 30071 30074 28
24060 30071 30075 28
24061 30076 30077 28
24062 30076 30078 28
24063 30076 30079 28
24064 30076 30080 28
24065 30081 30082 28
24066 30081 30083 28
24067 30081 30084 28
24068 30081 30085 28
24069 30086 30087 28
24070 30086 30088 28
24071 30086 30089 28
24072 30086 30090 28
24073 30091 30092 28
24074 30091 30093 28
24075 30091 30094 28
24076 30091 30095 28
24077 30096 30097 28
24078 30096 30098 28
24079 30096 30099 28
24080 30096 30100 28
24081 30101 30102 28
24082 30101 30103 28
24083 30101 30104 28
24084 30101 30105 28
24085 30106 30107 28
24086 30106 30108 28
24087 30106 30109 28
24088 30106 30110 28
24089 30111 30112 28
24090 30111 30113 28
24091 30111 30114 28
24092 30111 30115 28
24093 30116 30117 28
24094 30116 30118 28
24095 30116 30119 28
24096 30116 30120 28
24097 30121 30122 28
24098 30121 30123 28
24099 30121 30124 28
24100 30121 30125 28
24101 30126 30127 28
24102 30126 30128 28
24103 30126 30129 28
24104 30126 30130 28
24105 30131 30132 28
24106 30131 30133 28
24107 30131 30134 28
24108 30131 30135 28
24109 30136 30137 28
24110 30136 30138 28
24111 30136 30139 28
24112 30136 30140 28
24113 30141 30142 28
24114 30141 30143 28
24115 30141 30144 28
24116 30141 30145 28
24117 30146 30147 28
24118 30146 30148 28
24119 30146 30149 28
24120 30146 30150 28
24121 30151 30152 28
24122 30151 30153 28
24123 30151 30154 28
24124 30151 30155 28
24125 30156 30157 28
24126 30156 30158 28
24127 30156 30159 28
24128 30156 30160 28
24129 30161 30162 28
24130 30161 30163 28
24131 30161 30164 28
24132 30161 30165 28
24133 30166 30167 28
24134 30166 30168 28
24135 30166 30169 28
24136 30166 30170 28
24137 30171 30172 28
24138 30171 30173 28
24139 30171 30174 28
24140 30171 30175 28
24141 30176 30177 28
24142 30176 30178 28
24143 30176 30179 28
24144 30176 30180 28
24145 30181 30182 28
24146 30181 30183 28
24147 30181 30184 28
24148 30181 30185 28
24149 30186 30187 28
24150 30186 30188 28
24151 30186 30189 28
24152 30186 30190 28
24153 30191 30192 28
24154 30191 30193 28
24155 30191 30194 28
24156 30191 30195 28
24157 30196 30197 28
24158 30196 30198 28
24159 30196 30199 28
24160 30196 30200 28
24161 30201 30202 28
24162 30201 30203 28
24163 30201 30204 28
24164 30201 30205 28
24165 30206 30207 28
24166 30206 30208 28
24167 30206 30209 28
24168 30206 30210 28
24169 30211 30212 28
24170 30211 30213 28
24171 30211 30214 28
24172 30211 30215 28
24173 30216 30217 28
24174 30216 30218 28
24175 30216 30219 28
24176 30216 30220 28
24177 30221 30222 28
24178 30221 30223 28
24179 30221 30224 28
24180 30221 30225 28
24181 30226 30227 28
24182 30226 30228 28
24183 30226 30229 28
24184 30226 30230 28
24185 30231 30232 28
24186 30231 30233 28
24187 30231 30234 28
24188 30231 30235 28
24189 30236 30237 28
24190 30236 30238 28
24191 30236 30239 28
24192 30236 30240 28
24193 30241 30242 28
24194 30241 30243 28
24195 30241 30244 28
24196 30241 30245 28
24197 30246 30247 28
24198 30246 30248 28
24199 30246 30249 28
24200 30246 30250 28
24201 30251 30252 28
24202 30251 30253 28
24203 30251 30254 28
24204 30251 30255 28
24205 30256 30257 28
24206 30256 30258 28
24207 30256 30259 28
24208 30256 30260 28
24209 30261 30262 28
24210 30261 30263 28
24211 30261 30264 28
24212 30261 30265 28
24213 30266 30267 28
24214 30266 30268 28
24215 30266 30269 28
24216 30266 30270 28
24217 30271 30272 28
24218 30271 30273 28
24219 30271 30274 28
24220 30271 30275 28
24221 30276 30277 28
24222 30276 30278 28
24223 30276 30279 28
24224 30276 30280 28
24225 30281 30282 28
24226 30281 30283 28
24227 30281 30284 28
24228 30281 30285 28
24229 30286 30287 28
24230 30286 30288 28
24231 30286 30289 28
24232 30286 30290 28
24233 30291 30292 28
24234 30291 30293 28
24235 30291 30294 28
24236 30291 30295 28
24237 30296 30297 28
24238 30296 30298 28
24239 30296 30299 28
24240 30296 30300 28
24241 30301 30302 28
24242 30301 30303 28
24243 30301 30304 28
24244 30301 30305 28
24245 30306 30307 28
24246 30306 30308 28
24247 30306 30309 28
24248 30306 30310 28
24249 30311 30312 28
24250 30311 30313 28
24251 30311 30314 28
24252 30311 30315 28
24253 30316 30317 28
24254 30316 30318 28
24255 30316 30319 28
24256 30316 30320 28
24257 30321 30322 28
24258 30321 30323 28
24259 30321 30324 28
24260 30321 30325 28
24261 30326 30327 28
24262 30326 30328 28
24263 30326 30329 28
24264 30326 30330 28
24265 30331 30332 28
24266 30331 30333 28
24267 30331 30334 28
24268 30331 30335 28
24269 30336 30337 28
24270 30336 30338 28
24271 30336 30339 28
24272 30336 30340 28
24273 30341 30342 28
24274 30341 30343 28
24275 30341 30344 28
24276 30341 30345 28
24277 30346 30347 28
24278 30346 30348 28
24279 30346 30349 28
24280 30346 30350 28
24281 30351 30352 28
24282 30351 30353 28
24283 30351 30354 28
24284 30351 30355 28
24285 30356 30357 28
24286 30356 30358 28
24287 30356 30359 28
24288 30356 30360 28
24289 30361 30362 28
24290 30361 30363 28
24291 30361 30364 28
24292 30361 30365 28
24293 30366 30367 28
24294 30366 30368 28
24295 30366 30369 28
24296 30366 30370 28
24297 30371 30372 28
24298 30371 30373 28
24299 30371 30374 28
24300 30371 30375 28
24301 30376 30377 28
24302 30376 30378 28
24303 30376 30379 28
24304 30376 30380 28
24305 30381 30382 28
24306 30381 30383 28
24307 30381 30384 28
24308 30381 30385 28
24309 30386 30387 28
24310 30386 30388 28
24311 30386 30389 28
24312 30386 30390 28
24313 30391 30392 28
24314 30391 30393 28
24315 30391 30394 28
24316 30391 30395 28
24317 30396 30397 28
24318 30396 30398 28
24319 30396 30399 28
24320 30396 30400 28
24321 30401 30402 28
24322 30401 30403 28
24323 30401 30404 28
24324 30401 30405 28
24325 30406 30407 28
24326 30406 30408 28
24327 30406 30409 28
24328 30406 30410 28
24329 30411 30412 28
24330 30411 30413 28
24331 30411 30414 28
24332 30411 30415 28
24333 30416 30417 28
24334 30416 30418 28
24335 30416 30419 28
24336 30416 30420 28
24337 30421 30422 28
24338 30421 30423 28
24339 30421 30424 28
24340 30421 30425 28
24341 30426 30427 28
24342 30426 30428 28
24343 30426 30429 28
24344 30426 30430 28
24345 30431 30432 28
24346 30431 30433 28
24347 30431 30434 28
24348 30431 30435 28
24349 30436 30437 28
24350 30436 30438 28
24351 30436 30439 28
24352 30436 30440 28
24353 30441 30442 28
24354 30441 30443 28
24355 30441 30444 28
24356 30441 30445 28
24357 30446 30447 28
24358 30446 30448 28
24359 30446 30449 28
24360 30446 30450 28
24361 30451 30452 28
24362 30451 30453 28
24363 30451 30454 28
24364 30451 30455 28
24365 30456 30457 28
24366 30456 30458 28
24367 30456 30459 28
24368 30456 30460 28
24369 30461 30462 28
24370 30461 30463 28
24371 30461 30464 28
24372 30461 30465 28
24373 30466 30467 28
24374 30466 30468 28
24375 30466 30469 28
24376 30466 30470 28
24377 30471 30472 28
24378 30471 30473 28
24379 30471 30474 28
24380 30471 30475 28
24381 30476 30477 28
24382 30476 30478 28
24383 30476 30479 28
24384 30476 30480 28
24385 30481 30482 28
24386 30481 30483 28
24387 30481 30484 28
24388 30481 30485 28
24389 30486 30487 28
24390 30486 30488 28
24391 30486 30489 28
24392 30486 30490 28
24393 30491 30492 28
24394 30491 30493 28
24395 30491 30494 28
24396 30491 30495 28
24397 30496 30497 28
24398 30496 30498 28
24399 30496 30499 28
24400 30496 30500 28
24401 30501 30502 28
24402 30501 30503 28
24403 30501 30504 28
24404 30501 30505 28
24405 30506 30507 28
24406 30506 30508 28
24407 30506 30509 28
24408 30506 30510 28
24409 30511 30512 28
24410 30511 30513 28
24411 30511 30514 28
24412 30511 30515 28
24413 30516 30517 28
24414 30516 30518 28
24415 30516 30519 28
24416 30516 30520 28
24417 30521 30522 28
24418 30521 30523 28
24419 30521 30524 28
24420 30521 30525 28
24421 30526 30527 28
24422 30526 30528 28
24423 30526 30529 28
24424 30526 30530 28
24425 30531 30532 28
24426 30531 30533 28
24427 30531 30534 28
24428 30531 30535 28
24429 30536 30537 28
24430 30536 30538 28
24431 30536 30539 28
24432 30536 30540 28
24433 30541 30542 28
24434 30541 30543 28
24435 30541 30544 28
24436 30541 30545 28
24437 30546 30547 28
24438 30546 30548 28
24439 30546 30549 28
24440 30546 30550 28
24441 30551 30552 28
24442 30551 30553 28
24443 30551 30554 28
24444 30551 30555 28
24445 30556 30557 28
24446 30556 30558 28
24447 30556 30559 28
24448 30556 30560 28
24449 30561 30562 28
24450 30561 30563 28
24451 30561 30564 28
24452 30561 30565 28
24453 30566 30567 28
24454 30566 30568 28
24455 30566 30569 28
24456 30566 30570 28
24457 30571 30572 28
24458 30571 30573 28
24459 30571 30574 28
24460 30571 30575 28
24461 30576 30577 28
24462 30576 30578 28
24463 30576 30579 28
24464 30576 30580 28
24465 30581 30582 28
24466 30581 30583 28
24467 30581 30584 28
24468 30581 30585 28
24469 30586 30587 28
24470 30586 30588 28
24471 30586 30589 28
24472 30586 30590 28
24473 30591 30592 28
24474 30591 30593 28
24475 30591 30594 28
24476 30591 30595 28
24477 30596 30597 28
24478 30596 30598 28
24479 30596 30599 28
24480 30596 30600 28
24481 30601 30602 28
24482 30601 30603 28
24483 30601 30604 28
24484 30601 30605 28
24485 30606 30607 28
24486 30606 30608 28
24487 30606 30609 28
24488 30606 30610 28
24489 30611 30612 28
24490 30611 30613 28
24491 30611 30614 28
24492 30611 30615 28
24493 30616 30617 28
24494 30616 30618 28
24495 30616 30619 28
24496 30616 30620 28
24497 30621 30622 28
24498 30621 30623 28
24499 30621 30624 28
24500 30621 30625 28
24501 30626 30627 28
24502 30626 30628 28
24503 30626 30629 28
24504 30626 30630 28
24505 30631 30632 28
24506 30631 30633 28
24507 30631 30634 28
24508 30631 30635 28
24509 30636 30637 28
24510 30636 30638 28
24511 30636 30639 28
24512 30636 30640 28
24513 30641 30642 28
24514 30641 30643 28
24515 30641 30644 28
24516 30641 30645 28
24517 30646 30647 28
24518 30646 30648 28
24519 30646 30649 28
24520 30646 30650 28
24521 30651 30652 28
24522 30651 30653 28
24523 30651 30654 28
24524 30651 30655 28
24525 30656 30657 28
24526 30656 30658 28
24527 30656 30659 28
24528 30656 30660 28
24529 30661 30662 28
24530 30661 30663 28
24531 30661 30664 28
24532 30661 30665 28
24533 30666 30667 28
24534 30666 30668 28
24535 30666 30669 28
24536 30666 30670 28
24537 30671 30672 28
24538 30671 30673 28
24539 30671 30674 28
24540 30671 30675 28
24541 30676 30677 28
24542 30676 30678 28
24543 30676 30679 28
24544 30676 30680 28
24545 30681 30682 28
24546 30681 30683 28
24547 30681 30684 28
24548 30681 30685 28
24549 30686 30687 28
24550 30686 30688 28
24551 30686 30689 28
24552 30686 30690 28
24553 30691 30692 28
24554 30691 30693 28
24555 30691 30694 28
24556 30691 30695 28
24557 30696 30697 28
24558 30696 30698 28
24559 30696 30699 28
24560 30696 30700 28
24561 30701 30702 28
24562 30701 30703 28
24563 30701 30704 28
24564 30701 30705 28
24565 30706 30707 28
24566 30706 30708 28
24567 30706 30709 28
24568 30706 30710 28
24569 30711 30712 28
24570 30711 30713 28
24571 30711 30714 28
24572 30711 30715 28
24573 30716 30717 28
24574 30716 30718 28
24575 30716 30719 28
24576 30716 30720 28
24577 30721 30722 28
24578 30721 30723 28
24579 30721 30724 28
24580 30721 30725 28
24581 30726 30727 28
24582 30726 30728 28
24583 30726 30729 28
24584 30726 30730 28
24585 30731 30732 28
24586 30731 30733 28
24587 30731 30734 28
24588 30731 30735 28
24589 30736 30737 28
24590 30736 30738 28
24591 30736 30739 28
24592 30736 30740 28
24593 30741 30742 28
24594 30741 30743 28
24595 30741 30744 28
24596 30741 30745 28
24597 30746 30747 28
24598 30746 30748 28
24599 30746 30749 28
24600 30746 30750 28
24601 30751 30752 28
24602 30751 30753 28
24603 30751 30754 28
24604 30751 30755 28
24605 30756 30757 28
24606 30756 30758 28
24607 30756 30759 28
24608 30756 30760 28
24609 30761 30762 28
24610 30761 30763 28
24611 30761 30764 28
24612 30761 30765 28
24613 30766 30767 28
24614 30766 30768 28
24615 30766 30769 28
24616 30766 30770 28
24617 30771 30772 28
24618 30771 30773 28
24619 30771 30774 28
24620 30771 30775 28
24621 30776 30777 28
24622 30776 30778 28
24623 30776 30779 28
24624 30776 30780 28
24625 30781 30782 28
24626 30781 30783 28
24627 30781 30784 28
24628 30781 30785 28
24629 30786 30787 28
24630 30786 30788 28
24631 30786 30789 28
24632 30786 30790 28
24633 30791 30792 28
24634 30791 30793 28
24635 30791 30794 28
24636 30791 30795 28
24637 30796 30797 28
24638 30796 30798 28
24639 30796 30799 28
24640 30796 30800 28
24641 30801 30802 28
24642 30801 30803 28
24643 30801 30804 28
24644 30801 30805 28
24645 30806 30807 28
24646 30806 30808 28
24647 30806 30809 28
24648 30806 30810 28
24649 30811 30812 28
24650 30811 30813 28
24651 30811 30814 28
24652 30811 30815 28
24653 30816 30817 28
24654 30816 30818 28
24655 30816 30819 28
24656 30816 30820 28
24657 30821 30822 28
24658 30821 30823 28
24659 30821 30824 28
24660 30821 30825 28
24661 30826 30827 28
24662 30826 30828 28
24663 30826 30829 28
24664 30826 30830 28
24665 30831 30832 28
24666 30831 30833 28
24667 30831 30834 28
24668 30831 30835 28
24669 30836 30837 28
24670 30836 30838 28
24671 30836 30839 28
24672 30836 30840 28
24673 30841 30842 28
24674 30841 30843 28
24675 30841 30844 28
24676 30841 30845 28
24677 30846 30847 28
24678 30846 30848 28
24679 30846 30849 28
24680 30846 30850 28
24681 30851 30852 28
24682 30851 30853 28
24683 30851 30854 28
24684 30851 30855 28
24685 30856 30857 28
24686 30856 30858 28
24687 30856 30859 28
24688 30856 30860 28
24689 30861 30862 28
24690 30861 30863 28
24691 30861 30864 28
24692 30861 30865 28
24693 30866 30867 28
24694 30866 30868 28
24695 30866 30869 28
24696 30866 30870 28
24697 30871 30872 28
24698 30871 30873 28
24699 30871 30874 28
24700 30871 30875 28
24701 30876 30877 28
24702 30876 30878 28
24703 30876 30879 28
24704 30876 30880 28
24705 30881 30882 28
24706 30881 30883 28
24707 30881 30884 28
24708 30881 30885 28
24709 30886 30887 28
24710 30886 30888 28
24711 30886 30889 28
24712 30886 30890 28
24713 30891 30892 28
24714 30891 30893 28
24715 30891 30894 28
24716 30891 30895 28
24717 30896 30897 28
24718 30896 30898 28
24719 30896 30899 28
24720 30896 30900 28
24721 30901 30902 28
24722 30901 30903 28
24723 30901 30904 28
24724 30901 30905 28
24725 30906 30907 28
24726 30906 30908 28
24727 30906 30909 28
24728 30906 30910 28
24729 30911 30912 28
24730 30911 30913 28
24731 30911 30914 28
24732 30911 30915 28
24733 30916 30917 28
24734 30916 30918 28
24735 30916 30919 28
24736 30916 30920 28
24737 30921 30922 28
24738 30921 30923 28
24739 30921 30924 28
24740 30921 30925 28
24741 30926 30927 28
24742 30926 30928 28
24743 30926 30929 28
24744 30926 30930 28
24745 30931 30932 28
24746 30931 30933 28
24747 30931 30934 28
24748 30931 30935 28
24749 30936 30937 28
24750 30936 30938 28
24751 30936 30939 28
24752 30936 30940 28
24753 30941 30942 28
24754 30941 30943 28
24755 30941 30944 28
24756 30941 30945 28
24757 30946 30947 28
24758 30946 30948 28
24759 30946 30949 28
24760 30946 30950 28
24761 30951 30952 28
24762 30951 30953 28
24763 30951 30954 28
24764 30951 30955 28
24765 30956 30957 28
24766 30956 30958 28
24767 30956 30959 28
24768 30956 30960 28
24769 30961 30962 28
24770 30961 30963 28
24771 30961 30964 28
24772 30961 30965 28
24773 30966 30967 28
24774 30966 30968 28
24775 30966 30969 28
24776 30966 30970 28
24777 30971 30972 28
24778 30971 30973 28
24779 30971 30974 28
24780 30971 30975 28
24781 30976 30977 28
24782 30976 30978 28
24783 30976 30979 28
24784 30976 30980 28
24785 30981 30982 28
24786 30981 30983 28
24787 30981 30984 28
24788 30981 30985 28
24789 30986 30987 28
24790 30986 30988 28
24791 30986 30989 28
24792 30986 30990 28
24793 30991 30992 28
24794 30991 30993 28
24795 30991 30994 28
24796 30991 30995 28
24797 30996 30997 28
24798 30996 30998 28
24799 30996 30999 28
24800 30996 31000 28
24801 31001 31002 28
24802 31001 31003 28
24803 31001 31004 28
24804 31001 31005 28
24805 31006 31007 28
24806 31006 31008 28
24807 31006 31009 28
24808 31006 31010 28
24809 31011 31012 28
24810 31011 31013 28
24811 31011 31014 28
24812 31011 31015 28
24813 31016 31017 28
24814 31016 31018 28
24815 31016 31019 28
24816 31016 31020 28
24817 31021 31022 28
24818 31021 31023 28
24819 31021 31024 28
24820 31021 31025 28
24821 31026 31027 28
24822 31026 31028 28
24823 31026 31029 28
24824 31026 31030 28
24825 31031 31032 28
24826 31031 31033 28
24827 31031 31034 28
24828 31031 31035 28
24829 31036 31037 28
24830 31036 31038 28
24831 31036 31039 28
24832 31036 31040 28
24833 31041 31042 28
24834 31041 31043 28
24835 31041 31044 28
24836 31041 31045 28
24837 31046 31047 28
24838 31046 31048 28
24839 31046 31049 28
24840 31046 31050 28
24841 31051 31052 28
24842 31051 31053 28
24843 31051 31054 28
24844 31051 31055 28
24845 31056 31057 28
24846 31056 31058 28
24847 31056 31059 28
24848 31056 31060 28
24849 31061 31062 28
24850 31061 31063 28
24851 31061 31064 28
24852 31061 31065 28
24853 31066 31067 28
24854 31066 31068 28
24855 31066 31069 28
24856 31066 31070 28
24857 31071 31072 28
24858 31071 31073 28
24859 31071 31074 28
24860 31071 31075 28
24861 31076 31077 28
24862 31076 31078 28
24863 31076 31079 28
24864 31076 31080 28
24865 31081 31082 28
24866 31081 31083 28
24867 31081 31084 28
24868 31081 31085 28
24869 31086 31087 28
24870 31086 31088 28
24871 31086 31089 28
24872 31086 31090 28
24873 31091 31092 28
24874 31091 31093 28
24875 31091 31094 28
24876 31091 31095 28
24877 31096 31097 28
24878 31096 31098 28
24879 31096 31099 28
24880 31096 31100 28
24881 31101 31102 28
24882 31101 31103 28
24883 31101 31104 28
24884 31101 31105 28
24885 31106 31107 28
24886 31106 31108 28
24887 31106 31109 28
24888 31106 31110 28
24889 31111 31112 28
24890 31111 31113 28
24891 31111 31114 28
24892 31111 31115 28
24893 31116 31117 28
24894 31116 31118 28
24895 31116 31119 28
24896 31116 31120 28
24897 31121 31122 28
24898 31121 31123 28
24899 31121 31124 28
24900 31121 31125 28
24901 31126 31127 28
24902 31126 31128 28
24903 31126 31129 28
24904 31126 31130 28
24905 31131 31132 28
24906 31131 31133 28
24907 31131 31134 28
24908 31131 31135 28
24909 31136 31137 28
24910 31136 31138 28
24911 31136 31139 28
24912 31136 31140 28
24913 31141 31142 28
24914 31141 31143 28
24915 31141 31144 28
24916 31141 31145 28
24917 31146 31147 28
24918 31146 31148 28
24919 31146 31149 28
24920 31146 31150 28
24921 31151 31152 28
24922 31151 31153 28
24923 31151 31154 28
24924 31151 31155 28
24925 31156 31157 28
24926 31156 31158 28
24927 31156 31159 28
24928 31156 31160 28
24929 31161 31162 28
24930 31161 31163 28
24931 31161 31164 28
24932 31161 31165 28
24933 31166 31167 28
24934 31166 31168 28
24935 31166 31169 28
24936 31166 31170 28
24937 31171 31172 28
24938 31171 31173 28
24939 31171 31174 28
24940 31171 31175 28
24941 31176 31177 28
24942 31176 31178 28
24943 31176 31179 28
24944 31176 31180 28
24945 31181 31182 28
24946 31181 31183 28
24947 31181 31184 28
24948 31181 31185 28
24949 31186 31187 28
24950 31186 31188 28
24951 31186 31189 28
24952 31186 31190 28
24953 31191 31192 28
24954 31191 31193 28
24955 31191 31194 28
24956 31191 31195 28
24957 31196 31197 28
24958 31196 31198 28
24959 31196 31199 28
24960 31196 31200 28
24961 31201 31202 28
24962 31201 31203 28
24963 31201 31204 28
24964 31201 31205 28
24965 31206 31207 28
24966 31206 31208 28
24967 31206 31209 28
24968 31206 31210 28
24969 31211 31212 28
24970 31211 31213 28
24971 31211 31214 28
24972 31211 31215 28
24973 31216 31217 28
24974 31216 31218 28
24975 31216 31219 28
24976 31216 31220 28
24977 31221 31222 28
24978 31221 31223 28
24979 31221 31224 28
24980 31221 31225 28
24981 31226 31227 28
24982 31226 31228 28
24983 31226 31229 28
24984 31226 31230 28
24985 31231 31232 28
24986 31231 31233 28
24987 31231 31234 28
24988 31231 31235 28
24989 31236 31237 28
24990 31236 31238 28
24991 31236 31239 28
24992 31236 31240 28
24993 31241 31242 28
24994 31241 31243 28
24995 31241 31244 28
24996 31241 31245 28
24997 31246 31247 28
24998 31246 31248 28
24999 31246 31249 28
25000 31246 31250 28
25001 31251 31252 28
25002 31251 31253 28
25003 31251 31254 28
25004 31251 31255 28
25005 31256 31257 28
25006 31256 31258 28
25007 31256 31259 28
25008 31256 31260 28
25009 31261 31262 28
25010 31261 31263 28
25011 31261 31264 28
25012 31261 31265 28
25013 31266 31267 28
25014 31266 31268 28
25015 31266 31269 28
25016 31266 31270 28
25017 31271 31272 28
25018 31271 31273 28
25019 31271 31274 28
25020 31271 31275 28
25021 31276 31277 28
25022 31276 31278 28
25023 31276 31279 28
25024 31276 31280 28
25025 31281 31282 28
25026 31281 31283 28
25027 31281 31284 28
25028 31281 31285 28
25029 31286 31287 28
25030 31286 31288 28
25031 31286 31289 28
25032 31286 31290 28
25033 31291 31292 28
25034 31291 31293 28
25035 31291 31294 28
25036 31291 31295 28
25037 31296 31297 28
25038 31296 31298 28
25039 31296 31299 28
25040 31296 31300 28
25041 31301 31302 28
25042 31301 31303 28
25043 31301 31304 28
25044 31301 31305 28
25045 31306 31307 28
25046 31306 31308 28
25047 31306 31309 28
25048 31306 31310 28
25049 31311 31312 28
25050 31311 31313 28
25051 31311 31314 28
25052 31311 31315 28
25053 31316 31317 28
25054 31316 31318 28
25055 31316 31319 28
25056 31316 31320 28
25057 31321 31322 28
25058 31321 31323 28
25059 31321 31324 28
25060 31321 31325 28
25061 31326 31327 28
25062 31326 31328 28
25063 31326 31329 28
25064 31326 31330 28
25065 31331 31332 28
25066 31331 31333 28
25067 31331 31334 28
25068 31331 31335 28
25069 31336 31337 28
25070 31336 31338 28
25071 31336 31339 28
25072 31336 31340 28
25073 31341 31342 28
25074 31341 31343 28
25075 31341 31344 28
25076 31341 31345 28
25077 31346 31347 28
25078 31346 31348 28
25079 31346 31349 28
25080 31346 31350 28
25081 31351 31352 28
25082 31351 31353 28
25083 31351 31354 28
25084 31351 31355 28
25085 31356 31357 28
25086 31356 31358 28
25087 31356 31359 28
25088 31356 31360 28
25089 31361 31362 28
25090 31361 31363 28
25091 31361 31364 28
25092 31361 31365 28
25093 31366 31367 28
25094 31366 31368 28
25095 31366 31369 28
25096 31366 31370 28
25097 31371 31372 28
25098 31371 31373 28
25099 31371 31374 28
25100 31371 31375 28
25101 31376 31377 28
25102 31376 31378 28
25103 31376 31379 28
25104 31376 31380 28
25105 31381 31382 28
25106 31381 31383 28
25107 31381 31384 28
25108 31381 31385 28
25109 31386 31387 28
25110 31386 31388 28
25111 31386 31389 28
25112 31386 31390 28
25113 31391 31392 28
25114 31391 31393 28
25115 31391 31394 28
25116 31391 31395 28
25117 31396 31397 28
25118 31396 31398 28
25119 31396 31399 28
25120 31396 31400 28
25121 31401 31402 28
25122 31401 31403 28
25123 31401 31404 28
25124 31401 31405 28
25125 31406 31407 28
25126 31406 31408 28
25127 31406 31409 28
25128 31406 31410 28
25129 31411 31412 28
25130 31411 31413 28
25131 31411 31414 28
25132 31411 31415 28
25133 31416 31417 28
25134 31416 31418 28
25135 31416 31419 28
25136 31416 31420 28
25137 31421 31422 28
25138 31421 31423 28
25139 31421 31424 28
25140 31421 31425 28
25141 31426 31427 28
25142 31426 31428 28
25143 31426 31429 28
25144 31426 31430 28
25145 31431 31432 28
25146 31431 31433 28
25147 31431 31434 28
25148 31431 31435 28
25149 31436 31437 28
25150 31436 31438 28
25151 31436 31439 28
25152 31436 31440 28
25153 31441 31442 28
25154 31441 31443 28
25155 31441 31444 28
25156 31441 31445 28
25157 31446 31447 28
25158 31446 31448 28
25159 31446 31449 28
25160 31446 31450 28
25161 31451 31452 28
25162 31451 31453 28
25163 31451 31454 28
25164 31451 31455 28
25165 31456 31457 28
25166 31456 31458 28
25167 31456 31459 28
25168 31456 31460 28
25169 31461 31462 28
25170 31461 31463 28
25171 31461 31464 28
25172 31461 31465 28
25173 31466 31467 28
25174 31466 31468 28
25175 31466 31469 28
25176 31466 31470 28
25177 31471 31472 28
25178 31471 31473 28
25179 31471 31474 28
25180 31471 31475 28
25181 31476 31477 28
25182 31476 31478 28
25183 31476 31479 28
25184 31476 31480 28
25185 31481 31482 28
25186 31481 31483 28
25187 31481 31484 28
25188 31481 31485 28
25189 31486 31487 28
25190 31486 31488 28
25191 31486 31489 28
25192 31486 31490 28
25193 31491 31492 28
25194 31491 31493 28
25195 31491 31494 28
25196 31491 31495 28
25197 31496 31497 28
25198 31496 31498 28
25199 31496 31499 28
25200 31496 31500 28
25201 31501 31502 28
25202 31501 31503 28
25203 31501 31504 28
25204 31501 31505 28
25205 31506 31507 28
25206 31506 31508 28
25207 31506 31509 28
25208 31506 31510 28
25209 31511 31512 28
25210 31511 31513 28
25211 31511 31514 28
25212 31511 31515 28
25213 31516 31517 28
25214 31516 31518 28
25215 31516 31519 28
25216 31516 31520 28
25217 31521 31522 28
25218 31521 31523 28
25219 31521 31524 28
25220 31521 31525 28
25221 31526 31527 28
25222 31526 31528 28
25223 31526 31529 28
25224 31526 31530 28
25225 31531 31532 28
25226 31531 31533 28
25227 31531 31534 28
25228 31531 31535 28
25229 31536 31537 28
25230 31536 31538 28
25231 31536 31539 28
25232 31536 31540 28
25233 31541 31542 28
25234 31541 31543 28
25235 31541 31544 28
25236 31541 31545 28
25237 31546 31547 28
25238 31546 31548 28
25239 31546 31549 28
25240 31546 31550 28
25241 31551 31552 28
25242 31551 31553 28
25243 31551 31554 28
25244 31551 31555 28
25245 31556 31557 28
25246 31556 31558 28
25247 31556 31559 28
25248 31556 31560 28
25249 31561 31562 28
25250 31561 31563 28
25251 31561 31564 28
25252 31561 31565 28
25253 31566 31567 28
25254 31566 31568 28
25255 31566 31569 28
25256 31566 31570 28
25257 31571 31572 28
25258 31571 31573 28
25259 31571 31574 28
25260 31571 31575 28
25261 31576 31577 28
25262 31576 31578 28
25263 31576 31579 28
25264 31576 31580 28
25265 31581 31582 28
25266 31581 31583 28
25267 31581 31584 28
25268 31581 31585 28
25269 31586 31587 28
25270 31586 31588 28
25271 31586 31589 28
25272 31586 31590 28
25273 31591 31592 28
25274 31591 31593 28
25275 31591 31594 28
25276 31591 31595 28
25277 31596 31597 28
25278 31596 31598 28
25279 31596 31599 28
25280 31596 31600 28
25281 31601 31602 28
25282 31601 31603 28
25283 31601 31604 28
25284 31601 31605 28
25285 31606 31607 28
25286 31606 31608 28
25287 31606 31609 28
25288 31606 31610 28
25289 31611 31612 28
25290 31611 31613 28
25291 31611 31614 28
25292 31611 31615 28
25293 31616 31617 28
25294 31616 31618 28
25295 31616 31619 28
25296 31616 31620 28
25297 31621 31622 28
25298 31621 31623 28
25299 31621 31624 28
25300 31621 31625 28
25301 31626 31627 28
25302 31626 31628 28
25303 31626 31629 28
25304 31626 31630 28
25305 31631 31632 28
25306 31631 31633 28
25307 31631 31634 28
25308 31631 31635 28
25309 31636 31637 28
25310 31636 31638 28
25311 31636 31639 28
25312 31636 31640 28
25313 31641 31642 28
25314 31641 31643 28
25315 31641 31644 28
25316 31641 31645 28
25317 31646 31647 28
25318 31646 31648 28
25319 31646 31649 28
25320 31646 31650 28
25321 31651 31652 28
25322 31651 31653 28
25323 31651 31654 28
25324 31651 31655 28
25325 31656 31657 28
25326 31656 31658 28
25327 31656 31659 28
25328 31656 31660 28
25329 31661 31662 28
25330 31661 31663 28
25331 31661 31664 28
25332 31661 31665 28
25333 31666 31667 28
25334 31666 31668 28
25335 31666 31669 28
25336 31666 31670 28
25337 31671 31672 28
25338 31671 31673 28
25339 31671 31674 28
25340 31671 31675 28
25341 31676 31677 28
25342 31676 31678 28
25343 31676 31679 28
25344 31676 31680 28
25345 31681 31682 28
25346 31681 31683 28
25347 31681 31684 28
25348 31681 31685 28
25349 31686 31687 28
25350 31686 31688 28
25351 31686 31689 28
25352 31686 31690 28
25353 31691 31692 28
25354 31691 31693 28
25355 31691 31694 28
25356 31691 31695 28
25357 31696 31697 28
25358 31696 31698 28
25359 31696 31699 28
25360 31696 31700 28
25361 31701 31702 28
25362 31701 31703 28
25363 31701 31704 28
25364 31701 31705 28
25365 31706 31707 28
25366 31706 31708 28
25367 31706 31709 28
25368 31706 31710 28
25369 31711 31712 28
25370 31711 31713 28
25371 31711 31714 28
25372 31711 31715 28
25373 31716 31717 28
25374 31716 31718 28
25375 31716 31719 28
25376 31716 31720 28
25377 31721 31722 28
25378 31721 31723 28
25379 31721 31724 28
25380 31721 31725 28
25381 31726 31727 28
25382 31726 31728 28
25383 31726 31729 28
25384 31726 31730 28
25385 31731 31732 28
25386 31731 31733 28
25387 31731 31734 28
25388 31731 31735 28
25389 31736 31737 28
25390 31736 31738 28
25391 31736 31739 28
25392 31736 31740 28
25393 31741 31742 28
25394 31741 31743 28
25395 31741 31744 28
25396 31741 31745 28
25397 31746 31747 28
25398 31746 31748 28
25399 31746 31749 28
25400 31746 31750 28
25401 31751 31752 28
25402 31751 31753 28
25403 31751 31754 28
25404 31751 31755 28
25405 31756 31757 28
25406 31756 31758 28
25407 31756 31759 28
25408 31756 31760 28
25409 31761 31762 28
25410 31761 31763 28
25411 31761 31764 28
25412 31761 31765 28
25413 31766 31767 28
25414 31766 31768 28
25415 31766 31769 28
25416 31766 31770 28
25417 31771 31772 28
25418 31771 31773 28
25419 31771 31774 28
25420 31771 31775 28
25421 31776 31777 28
25422 31776 31778 28
25423 31776 31779 28
25424 31776 31780 28
25425 31781 31782 28
25426 31781 31783 28
25427 31781 31784 28
25428 31781 31785 28
25429 31786 31787 28
25430 31786 31788 28
25431 31786 31789 28
25432 31786 31790 28
25433 31791 31792 28
25434 31791 31793 28
25435 31791 31794 28
25436 31791 31795 28
25437 31796 31797 28
25438 31796 31798 28
25439 31796 31799 28
25440 31796 31800 28
25441 31801 31802 28
25442 31801 31803 28
25443 31801 31804 28
25444 31801 31805 28
25445 31806 31807 28
25446 31806 31808 28
25447 31806 31809 28
25448 31806 31810 28
25449 31811 31812 28
25450 31811 31813 28
25451 31811 31814 28
25452 31811 31815 28
25453 31816 31817 28
25454 31816 31818 28
25455 31816 31819 28
25456 31816 31820 28
25457 31821 31822 28
25458 31821 31823 28
25459 31821 31824 28
25460 31821 31825 28
25461 31826 31827 28
25462 31826 31828 28
25463 31826 31829 28
25464 31826 31830 28
25465 31831 31832 28
25466 31831 31833 28
25467 31831 31834 28
25468 31831 31835 28
25469 31836 31837 28
25470 31836 31838 28
25471 31836 31839 28
25472 31836 31840 28
25473 31841 31842 28
25474 31841 31843 28
25475 31841 31844 28
25476 31841 31845 28
25477 31846 31847 28
25478 31846 31848 28
25479 31846 31849 28
25480 31846 31850 28
25481 31851 31852 28
25482 31851 31853 28
25483 31851 31854 28
25484 31851 31855 28
25485 31856 31857 28
25486 31856 31858 28
25487 31856 31859 28
25488 31856 31860 28
25489 31861 31862 28
25490 31861 31863 28
25491 31861 31864 28
25492 31861 31865 28
25493 31866 31867 28
25494 31866 31868 28
25495 31866 31869 28
25496 31866 31870 28
25497 31871 31872 28
25498 31871 31873 28
25499 31871 31874 28
25500 31871 31875 28
25501 31876 31877 28
25502 31876 31878 28
25503 31876 31879 28
25504 31876 31880 28
25505 31881 31882 28
25506 31881 31883 28
25507 31881 31884 28
25508 31881 31885 28
25509 31886 31887 28
25510 31886 31888 28
25511 31886 31889 28
25512 31886 31890 28
25513 31891 31892 28
25514 31891 31893 28
25515 31891 31894 28
25516 31891 31895 28
25517 31896 31897 28
25518 31896 31898 28
25519 31896 31899 28
25520 31896 31900 28
25521 31901 31902 28
25522 31901 31903 28
25523 31901 31904 28
25524 31901 31905 28
25525 31906 31907 28
25526 31906 31908 28
25527 31906 31909 28
25528 31906 31910 28
25529 31911 31912 28
25530 31911 31913 28
25531 31911 31914 28
25532 31911 31915 28
25533 31916 31917 28
25534 31916 31918 28
25535 31916 31919 28
25536 31916 31920 28
25537 31921 31922 28
25538 31921 31923 28
25539 31921 31924 28
25540 31921 31925 28
25541 31926 31927 28
25542 31926 31928 28
25543 31926 31929 28
25544 31926 31930 28
25545 31931 31932 28
25546 31931 31933 28
25547 31931 31934 28
25548 31931 31935 28
25549 31936 31937 28
25550 31936 31938 28
25551 31936 31939 28
25552 31936 31940 28
25553 31941 31942 28
25554 31941 31943 28
25555 31941 31944 28
25556 31941 31945 28
25557 31946 31947 28
25558 31946 31948 28
25559 31946 31949 28
25560 31946 31950 28
25561 31951 31952 28
25562 31951 31953 28
25563 31951 31954 28
25564 31951 31955 28
25565 31956 31957 28
25566 31956 31958 28
25567 31956 31959 28
25568 31956 31960 28
25569 31961 31962 28
25570 31961 31963 28
25571 31961 31964 28
25572 31961 31965 28
25573 31966 31967 28
25574 31966 31968 28
25575 31966 31969 28
25576 31966 31970 28
25577 31971 31972 28
25578 31971 31973 28
25579 31971 31974 28
25580 31971 31975 28
25581 31976 31977 28
25582 31976 31978 28
25583 31976 31979 28
25584 31976 31980 28
25585 31981 31982 28
25586 31981 31983 28
25587 31981 31984 28
25588 31981 31985 28
25589 31986 31987 28
25590 31986 31988 28
25591 31986 31989 28
25592 31986 31990 28
25593 31991 31992 28
25594 31991 31993 28
25595 31991 31994 28
25596 31991 31995 28
25597 31996 31997 28
25598 31996 31998 28
25599 31996 31999 28
25600 31996 32000 28
25601 32001 32002 28
25602 32001 32003 28
25603 32001 32004 28
25604 32001 32005 28
25605 32006 32007 28
25606 32006 32008 28
25607 32006 32009 28
25608 32006 32010 28
25609 32011 32012 28
25610 32011 32013 28
25611 32011 32014 28
25612 32011 32015 28
25613 32016 32017 28
25614 32016 32018 28
25615 32016 32019 28
25616 32016 32020 28
25617 32021 32022 28
25618 32021 32023 28
25619 32021 32024 28
25620 32021 32025 28
25621 32026 32027 28
25622 32026 32028 28
25623 32026 32029 28
25624 32026 32030 28
25625 32031 32032 28
25626 32031 32033 28
25627 32031 32034 28
25628 32031 32035 28
25629 32036 32037 28
25630 32036 32038 28
25631 32036 32039 28
25632 32036 32040 28
25633 32041 32042 28
25634 32041 32043 28
25635 32041 32044 28
25636 32041 32045 28
25637 32046 32047 28
25638 32046 32048 28
25639 32046 32049 28
25640 32046 32050 28
25641 32051 32052 28
25642 32051 32053 28
25643 32051 32054 28
25644 32051 32055 28
25645 32056 32057 28
25646 32056 32058 28
25647 32056 32059 28
25648 32056 32060 28
25649 32061 32062 28
25650 32061 32063 28
25651 32061 32064 28
25652 32061 32065 28
25653 32066 32067 28
25654 32066 32068 28
25655 32066 32069 28
25656 32066 32070 28
25657 32071 32072 28
25658 32071 32073 28
25659 32071 32074 28
25660 32071 32075 28
25661 32076 32077 28
25662 32076 32078 28
25663 32076 32079 28
25664 32076 32080 28
25665 32081 32082 28
25666 32081 32083 28
25667 32081 32084 28
25668 32081 32085 28
25669 32086 32087 28
25670 32086 32088 28
25671 32086 32089 28
25672 32086 32090 28
25673 32091 32092 28
25674 32091 32093 28
25675 32091 32094 28
25676 32091 32095 28
25677 32096 32097 28
25678 32096 32098 28
25679 32096 32099 28
25680 32096 32100 28
25681 32101 32102 28
25682 32101 32103 28
25683 32101 32104 28
25684 32101 32105 28
25685 32106 32107 28
25686 32106 32108 28
25687 32106 32109 28
25688 32106 32110 28
25689 32111 32112 28
25690 32111 32113 28
25691 32111 32114 28
25692 32111 32115 28
25693 32116 32117 28
25694 32116 32118 28
25695 32116 32119 28
25696 32116 32120 28
25697 32121 32122 28
25698 32121 32123 28
25699 32121 32124 28
25700 32121 32125 28
25701 32126 32127 28
25702 32126 32128 28
25703 32126 32129 28
25704 32126 32130 28
25705 32131 32132 28
25706 32131 32133 28
25707 32131 32134 28
25708 32131 32135 28
25709 32136 32137 28
25710 32136 32138 28
25711 32136 32139 28
25712 32136 32140 28
25713 32141 32142 28
25714 32141 32143 28
25715 32141 32144 28
25716 32141 32145 28
25717 32146 32147 28
25718 32146 32148 28
25719 32146 32149 28
25720 32146 32150 28
25721 32151 32152 28
25722 32151 32153 28
25723 32151 32154 28
25724 32151 32155 28
25725 32156 32157 28
25726 32156 32158 28
25727 32156 32159 28
25728 32156 32160 28
25729 32161 32162 28
25730 32161 32163 28
25731 32161 32164 28
25732 32161 32165 28
25733 32166 32167 28
25734 32166 32168 28
25735 32166 32169 28
25736 32166 32170 28
25737 32171 32172 28
25738 32171 32173 28
25739 32171 32174 28
25740 32171 32175 28
25741 32176 32177 28
25742 32176 32178 28
25743 32176 32179 28
25744 32176 32180 28
25745 32181 32182 28
25746 32181 32183 28
25747 32181 32184 28
25748 32181 32185 28
25749 32186 32187 28
25750 32186 32188 28
25751 32186 32189 28
25752 32186 32190 28
25753 32191 32192 28
25754 32191 32193 28
25755 32191 32194 28
25756 32191 32195 28
25757 32196 32197 28
25758 32196 32198 28
25759 32196 32199 28
25760 32196 32200 28
25761 32201 32202 28
25762 32201 32203 28
25763 32201 32204 28
25764 32201 32205 28
25765 32206 32207 28
25766 32206 32208 28
25767 32206 32209 28
25768 32206 32210 28
25769 32211 32212 28
25770 32211 32213 28
25771 32211 32214 28
25772 32211 32215 28
25773 32216 32217 28
25774 32216 32218 28
25775 32216 32219 28
25776 32216 32220 28
25777 32221 32222 28
25778 32221 32223 28
25779 32221 32224 28
25780 32221 32225 28
25781 32226 32227 28
25782 32226 32228 28
25783 32226 32229 28
25784 32226 32230 28
25785 32231 32232 28
25786 32231 32233 28
25787 32231 32234 28
25788 32231 32235 28
25789 32236 32237 28
25790 32236 32238 28
25791 32236 32239 28
25792 32236 32240 28
25793 32241 32242 28
25794 32241 32243 28
25795 32241 32244 28
25796 32241 32245 28
25797 32246 32247 28
25798 32246 32248 28
25799 32246 32249 28
25800 32246 32250 28
25801 32251 32252 28
25802 32251 32253 28
25803 32251 32254 28
25804 32251 32255 28
25805 32256 32257 28
25806 32256 32258 28
25807 32256 32259 28
25808 32256 32260 28
25809 32261 32262 28
25810 32261 32263 28
25811 32261 32264 28
25812 32261 32265 28
25813 32266 32267 28
25814 32266 32268 28
25815 32266 32269 28
25816 32266 32270 28
25817 32271 32272 28
25818 32271 32273 28
25819 32271 32274 28
25820 32271 32275 28
25821 32276 32277 28
25822 32276 32278 28
25823 32276 32279 28
25824 32276 32280 28
25825 32281 32282 28
25826 32281 32283 28
25827 32281 32284 28
25828 32281 32285 28
25829 32286 32287 28
25830 32286 32288 28
25831 32286 32289 28
25832 32286 32290 28
25833 32291 32292 28
25834 32291 32293 28
25835 32291 32294 28
25836 32291 32295 28
25837 32296 32297 28
25838 32296 32298 28
25839 32296 32299 28
25840 32296 32300 28
25841 32301 32302 28
25842 32301 32303 28
25843 32301 32304 28
25844 32301 32305 28
25845 32306 32307 28
25846 32306 32308 28
25847 32306 32309 28
25848 32306 32310 28
25849 32311 32312 28
25850 32311 32313 28
25851 32311 32314 28
25852 32311 32315 28
25853 32316 32317 28
25854 32316 32318 28
25855 32316 32319 28
25856 32316 32320 28
25857 32321 32322 28
25858 32321 32323 28
25859 32321 32324 28
25860 32321 32325 28
25861 32326 32327 28
25862 32326 32328 28
25863 32326 32329 28
25864 32326 32330 28
25865 32331 32332 28
25866 32331 32333 28
25867 32331 32334 28
25868 32331 32335 28
25869 32336 32337 28
25870 32336 32338 28
25871 32336 32339 28
25872 32336 32340 28
25873 32341 32342 28
25874 32341 32343 28
25875 32341 32344 28
25876 32341 32345 28
25877 32346 32347 28
25878 32346 32348 28
25879 32346 32349 28
25880 32346 32350 28
25881 32351 32352 28
25882 32351 32353 28
25883 32351 32354 28
25884 32351 32355 28
25885 32356 32357 28
25886 32356 32358 28
25887 32356 32359 28
25888 32356 32360 28
25889 32361 32362 28
25890 32361 32363 28
25891 32361 32364 28
25892 32361 32365 28
25893 32366 32367 28
25894 32366 32368 28
25895 32366 32369 28
25896 32366 32370 28
25897 32371 32372 28
25898 32371 32373 28
25899 32371 32374 28
25900 32371 32375 28
25901 32376 32377 28
25902 32376 32378 28
25903 32376 32379 28
25904 32376 32380 28
25905 32381 32382 28
25906 32381 32383 28
25907 32381 32384 28
25908 32381 32385 28
25909 32386 32387 28
25910 32386 32388 28
25911 32386 32389 28
25912 32386 32390 28
25913 32391 32392 28
25914 32391 32393 28
25915 32391 32394 28
25916 32391 32395 28
25917 32396 32397 28
25918 32396 32398 28
25919 32396 32399 28
25920 32396 32400 28
25921 32401 32402 28
25922 32401 32403 28
25923 32401 32404 28
25924 32401 32405 28
25925 32406 32407 28
25926 32406 32408 28
25927 32406 32409 28
25928 32406 32410 28
25929 32411 32412 28
25930 32411 32413 28
25931 32411 32414 28
25932 32411 32415 28
25933 32416 32417 28
25934 32416 32418 28
25935 32416 32419 28
25936 32416 32420 28
25937 32421 32422 28
25938 32421 32423 28
25939 32421 32424 28
25940 32421 32425 28
25941 32426 32427 28
25942 32426 32428 28
25943 32426 32429 28
25944 32426 32430 28
25945 32431 32432 28
25946 32431 32433 28
25947 32431 32434 28
25948 32431 32435 28
25949 32436 32437 28
25950 32436 32438 28
25951 32436 32439 28
25952 32436 32440 28
25953 32441 32442 28
25954 32441 32443 28
25955 32441 32444 28
25956 32441 32445 28
25957 32446 32447 28
25958 32446 32448 28
25959 32446 32449 28
25960 32446 32450 28
25961 32451 32452 28
25962 32451 32453 28
25963 32451 32454 28
25964 32451 32455 28
25965 32456 32457 28
25966 32456 32458 28
25967 32456 32459 28
25968 32456 32460 28
25969 32461 32462 28
25970 32461 32463 28
25971 32461 32464 28
25972 32461 32465 28
25973 32466 32467 28
25974 32466 32468 28
25975 32466 32469 28
25976 32466 32470 28
25977 32471 32472 28
25978 32471 32473 28
25979 32471 32474 28
25980 32471 32475 28
25981 32476 32477 28
25982 32476 32478 28
25983 32476 32479 28
25984 32476 32480 28
25985 32481 32482 28
25986 32481 32483 28
25987 32481 32484 28
25988 32481 32485 28
25989 32486 32487 28
25990 32486 32488 28
25991 32486 32489 28
25992 32486 32490 28
25993 32491 32492 28
25994 32491 32493 28
25995 32491 32494 28
25996 32491 32495 28
25997 32496 32497 28
25998 32496 32498 28
25999 32496 32499 28
26000 32496 32500 28
26001 32501 32502 28
26002 32501 32503 28
26003 32501 32504 28
26004 32501 32505 28
26005 32506 32507 28
26006 32506 32508 28
26007 32506 32509 28
26008 32506 32510 28
26009 32511 32512 28
26010 32511 32513 28
26011 32511 32514 28
26012 32511 32515 28
26013 32516 32517 28
26014 32516 32518 28
26015 32516 32519 28
26016 32516 32520 28
26017 32521 32522 28
26018 32521 32523 28
26019 32521 32524 28
26020 32521 32525 28
26021 32526 32527 28
26022 32526 32528 28
26023 32526 32529 28
26024 32526 32530 28
26025 32531 32532 28
26026 32531 32533 28
26027 32531 32534 28
26028 32531 32535 28
26029 32536 32537 28
26030 32536 32538 28
26031 32536 32539 28
26032 32536 32540 28
26033 32541 32542 28
26034 32541 32543 28
26035 32541 32544 28
26036 32541 32545 28
26037 32546 32547 28
26038 32546 32548 28
26039 32546 32549 28
26040 32546 32550 28
26041 32551 32552 28
26042 32551 32553 28
26043 32551 32554 28
26044 32551 32555 28
26045 32556 32557 28
26046 32556 32558 28
26047 32556 32559 28
26048 32556 32560 28
26049 32561 32562 28
26050 32561 32563 28
26051 32561 32564 28
26052 32561 32565 28
26053 32566 32567 28
26054 32566 32568 28
26055 32566 32569 28
26056 32566 32570 28
26057 32571 32572 28
26058 32571 32573 28
26059 32571 32574 28
26060 32571 32575 28
26061 32576 32577 28
26062 32576 32578 28
26063 32576 32579 28
26064 32576 32580 28
26065 32581 32582 28
26066 32581 32583 28
26067 32581 32584 28
26068 32581 32585 28
26069 32586 32587 28
26070 32586 32588 28
26071 32586 32589 28
26072 32586 32590 28
26073 32591 32592 28
26074 32591 32593 28
26075 32591 32594 28
26076 32591 32595 28
26077 32596 32597 28
26078 32596 32598 28
26079 32596 32599 28
26080 32596 32600 28
26081 32601 32602 28
26082 32601 32603 28
26083 32601 32604 28
26084 32601 32605 28
26085 32606 32607 28
26086 32606 32608 28
26087 32606 32609 28
26088 32606 32610 28
26089 32611 32612 28
26090 32611 32613 28
26091 32611 32614 28
26092 32611 32615 28
26093 32616 32617 28
26094 32616 32618 28
26095 32616 32619 28
26096 32616 32620 28
26097 32621 32622 28
26098 32621 32623 28
26099 32621 32624 28
26100 32621 32625 28
26101 32626 32627 28
26102 32626 32628 28
26103 32626 32629 28
26104 32626 32630 28
26105 32631 32632 28
26106 32631 32633 28
26107 32631 32634 28
26108 32631 32635 28
26109 32636 32637 28
26110 32636 32638 28
26111 32636 32639 28
26112 32636 32640 28
26113 32641 32642 28
26114 32641 32643 28
26115 32641 32644 28
26116 32641 32645 28
26117 32646 32647 28
26118 32646 32648 28
26119 32646 32649 28
26120 32646 32650 28
26121 32651 32652 28
26122 32651 32653 28
26123 32651 32654 28
26124 32651 32655 28
26125 32656 32657 28
26126 32656 32658 28
26127 32656 32659 28
26128 32656 32660 28
26129 32661 32662 28
26130 32661 32663 28
26131 32661 32664 28
26132 32661 32665 28
26133 32666 32667 28
26134 32666 32668 28
26135 32666 32669 28
26136 32666 32670 28
26137 32671 32672 28
26138 32671 32673 28
26139 32671 32674 28
26140 32671 32675 28
26141 32676 32677 28
26142 32676 32678 28
26143 32676 32679 28
26144 32676 32680 28
26145 32681 32682 28
26146 32681 32683 28
26147 32681 32684 28
26148 32681 32685 28
26149 32686 32687 28
26150 32686 32688 28
26151 32686 32689 28
26152 32686 32690 28
26153 32691 32692 28
26154 32691 32693 28
26155 32691 32694 28
26156 32691 32695 28
26157 32696 32697 28
26158 32696 32698 28
26159 32696 32699 28
26160 32696 32700 28
26161 32701 32702 28
26162 32701 32703 28
26163 32701 32704 28
26164 32701 32705 28
26165 32706 32707 28
26166 32706 32708 28
26167 32706 32709 28
26168 32706 32710 28
26169 32711 32712 28
26170 32711 32713 28
26171 32711 32714 28
26172 32711 32715 28
26173 32716 32717 28
26174 32716 32718 28
26175 32716 32719 28
26176 32716 32720 28
26177 32721 32722 28
26178 32721 32723 28
26179 32721 32724 28
26180 32721 32725 28
26181 32726 32727 28
26182 32726 32728 28
26183 32726 32729 28
26184 32726 32730 28
26185 32731 32732 28
26186 32731 32733 28
26187 32731 32734 28
26188 32731 32735 28
26189 32736 32737 28
26190 32736 32738 28
26191 32736 32739 28
26192 32736 32740 28
26193 32741 32742 28
26194 32741 32743 28
26195 32741 32744 28
26196 32741 32745 28
26197 32746 32747 28
26198 32746 32748 28
26199 32746 32749 28
26200 32746 32750 28
26201 32751 32752 28
26202 32751 32753 28
26203 32751 32754 28
26204 32751 32755 28
26205 32756 32757 28
26206 32756 32758 28
26207 32756 32759 28
26208 32756 32760 28
26209 32761 32762 28
26210 32761 32763 28
26211 32761 32764 28
26212 32761 32765 28
26213 32766 32767 28
26214 32766 32768 28
26215 32766 32769 28
26216 32766 32770 28
26217 32771 32772 28
26218 32771 32773 28
26219 32771 32774 28
26220 32771 32775 28
26221 32776 32777 28
26222 32776 32778 28
26223 32776 32779 28
26224 32776 32780 28
26225 32781 32782 28
26226 32781 32783 28
26227 32781 32784 28
26228 32781 32785 28
26229 32786 32787 28
26230 32786 32788 28
26231 32786 32789 28
26232 32786 32790 28
26233 32791 32792 28
26234 32791 32793 28
26235 32791 32794 28
26236 32791 32795 28
26237 32796 32797 28
26238 32796 32798 28
26239 32796 32799 28
26240 32796 32800 28
26241 32801 32802 28
26242 32801 32803 28
26243 32801 32804 28
26244 32801 32805 28
26245 32806 32807 28
26246 32806 32808 28
26247 32806 32809 28
26248 32806 32810 28
26249 32811 32812 28
26250 32811 32813 28
26251 32811 32814 28
26252 32811 32815 28
26253 32816 32817 28
26254 32816 32818 28
26255 32816 32819 28
26256 32816 32820 28
26257 32821 32822 28
26258 32821 32823 28
26259 32821 32824 28
26260 32821 32825 28
26261 32826 32827 28
26262 32826 32828 28
26263 32826 32829 28
26264 32826 32830 28
26265 32831 32832 28
26266 32831 32833 28
26267 32831 32834 28
26268 32831 32835 28
26269 32836 32837 28
26270 32836 32838 28
26271 32836 32839 28
26272 32836 32840 28
26273 32841 32842 28
26274 32841 32843 28
26275 32841 32844 28
26276 32841 32845 28
26277 32846 32847 28
26278 32846 32848 28
26279 32846 32849 28
26280 32846 32850 28
26281 32851 32852 28
26282 32851 32853 28
26283 32851 32854 28
26284 32851 32855 28
26285 32856 32857 28
26286 32856 32858 28
26287 32856 32859 28
26288 32856 32860 28
26289 32861 32862 28
26290 32861 32863 28
26291 32861 32864 28
26292 32861 32865 28
26293 32866 32867 28
26294 32866 32868 28
26295 32866 32869 28
26296 32866 32870 28
26297 32871 32872 28
26298 32871 32873 28
26299 32871 32874 28
26300 32871 32875 28
26301 32876 32877 28
26302 32876 32878 28
26303 32876 32879 28
26304 32876 32880 28
26305 32881 32882 28
26306 32881 32883 28
26307 32881 32884 28
26308 32881 32885 28
26309 32886 32887 28
26310 32886 32888 28
26311 32886 32889 28
26312 32886 32890 28
26313 32891 32892 28
26314 32891 32893 28
26315 32891 32894 28
26316 32891 32895 28
26317 32896 32897 28
26318 32896 32898 28
26319 32896 32899 28
26320 32896 32900 28
26321 32901 32902 28
26322 32901 32903 28
26323 32901 32904 28
26324 32901 32905 28
26325 32906 32907 28
26326 32906 32908 28
26327 32906 32909 28
26328 32906 32910 28
26329 32911 32912 28
26330 32911 32913 28
26331 32911 32914 28
26332 32911 32915 28
26333 32916 32917 28
26334 32916 32918 28
26335 32916 32919 28
26336 32916 32920 28
26337 32921 32922 28
26338 32921 32923 28
26339 32921 32924 28
26340 32921 32925 28
26341 32926 32927 28
26342 32926 32928 28
26343 32926 32929 28
26344 32926 32930 28
26345 32931 32932 28
26346 32931 32933 28
26347 32931 32934 28
26348 32931 32935 28
26349 32936 32937 28
26350 32936 32938 28
26351 32936 32939 28
26352 32936 32940 28
26353 32941 32942 28
26354 32941 32943 28
26355 32941 32944 28
26356 32941 32945 28
26357 32946 32947 28
26358 32946 32948 28
26359 32946 32949 28
26360 32946 32950 28
26361 32951 32952 28
26362 32951 32953 28
26363 32951 32954 28
26364 32951 32955 28
26365 32956 32957 28
26366 32956 32958 28
26367 32956 32959 28
26368 32956 32960 28
26369 32961 32962 28
26370 32961 32963 28
26371 32961 32964 28
26372 32961 32965 28
26373 32966 32967 28
26374 32966 32968 28
26375 32966 32969 28
26376 32966 32970 28
26377 32971 32972 28
26378 32971 32973 28
26379 32971 32974 28
26380 32971 32975 28
26381 32976 32977 28
26382 32976 32978 28
26383 32976 32979 28
26384 32976 32980 28
26385 32981 32982 28
26386 32981 32983 28
26387 32981 32984 28
26388 32981 32985 28
26389 32986 32987 28
26390 32986 32988 28
26391 32986 32989 28
26392 32986 32990 28
26393 32991 32992 28
26394 32991 32993 28
26395 32991 32994 28
26396 32991 32995 28
26397 32996 32997 28
26398 32996 32998 28
26399 32996 32999 28
26400 32996 33000 28
26401 33001 33002 28
26402 33001 33003 28
26403 33001 33004 28
26404 33001 33005 28
26405 33006 33007 28
26406 33006 33008 28
26407 33006 33009 28
26408 33006 33010 28
26409 33011 33012 28
26410 33011 33013 28
26411 33011 33014 28
26412 33011 33015 28
26413 33016 33017 28
26414 33016 33018 28
26415 33016 33019 28
26416 33016 33020 28
26417 33021 33022 28
26418 33021 33023 28
26419 33021 33024 28
26420 33021 33025 28
26421 33026 33027 28
26422 33026 33028 28
26423 33026 33029 28
26424 33026 33030 28
26425 33031 33032 28
26426 33031 33033 28
26427 33031 33034 28
26428 33031 33035 28
26429 33036 33037 28
26430 33036 33038 28
26431 33036 33039 28
26432 33036 33040 28
26433 33041 33042 28
26434 33041 33043 28
26435 33041 33044 28
26436 33041 33045 28
26437 33046 33047 28
26438 33046 33048 28
26439 33046 33049 28
26440 33046 33050 28
26441 33051 33052 28
26442 33051 33053 28
26443 33051 33054 28
26444 33051 33055 28
26445 33056 33057 28
26446 33056 33058 28
26447 33056 33059 28
26448 33056 33060 28
26449 33061 33062 28
26450 33061 33063 28
26451 33061 33064 28
26452 33061 33065 28
26453 33066 33067 28
26454 33066 33068 28
26455 33066 33069 28
26456 33066 33070 28
26457 33071 33072 28
26458 33071 33073 28
26459 33071 33074 28
26460 33071 33075 28
26461 33076 33077 28
26462 33076 33078 28
26463 33076 33079 28
26464 33076 33080 28
26465 33081 33082 28
26466 33081 33083 28
26467 33081 33084 28
26468 33081 33085 28
26469 33086 33087 28
26470 33086 33088 28
26471 33086 33089 28
26472 33086 33090 28
26473 33091 33092 28
26474 33091 33093 28
26475 33091 33094 28
26476 33091 33095 28
26477 33096 33097 28
26478 33096 33098 28
26479 33096 33099 28
26480 33096 33100 28
26481 33101 33102 28
26482 33101 33103 28
26483 33101 33104 28
26484 33101 33105 28
26485 33106 33107 28
26486 33106 33108 28
26487 33106 33109 28
26488 33106 33110 28
26489 33111 33112 28
26490 33111 33113 28
26491 33111 33114 28
26492 33111 33115 28
26493 33116 33117 28
26494 33116 33118 28
26495 33116 33119 28
26496 33116 33120 28
26497 33121 33122 28
26498 33121 33123 28
26499 33121 33124 28
26500 33121 33125 28
26501 33126 33127 28
26502 33126 33128 28
26503 33126 33129 28
26504 33126 33130 28
26505 33131 33132 28
26506 33131 33133 28
26507 33131 33134 28
26508 33131 33135 28
26509 33136 33137 28
26510 33136 33138 28
26511 33136 33139 28
26512 33136 33140 28
26513 33141 33142 28
26514 33141 33143 28
26515 33141 33144 28
26516 33141 33145 28
26517 33146 33147 28
26518 33146 33148 28
26519 33146 33149 28
26520 33146 33150 28
26521 33151 33152 28
26522 33151 33153 28
26523 33151 33154 28
26524 33151 33155 28
26525 33156 33157 28
26526 33156 33158 28
26527 33156 33159 28
26528 33156 33160 28
26529 33161 33162 28
26530 33161 33163 28
26531 33161 33164 28
26532 33161 33165 28
26533 33166 33167 28
26534 33166 33168 28
26535 33166 33169 28
26536 33166 33170 28
26537 33171 33172 28
26538 33171 33173 28
26539 33171 33174 28
26540 33171 33175 28
26541 33176 33177 28
26542 33176 33178 28
26543 33176 33179 28
26544 33176 33180 28
26545 33181 33182 28
26546 33181 33183 28
26547 33181 33184 28
26548 33181 33185 28
26549 33186 33187 28
26550 33186 33188 28
26551 33186 33189 28
26552 33186 33190 28
26553 33191 33192 28
26554 33191 33193 28
26555 33191 33194 28
26556 33191 33195 28
26557 33196 33197 28
26558 33196 33198 28
26559 33196 33199 28
26560 33196 33200 28
26561 33201 33202 28
26562 33201 33203 28
26563 33201 33204 28
26564 33201 33205 28
26565 33206 33207 28
26566 33206 33208 28
26567 33206 33209 28
26568 33206 33210 28
26569 33211 33212 28
26570 33211 33213 28
26571 33211 33214 28
26572 33211 33215 28
26573 33216 33217 28
26574 33216 33218 28
26575 33216 33219 28
26576 33216 33220 28
26577 33221 33222 28
26578 33221 33223 28
26579 33221 33224 28
26580 33221 33225 28
26581 33226 33227 28
26582 33226 33228 28
26583 33226 33229 28
26584 33226 33230 28
26585 33231 33232 28
26586 33231 33233 28
26587 33231 33234 28
26588 33231 33235 28
26589 33236 33237 28
26590 33236 33238 28
26591 33236 33239 28
26592 33236 33240 28
26593 33241 33242 28
26594 33241 33243 28
26595 33241 33244 28
26596 33241 33245 28
26597 33246 33247 28
26598 33246 33248 28
26599 33246 33249 28
26600 33246 33250 28
26601 33251 33252 28
26602 33251 33253 28
26603 33251 33254 28
26604 33251 33255 28
26605 33256 33257 28
26606 33256 33258 28
26607 33256 33259 28
26608 33256 33260 28
26609 33261 33262 28
26610 33261 33263 28
26611 33261 33264 28
26612 33261 33265 28
26613 33266 33267 28
26614 33266 33268 28
26615 33266 33269 28
26616 33266 33270 28
26617 33271 33272 28
26618 33271 33273 28
26619 33271 33274 28
26620 33271 33275 28
26621 33276 33277 28
26622 33276 33278 28
26623 33276 33279 28
26624 33276 33280 28
26625 33281 33282 28
26626 33281 33283 28
26627 33281 33284 28
26628 33281 33285 28
26629 33286 33287 28
26630 33286 33288 28
26631 33286 33289 28
26632 33286 33290 28
26633 33291 33292 28
26634 33291 33293 28
26635 33291 33294 28
26636 33291 33295 28
26637 33296 33297 28
26638 33296 33298 28
26639 33296 33299 28
26640 33296 33300 28
26641 33301 33302 28
26642 33301 33303 28
26643 33301 33304 28
26644 33301 33305 28
26645 33306 33307 28
26646 33306 33308 28
26647 33306 33309 28
26648 33306 33310 28
26649 33311 33312 28
26650 33311 33313 28
26651 33311 33314 28
26652 33311 33315 28
26653 33316 33317 28
26654 33316 33318 28
26655 33316 33319 28
26656 33316 33320 28
26657 33321 33322 28
26658 33321 33323 28
26659 33321 33324 28
26660 33321 33325 28
26661 33326 33327 28
26662 33326 33328 28
26663 33326 33329 28
26664 33326 33330 28
26665 33331 33332 28
26666 33331 33333 28
26667 33331 33334 28
26668 33331 33335 28
26669 33336 33337 28
26670 33336 33338 28
26671 33336 33339 28
26672 33336 33340 28
26673 33341 33342 28
26674 33341 33343 28
26675 33341 33344 28
26676 33341 33345 28
26677 33346 33347 28
26678 33346 33348 28
26679 33346 33349 28
26680 33346 33350 28
26681 33351 33352 28
26682 33351 33353 28
26683 33351 33354 28
26684 33351 33355 28
26685 33356 33357 28
26686 33356 33358 28
26687 33356 33359 28
26688 33356 33360 28
26689 33361 33362 28
26690 33361 33363 28
26691 33361 33364 28
26692 33361 33365 28
26693 33366 33367 28
26694 33366 33368 28
26695 33366 33369 28
26696 33366 33370 28
26697 33371 33372 28
26698 33371 33373 28
26699 33371 33374 28
26700 33371 33375 28
26701 33376 33377 28
26702 33376 33378 28
26703 33376 33379 28
26704 33376 33380 28
26705 33381 33382 28
26706 33381 33383 28
26707 33381 33384 28
26708 33381 33385 28
26709 33386 33387 28
26710 33386 33388 28
26711 33386 33389 28
26712 33386 33390 28
26713 33391 33392 28
26714 33391 33393 28
26715 33391 33394 28
26716 33391 33395 28
26717 33396 33397 28
26718 33396 33398 28
26719 33396 33399 28
26720 33396 33400 28
26721 33401 33402 28
26722 33401 33403 28
26723 33401 33404 28
26724 33401 33405 28
26725 33406 33407 28
26726 33406 33408 28
26727 33406 33409 28
26728 33406 33410 28
26729 33411 33412 28
26730 33411 33413 28
26731 33411 33414 28
26732 33411 33415 28
26733 33416 33417 28
26734 33416 33418 28
26735 33416 33419 28
26736 33416 33420 28
26737 33421 33422 28
26738 33421 33423 28
26739 33421 33424 28
26740 33421 33425 28
26741 33426 33427 28
26742 33426 33428 28
26743 33426 33429 28
26744 33426 33430 28
26745 33431 33432 28
26746 33431 33433 28
26747 33431 33434 28
26748 33431 33435 28
26749 33436 33437 28
26750 33436 33438 28
26751 33436 33439 28
26752 33436 33440 28
26753 33441 33442 28
26754 33441 33443 28
26755 33441 33444 28
26756 33441 33445 28
26757 33446 33447 28
26758 33446 33448 28
26759 33446 33449 28
26760 33446 33450 28
26761 33451 33452 28
26762 33451 33453 28
26763 33451 33454 28
26764 33451 33455 28
26765 33456 33457 28
26766 33456 33458 28
26767 33456 33459 28
26768 33456 33460 28
26769 33461 33462 28
26770 33461 33463 28
26771 33461 33464 28
26772 33461 33465 28
26773 33466 33467 28
26774 33466 33468 28
26775 33466 33469 28
26776 33466 33470 28
26777 33471 33472 28
26778 33471 33473 28
26779 33471 33474 28
26780 33471 33475 28
26781 33476 33477 28
26782 33476 33478 28
26783 33476 33479 28
26784 33476 33480 28
26785 33481 33482 28
26786 33481 33483 28
26787 33481 33484 28
26788 33481 33485 28
26789 33486 33487 28
26790 33486 33488 28
26791 33486 33489 28
26792 33486 33490 28
26793 33491 33492 28
26794 33491 33493 28
26795 33491 33494 28
26796 33491 33495 28
26797 33496 33497 28
26798 33496 33498 28
26799 33496 33499 28
26800 33496 33500 28
26801 33501 33502 28
26802 33501 33503 28
26803 33501 33504 28
26804 33501 33505 28
26805 33506 33507 28
26806 33506 33508 28
26807 33506 33509 28
26808 33506 33510 28
26809 33511 33512 28
26810 33511 33513 28
26811 33511 33514 28
26812 33511 33515 28
26813 33516 33517 28
26814 33516 33518 28
26815 33516 33519 28
26816 33516 33520 28
26817 33521 33522 28
26818 33521 33523 28
26819 33521 33524 28
26820 33521 33525 28
26821 33526 33527 28
26822 33526 33528 28
26823 33526 33529 28
26824 33526 33530 28
26825 33531 33532 28
26826 33531 33533 28
26827 33531 33534 28
26828 33531 33535 28
26829 33536 33537 28
26830 33536 33538 28
26831 33536 33539 28
26832 33536 33540 28
26833 33541 33542 28
26834 33541 33543 28
26835 33541 33544 28
26836 33541 33545 28
26837 33546 33547 28
26838 33546 33548 28
26839 33546 33549 28
26840 33546 33550 28
26841 33551 33552 28
26842 33551 33553 28
26843 33551 33554 28
26844 33551 33555 28
26845 33556 33557 28
26846 33556 33558 28
26847 33556 33559 28
26848 33556 33560 28
26849 33561 33562 28
26850 33561 33563 28
26851 33561 33564 28
26852 33561 33565 28
26853 33566 33567 28
26854 33566 33568 28
26855 33566 33569 28
26856 33566 33570 28
26857 33571 33572 28
26858 33571 33573 28
26859 33571 33574 28
26860 33571 33575 28
26861 33576 33577 28
26862 33576 33578 28
26863 33576 33579 28
26864 33576 33580 28
26865 33581 33582 28
26866 33581 33583 28
26867 33581 33584 28
26868 33581 33585 28
26869 33586 33587 28
26870 33586 33588 28
26871 33586 33589 28
26872 33586 33590 28
26873 33591 33592 28
26874 33591 33593 28
26875 33591 33594 28
26876 33591 33595 28
26877 33596 33597 28
26878 33596 33598 28
26879 33596 33599 28
26880 33596 33600 28
26881 33601 33602 28
26882 33601 33603 28
26883 33601 33604 28
26884 33601 33605 28
26885 33606 33607 28
26886 33606 33608 28
26887 33606 33609 28
26888 33606 33610 28
26889 33611 33612 28
26890 33611 33613 28
26891 33611 33614 28
26892 33611 33615 28
26893 33616 33617 28
26894 33616 33618 28
26895 33616 33619 28
26896 33616 33620 28
26897 33621 33622 28
26898 33621 33623 28
26899 33621 33624 28
26900 33621 33625 28
26901 33626 33627 28
26902 33626 33628 28
26903 33626 33629 28
26904 33626 33630 28
26905 33631 33632 28
26906 33631 33633 28
26907 33631 33634 28
26908 33631 33635 28
26909 33636 33637 28
26910 33636 33638 28
26911 33636 33639 28
26912 33636 33640 28
26913 33641 33642 28
26914 33641 33643 28
26915 33641 33644 28
26916 33641 33645 28
26917 33646 33647 28
26918 33646 33648 28
26919 33646 33649 28
26920 33646 33650 28
26921 33651 33652 28
26922 33651 33653 28
26923 33651 33654 28
26924 33651 33655 28
26925 33656 33657 28
26926 33656 33658 28
26927 33656 33659 28
26928 33656 33660 28
26929 33661 33662 28
26930 33661 33663 28
26931 33661 33664 28
26932 33661 33665 28
26933 33666 33667 28
26934 33666 33668 28
26935 33666 33669 28
26936 33666 33670 28
26937 33671 33672 28
26938 33671 33673 28
26939 33671 33674 28
26940 33671 33675 28
26941 33676 33677 28
26942 33676 33678 28
26943 33676 33679 28
26944 33676 33680 28
26945 33681 33682 28
26946 33681 33683 28
26947 33681 33684 28
26948 33681 33685 28
26949 33686 33687 28
26950 33686 33688 28
26951 33686 33689 28
26952 33686 33690 28
26953 33691 33692 28
26954 33691 33693 28
26955 33691 33694 28
26956 33691 33695 28
26957 33696 33697 28
26958 33696 33698 28
26959 33696 33699 28
26960 33696 33700 28
26961 33701 33702 28
26962 33701 33703 28
26963 33701 33704 28
26964 33701 33705 28
26965 33706 33707 28
26966 33706 33708 28
26967 33706 33709 28
26968 33706 33710 28
26969 33711 33712 28
26970 33711 33713 28
26971 33711 33714 28
26972 33711 33715 28
26973 33716 33717 28
26974 33716 33718 28
26975 33716 33719 28
26976 33716 33720 28
26977 33721 33722 28
26978 33721 33723 28
26979 33721 33724 28
26980 33721 33725 28
26981 33726 33727 28
26982 33726 33728 28
26983 33726 33729 28
26984 33726 33730 28
26985 33731 33732 28
26986 33731 33733 28
26987 33731 33734 28
26988 33731 33735 28
26989 33736 33737 28
26990 33736 33738 28
26991 33736 33739 28
26992 33736 33740 28
26993 33741 33742 28
26994 33741 33743 28
26995 33741 33744 28
26996 33741 33745 28
26997 33746 33747 28
26998 33746 33748 28
26999 33746 33749 28
27000 33746 33750 28
27001 33751 33752 28
27002 33751 33753 28
27003 33751 33754 28
27004 33751 33755 28
27005 33756 33757 28
27006 33756 33758 28
27007 33756 33759 28
27008 33756 33760 28
27009 33761 33762 28
27010 33761 33763 28
27011 33761 33764 28
27012 33761 33765 28
27013 33766 33767 28
27014 33766 33768 28
27015 33766 33769 28
27016 33766 33770 28
27017 33771 33772 28
27018 33771 33773 28
27019 33771 33774 28
27020 33771 33775 28
27021 33776 33777 28
27022 33776 33778 28
27023 33776 33779 28
27024 33776 33780 28
27025 33781 33782 28
27026 33781 33783 28
27027 33781 33784 28
27028 33781 33785 28
27029 33786 33787 28
27030 33786 33788 28
27031 33786 33789 28
27032 33786 33790 28
27033 33791 33792 28
27034 33791 33793 28
27035 33791 33794 28
27036 33791 33795 28
27037 33796 33797 28
27038 33796 33798 28
27039 33796 33799 28
27040 33796 33800 28
27041 33801 33802 28
27042 33801 33803 28
27043 33801 33804 28
27044 33801 33805 28
27045 33806 33807 28
27046 33806 33808 28
27047 33806 33809 28
27048 33806 33810 28
27049 33811 33812 28
27050 33811 33813 28
27051 33811 33814 28
27052 33811 33815 28
27053 33816 33817 28
27054 33816 33818 28
27055 33816 33819 28
27056 33816 33820 28
27057 33821 33822 28
27058 33821 33823 28
27059 33821 33824 28
27060 33821 33825 28
27061 33826 33827 28
27062 33826 33828 28
27063 33826 33829 28
27064 33826 33830 28
27065 33831 33832 28
27066 33831 33833 28
27067 33831 33834 28
27068 33831 33835 28
27069 33836 33837 28
27070 33836 33838 28
27071 33836 33839 28
27072 33836 33840 28
27073 33841 33842 28
27074 33841 33843 28
27075 33841 33844 28
27076 33841 33845 28
27077 33846 33847 28
27078 33846 33848 28
27079 33846 33849 28
27080 33846 33850 28
27081 33851 33852 28
27082 33851 33853 28
27083 33851 33854 28
27084 33851 33855 28
27085 33856 33857 28
27086 33856 33858 28
27087 33856 33859 28
27088 33856 33860 28
27089 33861 33862 28
27090 33861 33863 28
27091 33861 33864 28
27092 33861 33865 28
27093 33866 33867 28
27094 33866 33868 28
27095 33866 33869 28
27096 33866 33870 28
27097 33871 33872 28
27098 33871 33873 28
27099 33871 33874 28
27100 33871 33875 28
27101 33876 33877 28
27102 33876 33878 28
27103 33876 33879 28
27104 33876 33880 28
27105 33881 33882 28
27106 33881 33883 28
27107 33881 33884 28
27108 33881 33885 28
27109 33886 33887 28
27110 33886 33888 28
27111 33886 33889 28
27112 33886 33890 28
27113 33891 33892 28
27114 33891 33893 28
27115 33891 33894 28
27116 33891 33895 28
27117 33896 33897 28
27118 33896 33898 28
27119 33896 33899 28
27120 33896 33900 28
27121 33901 33902 28
27122 33901 33903 28
27123 33901 33904 28
27124 33901 33905 28
27125 33906 33907 28
27126 33906 33908 28
27127 33906 33909 28
27128 33906 33910 28
27129 33911 33912 28
27130 33911 33913 28
27131 33911 33914 28
27132 33911 33915 28
27133 33916 33917 28
27134 33916 33918 28
27135 33916 33919 28
27136 33916 33920 28
27137 33921 33922 28
27138 33921 33923 28
27139 33921 33924 28
27140 33921 33925 28
27141 33926 33927 28
27142 33926 33928 28
27143 33926 33929 28
27144 33926 33930 28
27145 33931 33932 28
27146 33931 33933 28
27147 33931 33934 28
27148 33931 33935 28
27149 33936 33937 28
27150 33936 33938 28
27151 33936 33939 28
27152 33936 33940 28
27153 33941 33942 28
27154 33941 33943 28
27155 33941 33944 28
27156 33941 33945 28
27157 33946 33947 28
27158 33946 33948 28
27159 33946 33949 28
27160 33946 33950 28
27161 33951 33952 28
27162 33951 33953 28
27163 33951 33954 28
27164 33951 33955 28
27165 33956 33957 28
27166 33956 33958 28
27167 33956 33959 28
27168 33956 33960 28
27169 33961 33962 28
27170 33961 33963 28
27171 33961 33964 28
27172 33961 33965 28
27173 33966 33967 28
27174 33966 33968 28
27175 33966 33969 28
27176 33966 33970 28
27177 33971 33972 28
27178 33971 33973 28
27179 33971 33974 28
27180 33971 33975 28
27181 33976 33977 28
27182 33976 33978 28
27183 33976 33979 28
27184 33976 33980 28
27185 33981 33982 28
27186 33981 33983 28
27187 33981 33984 28
27188 33981 33985 28
27189 33986 33987 28
27190 33986 33988 28
27191 33986 33989 28
27192 33986 33990 28
27193 33991 33992 28
27194 33991 33993 28
27195 33991 33994 28
27196 33991 33995 28
27197 33996 33997 28
27198 33996 33998 28
27199 33996 33999 28
27200 33996 34000 28
27201 34001 34002 28
27202 34001 34003 28
27203 34001 34004 28
27204 34001 34005 28
27205 34006 34007 28
27206 34006 34008 28
27207 34006 34009 28
27208 34006 34010 28
27209 34011 34012 28
27210 34011 34013 28
27211 34011 34014 28
27212 34011 34015 28
27213 34016 34017 28
27214 34016 34018 28
27215 34016 34019 28
27216 34016 34020 28
27217 34021 34022 28
27218 34021 34023 28
27219 34021 34024 28
27220 34021 34025 28
27221 34026 34027 28
27222 34026 34028 28
27223 34026 34029 28
27224 34026 34030 28
27225 34031 34032 28
27226 34031 34033 28
27227 34031 34034 28
27228 34031 34035 28
27229 34036 34037 28
27230 34036 34038 28
27231 34036 34039 28
27232 34036 34040 28
27233 34041 34042 28
27234 34041 34043 28
27235 34041 34044 28
27236 34041 34045 28
27237 34046 34047 28
27238 34046 34048 28
27239 34046 34049 28
27240 34046 34050 28
27241 34051 34052 28
27242 34051 34053 28
27243 34051 34054 28
27244 34051 34055 28
27245 34056 34057 28
27246 34056 34058 28
27247 34056 34059 28
27248 34056 34060 28
27249 34061 34062 28
27250 34061 34063 28
27251 34061 34064 28
27252 34061 34065 28
27253 34066 34067 28
27254 34066 34068 28
27255 34066 34069 28
27256 34066 34070 28
27257 34071 34072 28
27258 34071 34073 28
27259 34071 34074 28
27260 34071 34075 28
27261 34076 34077 28
27262 34076 34078 28
27263 34076 34079 28
27264 34076 34080 28
27265 34081 34082 28
27266 34081 34083 28
27267 34081 34084 28
27268 34081 34085 28
27269 34086 34087 28
27270 34086 34088 28
27271 34086 34089 28
27272 34086 34090 28
27273 34091 34092 28
27274 34091 34093 28
27275 34091 34094 28
27276 34091 34095 28
27277 34096 34097 28
27278 34096 34098 28
27279 34096 34099 28
27280 34096 34100 28
27281 34101 34102 28
27282 34101 34103 28
27283 34101 34104 28
27284 34101 34105 28
27285 34106 34107 28
27286 34106 34108 28
27287 34106 34109 28
27288 34106 34110 28
27289 34111 34112 28
27290 34111 34113 28
27291 34111 34114 28
27292 34111 34115 28
27293 34116 34117 28
27294 34116 34118 28
27295 34116 34119 28
27296 34116 34120 28
27297 34121 34122 28
27298 34121 34123 28
27299 34121 34124 28
27300 34121 34125 28
27301 34126 34127 28
27302 34126 34128 28
27303 34126 34129 28
27304 34126 34130 28
27305 34131 34132 28
27306 34131 34133 28
27307 34131 34134 28
27308 34131 34135 28
27309 34136 34137 28
27310 34136 34138 28
27311 34136 34139 28
27312 34136 34140 28
27313 34141 34142 28
27314 34141 34143 28
27315 34141 34144 28
27316 34141 34145 28
27317 34146 34147 28
27318 34146 34148 28
27319 34146 34149 28
27320 34146 34150 28
27321 34151 34152 28
27322 34151 34153 28
27323 34151 34154 28
27324 34151 34155 28
27325 34156 34157 28
27326 34156 34158 28
27327 34156 34159 28
27328 34156 34160 28
27329 34161 34162 28
27330 34161 34163 28
27331 34161 34164 28
27332 34161 34165 28
27333 34166 34167 28
27334 34166 34168 28
27335 34166 34169 28
27336 34166 34170 28
27337 34171 34172 28
27338 34171 34173 28
27339 34171 34174 28
27340 34171 34175 28
27341 34176 34177 28
27342 34176 34178 28
27343 34176 34179 28
27344 34176 34180 28
27345 34181 34182 28
27346 34181 34183 28
27347 34181 34184 28
27348 34181 34185 28
27349 34186 34187 28
27350 34186 34188 28
27351 34186 34189 28
27352 34186 34190 28
27353 34191 34192 28
27354 34191 34193 28
27355 34191 34194 28
27356 34191 34195 28
27357 34196 34197 28
27358 34196 34198 28
27359 34196 34199 28
27360 34196 34200 28
27361 34201 34202 28
27362 34201 34203 28
27363 34201 34204 28
27364 34201 34205 28
27365 34206 34207 28
27366 34206 34208 28
27367 34206 34209 28
27368 34206 34210 28
27369 34211 34212 28
27370 34211 34213 28
27371 34211 34214 28
27372 34211 34215 28
27373 34216 34217 28
27374 34216 34218 28
27375 34216 34219 28
27376 34216 34220 28
27377 34221 34222 28
27378 34221 34223 28
27379 34221 34224 28
27380 34221 34225 28
27381 34226 34227 28
27382 34226 34228 28
27383 34226 34229 28
27384 34226 34230 28
27385 34231 34232 28
27386 34231 34233 28
27387 34231 34234 28
27388 34231 34235 28
27389 34236 34237 28
27390 34236 34238 28
27391 34236 34239 28
27392 34236 34240 28
27393 34241 34242 28
27394 34241 34243 28
27395 34241 34244 28
27396 34241 34245 28
27397 34246 34247 28
27398 34246 34248 28
27399 34246 34249 28
27400 34246 34250 28
27401 34251 34252 28
27402 34251 34253 28
27403 34251 34254 28
27404 34251 34255 28
27405 34256 34257 28
27406 34256 34258 28
27407 34256 34259 28
27408 34256 34260 28
27409 34261 34262 28
27410 34261 34263 28
27411 34261 34264 28
27412 34261 34265 28
27413 34266 34267 28
27414 34266 34268 28
27415 34266 34269 28
27416 34266 34270 28
27417 34271 34272 28
27418 34271 34273 28
27419 34271 34274 28
27420 34271 34275 28
27421 34276 34277 28
27422 34276 34278 28
27423 34276 34279 28
27424 34276 34280 28
27425 34281 34282 28
27426 34281 34283 28
27427 34281 34284 28
27428 34281 34285 28
27429 34286 34287 28
27430 34286 34288 28
27431 34286 34289 28
27432 34286 34290 28
27433 34291 34292 28
27434 34291 34293 28
27435 34291 34294 28
27436 34291 34295 28
27437 34296 34297 28
27438 34296 34298 28
27439 34296 34299 28
27440 34296 34300 28
27441 34301 34302 28
27442 34301 34303 28
27443 34301 34304 28
27444 34301 34305 28
27445 34306 34307 28
27446 34306 34308 28
27447 34306 34309 28
27448 34306 34310 28
27449 34311 34312 28
27450 34311 34313 28
27451 34311 34314 28
27452 34311 34315 28
27453 34316 34317 28
27454 34316 34318 28
27455 34316 34319 28
27456 34316 34320 28
27457 34321 34322 28
27458 34321 34323 28
27459 34321 34324 28
27460 34321 34325 28
27461 34326 34327 28
27462 34326 34328 28
27463 34326 34329 28
27464 34326 34330 28
27465 34331 34332 28
27466 34331 34333 28
27467 34331 34334 28
27468 34331 34335 28
27469 34336 34337 28
27470 34336 34338 28
27471 34336 34339 28
27472 34336 34340 28
27473 34341 34342 28
27474 34341 34343 28
27475 34341 34344 28
27476 34341 34345 28
27477 34346 34347 28
27478 34346 34348 28
27479 34346 34349 28
27480 34346 34350 28
27481 34351 34352 28
27482 34351 34353 28
27483 34351 34354 28
27484 34351 34355 28
27485 34356 34357 28
27486 34356 34358 28
27487 34356 34359 28
27488 34356 34360 28
27489 34361 34362 28
27490 34361 34363 28
27491 34361 34364 28
27492 34361 34365 28
27493 34366 34367 28
27494 34366 34368 28
27495 34366 34369 28
27496 34366 34370 28
27497 34371 34372 28
27498 34371 34373 28
27499 34371 34374 28
27500 34371 34375 28
27501 34376 34377 28
27502 34376 34378 28
27503 34376 34379 28
27504 34376 34380 28
27505 34381 34382 28
27506 34381 34383 28
27507 34381 34384 28
27508 34381 34385 28
27509 34386 34387 28
27510 34386 34388 28
27511 34386 34389 28
27512 34386 34390 28
27513 34391 34392 28
27514 34391 34393 28
27515 34391 34394 28
27516 34391 34395 28
27517 34396 34397 28
27518 34396 34398 28
27519 34396 34399 28
27520 34396 34400 28
27521 34401 34402 28
27522 34401 34403 28
27523 34401 34404 28
27524 34401 34405 28
27525 34406 34407 28
27526 34406 34408 28
27527 34406 34409 28
27528 34406 34410 28
27529 34411 34412 28
27530 34411 34413 28
27531 34411 34414 28
27532 34411 34415 28
27533 34416 34417 28
27534 34416 34418 28
27535 34416 34419 28
27536 34416 34420 28
27537 34421 34422 28
27538 34421 34423 28
27539 34421 34424 28
27540 34421 34425 28
27541 34426 34427 28
27542 34426 34428 28
27543 34426 34429 28
27544 34426 34430 28
27545 34431 34432 28
27546 34431 34433 28
27547 34431 34434 28
27548 34431 34435 28
27549 34436 34437 28
27550 34436 34438 28
27551 34436 34439 28
27552 34436 34440 28
27553 34441 34442 28
27554 34441 34443 28
27555 34441 34444 28
27556 34441 34445 28
27557 34446 34447 28
27558 34446 34448 28
27559 34446 34449 28
27560 34446 34450 28
27561 34451 34452 28
27562 34451 34453 28
27563 34451 34454 28
27564 34451 34455 28
27565 34456 34457 28
27566 34456 34458 28
27567 34456 34459 28
27568 34456 34460 28
27569 34461 34462 28
27570 34461 34463 28
27571 34461 34464 28
27572 34461 34465 28
27573 34466 34467 28
27574 34466 34468 28
27575 34466 34469 28
27576 34466 34470 28
27577 34471 34472 28
27578 34471 34473 28
27579 34471 34474 28
27580 34471 34475 28
27581 34476 34477 28
27582 34476 34478 28
27583 34476 34479 28
27584 34476 34480 28
27585 34481 34482 28
27586 34481 34483 28
27587 34481 34484 28
27588 34481 34485 28
27589 34486 34487 28
27590 34486 34488 28
27591 34486 34489 28
27592 34486 34490 28
27593 34491 34492 28
27594 34491 34493 28
27595 34491 34494 28
27596 34491 34495 28
27597 34496 34497 28
27598 34496 34498 28
27599 34496 34499 28
27600 34496 34500 28
27601 34501 34502 28
27602 34501 34503 28
27603 34501 34504 28
27604 34501 34505 28
27605 34506 34507 28
27606 34506 34508 28
27607 34506 34509 28
27608 34506 34510 28
27609 34511 34512 28
27610 34511 34513 28
27611 34511 34514 28
27612 34511 34515 28
27613 34516 34517 28
27614 34516 34518 28
27615 34516 34519 28
27616 34516 34520 28
27617 34521 34522 28
27618 34521 34523 28
27619 34521 34524 28
27620 34521 34525 28
27621 34526 34527 28
27622 34526 34528 28
27623 34526 34529 28
27624 34526 34530 28
27625 34531 34532 28
27626 34531 34533 28
27627 34531 34534 28
27628 34531 34535 28
27629 34536 34537 28
27630 34536 34538 28
27631 34536 34539 28
27632 34536 34540 28
27633 34541 34542 28
27634 34541 34543 28
27635 34541 34544 28
27636 34541 34545 28
27637 34546 34547 28
27638 34546 34548 28
27639 34546 34549 28
27640 34546 34550 28
27641 34551 34552 28
27642 34551 34553 28
27643 34551 34554 28
27644 34551 34555 28
27645 34556 34557 28
27646 34556 34558 28
27647 34556 34559 28
27648 34556 34560 28
27649 34561 34562 28
27650 34561 34563 28
27651 34561 34564 28
27652 34561 34565 28
27653 34566 34567 28
27654 34566 34568 28
27655 34566 34569 28
27656 34566 34570 28
27657 34571 34572 28
27658 34571 34573 28
27659 34571 34574 28
27660 34571 34575 28
27661 34576 34577 28
27662 34576 34578 28
27663 34576 34579 28
27664 34576 34580 28
27665 34581 34582 28
27666 34581 34583 28
27667 34581 34584 28
27668 34581 34585 28
27669 34586 34587 28
27670 34586 34588 28
27671 34586 34589 28
27672 34586 34590 28
27673 34591 34592 28
27674 34591 34593 28
27675 34591 34594 28
27676 34591 34595 28
27677 34596 34597 28
27678 34596 34598 28
27679 34596 34599 28
27680 34596 34600 28
27681 34601 34602 28
27682 34601 34603 28
27683 34601 34604 28
27684 34601 34605 28
27685 34606 34607 28
27686 34606 34608 28
27687 34606 34609 28
27688 34606 34610 28
27689 34611 34612 28
27690 34611 34613 28
27691 34611 34614 28
27692 34611 34615 28
27693 34616 34617 28
27694 34616 34618 28
27695 34616 34619 28
27696 34616 34620 28
27697 34621 34622 28
27698 34621 34623 28
27699 34621 34624 28
27700 34621 34625 28
27701 34626 34627 28
27702 34626 34628 28
27703 34626 34629 28
27704 34626 34630 28
27705 34631 34632 28
27706 34631 34633 28
27707 34631 34634 28
27708 34631 34635 28
27709 34636 34637 28
27710 34636 34638 28
27711 34636 34639 28
27712 34636 34640 28
27713 34641 34642 28
27714 34641 34643 28
27715 34641 34644 28
27716 34641 34645 28
27717 34646 34647 28
27718 34646 34648 28
27719 34646 34649 28
27720 34646 34650 28
27721 34651 34652 28
27722 34651 34653 28
27723 34651 34654 28
27724 34651 34655 28
27725 34656 34657 28
27726 34656 34658 28
27727 34656 34659 28
27728 34656 34660 28
27729 34661 34662 28
27730 34661 34663 28
27731 34661 34664 28
27732 34661 34665 28
27733 34666 34667 28
27734 34666 34668 28
27735 34666 34669 28
27736 34666 34670 28
27737 34671 34672 28
27738 34671 34673 28
27739 34671 34674 28
27740 34671 34675 28
27741 34676 34677 28
27742 34676 34678 28
27743 34676 34679 28
27744 34676 34680 28
27745 34681 34682 28
27746 34681 34683 28
27747 34681 34684 28
27748 34681 34685 28
27749 34686 34687 28
27750 34686 34688 28
27751 34686 34689 28
27752 34686 34690 28
27753 34691 34692 28
27754 34691 34693 28
27755 34691 34694 28
27756 34691 34695 28
27757 34696 34697 28
27758 34696 34698 28
27759 34696 34699 28
27760 34696 34700 28
27761 34701 34702 28
27762 34701 34703 28
27763 34701 34704 28
27764 34701 34705 28
27765 34706 34707 28
27766 34706 34708 28
27767 34706 34709 28
27768 34706 34710 28
27769 34711 34712 28
27770 34711 34713 28
27771 34711 34714 28
27772 34711 34715 28
27773 34716 34717 28
27774 34716 34718 28
27775 34716 34719 28
27776 34716 34720 28
27777 34721 34722 28
27778 34721 34723 28
27779 34721 34724 28
27780 34721 34725 28
27781 34726 34727 28
27782 34726 34728 28
27783 34726 34729 28
27784 34726 34730 28
27785 34731 34732 28
27786 34731 34733 28
27787 34731 34734 28
27788 34731 34735 28
27789 34736 34737 28
27790 34736 34738 28
27791 34736 34739 28
27792 34736 34740 28
27793 34741 34742 28
27794 34741 34743 28
27795 34741 34744 28
27796 34741 34745 28
27797 34746 34747 28
27798 34746 34748 28
27799 34746 34749 28
27800 34746 34750 28
27801 34751 34752 28
27802 34751 34753 28
27803 34751 34754 28
27804 34751 34755 28
27805 34756 34757 28
27806 34756 34758 28
27807 34756 34759 28
27808 34756 34760 28
27809 34761 34762 28
27810 34761 34763 28
27811 34761 34764 28
27812 34761 34765 28
27813 34766 34767 28
27814 34766 34768 28
27815 34766 34769 28
27816 34766 34770 28
27817 34771 34772 28
27818 34771 34773 28
27819 34771 34774 28
27820 34771 34775 28
27821 34776 34777 28
27822 34776 34778 28
27823 34776 34779 28
27824 34776 34780 28
27825 34781 34782 28
27826 34781 34783 28
27827 34781 34784 28
27828 34781 34785 28
27829 34786 34787 28
27830 34786 34788 28
27831 34786 34789 28
27832 34786 34790 28
27833 34791 34792 28
27834 34791 34793 28
27835 34791 34794 28
27836 34791 34795 28
27837 34796 34797 28
27838 34796 34798 28
27839 34796 34799 28
27840 34796 34800 28
27841 34801 34802 28
27842 34801 34803 28
27843 34801 34804 28
27844 34801 34805 28
27845 34806 34807 28
27846 34806 34808 28
27847 34806 34809 28
27848 34806 34810 28
27849 34811 34812 28
27850 34811 34813 28
27851 34811 34814 28
27852 34811 34815 28
27853 34816 34817 28
27854 34816 34818 28
27855 34816 34819 28
27856 34816 34820 28
27857 34821 34822 28
27858 34821 34823 28
27859 34821 34824 28
27860 34821 34825 28
27861 34826 34827 28
27862 34826 34828 28
27863 34826 34829 28
27864 34826 34830 28
27865 34831 34832 28
27866 34831 34833 28
27867 34831 34834 28
27868 34831 34835 28
27869 34836 34837 28
27870 34836 34838 28
27871 34836 34839 28
27872 34836 34840 28
27873 34841 34842 28
27874 34841 34843 28
27875 34841 34844 28
27876 34841 34845 28
27877 34846 34847 28
27878 34846 34848 28
27879 34846 34849 28
27880 34846 34850 28
27881 34851 34852 28
27882 34851 34853 28
27883 34851 34854 28
27884 34851 34855 28
27885 34856 34857 28
27886 34856 34858 28
27887 34856 34859 28
27888 34856 34860 28
27889 34861 34862 28
27890 34861 34863 28
27891 34861 34864 28
27892 34861 34865 28
27893 34866 34867 28
27894 34866 34868 28
27895 34866 34869 28
27896 34866 34870 28
27897 34871 34872 28
27898 34871 34873 28
27899 34871 34874 28
27900 34871 34875 28
27901 34876 34877 28
27902 34876 34878 28
27903 34876 34879 28
27904 34876 34880 28
27905 34881 34882 28
27906 34881 34883 28
27907 34881 34884 28
27908 34881 34885 28
27909 34886 34887 28
27910 34886 34888 28
27911 34886 34889 28
27912 34886 34890 28
27913 34891 34892 28
27914 34891 34893 28
27915 34891 34894 28
27916 34891 34895 28
27917 34896 34897 28
27918 34896 34898 28
27919 34896 34899 28
27920 34896 34900 28
27921 34901 34902 28
27922 34901 34903 28
27923 34901 34904 28
27924 34901 34905 28
27925 34906 34907 28
27926 34906 34908 28
27927 34906 34909 28
27928 34906 34910 28
27929 34911 34912 28
27930 34911 34913 28
27931 34911 34914 28
27932 34911 34915 28
27933 34916 34917 28
27934 34916 34918 28
27935 34916 34919 28
27936 34916 34920 28
27937 34921 34922 28
27938 34921 34923 28
27939 34921 34924 28
27940 34921 34925 28
27941 34926 34927 28
27942 34926 34928 28
27943 34926 34929 28
27944 34926 34930 28
27945 34931 34932 28
27946 34931 34933 28
27947 34931 34934 28
27948 34931 34935 28
27949 34936 34937 28
27950 34936 34938 28
27951 34936 34939 28
27952 34936 34940 28
27953 34941 34942 28
27954 34941 34943 28
27955 34941 34944 28
27956 34941 34945 28
27957 34946 34947 28
27958 34946 34948 28
27959 34946 34949 28
27960 34946 34950 28
27961 34951 34952 28
27962 34951 34953 28
27963 34951 34954 28
27964 34951 34955 28
27965 34956 34957 28
27966 34956 34958 28
27967 34956 34959 28
27968 34956 34960 28
27969 34961 34962 28
27970 34961 34963 28
27971 34961 34964 28
27972 34961 34965 28
27973 34966 34967 28
27974 34966 34968 28
27975 34966 34969 28
27976 34966 34970 28
27977 34971 34972 28
27978 34971 34973 28
27979 34971 34974 28
27980 34971 34975 28
27981 34976 34977 28
27982 34976 34978 28
27983 34976 34979 28
27984 34976 34980 28
27985 34981 34982 28
27986 34981 34983 28
27987 34981 34984 28
27988 34981 34985 28
27989 34986 34987 28
27990 34986 34988 28
27991 34986 34989 28
27992 34986 34990 28
27993 34991 34992 28
27994 34991 34993 28
27995 34991 34994 28
27996 34991 34995 28
27997 34996 34997 28
27998 34996 34998 28
27999 34996 34999 28
28000 34996 35000 28
28001 35001 35002 28
28002 35001 35003 28
28003 35001 35004 28
28004 35001 35005 28
28005 35006 35007 28
28006 35006 35008 28
28007 35006 35009 28
28008 35006 35010 28
28009 35011 35012 28
28010 35011 35013 28
28011 35011 35014 28
28012 35011 35015 28
28013 35016 35017 28
28014 35016 35018 28
28015 35016 35019 28
28016 35016 35020 28
28017 35021 35022 28
28018 35021 35023 28
28019 35021 35024 28
28020 35021 35025 28
28021 35026 35027 28
28022 35026 35028 28
28023 35026 35029 28
28024 35026 35030 28
28025 35031 35032 28
28026 35031 35033 28
28027 35031 35034 28
28028 35031 35035 28
28029 35036 35037 28
28030 35036 35038 28
28031 35036 35039 28
28032 35036 35040 28
28033 35041 35042 28
28034 35041 35043 28
28035 35041 35044 28
28036 35041 35045 28
28037 35046 35047 28
28038 35046 35048 28
28039 35046 35049 28
28040 35046 35050 28
28041 35051 35052 28
28042 35051 35053 28
28043 35051 35054 28
28044 35051 35055 28
28045 35056 35057 28
28046 35056 35058 28
28047 35056 35059 28
28048 35056 35060 28
28049 35061 35062 28
28050 35061 35063 28
28051 35061 35064 28
28052 35061 35065 28
28053 35066 35067 28
28054 35066 35068 28
28055 35066 35069 28
28056 35066 35070 28
28057 35071 35072 28
28058 35071 35073 28
28059 35071 35074 28
28060 35071 35075 28
28061 35076 35077 28
28062 35076 35078 28
28063 35076 35079 28
28064 35076 35080 28
28065 35081 35082 28
28066 35081 35083 28
28067 35081 35084 28
28068 35081 35085 28
28069 35086 35087 28
28070 35086 35088 28
28071 35086 35089 28
28072 35086 35090 28
28073 35091 35092 28
28074 35091 35093 28
28075 35091 35094 28
28076 35091 35095 28
28077 35096 35097 28
28078 35096 35098 28
28079 35096 35099 28
28080 35096 35100 28
28081 35101 35102 28
28082 35101 35103 28
28083 35101 35104 28
28084 35101 35105 28
28085 35106 35107 28
28086 35106 35108 28
28087 35106 35109 28
28088 35106 35110 28
28089 35111 35112 28
28090 35111 35113 28
28091 35111 35114 28
28092 35111 35115 28
28093 35116 35117 28
28094 35116 35118 28
28095 35116 35119 28
28096 35116 35120 28
28097 35121 35122 28
28098 35121 35123 28
28099 35121 35124 28
28100 35121 35125 28
28101 35126 35127 28
28102 35126 35128 28
28103 35126 35129 28
28104 35126 35130 28
28105 35131 35132 28
28106 35131 35133 28
28107 35131 35134 28
28108 35131 35135 28
28109 35136 35137 28
28110 35136 35138 28
28111 35136 35139 28
28112 35136 35140 28
28113 35141 35142 28
28114 35141 35143 28
28115 35141 35144 28
28116 35141 35145 28
28117 35146 35147 28
28118 35146 35148 28
28119 35146 35149 28
28120 35146 35150 28
28121 35151 35152 28
28122 35151 35153 28
28123 35151 35154 28
28124 35151 35155 28
28125 35156 35157 28
28126 35156 35158 28
28127 35156 35159 28
28128 35156 35160 28
28129 35161 35162 28
28130 35161 35163 28
28131 35161 35164 28
28132 35161 35165 28
28133 35166 35167 28
28134 35166 35168 28
28135 35166 35169 28
28136 35166 35170 28
28137 35171 35172 28
28138 35171 35173 28
28139 35171 35174 28
28140 35171 35175 28
28141 35176 35177 28
28142 35176 35178 28
28143 35176 35179 28
28144 35176 35180 28
28145 35181 35182 28
28146 35181 35183 28
28147 35181 35184 28
28148 35181 35185 28
28149 35186 35187 28
28150 35186 35188 28
28151 35186 35189 28
28152 35186 35190 28
28153 35191 35192 28
28154 35191 35193 28
28155 35191 35194 28
28156 35191 35195 28
28157 35196 35197 28
28158 35196 35198 28
28159 35196 35199 28
28160 35196 35200 28
28161 35201 35202 28
28162 35201 35203 28
28163 35201 35204 28
28164 35201 35205 28
28165 35206 35207 28
28166 35206 35208 28
28167 35206 35209 28
28168 35206 35210 28
28169 35211 35212 28
28170 35211 35213 28
28171 35211 35214 28
28172 35211 35215 28
28173 35216 35217 28
28174 35216 35218 28
28175 35216 35219 28
28176 35216 35220 28
28177 35221 35222 28
28178 35221 35223 28
28179 35221 35224 28
28180 35221 35225 28
28181 35226 35227 28
28182 35226 35228 28
28183 35226 35229 28
28184 35226 35230 28
28185 35231 35232 28
28186 35231 35233 28
28187 35231 35234 28
28188 35231 35235 28
28189 35236 35237 28
28190 35236 35238 28
28191 35236 35239 28
28192 35236 35240 28
28193 35241 35242 28
28194 35241 35243 28
28195 35241 35244 28
28196 35241 35245 28
28197 35246 35247 28
28198 35246 35248 28
28199 35246 35249 28
28200 35246 35250 28
28201 35251 35252 28
28202 35251 35253 28
28203 35251 35254 28
28204 35251 35255 28
28205 35256 35257 28
28206 35256 35258 28
28207 35256 35259 28
28208 35256 35260 28
28209 35261 35262 28
28210 35261 35263 28
28211 35261 35264 28
28212 35261 35265 28
28213 35266 35267 28
28214 35266 35268 28
28215 35266 35269 28
28216 35266 35270 28
28217 35271 35272 28
28218 35271 35273 28
28219 35271 35274 28
28220 35271 35275 28
28221 35276 35277 28
28222 35276 35278 28
28223 35276 35279 28
28224 35276 35280 28
28225 35281 35282 28
28226 35281 35283 28
28227 35281 35284 28
28228 35281 35285 28
28229 35286 35287 28
28230 35286 35288 28
28231 35286 35289 28
28232 35286 35290 28
28233 35291 35292 28
28234 35291 35293 28
28235 35291 35294 28
28236 35291 35295 28
28237 35296 35297 28
28238 35296 35298 28
28239 35296 35299 28
28240 35296 35300 28
28241 35301 35302 28
28242 35301 35303 28
28243 35301 35304 28
28244 35301 35305 28
28245 35306 35307 28
28246 35306 35308 28
28247 35306 35309 28
28248 35306 35310 28
28249 35311 35312 28
28250 35311 35313 28
28251 35311 35314 28
28252 35311 35315 28
28253 35316 35317 28
28254 35316 35318 28
28255 35316 35319 28
28256 35316 35320 28
28257 35321 35322 28
28258 35321 35323 28
28259 35321 35324 28
28260 35321 35325 28
28261 35326 35327 28
28262 35326 35328 28
28263 35326 35329 28
28264 35326 35330 28
28265 35331 35332 28
28266 35331 35333 28
28267 35331 35334 28
28268 35331 35335 28
28269 35336 35337 28
28270 35336 35338 28
28271 35336 35339 28
28272 35336 35340 28
28273 35341 35342 28
28274 35341 35343 28
28275 35341 35344 28
28276 35341 35345 28
28277 35346 35347 28
28278 35346 35348 28
28279 35346 35349 28
28280 35346 35350 28
28281 35351 35352 28
28282 35351 35353 28
28283 35351 35354 28
28284 35351 35355 28
28285 35356 35357 28
28286 35356 35358 28
28287 35356 35359 28
28288 35356 35360 28
28289 35361 35362 28
28290 35361 35363 28
28291 35361 35364 28
28292 35361 35365 28
28293 35366 35367 28
28294 35366 35368 28
28295 35366 35369 28
28296 35366 35370 28
28297 35371 35372 28
28298 35371 35373 28
28299 35371 35374 28
28300 35371 35375 28
28301 35376 35377 28
28302 35376 35378 28
28303 35376 35379 28
28304 35376 35380 28
28305 35381 35382 28
28306 35381 35383 28
28307 35381 35384 28
28308 35381 35385 28
28309 35386 35387 28
28310 35386 35388 28
28311 35386 35389 28
28312 35386 35390 28
28313 35391 35392 28
28314 35391 35393 28
28315 35391 35394 28
28316 35391 35395 28
28317 35396 35397 28
28318 35396 35398 28
28319 35396 35399 28
28320 35396 35400 28
28321 35401 35402 28
28322 35401 35403 28
28323 35401 35404 28
28324 35401 35405 28
28325 35406 35407 28
28326 35406 35408 28
28327 35406 35409 28
28328 35406 35410 28
28329 35411 35412 28
28330 35411 35413 28
28331 35411 35414 28
28332 35411 35415 28
28333 35416 35417 28
28334 35416 35418 28
28335 35416 35419 28
28336 35416 35420 28
28337 35421 35422 28
28338 35421 35423 28
28339 35421 35424 28
28340 35421 35425 28
28341 35426 35427 28
28342 35426 35428 28
28343 35426 35429 28
28344 35426 35430 28
28345 35431 35432 28
28346 35431 35433 28
28347 35431 35434 28
28348 35431 35435 28
28349 35436 35437 28
28350 35436 35438 28
28351 35436 35439 28
28352 35436 35440 28
28353 35441 35442 28
28354 35441 35443 28
28355 35441 35444 28
28356 35441 35445 28
28357 35446 35447 28
28358 35446 35448 28
28359 35446 35449 28
28360 35446 35450 28
28361 35451 35452 28
28362 35451 35453 28
28363 35451 35454 28
28364 35451 35455 28
28365 35456 35457 28
28366 35456 35458 28
28367 35456 35459 28
28368 35456 35460 28
28369 35461 35462 28
28370 35461 35463 28
28371 35461 35464 28
28372 35461 35465 28
28373 35466 35467 28
28374 35466 35468 28
28375 35466 35469 28
28376 35466 35470 28
28377 35471 35472 28
28378 35471 35473 28
28379 35471 35474 28
28380 35471 35475 28
28381 35476 35477 28
28382 35476 35478 28
28383 35476 35479 28
28384 35476 35480 28
28385 35481 35482 28
28386 35481 35483 28
28387 35481 35484 28
28388 35481 35485 28
28389 35486 35487 28
28390 35486 35488 28
28391 35486 35489 28
28392 35486 35490 28
28393 35491 35492 28
28394 35491 35493 28
28395 35491 35494 28
28396 35491 35495 28
28397 35496 35497 28
28398 35496 35498 28
28399 35496 35499 28
28400 35496 35500 28
28401 35501 35502 28
28402 35501 35503 28
28403 35501 35504 28
28404 35501 35505 28
28405 35506 35507 28
28406 35506 35508 28
28407 35506 35509 28
28408 35506 35510 28
28409 35511 35512 28
28410 35511 35513 28
28411 35511 35514 28
28412 35511 35515 28
28413 35516 35517 28
28414 35516 35518 28
28415 35516 35519 28
28416 35516 35520 28
28417 35521 35522 28
28418 35521 35523 28
28419 35521 35524 28
28420 35521 35525 28
28421 35526 35527 28
28422 35526 35528 28
28423 35526 35529 28
28424 35526 35530 28
28425 35531 35532 28
28426 35531 35533 28
28427 35531 35534 28
28428 35531 35535 28
28429 35536 35537 28
28430 35536 35538 28
28431 35536 35539 28
28432 35536 35540 28
28433 35541 35542 28
28434 35541 35543 28
28435 35541 35544 28
28436 35541 35545 28
28437 35546 35547 28
28438 35546 35548 28
28439 35546 35549 28
28440 35546 35550 28
28441 35551 35552 28
28442 35551 35553 28
28443 35551 35554 28
28444 35551 35555 28
28445 35556 35557 28
28446 35556 35558 28
28447 35556 35559 28
28448 35556 35560 28
28449 35561 35562 28
28450 35561 35563 28
28451 35561 35564 28
28452 35561 35565 28
28453 35566 35567 28
28454 35566 35568 28
28455 35566 35569 28
28456 35566 35570 28
28457 35571 35572 28
28458 35571 35573 28
28459 35571 35574 28
28460 35571 35575 28
28461 35576 35577 28
28462 35576 35578 28
28463 35576 35579 28
28464 35576 35580 28
28465 35581 35582 28
28466 35581 35583 28
28467 35581 35584 28
28468 35581 35585 28
28469 35586 35587 28
28470 35586 35588 28
28471 35586 35589 28
28472 35586 35590 28
28473 35591 35592 28
28474 35591 35593 28
28475 35591 35594 28
28476 35591 35595 28
28477 35596 35597 28
28478 35596 35598 28
28479 35596 35599 28
28480 35596 35600 28
28481 35601 35602 28
28482 35601 35603 28
28483 35601 35604 28
28484 35601 35605 28
28485 35606 35607 28
28486 35606 35608 28
28487 35606 35609 28
28488 35606 35610 28
28489 35611 35612 28
28490 35611 35613 28
28491 35611 35614 28
28492 35611 35615 28
28493 35616 35617 28
28494 35616 35618 28
28495 35616 35619 28
28496 35616 35620 28
28497 35621 35622 28
28498 35621 35623 28
28499 35621 35624 28
28500 35621 35625 28
28501 35626 35627 28
28502 35626 35628 28
28503 35626 35629 28
28504 35626 35630 28
28505 35631 35632 28
28506 35631 35633 28
28507 35631 35634 28
28508 35631 35635 28
28509 35636 35637 28
28510 35636 35638 28
28511 35636 35639 28
28512 35636 35640 28
28513 35641 35642 28
28514 35641 35643 28
28515 35641 35644 28
28516 35641 35645 28
28517 35646 35647 28
28518 35646 35648 28
28519 35646 35649 28
28520 35646 35650 28
28521 35651 35652 28
28522 35651 35653 28
28523 35651 35654 28
28524 35651 35655 28
28525 35656 35657 28
28526 35656 35658 28
28527 35656 35659 28
28528 35656 35660 28
28529 35661 35662 28
28530 35661 35663 28
28531 35661 35664 28
28532 35661 35665 28
28533 35666 35667 28
28534 35666 35668 28
28535 35666 35669 28
28536 35666 35670 28
28537 35671 35672 28
28538 35671 35673 28
28539 35671 35674 28
28540 35671 35675 28
28541 35676 35677 28
28542 35676 35678 28
28543 35676 35679 28
28544 35676 35680 28
28545 35681 35682 28
28546 35681 35683 28
28547 35681 35684 28
28548 35681 35685 28
28549 35686 35687 28
28550 35686 35688 28
28551 35686 35689 28
28552 35686 35690 28
28553 35691 35692 28
28554 35691 35693 28
28555 35691 35694 28
28556 35691 35695 28
28557 35696 35697 28
28558 35696 35698 28
28559 35696 35699 28
28560 35696 35700 28
28561 35701 35702 28
28562 35701 35703 28
28563 35701 35704 28
28564 35701 35705 28
28565 35706 35707 28
28566 35706 35708 28
28567 35706 35709 28
28568 35706 35710 28
28569 35711 35712 28
28570 35711 35713 28
28571 35711 35714 28
28572 35711 35715 28
28573 35716 35717 28
28574 35716 35718 28
28575 35716 35719 28
28576 35716 35720 28
28577 35721 35722 28
28578 35721 35723 28
28579 35721 35724 28
28580 35721 35725 28
28581 35726 35727 28
28582 35726 35728 28
28583 35726 35729 28
28584 35726 35730 28
28585 35731 35732 28
28586 35731 35733 28
28587 35731 35734 28
28588 35731 35735 28
28589 35736 35737 28
28590 35736 35738 28
28591 35736 35739 28
28592 35736 35740 28
28593 35741 35742 28
28594 35741 35743 28
28595 35741 35744 28
28596 35741 35745 28
28597 35746 35747 28
28598 35746 35748 28
28599 35746 35749 28
28600 35746 35750 28
28601 35751 35752 28
28602 35751 35753 28
28603 35751 35754 28
28604 35751 35755 28
28605 35756 35757 28
28606 35756 35758 28
28607 35756 35759 28
28608 35756 35760 28
28609 35761 35762 28
28610 35761 35763 28
28611 35761 35764 28
28612 35761 35765 28
28613 35766 35767 28
28614 35766 35768 28
28615 35766 35769 28
28616 35766 35770 28
28617 35771 35772 28
28618 35771 35773 28
28619 35771 35774 28
28620 35771 35775 28
28621 35776 35777 28
28622 35776 35778 28
28623 35776 35779 28
28624 35776 35780 28
28625 35781 35782 28
28626 35781 35783 28
28627 35781 35784 28
28628 35781 35785 28
28629 35786 35787 28
28630 35786 35788 28
28631 35786 35789 28
28632 35786 35790 28
28633 35791 35792 28
28634 35791 35793 28
28635 35791 35794 28
28636 35791 35795 28
28637 35796 35797 28
28638 35796 35798 28
28639 35796 35799 28
28640 35796 35800 28
28641 35801 35802 28
28642 35801 35803 28
28643 35801 35804 28
28644 35801 35805 28
28645 35806 35807 28
28646 35806 35808 28
28647 35806 35809 28
28648 35806 35810 28
28649 35811 35812 28
28650 35811 35813 28
28651 35811 35814 28
28652 35811 35815 28
28653 35816 35817 28
28654 35816 35818 28
28655 35816 35819 28
28656 35816 35820 28
28657 35821 35822 28
28658 35821 35823 28
28659 35821 35824 28
28660 35821 35825 28
28661 35826 35827 28
28662 35826 35828 28
28663 35826 35829 28
28664 35826 35830 28
28665 35831 35832 28
28666 35831 35833 28
28667 35831 35834 28
28668 35831 35835 28
28669 35836 35837 28
28670 35836 35838 28
28671 35836 35839 28
28672 35836 35840 28
28673 35841 35842 28
28674 35841 35843 28
28675 35841 35844 28
28676 35841 35845 28
28677 35846 35847 28
28678 35846 35848 28
28679 35846 35849 28
28680 35846 35850 28
28681 35851 35852 28
28682 35851 35853 28
28683 35851 35854 28
28684 35851 35855 28
28685 35856 35857 28
28686 35856 35858 28
28687 35856 35859 28
28688 35856 35860 28
28689 35861 35862 28
28690 35861 35863 28
28691 35861 35864 28
28692 35861 35865 28
28693 35866 35867 28
28694 35866 35868 28
28695 35866 35869 28
28696 35866 35870 28
28697 35871 35872 28
28698 35871 35873 28
28699 35871 35874 28
28700 35871 35875 28
28701 35876 35877 28
28702 35876 35878 28
28703 35876 35879 28
28704 35876 35880 28
28705 35881 35882 28
28706 35881 35883 28
28707 35881 35884 28
28708 35881 35885 28
28709 35886 35887 28
28710 35886 35888 28
28711 35886 35889 28
28712 35886 35890 28
28713 35891 35892 28
28714 35891 35893 28
28715 35891 35894 28
28716 35891 35895 28
28717 35896 35897 28
28718 35896 35898 28
28719 35896 35899 28
28720 35896 35900 28
28721 35901 35902 28
28722 35901 35903 28
28723 35901 35904 28
28724 35901 35905 28
28725 35906 35907 28
28726 35906 35908 28
28727 35906 35909 28
28728 35906 35910 28
28729 35911 35912 28
28730 35911 35913 28
28731 35911 35914 28
28732 35911 35915 28
28733 35916 35917 28
28734 35916 35918 28
28735 35916 35919 28
28736 35916 35920 28
28737 35921 35922 28
28738 35921 35923 28
28739 35921 35924 28
28740 35921 35925 28
28741 35926 35927 28
28742 35926 35928 28
28743 35926 35929 28
28744 35926 35930 28
28745 35931 35932 28
28746 35931 35933 28
28747 35931 35934 28
28748 35931 35935 28
28749 35936 35937 28
28750 35936 35938 28
28751 35936 35939 28
28752 35936 35940 28
28753 35941 35942 28
28754 35941 35943 28
28755 35941 35944 28
28756 35941 35945 28
28757 35946 35947 28
28758 35946 35948 28
28759 35946 35949 28
28760 35946 35950 28
28761 35951 35952 28
28762 35951 35953 28
28763 35951 35954 28
28764 35951 35955 28
28765 35956 35957 28
28766 35956 35958 28
28767 35956 35959 28
28768 35956 35960 28
28769 35961 35962 28
28770 35961 35963 28
28771 35961 35964 28
28772 35961 35965 28
28773 35966 35967 28
28774 35966 35968 28
28775 35966 35969 28
28776 35966 35970 28
28777 35971 35972 28
28778 35971 35973 28
28779 35971 35974 28
28780 35971 35975 28
28781 35976 35977 28
28782 35976 35978 28
28783 35976 35979 28
28784 35976 35980 28
28785 35981 35982 28
28786 35981 35983 28
28787 35981 35984 28
28788 35981 35985 28
28789 35986 35987 28
28790 35986 35988 28
28791 35986 35989 28
28792 35986 35990 28
28793 35991 35992 28
28794 35991 35993 28
28795 35991 35994 28
28796 35991 35995 28
28797 35996 35997 28
28798 35996 35998 28
28799 35996 35999 28
28800 35996 36000 28
28801 36001 36002 28
28802 36001 36003 28
28803 36001 36004 28
28804 36001 36005 28
28805 36006 36007 28
28806 36006 36008 28
28807 36006 36009 28
28808 36006 36010 28
28809 36011 36012 28
28810 36011 36013 28
28811 36011 36014 28
28812 36011 36015 28
28813 36016 36017 28
28814 36016 36018 28
28815 36016 36019 28
28816 36016 36020 28
28817 36021 36022 28
28818 36021 36023 28
28819 36021 36024 28
28820 36021 36025 28
28821 36026 36027 28
28822 36026 36028 28
28823 36026 36029 28
28824 36026 36030 28
28825 36031 36032 28
28826 36031 36033 28
28827 36031 36034 28
28828 36031 36035 28
28829 36036 36037 28
28830 36036 36038 28
28831 36036 36039 28
28832 36036 36040 28
28833 36041 36042 28
28834 36041 36043 28
28835 36041 36044 28
28836 36041 36045 28
28837 36046 36047 28
28838 36046 36048 28
28839 36046 36049 28
28840 36046 36050 28
28841 36051 36052 28
28842 36051 36053 28
28843 36051 36054 28
28844 36051 36055 28
28845 36056 36057 28
28846 36056 36058 28
28847 36056 36059 28
28848 36056 36060 28
28849 36061 36062 28
28850 36061 36063 28
28851 36061 36064 28
28852 36061 36065 28
28853 36066 36067 28
28854 36066 36068 28
28855 36066 36069 28
28856 36066 36070 28
28857 36071 36072 28
28858 36071 36073 28
28859 36071 36074 28
28860 36071 36075 28
28861 36076 36077 28
28862 36076 36078 28
28863 36076 36079 28
28864 36076 36080 28
28865 36081 36082 28
28866 36081 36083 28
28867 36081 36084 28
28868 36081 36085 28
28869 36086 36087 28
28870 36086 36088 28
28871 36086 36089 28
28872 36086 36090 28
28873 36091 36092 28
28874 36091 36093 28
28875 36091 36094 28
28876 36091 36095 28
28877 36096 36097 28
28878 36096 36098 28
28879 36096 36099 28
28880 36096 36100 28
28881 36101 36102 28
28882 36101 36103 28
28883 36101 36104 28
28884 36101 36105 28
28885 36106 36107 28
28886 36106 36108 28
28887 36106 36109 28
28888 36106 36110 28
28889 36111 36112 28
28890 36111 36113 28
28891 36111 36114 28
28892 36111 36115 28
28893 36116 36117 28
28894 36116 36118 28
28895 36116 36119 28
28896 36116 36120 28
28897 36121 36122 28
28898 36121 36123 28
28899 36121 36124 28
28900 36121 36125 28
28901 36126 36127 28
28902 36126 36128 28
28903 36126 36129 28
28904 36126 36130 28
28905 36131 36132 28
28906 36131 36133 28
28907 36131 36134 28
28908 36131 36135 28
28909 36136 36137 28
28910 36136 36138 28
28911 36136 36139 28
28912 36136 36140 28
28913 36141 36142 28
28914 36141 36143 28
28915 36141 36144 28
28916 36141 36145 28
28917 36146 36147 28
28918 36146 36148 28
28919 36146 36149 28
28920 36146 36150 28
28921 36151 36152 28
28922 36151 36153 28
28923 36151 36154 28
28924 36151 36155 28
28925 36156 36157 28
28926 36156 36158 28
28927 36156 36159 28
28928 36156 36160 28
28929 36161 36162 28
28930 36161 36163 28
28931 36161 36164 28
28932 36161 36165 28
28933 36166 36167 28
28934 36166 36168 28
28935 36166 36169 28
28936 36166 36170 28
28937 36171 36172 28
28938 36171 36173 28
28939 36171 36174 28
28940 36171 36175 28
28941 36176 36177 28
28942 36176 36178 28
28943 36176 36179 28
28944 36176 36180 28
28945 36181 36182 28
28946 36181 36183 28
28947 36181 36184 28
28948 36181 36185 28
28949 36186 36187 28
28950 36186 36188 28
28951 36186 36189 28
28952 36186 36190 28
28953 36191 36192 28
28954 36191 36193 28
28955 36191 36194 28
28956 36191 36195 28
28957 36196 36197 28
28958 36196 36198 28
28959 36196 36199 28
28960 36196 36200 28
28961 36201 36202 28
28962 36201 36203 28
28963 36201 36204 28
28964 36201 36205 28
28965 36206 36207 28
28966 36206 36208 28
28967 36206 36209 28
28968 36206 36210 28
28969 36211 36212 28
28970 36211 36213 28
28971 36211 36214 28
28972 36211 36215 28
28973 36216 36217 28
28974 36216 36218 28
28975 36216 36219 28
28976 36216 36220 28
28977 36221 36222 28
28978 36221 36223 28
28979 36221 36224 28
28980 36221 36225 28
28981 36226 36227 28
28982 36226 36228 28
28983 36226 36229 28
28984 36226 36230 28
28985 36231 36232 28
28986 36231 36233 28
28987 36231 36234 28
28988 36231 36235 28
28989 36236 36237 28
28990 36236 36238 28
28991 36236 36239 28
28992 36236 36240 28
28993 36241 36242 28
28994 36241 36243 28
28995 36241 36244 28
28996 36241 36245 28
28997 36246 36247 28
28998 36246 36248 28
28999 36246 36249 28
29000 36246 36250 28
29001 36251 36252 28
29002 36251 36253 28
29003 36251 36254 28
29004 36251 36255 28
29005 36256 36257 28
29006 36256 36258 28
29007 36256 36259 28
29008 36256 36260 28
29009 36261 36262 28
29010 36261 36263 28
29011 36261 36264 28
29012 36261 36265 28
29013 36266 36267 28
29014 36266 36268 28
29015 36266 36269 28
29016 36266 36270 28
29017 36271 36272 28
29018 36271 36273 28
29019 36271 36274 28
29020 36271 36275 28
29021 36276 36277 28
29022 36276 36278 28
29023 36276 36279 28
29024 36276 36280 28
29025 36281 36282 28
29026 36281 36283 28
29027 36281 36284 28
29028 36281 36285 28
29029 36286 36287 28
29030 36286 36288 28
29031 36286 36289 28
29032 36286 36290 28
29033 36291 36292 28
29034 36291 36293 28
29035 36291 36294 28
29036 36291 36295 28
29037 36296 36297 28
29038 36296 36298 28
29039 36296 36299 28
29040 36296 36300 28
29041 36301 36302 28
29042 36301 36303 28
29043 36301 36304 28
29044 36301 36305 28
29045 36306 36307 28
29046 36306 36308 28
29047 36306 36309 28
29048 36306 36310 28
29049 36311 36312 28
29050 36311 36313 28
29051 36311 36314 28
29052 36311 36315 28
29053 36316 36317 28
29054 36316 36318 28
29055 36316 36319 28
29056 36316 36320 28
29057 36321 36322 28
29058 36321 36323 28
29059 36321 36324 28
29060 36321 36325 28
29061 36326 36327 28
29062 36326 36328 28
29063 36326 36329 28
29064 36326 36330 28
29065 36331 36332 28
29066 36331 36333 28
29067 36331 36334 28
29068 36331 36335 28
29069 36336 36337 28
29070 36336 36338 28
29071 36336 36339 28
29072 36336 36340 28
29073 36341 36342 28
29074 36341 36343 28
29075 36341 36344 28
29076 36341 36345 28
29077 36346 36347 28
29078 36346 36348 28
29079 36346 36349 28
29080 36346 36350 28
29081 36351 36352 28
29082 36351 36353 28
29083 36351 36354 28
29084 36351 36355 28
29085 36356 36357 28
29086 36356 36358 28
29087 36356 36359 28
29088 36356 36360 28
29089 36361 36362 28
29090 36361 36363 28
29091 36361 36364 28
29092 36361 36365 28
29093 36366 36367 28
29094 36366 36368 28
29095 36366 36369 28
29096 36366 36370 28
29097 36371 36372 28
29098 36371 36373 28
29099 36371 36374 28
29100 36371 36375 28
29101 36376 36377 28
29102 36376 36378 28
29103 36376 36379 28
29104 36376 36380 28
29105 36381 36382 28
29106 36381 36383 28
29107 36381 36384 28
29108 36381 36385 28
29109 36386 36387 28
29110 36386 36388 28
29111 36386 36389 28
29112 36386 36390 28
29113 36391 36392 28
29114 36391 36393 28
29115 36391 36394 28
29116 36391 36395 28
29117 36396 36397 28
29118 36396 36398 28
29119 36396 36399 28
29120 36396 36400 28
29121 36401 36402 28
29122 36401 36403 28
29123 36401 36404 28
29124 36401 36405 28
29125 36406 36407 28
29126 36406 36408 28
29127 36406 36409 28
29128 36406 36410 28
29129 36411 36412 28
29130 36411 36413 28
29131 36411 36414 28
29132 36411 36415 28
29133 36416 36417 28
29134 36416 36418 28
29135 36416 36419 28
29136 36416 36420 28
29137 36421 36422 28
29138 36421 36423 28
29139 36421 36424 28
29140 36421 36425 28
29141 36426 36427 28
29142 36426 36428 28
29143 36426 36429 28
29144 36426 36430 28
29145 36431 36432 28
29146 36431 36433 28
29147 36431 36434 28
29148 36431 36435 28
29149 36436 36437 28
29150 36436 36438 28
29151 36436 36439 28
29152 36436 36440 28
29153 36441 36442 28
29154 36441 36443 28
29155 36441 36444 28
29156 36441 36445 28
29157 36446 36447 28
29158 36446 36448 28
29159 36446 36449 28
29160 36446 36450 28
29161 36451 36452 28
29162 36451 36453 28
29163 36451 36454 28
29164 36451 36455 28
29165 36456 36457 28
29166 36456 36458 28
29167 36456 36459 28
29168 36456 36460 28
29169 36461 36462 28
29170 36461 36463 28
29171 36461 36464 28
29172 36461 36465 28
29173 36466 36467 28
29174 36466 36468 28
29175 36466 36469 28
29176 36466 36470 28
29177 36471 36472 28
29178 36471 36473 28
29179 36471 36474 28
29180 36471 36475 28
29181 36476 36477 28
29182 36476 36478 28
29183 36476 36479 28
29184 36476 36480 28
29185 36481 36482 28
29186 36481 36483 28
29187 36481 36484 28
29188 36481 36485 28
29189 36486 36487 28
29190 36486 36488 28
29191 36486 36489 28
29192 36486 36490 28
29193 36491 36492 28
29194 36491 36493 28
29195 36491 36494 28
29196 36491 36495 28
29197 36496 36497 28
29198 36496 36498 28
29199 36496 36499 28
29200 36496 36500 28
29201 36501 36502 28
29202 36501 36503 28
29203 36501 36504 28
29204 36501 36505 28
29205 36506 36507 28
29206 36506 36508 28
29207 36506 36509 28
29208 36506 36510 28
29209 36511 36512 28
29210 36511 36513 28
29211 36511 36514 28
29212 36511 36515 28
29213 36516 36517 28
29214 36516 36518 28
29215 36516 36519 28
29216 36516 36520 28
29217 36521 36522 28
29218 36521 36523 28
29219 36521 36524 28
29220 36521 36525 28
29221 36526 36527 28
29222 36526 36528 28
29223 36526 36529 28
29224 36526 36530 28
29225 36531 36532 28
29226 36531 36533 28
29227 36531 36534 28
29228 36531 36535 28
29229 36536 36537 28
29230 36536 36538 28
29231 36536 36539 28
29232 36536 36540 28
29233 36541 36542 28
29234 36541 36543 28
29235 36541 36544 28
29236 36541 36545 28
29237 36546 36547 28
29238 36546 36548 28
29239 36546 36549 28
29240 36546 36550 28
29241 36551 36552 28
29242 36551 36553 28
29243 36551 36554 28
29244 36551 36555 28
29245 36556 36557 28
29246 36556 36558 28
29247 36556 36559 28
29248 36556 36560 28
29249 36561 36562 28
29250 36561 36563 28
29251 36561 36564 28
29252 36561 36565 28
29253 36566 36567 28
29254 36566 36568 28
29255 36566 36569 28
29256 36566 36570 28
29257 36571 36572 28
29258 36571 36573 28
29259 36571 36574 28
29260 36571 36575 28
29261 36576 36577 28
29262 36576 36578 28
29263 36576 36579 28
29264 36576 36580 28
29265 36581 36582 28
29266 36581 36583 28
29267 36581 36584 28
29268 36581 36585 28
29269 36586 36587 28
29270 36586 36588 28
29271 36586 36589 28
29272 36586 36590 28
29273 36591 36592 28
29274 36591 36593 28
29275 36591 36594 28
29276 36591 36595 28
29277 36596 36597 28
29278 36596 36598 28
29279 36596 36599 28
29280 36596 36600 28
29281 36601 36602 28
29282 36601 36603 28
29283 36601 36604 28
29284 36601 36605 28
29285 36606 36607 28
29286 36606 36608 28
29287 36606 36609 28
29288 36606 36610 28
29289 36611 36612 28
29290 36611 36613 28
29291 36611 36614 28
29292 36611 36615 28
29293 36616 36617 28
29294 36616 36618 28
29295 36616 36619 28
29296 36616 36620 28
29297 36621 36622 28
29298 36621 36623 28
29299 36621 36624 28
29300 36621 36625 28
29301 36626 36627 28
29302 36626 36628 28
29303 36626 36629 28
29304 36626 36630 28
29305 36631 36632 28
29306 36631 36633 28
29307 36631 36634 28
29308 36631 36635 28
29309 36636 36637 28
29310 36636 36638 28
29311 36636 36639 28
29312 36636 36640 28
29313 36641 36642 28
29314 36641 36643 28
29315 36641 36644 28
29316 36641 36645 28
29317 36646 36647 28
29318 36646 36648 28
29319 36646 36649 28
29320 36646 36650 28
29321 36651 36652 28
29322 36651 36653 28
29323 36651 36654 28
29324 36651 36655 28
29325 36656 36657 28
29326 36656 36658 28
29327 36656 36659 28
29328 36656 36660 28
29329 36661 36662 28
29330 36661 36663 28
29331 36661 36664 28
29332 36661 36665 28
29333 36666 36667 28
29334 36666 36668 28
29335 36666 36669 28
29336 36666 36670 28
29337 36671 36672 28
29338 36671 36673 28
29339 36671 36674 28
29340 36671 36675 28
29341 36676 36677 28
29342 36676 36678 28
29343 36676 36679 28
29344 36676 36680 28
29345 36681 36682 28
29346 36681 36683 28
29347 36681 36684 28
29348 36681 36685 28
29349 36686 36687 28
29350 36686 36688 28
29351 36686 36689 28
29352 36686 36690 28
29353 36691 36692 28
29354 36691 36693 28
29355 36691 36694 28
29356 36691 36695 28
29357 36696 36697 28
29358 36696 36698 28
29359 36696 36699 28
29360 36696 36700 28
29361 36701 36702 28
29362 36701 36703 28
29363 36701 36704 28
29364 36701 36705 28
29365 36706 36707 28
29366 36706 36708 28
29367 36706 36709 28
29368 36706 36710 28
29369 36711 36712 28
29370 36711 36713 28
29371 36711 36714 28
29372 36711 36715 28
29373 36716 36717 28
29374 36716 36718 28
29375 36716 36719 28
29376 36716 36720 28
29377 36721 36722 28
29378 36721 36723 28
29379 36721 36724 28
29380 36721 36725 28
29381 36726 36727 28
29382 36726 36728 28
29383 36726 36729 28
29384 36726 36730 28
29385 36731 36732 28
29386 36731 36733 28
29387 36731 36734 28
29388 36731 36735 28
29389 36736 36737 28
29390 36736 36738 28
29391 36736 36739 28
29392 36736 36740 28
29393 36741 36742 28
29394 36741 36743 28
29395 36741 36744 28
29396 36741 36745 28
29397 36746 36747 28
29398 36746 36748 28
29399 36746 36749 28
29400 36746 36750 28
29401 36751 36752 28
29402 36751 36753 28
29403 36751 36754 28
29404 36751 36755 28
29405 36756 36757 28
29406 36756 36758 28
29407 36756 36759 28
29408 36756 36760 28
29409 36761 36762 28
29410 36761 36763 28
29411 36761 36764 28
29412 36761 36765 28
29413 36766 36767 28
29414 36766 36768 28
29415 36766 36769 28
29416 36766 36770 28
29417 36771 36772 28
29418 36771 36773 28
29419 36771 36774 28
29420 36771 36775 28
29421 36776 36777 28
29422 36776 36778 28
29423 36776 36779 28
29424 36776 36780 28
29425 36781 36782 28
29426 36781 36783 28
29427 36781 36784 28
29428 36781 36785 28
29429 36786 36787 28
29430 36786 36788 28
29431 36786 36789 28
29432 36786 36790 28
29433 36791 36792 28
29434 36791 36793 28
29435 36791 36794 28
29436 36791 36795 28
29437 36796 36797 28
29438 36796 36798 28
29439 36796 36799 28
29440 36796 36800 28
29441 36801 36802 28
29442 36801 36803 28
29443 36801 36804 28
29444 36801 36805 28
29445 36806 36807 28
29446 36806 36808 28
29447 36806 36809 28
29448 36806 36810 28
29449 36811 36812 28
29450 36811 36813 28
29451 36811 36814 28
29452 36811 36815 28
29453 36816 36817 28
29454 36816 36818 28
29455 36816 36819 28
29456 36816 36820 28
29457 36821 36822 28
29458 36821 36823 28
29459 36821 36824 28
29460 36821 36825 28
29461 36826 36827 28
29462 36826 36828 28
29463 36826 36829 28
29464 36826 36830 28
29465 36831 36832 28
29466 36831 36833 28
29467 36831 36834 28
29468 36831 36835 28
29469 36836 36837 28
29470 36836 36838 28
29471 36836 36839 28
29472 36836 36840 28
29473 36841 36842 28
29474 36841 36843 28
29475 36841 36844 28
29476 36841 36845 28
29477 36846 36847 28
29478 36846 36848 28
29479 36846 36849 28
29480 36846 36850 28
29481 36851 36852 28
29482 36851 36853 28
29483 36851 36854 28
29484 36851 36855 28
29485 36856 36857 28
29486 36856 36858 28
29487 36856 36859 28
29488 36856 36860 28
29489 36861 36862 28
29490 36861 36863 28
29491 36861 36864 28
29492 36861 36865 28
29493 36866 36867 28
29494 36866 36868 28
29495 36866 36869 28
29496 36866 36870 28
29497 36871 36872 28
29498 36871 36873 28
29499 36871 36874 28
29500 36871 36875 28
29501 36876 36877 28
29502 36876 36878 28
29503 36876 36879 28
29504 36876 36880 28
29505 36881 36882 28
29506 36881 36883 28
29507 36881 36884 28
29508 36881 36885 28
29509 36886 36887 28
29510 36886 36888 28
29511 36886 36889 28
29512 36886 36890 28
29513 36891 36892 28
29514 36891 36893 28
29515 36891 36894 28
29516 36891 36895 28
29517 36896 36897 28
29518 36896 36898 28
29519 36896 36899 28
29520 36896 36900 28
29521 36901 36902 28
29522 36901 36903 28
29523 36901 36904 28
29524 36901 36905 28
29525 36906 36907 28
29526 36906 36908 28
29527 36906 36909 28
29528 36906 36910 28
29529 36911 36912 28
29530 36911 36913 28
29531 36911 36914 28
29532 36911 36915 28
29533 36916 36917 28
29534 36916 36918 28
29535 36916 36919 28
29536 36916 36920 28
29537 36921 36922 28
29538 36921 36923 28
29539 36921 36924 28
29540 36921 36925 28
29541 36926 36927 28
29542 36926 36928 28
29543 36926 36929 28
29544 36926 36930 28
29545 36931 36932 28
29546 36931 36933 28
29547 36931 36934 28
29548 36931 36935 28
29549 36936 36937 28
29550 36936 36938 28
29551 36936 36939 28
29552 36936 36940 28
29553 36941 36942 28
29554 36941 36943 28
29555 36941 36944 28
29556 36941 36945 28
29557 36946 36947 28
29558 36946 36948 28
29559 36946 36949 28
29560 36946 36950 28
29561 36951 36952 28
29562 36951 36953 28
29563 36951 36954 28
29564 36951 36955 28
29565 36956 36957 28
29566 36956 36958 28
29567 36956 36959 28
29568 36956 36960 28
29569 36961 36962 28
29570 36961 36963 28
29571 36961 36964 28
29572 36961 36965 28
29573 36966 36967 28
29574 36966 36968 28
29575 36966 36969 28
29576 36966 36970 28
29577 36971 36972 28
29578 36971 36973 28
29579 36971 36974 28
29580 36971 36975 28
29581 36976 36977 28
29582 36976 36978 28
29583 36976 36979 28
29584 36976 36980 28
29585 36981 36982 28
29586 36981 36983 28
29587 36981 36984 28
29588 36981 36985 28
29589 36986 36987 28
29590 36986 36988 28
29591 36986 36989 28
29592 36986 36990 28
29593 36991 36992 28
29594 36991 36993 28
29595 36991 36994 28
29596 36991 36995 28
29597 36996 36997 28
29598 36996 36998 28
29599 36996 36999 28
29600 36996 37000 28
29601 37001 37002 28
29602 37001 37003 28
29603 37001 37004 28
29604 37001 37005 28
29605 37006 37007 28
29606 37006 37008 28
29607 37006 37009 28
29608 37006 37010 28
29609 37011 37012 28
29610 37011 37013 28
29611 37011 37014 28
29612 37011 37015 28
29613 37016 37017 28
29614 37016 37018 28
29615 37016 37019 28
29616 37016 37020 28
29617 37021 37022 28
29618 37021 37023 28
29619 37021 37024 28
29620 37021 37025 28
29621 37026 37027 28
29622 37026 37028 28
29623 37026 37029 28
29624 37026 37030 28
29625 37031 37032 28
29626 37031 37033 28
29627 37031 37034 28
29628 37031 37035 28
29629 37036 37037 28
29630 37036 37038 28
29631 37036 37039 28
29632 37036 37040 28
29633 37041 37042 28
29634 37041 37043 28
29635 37041 37044 28
29636 37041 37045 28
29637 37046 37047 28
29638 37046 37048 28
29639 37046 37049 28
29640 37046 37050 28
29641 37051 37052 28
29642 37051 37053 28
29643 37051 37054 28
29644 37051 37055 28
29645 37056 37057 28
29646 37056 37058 28
29647 37056 37059 28
29648 37056 37060 28
29649 37061 37062 28
29650 37061 37063 28
29651 37061 37064 28
29652 37061 37065 28
29653 37066 37067 28
29654 37066 37068 28
29655 37066 37069 28
29656 37066 37070 28
29657 37071 37072 28
29658 37071 37073 28
29659 37071 37074 28
29660 37071 37075 28
29661 37076 37077 28
29662 37076 37078 28
29663 37076 37079 28
29664 37076 37080 28
29665 37081 37082 28
29666 37081 37083 28
29667 37081 37084 28
29668 37081 37085 28
29669 37086 37087 28
29670 37086 37088 28
29671 37086 37089 28
29672 37086 37090 28
29673 37091 37092 28
29674 37091 37093 28
29675 37091 37094 28
29676 37091 37095 28
29677 37096 37097 28
29678 37096 37098 28
29679 37096 37099 28
29680 37096 37100 28
29681 37101 37102 28
29682 37101 37103 28
29683 37101 37104 28
29684 37101 37105 28
29685 37106 37107 28
29686 37106 37108 28
29687 37106 37109 28
29688 37106 37110 28
29689 37111 37112 28
29690 37111 37113 28
29691 37111 37114 28
29692 37111 37115 28
29693 37116 37117 28
29694 37116 37118 28
29695 37116 37119 28
29696 37116 37120 28
29697 37121 37122 28
29698 37121 37123 28
29699 37121 37124 28
29700 37121 37125 28
29701 37126 37127 28
29702 37126 37128 28
29703 37126 37129 28
29704 37126 37130 28
29705 37131 37132 28
29706 37131 37133 28
29707 37131 37134 28
29708 37131 37135 28
29709 37136 37137 28
29710 37136 37138 28
29711 37136 37139 28
29712 37136 37140 28
29713 37141 37142 28
29714 37141 37143 28
29715 37141 37144 28
29716 37141 37145 28
29717 37146 37147 28
29718 37146 37148 28
29719 37146 37149 28
29720 37146 37150 28
29721 37151 37152 28
29722 37151 37153 28
29723 37151 37154 28
29724 37151 37155 28
29725 37156 37157 28
29726 37156 37158 28
29727 37156 37159 28
29728 37156 37160 28
29729 37161 37162 28
29730 37161 37163 28
29731 37161 37164 28
29732 37161 37165 28
29733 37166 37167 28
29734 37166 37168 28
29735 37166 37169 28
29736 37166 37170 28
29737 37171 37172 28
29738 37171 37173 28
29739 37171 37174 28
29740 37171 37175 28
29741 37176 37177 28
29742 37176 37178 28
29743 37176 37179 28
29744 37176 37180 28
29745 37181 37182 28
29746 37181 37183 28
29747 37181 37184 28
29748 37181 37185 28
29749 37186 37187 28
29750 37186 37188 28
29751 37186 37189 28
29752 37186 37190 28
29753 37191 37192 28
29754 37191 37193 28
29755 37191 37194 28
29756 37191 37195 28
29757 37196 37197 28
29758 37196 37198 28
29759 37196 37199 28
29760 37196 37200 28
29761 37201 37202 28
29762 37201 37203 28
29763 37201 37204 28
29764 37201 37205 28
29765 37206 37207 28
29766 37206 37208 28
29767 37206 37209 28
29768 37206 37210 28
29769 37211 37212 28
29770 37211 37213 28
29771 37211 37214 28
29772 37211 37215 28
29773 37216 37217 28
29774 37216 37218 28
29775 37216 37219 28
29776 37216 37220 28
29777 37221 37222 28
29778 37221 37223 28
29779 37221 37224 28
29780 37221 37225 28
29781 37226 37227 28
29782 37226 37228 28
29783 37226 37229 28
29784 37226 37230 28
29785 37231 37232 28
29786 37231 37233 28
29787 37231 37234 28
29788 37231 37235 28
29789 37236 37237 28
29790 37236 37238 28
29791 37236 37239 28
29792 37236 37240 28
29793 37241 37242 28
29794 37241 37243 28
29795 37241 37244 28
29796 37241 37245 28
29797 37246 37247 28
29798 37246 37248 28
29799 37246 37249 28
29800 37246 37250 28
29801 37251 37252 28
29802 37251 37253 28
29803 37251 37254 28
29804 37251 37255 28
29805 37256 37257 28
29806 37256 37258 28
29807 37256 37259 28
29808 37256 37260 28
29809 37261 37262 28
29810 37261 37263 28
29811 37261 37264 28
29812 37261 37265 28
29813 37266 37267 28
29814 37266 37268 28
29815 37266 37269 28
29816 37266 37270 28
29817 37271 37272 28
29818 37271 37273 28
29819 37271 37274 28
29820 37271 37275 28
29821 37276 37277 28
29822 37276 37278 28
29823 37276 37279 28
29824 37276 37280 28
29825 37281 37282 28
29826 37281 37283 28
29827 37281 37284 28
29828 37281 37285 28
29829 37286 37287 28
29830 37286 37288 28
29831 37286 37289 28
29832 37286 37290 28
29833 37291 37292 28
29834 37291 37293 28
29835 37291 37294 28
29836 37291 37295 28
29837 37296 37297 28
29838 37296 37298 28
29839 37296 37299 28
29840 37296 37300 28
29841 37301 37302 28
29842 37301 37303 28
29843 37301 37304 28
29844 37301 37305 28
29845 37306 37307 28
29846 37306 37308 28
29847 37306 37309 28
29848 37306 37310 28
29849 37311 37312 28
29850 37311 37313 28
29851 37311 37314 28
29852 37311 37315 28
29853 37316 37317 28
29854 37316 37318 28
29855 37316 37319 28
29856 37316 37320 28
29857 37321 37322 28
29858 37321 37323 28
29859 37321 37324 28
29860 37321 37325 28
29861 37326 37327 28
29862 37326 37328 28
29863 37326 37329 28
29864 37326 37330 28
29865 37331 37332 28
29866 37331 37333 28
29867 37331 37334 28
29868 37331 37335 28
29869 37336 37337 28
29870 37336 37338 28
29871 37336 37339 28
29872 37336 37340 28
29873 37341 37342 28
29874 37341 37343 28
29875 37341 37344 28
29876 37341 37345 28
29877 37346 37347 28
29878 37346 37348 28
29879 37346 37349 28
29880 37346 37350 28
29881 37351 37352 28
29882 37351 37353 28
29883 37351 37354 28
29884 37351 37355 28
29885 37356 37357 28
29886 37356 37358 28
29887 37356 37359 28
29888 37356 37360 28
29889 37361 37362 28
29890 37361 37363 28
29891 37361 37364 28
29892 37361 37365 28
29893 37366 37367 28
29894 37366 37368 28
29895 37366 37369 28
29896 37366 37370 28
29897 37371 37372 28
29898 37371 37373 28
29899 37371 37374 28
29900 37371 37375 28
29901 37376 37377 28
29902 37376 37378 28
29903 37376 37379 28
29904 37376 37380 28
29905 37381 37382 28
29906 37381 37383 28
29907 37381 37384 28
29908 37381 37385 28
29909 37386 37387 28
29910 37386 37388 28
29911 37386 37389 28
29912 37386 37390 28
29913 37391 37392 28
29914 37391 37393 28
29915 37391 37394 28
29916 37391 37395 28
29917 37396 37397 28
29918 37396 37398 28
29919 37396 37399 28
29920 37396 37400 28
29921 37401 37402 28
29922 37401 37403 28
29923 37401 37404 28
29924 37401 37405 28
29925 37406 37407 28
29926 37406 37408 28
29927 37406 37409 28
29928 37406 37410 28
29929 37411 37412 28
29930 37411 37413 28
29931 37411 37414 28
29932 37411 37415 28
29933 37416 37417 28
29934 37416 37418 28
29935 37416 37419 28
29936 37416 37420 28
29937 37421 37422 28
29938 37421 37423 28
29939 37421 37424 28
29940 37421 37425 28
29941 37426 37427 28
29942 37426 37428 28
29943 37426 37429 28
29944 37426 37430 28
29945 37431 37432 28
29946 37431 37433 28
29947 37431 37434 28
29948 37431 37435 28
29949 37436 37437 28
29950 37436 37438 28
29951 37436 37439 28
29952 37436 37440 28
29953 37441 37442 28
29954 37441 37443 28
29955 37441 37444 28
29956 37441 37445 28
29957 37446 37447 28
29958 37446 37448 28
29959 37446 37449 28
29960 37446 37450 28
29961 37451 37452 28
29962 37451 37453 28
29963 37451 37454 28
29964 37451 37455 28
29965 37456 37457 28
29966 37456 37458 28
29967 37456 37459 28
29968 37456 37460 28
29969 37461 37462 28
29970 37461 37463 28
29971 37461 37464 28
29972 37461 37465 28
29973 37466 37467 28
29974 37466 37468 28
29975 37466 37469 28
29976 37466 37470 28
29977 37471 37472 28
29978 37471 37473 28
29979 37471 37474 28
29980 37471 37475 28
29981 37476 37477 28
29982 37476 37478 28
29983 37476 37479 28
29984 37476 37480 28
29985 37481 37482 28
29986 37481 37483 28
29987 37481 37484 28
29988 37481 37485 28
29989 37486 37487 28
29990 37486 37488 28
29991 37486 37489 28
29992 37486 37490 28
29993 37491 37492 28
29994 37491 37493 28
29995 37491 37494 28
29996 37491 37495 28
29997 37496 37497 28
29998 37496 37498 28
29999 37496 37499 28
30000 37496 37500 28
@<TRIPOS>CRYSIN
157.0223717966419 157.0223717966419 157.0223717966419 90 90 90 1 1
