@<TRIPOS>MOLECULE
mol
37500 30000
SMALL
USER_CHARGES


@<TRIPOS>ATOM
1 C 2.9340136210261107 65.00388842977655 132.22339423348367 C 0.0 **** -0.24
2 H 2.582357391013204 66.03016357187813 132.11980999197908 H 0.0 **** 0.06
3 H 2.1232337536748673 64.37762170359782 132.5949402742791 H 0.0 **** 0.06
4 H 3.767182367106898 64.97498616636501 132.92536216084633 H 0.0 **** 0.06
5 H 3.263498315999925 64.63369515903887 131.25240645116585 H 0.0 **** 0.06
6 C 58.38472511345418 140.4781434528751 91.26067555956129 C 0.0 **** -0.24
7 H 57.67340110587814 141.15659423918444 91.73111381451076 H 0.0 **** 0.06
8 H 58.42469835500343 139.5447004677822 91.82317343662801 H 0.0 **** 0.06
9 H 59.37317824264328 140.93835316102897 91.25062817054271 H 0.0 **** 0.06
10 H 58.0685708557629 140.27308921116605 90.2375139131252 H 0.0 **** 0.06
11 C 61.186385514559475 91.42394997016976 117.88101689458786 C 0.0 **** -0.24
12 H 60.64505469071892 90.84561279357501 117.1325213899717 H 0.0 **** 0.06
13 H 62.18392188907987 91.65803823499712 117.50712866692099 H 0.0 **** 0.06
14 H 61.270631283989104 90.84185669287817 118.79871758143035 H 0.0 **** 0.06
15 H 60.64767911553892 92.34920658348236 118.0848184874231 H 0.0 **** 0.06
16 C 60.263065203810925 7.247633683342002 71.1736266723118 C 0.0 **** -0.24
17 H 60.888358676311896 8.123996025472394 71.34372839539749 H 0.0 **** 0.06
18 H 59.461050300388365 7.5022797832488095 70.48065268370833 H 0.0 **** 0.06
19 H 59.83544441819333 6.91759797156908 72.12085917301785 H 0.0 **** 0.06
20 H 60.86900981185386 6.446404298684655 70.74987189545602 H 0.0 **** 0.06
21 C 137.95417481503497 28.519825721514486 73.35676337446664 C 0.0 **** -0.24
22 H 138.49135786075058 28.21810716682281 72.45777351849956 H 0.0 **** 0.06
23 H 136.9635844825112 28.88477996468366 73.08337954658471 H 0.0 **** 0.06
24 H 138.50680658101365 29.311484988755275 73.86154171840653 H 0.0 **** 0.06
25 H 137.85411055604678 27.663836626046134 74.02404614235894 H 0.0 **** 0.06
26 C 142.78138379946418 92.96040468231669 46.49408773649728 C 0.0 **** -0.24
27 H 143.81721555533758 92.62755257331699 46.41560463991374 H 0.0 **** 0.06
28 H 142.23630140143095 92.29450583585911 47.16346312260286 H 0.0 **** 0.06
29 H 142.31928521241136 92.943575252785 45.507847354660996 H 0.0 **** 0.06
30 H 142.75679451467184 93.97509465021508 46.89027971726877 H 0.0 **** 0.06
31 C 16.380180558562614 43.43843993128144 75.3842680131964 C 0.0 **** -0.24
32 H 17.135886348949803 43.29722804129875 76.1574384152563 H 0.0 **** 0.06
33 H 15.760404019792219 42.54468804070427 75.31466865099517 H 0.0 **** 0.06
34 H 16.868887850051323 43.61854293186485 74.42710159514074 H 0.0 **** 0.06
35 H 15.755581183903395 44.29483070229401 75.64044371605117 H 0.0 **** 0.06
36 C 6.1255499518804015 8.439614827318422 88.90615456043862 C 0.0 **** -0.24
37 H 7.2017746930023065 8.433666399889006 88.73280977302717 H 0.0 **** 0.06
38 H 5.926533694206313 8.699945729932722 89.94572265981951 H 0.0 **** 0.06
39 H 5.718194419102872 7.450610337422972 88.69419205126164 H 0.0 **** 0.06
40 H 5.65649153871729 9.173662514118206 88.25046583348745 H 0.0 **** 0.06
41 C 29.855220325123753 147.6359580370697 120.7404835432111 C 0.0 **** -0.24
42 H 28.940073119690652 147.40053111786517 120.19884143287032 H 0.0 **** 0.06
43 H 30.134175364263527 148.67285054675622 120.5521473935583 H 0.0 **** 0.06
44 H 30.65617297866956 146.97667172166078 120.40475014601463 H 0.0 **** 0.06
45 H 29.691328171150644 147.49232555530844 121.80867199612175 H 0.0 **** 0.06
46 C 1.191764394817909 40.529141210155785 125.1143564820063 C 0.0 **** -0.24
47 H 1.743910536774763 39.60320560320284 125.27682922530563 H 0.0 **** 0.06
48 H 1.7488988063192323 41.16804534446081 124.42906001842674 H 0.0 **** 0.06
49 H 1.059532361754492 41.043865821472195 126.06581942569386 H 0.0 **** 0.06
50 H 0.2163236940704678 40.29985333029438 124.68665103379284 H 0.0 **** 0.06
51 C 41.29480060723064 50.180728286197294 114.21819637802021 C 0.0 **** -0.24
52 H 40.24399932727134 50.409090232343715 114.39657792726713 H 0.0 **** 0.06
53 H 41.771493876841845 49.908748930828935 115.15960076340794 H 0.0 **** 0.06
54 H 41.78996937072512 51.05755195277939 113.79889493497801 H 0.0 **** 0.06
55 H 41.37188117057798 49.35005675137974 113.51665317028927 H 0.0 **** 0.06
56 C 92.28080643620858 49.791784379874144 15.501900418894735 C 0.0 **** -0.24
57 H 93.11420023452212 49.45202016109879 14.885990862892982 H 0.0 **** 0.06
58 H 91.83544526236108 48.937760419706294 16.012152300267132 H 0.0 **** 0.06
59 H 91.53329379367227 50.268698615379165 14.868526028291882 H 0.0 **** 0.06
60 H 92.6439717527427 50.50793151096555 16.238959927954227 H 0.0 **** 0.06
61 C 26.25488670134814 138.11794477059019 148.48031856170073 C 0.0 **** -0.24
62 H 25.203426078220275 138.13457459008401 148.1932323434008 H 0.0 **** 0.06
63 H 26.550399409790174 139.10515829107482 148.8333612379693 H 0.0 **** 0.06
64 H 26.86165301630139 137.8426438761174 147.61797262084295 H 0.0 **** 0.06
65 H 26.401287343245535 137.38737644238108 149.27630491682032 H 0.0 **** 0.06
66 C 103.52128277030997 147.67629451095885 26.036303254889134 C 0.0 **** -0.24
67 H 103.391459469701 147.05699678936264 26.92418993075298 H 0.0 **** 0.06
68 H 102.54436450667447 147.9954337278625 25.670890597421504 H 0.0 **** 0.06
69 H 104.02910404718116 147.10014168251124 25.262694852585184 H 0.0 **** 0.06
70 H 104.1183018931259 148.55212082205387 26.289474945780604 H 0.0 **** 0.06
71 C 104.95443459349278 78.0326265882695 72.4176332063102 C 0.0 **** -0.24
72 H 105.25858583409124 77.96701942120701 71.37294367859697 H 0.0 **** 0.06
73 H 105.8266518526074 78.24255463749445 73.03667419737764 H 0.0 **** 0.06
74 H 104.50777239696177 77.08764910348056 72.72637081070077 H 0.0 **** 0.06
75 H 104.22533082610161 78.8343643897683 72.53386000932265 H 0.0 **** 0.06
76 C 86.76381450277567 130.86612262541334 150.03720798755865 C 0.0 **** -0.24
77 H 87.10121095006535 130.19084188648546 149.25007769802443 H 0.0 **** 0.06
78 H 87.54271082554892 130.9609116007708 150.79361795701482 H 0.0 **** 0.06
79 H 85.85850221840077 130.46615969241302 150.495036386261 H 0.0 **** 0.06
80 H 86.55190301185229 131.84557485623023 149.6083311594703 H 0.0 **** 0.06
81 C 44.140741840087685 24.635342999967236 84.5504206069516 C 0.0 **** -0.24
82 H 43.789020571121 25.14993254210708 83.65519867762387 H 0.0 **** 0.06
83 H 44.35814816465319 23.594991192942473 84.30976510678971 H 0.0 **** 0.06
84 H 43.36937509971341 24.67876640817991 85.3192620989075 H 0.0 **** 0.06
85 H 45.04542379885717 25.121454075274528 84.91579174020421 H 0.0 **** 0.06
86 C 51.48447449034812 11.849510631221392 39.18407604485307 C 0.0 **** -0.24
87 H 52.198040352331475 12.436909139057974 39.76130755121052 H 0.0 **** 0.06
88 H 51.406546425452404 12.260617042979163 38.17720800658009 H 0.0 **** 0.06
89 H 50.508741604680594 11.886115265044992 39.669184221518464 H 0.0 **** 0.06
90 H 51.824181663074185 10.815226525314046 39.13007690392277 H 0.0 **** 0.06
91 C 41.25668695970337 72.57117905087865 95.0138291487248 C 0.0 **** -0.24
92 H 41.553481203268575 71.57982049086387 95.35650227799135 H 0.0 **** 0.06
93 H 40.191196587069086 72.57048424793369 94.77993315604581 H 0.0 **** 0.06
94 H 41.82447742896842 72.8319797235865 94.12108201200238 H 0.0 **** 0.06
95 H 41.45536366458224 73.30147290975452 95.79746355694078 H 0.0 **** 0.06
96 C 80.5207660393022 92.0538478394461 138.88308861704922 C 0.0 **** -0.24
97 H 80.24755518162218 92.01416191362988 137.82787754986106 H 0.0 **** 0.06
98 H 80.63186402430402 91.03976921752276 139.26720223964972 H 0.0 **** 0.06
99 H 79.74025215196257 92.57142695516042 139.44098056249598 H 0.0 **** 0.06
100 H 81.46270981403357 92.59032368433037 138.9930615330005 H 0.0 **** 0.06
101 C 5.450248173085441 28.924397524857312 46.6019329167944 C 0.0 **** -0.24
102 H 5.8230546555836895 29.82039327320203 47.097081770810576 H 0.0 **** 0.06
103 H 4.36842005049769 28.86708103629391 46.720081968802106 H 0.0 **** 0.06
104 H 5.912730763847918 28.04396072370011 47.049254294154366 H 0.0 **** 0.06
105 H 5.698989816232142 28.966238100302604 45.541690288173584 H 0.0 **** 0.06
106 C 116.94162040729273 141.65071472045008 3.969055130102184 C 0.0 **** -0.24
107 H 117.29611774534723 140.71992884645732 4.413259838975968 H 0.0 **** 0.06
108 H 116.22345526467078 141.4261169307901 3.1804315534863434 H 0.0 **** 0.06
109 H 117.78531474229598 142.19644205107662 3.5490087525821217 H 0.0 **** 0.06
110 H 116.46135218100815 142.25905772651046 4.736206838616258 H 0.0 **** 0.06
111 C 100.02328160762707 39.5387223348059 103.46550873465266 C 0.0 **** -0.24
112 H 99.013193119113 39.1832625270975 103.2611192406517 H 0.0 **** 0.06
113 H 99.98546507841007 40.319635466344465 104.22507445149695 H 0.0 **** 0.06
114 H 100.45881132640449 39.94139395390141 102.5511680401249 H 0.0 **** 0.06
115 H 100.63389706899503 38.710576583586146 103.82605259811966 H 0.0 **** 0.06
116 C 107.25537809792819 97.89467747541065 35.96629232533192 C 0.0 **** -0.24
117 H 107.27502148389887 98.97733742438899 36.090514107199766 H 0.0 **** 0.06
118 H 108.25613363049864 97.49207196556083 36.12927614877631 H 0.0 **** 0.06
119 H 106.92637087895308 97.65133419336169 34.95611819493709 H 0.0 **** 0.06
120 H 106.56628443465424 97.45782568619069 36.688424506343296 H 0.0 **** 0.06
121 C 10.932928557773437 70.55364019664592 48.652618382480256 C 0.0 **** -0.24
122 H 10.4423879722832 70.94146564868322 49.54550014553783 H 0.0 **** 0.06
123 H 11.0712574075813 71.36220528767365 47.93418317894731 H 0.0 **** 0.06
124 H 10.313661027783553 69.77431420985238 48.20752485601349 H 0.0 **** 0.06
125 H 11.903329408492027 70.13678506665133 48.92237471199732 H 0.0 **** 0.06
126 C 91.80570551717389 89.78387544831963 16.43034173567179 C 0.0 **** -0.24
127 H 92.70103033663665 89.56904293467332 15.846516452683147 H 0.0 **** 0.06
128 H 90.92401079170166 89.66267442916148 15.800422505975348 H 0.0 **** 0.06
129 H 91.84991489730658 90.80778247012313 16.80084599638235 H 0.0 **** 0.06
130 H 91.74796401312248 89.0938656335666 17.272928767054793 H 0.0 **** 0.06
131 C 44.83054697405636 22.67627841501342 59.461666582425764 C 0.0 **** -0.24
132 H 44.98724596469452 22.13217922001187 60.3931975722638 H 0.0 **** 0.06
133 H 44.63970200855094 21.967788686851193 58.65537569080867 H 0.0 **** 0.06
134 H 45.72030852855528 23.261497911064964 59.22877173046996 H 0.0 **** 0.06
135 H 43.97506216352588 23.343147013425934 59.5701769684741 H 0.0 **** 0.06
136 C 62.80502639989557 98.47515321674086 6.171361851400519 C 0.0 **** -0.24
137 H 63.60538641662734 99.12350292257119 5.817215098985685 H 0.0 **** 0.06
138 H 61.89667635984273 99.06247204479749 6.312132398557964 H 0.0 **** 0.06
139 H 63.09578774786503 98.02235825982916 7.118886533058401 H 0.0 **** 0.06
140 H 62.62025108885011 97.69213650056543 5.436231676119036 H 0.0 **** 0.06
141 C 110.75575246975167 87.132465246923 33.91106545671525 C 0.0 **** -0.24
142 H 111.24215659260703 87.02932687200939 34.8810396768007 H 0.0 **** 0.06
143 H 111.06467820528873 86.31332730189385 33.2610112795858 H 0.0 **** 0.06
144 H 111.04081380625432 88.0822658253131 33.46062088436058 H 0.0 **** 0.06
145 H 109.67364945242183 87.10330207302255 34.043133978631715 H 0.0 **** 0.06
146 C 100.65170992586395 85.32251344065273 12.7111215132511 C 0.0 **** -0.24
147 H 100.78196161545512 86.37016918771212 12.440734012767535 H 0.0 **** 0.06
148 H 99.63072555131312 85.1624366151218 13.060084065661442 H 0.0 **** 0.06
149 H 101.35181748489951 85.06198552689725 13.504398304006116 H 0.0 **** 0.06
150 H 100.8403092465469 84.69683791970508 11.83920357426129 H 0.0 **** 0.06
151 C 86.32285300880528 3.5261105627910183 49.70428822225108 C 0.0 **** -0.24
152 H 85.91912972156041 2.561554878256743 49.39818810102646 H 0.0 **** 0.06
153 H 87.2831085431904 3.6902630528766736 49.21350026548009 H 0.0 **** 0.06
154 H 86.46128967387835 3.535526844974129 50.78547974631043 H 0.0 **** 0.06
155 H 85.62951382323928 4.317408769157623 49.41948758725013 H 0.0 **** 0.06
156 C 63.231204593897075 50.88674500640323 17.987990769518433 C 0.0 **** -0.24
157 H 62.595824619939606 50.45982374554703 18.763333257492036 H 0.0 **** 0.06
158 H 62.6195611271969 51.162381695027705 17.12838958177042 H 0.0 **** 0.06
159 H 63.97710946241301 50.152545999557134 17.683941068648522 H 0.0 **** 0.06
160 H 63.731824377459816 51.773313680060824 18.377056700959542 H 0.0 **** 0.06
161 C 104.57690292331814 49.21296691528674 24.90078702643713 C 0.0 **** -0.24
162 H 104.54873482863128 50.012303145849316 24.16132737562299 H 0.0 **** 0.06
163 H 105.40998070918805 48.54421073723195 24.682310270200247 H 0.0 **** 0.06
164 H 103.641761428375 48.6534248660667 24.865465790483398 H 0.0 **** 0.06
165 H 104.7059718494905 49.64105529999496 25.894985215870236 H 0.0 **** 0.06
166 C 135.3047900495451 107.43600564666123 149.36072973658017 C 0.0 **** -0.24
167 H 135.53260743095683 107.01215238521421 148.38207750955203 H 0.0 **** 0.06
168 H 135.4733687872828 106.68141121378757 150.1297219174295 H 0.0 **** 0.06
169 H 134.26342315811567 107.7540971629313 149.3852694972117 H 0.0 **** 0.06
170 H 135.95146087486435 108.2934034417117 149.5443143456985 H 0.0 **** 0.06
171 C 135.26166252429303 49.51330992114465 48.07387551858639 C 0.0 **** -0.24
172 H 134.35193689104685 49.08557026345292 48.4951539761022 H 0.0 **** 0.06
173 H 136.11987378029906 48.913161634740746 48.376459331609624 H 0.0 **** 0.06
174 H 135.38566494413882 50.53355328484534 48.436669337034616 H 0.0 **** 0.06
175 H 135.18967562697392 49.52036587718433 46.98603517963775 H 0.0 **** 0.06
176 C 113.45665916715609 109.18531298817409 41.38991652818805 C 0.0 **** -0.24
177 H 113.1661886362545 108.93330461555125 42.41040816350963 H 0.0 **** 0.06
178 H 114.54110214034927 109.28181804861974 41.33449355607928 H 0.0 **** 0.06
179 H 112.99371667364193 110.12985100166829 41.1042844735033 H 0.0 **** 0.06
180 H 113.12585060379041 108.3984093437728 40.71337993013074 H 0.0 **** 0.06
181 C 119.79182201532969 75.74670188545784 136.09521762324772 C 0.0 **** -0.24
182 H 118.85903307765243 76.31162058363373 136.07556562000966 H 0.0 **** 0.06
183 H 120.1313174582756 75.57038425689608 135.0742928262286 H 0.0 **** 0.06
184 H 119.62710856085705 74.79173504953748 136.59377984361444 H 0.0 **** 0.06
185 H 120.54788504568008 76.31416336903621 136.63708809847577 H 0.0 **** 0.06
186 C 86.1650851806514 75.71747314473777 5.074920775207289 C 0.0 **** -0.24
187 H 87.08250450023297 75.12783492421067 5.082736903408943 H 0.0 **** 0.06
188 H 85.58965072433935 75.48055065203755 4.17929392752535 H 0.0 **** 0.06
189 H 86.41474505945007 76.77785711414475 5.07602366647879 H 0.0 **** 0.06
190 H 85.57437560827285 75.48215170296447 5.959931218020159 H 0.0 **** 0.06
191 C 86.51405008043523 62.56932976417362 73.27490562312025 C 0.0 **** -0.24
192 H 85.93822582022352 61.95608521894697 72.58208312343612 H 0.0 **** 0.06
193 H 87.56849148219915 62.53604982816779 72.99780037274112 H 0.0 **** 0.06
194 H 86.39110620433327 62.18688621421654 74.28812041462638 H 0.0 **** 0.06
195 H 86.15900926529278 63.59941908781066 73.22953461203767 H 0.0 **** 0.06
196 C 37.24836930517125 35.82427243168448 50.17295805157157 C 0.0 **** -0.24
197 H 37.10728257988637 35.2782843386957 49.23982727545079 H 0.0 **** 0.06
198 H 36.43295375965789 36.536699989267134 50.303365094192955 H 0.0 **** 0.06
199 H 38.19773869547123 36.36061267101502 50.13909855383818 H 0.0 **** 0.06
200 H 37.25715428835247 35.12289356802404 51.00649026400906 H 0.0 **** 0.06
201 C 94.87488418416436 92.1488603877967 16.57173899925779 C 0.0 **** -0.24
202 H 94.33889402856643 91.20403021914493 16.482413838768572 H 0.0 **** 0.06
203 H 95.36510198930435 92.19731778730312 17.544113860247798 H 0.0 **** 0.06
204 H 94.17124673644466 92.97596717839531 16.477541429508975 H 0.0 **** 0.06
205 H 95.6239443287298 92.21693052571283 15.782217704296613 H 0.0 **** 0.06
206 C 2.7614608727726306 12.478424559377657 68.82518998550302 C 0.0 **** -0.24
207 H 1.9723061630609493 11.991138558450245 69.39851686515038 H 0.0 **** 0.06
208 H 2.5945826052316647 13.555028695508042 68.81984026320066 H 0.0 **** 0.06
209 H 2.750527629997862 12.103113143688859 67.80162645080048 H 0.0 **** 0.06
210 H 3.7271719778055683 12.261114164784317 69.28149113074488 H 0.0 **** 0.06
211 C 60.40613426408794 115.00666244087826 126.10026992730754 C 0.0 **** -0.24
212 H 61.249524176665005 115.68985730463997 125.99932081796857 H 0.0 **** 0.06
213 H 59.55679513789306 115.39316178304405 125.53764770802277 H 0.0 **** 0.06
214 H 60.13556488524583 114.91671136247773 127.1522345141889 H 0.0 **** 0.06
215 H 60.683493355013155 114.02648239038801 125.71219713317362 H 0.0 **** 0.06
216 C 58.90499195788851 129.2266888182594 122.24072599899135 C 0.0 **** -0.24
217 H 58.018357139656274 129.37263440583183 121.6240380272735 H 0.0 **** 0.06
218 H 59.039438145625155 128.16324458744958 122.43885999285523 H 0.0 **** 0.06
219 H 58.78364553390654 129.76076404710696 123.18367998322428 H 0.0 **** 0.06
220 H 59.779776618286206 129.61205594822158 121.71551317380035 H 0.0 **** 0.06
221 C 134.37121825947074 43.42110092210234 12.576106584879653 C 0.0 **** -0.24
222 H 134.71176487425325 43.352124288322486 11.543066070898846 H 0.0 **** 0.06
223 H 134.12921445399994 44.458253894590854 12.809782388261738 H 0.0 **** 0.06
224 H 135.1605417827922 43.072858497378235 13.242625968931947 H 0.0 **** 0.06
225 H 133.4845690294646 42.80167025782444 12.708436669609654 H 0.0 **** 0.06
226 C 118.59985474904066 9.109030114562984 102.0805041846344 C 0.0 **** -0.24
227 H 119.00456066935833 10.08837340495495 102.33395296833757 H 0.0 **** 0.06
228 H 117.85148690174005 9.217360583417133 101.2954331310248 H 0.0 **** 0.06
229 H 118.13926770328477 8.667536986097502 102.96424955125784 H 0.0 **** 0.06
230 H 119.40461275646267 8.463062899755641 101.7296831672219 H 0.0 **** 0.06
231 C 68.5588300559131 123.8751842766638 111.48624374146323 C 0.0 **** -0.24
232 H 68.54905982985197 124.85642372977138 111.01152469960573 H 0.0 **** 0.06
233 H 68.30431866674776 123.98041693959324 112.5410245407183 H 0.0 **** 0.06
234 H 69.55265781975064 123.43706070651469 111.39438190967456 H 0.0 **** 0.06
235 H 67.8294868689518 123.22822883498434 110.99817850228436 H 0.0 **** 0.06
236 C 18.334447234022775 120.3047934459968 27.03024215410923 C 0.0 **** -0.24
237 H 19.244346445984263 120.63369914151785 26.53065946575998 H 0.0 **** 0.06
238 H 18.533649261732535 120.16411800295712 28.093288017699564 H 0.0 **** 0.06
239 H 18.000391402454625 119.36274088184827 26.595016735280772 H 0.0 **** 0.06
240 H 17.557104573648502 121.05863643004311 26.902854353142466 H 0.0 **** 0.06
241 C 87.24865026589768 44.00433494088357 141.67225208664496 C 0.0 **** -0.24
242 H 86.20443495648777 43.78289157393496 141.89458906988912 H 0.0 **** 0.06
243 H 87.82668207480768 43.995420501902686 142.59760030812282 H 0.0 **** 0.06
244 H 87.32038204254899 44.98681029049507 141.20786954136685 H 0.0 **** 0.06
245 H 87.64221002003167 43.24974067244338 140.99160851292902 H 0.0 **** 0.06
246 C 117.5284028949647 0.6531269696010327 0.24224417025238765 C 0.0 **** -0.24
247 H 118.47238271901011 0.2531467900720372 0.6125027745694602 H 0.0 **** 0.06
248 H 117.17720567116942 1.4361225637443908 0.9143995818520771 H 0.0 **** 0.06
249 H 116.78906601690102 -0.1455966176217771 0.19479894868798553 H 0.0 **** 0.06
250 H 117.6770833663694 1.069950010439129 -0.7545237069355331 H 0.0 **** 0.06
251 C 24.123104504861573 23.832211905805366 97.52061862950191 C 0.0 **** -0.24
252 H 24.658724684494302 23.180653101297253 96.83094943849085 H 0.0 **** 0.06
253 H 23.478286150720777 24.505917757764053 96.95651740563554 H 0.0 **** 0.06
254 H 24.84036545674573 24.41530637082502 98.09998563720211 H 0.0 **** 0.06
255 H 23.517216676481212 23.22802994054274 98.19540567216285 H 0.0 **** 0.06
256 C 78.45719280571014 95.81756562052692 83.6446998957622 C 0.0 **** -0.24
257 H 77.37176800701114 95.88621106271879 83.5835669405883 H 0.0 **** 0.06
258 H 78.87637675614894 95.78744515831912 82.63891161689708 H 0.0 **** 0.06
259 H 78.73405430704693 94.910520937413 84.18172049458897 H 0.0 **** 0.06
260 H 78.84729386184989 96.68670318923103 84.17491264399895 H 0.0 **** 0.06
261 C 139.6019780387365 14.020067409200173 92.41785260944317 C 0.0 **** -0.24
262 H 139.87522060832583 12.966752846618085 92.35890011984765 H 0.0 **** 0.06
263 H 140.20288906170686 14.591386026320599 91.71095698002961 H 0.0 **** 0.06
264 H 139.78215558792618 14.386369373432217 93.4276230480404 H 0.0 **** 0.06
265 H 138.54572963319134 14.134810442085616 92.17273864545018 H 0.0 **** 0.06
266 C 10.769527139320076 135.65021873134646 42.00605759373127 C 0.0 **** -0.24
267 H 11.59910298535533 136.28560022718878 41.69505474268048 H 0.0 **** 0.06
268 H 10.860589095840226 134.67490760696614 41.527613838931444 H 0.0 **** 0.06
269 H 9.82828424071431 136.11363027798566 41.71214776023794 H 0.0 **** 0.06
270 H 10.791520435686891 135.52817438442537 43.08949425392727 H 0.0 **** 0.06
271 C 129.42148928709278 133.77122091799555 120.62284063405802 C 0.0 **** -0.24
272 H 128.84062226246823 132.87390006923835 120.83553117864047 H 0.0 **** 0.06
273 H 130.2840360558066 133.50792854706424 120.01049458051507 H 0.0 **** 0.06
274 H 129.76198198558788 134.2132579665251 121.5592366272921 H 0.0 **** 0.06
275 H 128.79924755702194 134.48810975474606 120.0875658526336 H 0.0 **** 0.06
276 C 33.39737291177826 94.72355105688902 71.11015523751718 C 0.0 **** -0.24
277 H 34.10413040827939 94.03908952515174 70.64217586190637 H 0.0 **** 0.06
278 H 32.83745085631986 94.19637290511913 71.88230156746675 H 0.0 **** 0.06
279 H 32.708003961905504 95.10470046419307 70.35683720379569 H 0.0 **** 0.06
280 H 33.94117188295574 95.55521459472696 71.55915741429578 H 0.0 **** 0.06
281 C 59.30165620505656 97.7053969530189 148.5925008056673 C 0.0 **** -0.24
282 H 59.00394271352343 97.42685989719301 147.5814284624945 H 0.0 **** 0.06
283 H 59.63605791162405 96.81796680045689 149.12967182089218 H 0.0 **** 0.06
284 H 58.45133932976523 98.14777667334978 149.11265167031368 H 0.0 **** 0.06
285 H 60.1145419415671 98.43060266819896 148.5448986462245 H 0.0 **** 0.06
286 C 35.43379172881478 73.08737630593392 40.302115265088645 C 0.0 **** -0.24
287 H 35.03605245478553 73.86281724835469 40.95612770132058 H 0.0 **** 0.06
288 H 36.22547747531017 72.54553126781136 40.82082536279654 H 0.0 **** 0.06
289 H 35.83834719763661 73.54689148153322 39.399311729122275 H 0.0 **** 0.06
290 H 34.63703631127427 72.39520954066863 40.03195528770206 H 0.0 **** 0.06
291 C 118.68848005706401 145.42151836383997 135.99323718956563 C 0.0 **** -0.24
292 H 119.76089586716618 145.5796663825311 135.87845468245064 H 0.0 **** 0.06
293 H 118.14888446341878 146.10635264069614 135.33834473521222 H 0.0 **** 0.06
294 H 118.4038691220215 145.6085453444957 137.02924976277518 H 0.0 **** 0.06
295 H 118.44240513530498 144.393774656101 135.72745821402285 H 0.0 **** 0.06
296 C 133.63599756017487 29.38742304589651 93.21566794590692 C 0.0 **** -0.24
297 H 134.61454598946426 28.925949396953328 93.0845973098892 H 0.0 **** 0.06
298 H 133.36368967500812 29.92488710070434 92.30753564536533 H 0.0 **** 0.06
299 H 133.67261834093193 30.08448416547145 94.05327240137453 H 0.0 **** 0.06
300 H 132.8935963215298 28.615209961759987 93.41755861433322 H 0.0 **** 0.06
301 C 99.01953100057392 49.783679028784505 109.6343239475185 C 0.0 **** -0.24
302 H 98.86677566839296 50.47391170593171 110.46532829460163 H 0.0 **** 0.06
303 H 100.08582543380192 49.58866903773854 109.51686844704183 H 0.0 **** 0.06
304 H 98.62701673584661 50.22600563833757 108.71858696934895 H 0.0 **** 0.06
305 H 98.49959148131177 48.84874433109536 109.83895880685019 H 0.0 **** 0.06
306 C 15.067911857323452 93.25317137504459 81.52241940803427 C 0.0 **** -0.24
307 H 14.663129130183819 92.53945123709052 82.23903921248075 H 0.0 **** 0.06
308 H 14.67932123288844 94.24846265198771 81.74178700793104 H 0.0 **** 0.06
309 H 14.774596258986776 92.96292980312899 80.51409692359573 H 0.0 **** 0.06
310 H 16.15570189185513 93.26441114277728 81.59518625672243 H 0.0 **** 0.06
311 C 45.432774310298655 31.81979691743271 87.11148911230624 C 0.0 **** -0.24
312 H 45.523683408800636 30.978381298533805 87.79901497094737 H 0.0 **** 0.06
313 H 44.60410627127099 32.455672168380886 87.4249033306429 H 0.0 **** 0.06
314 H 45.24500531315205 31.44727393118731 86.10477172870021 H 0.0 **** 0.06
315 H 46.357556007488995 32.396729174769064 87.11994299780342 H 0.0 **** 0.06
316 C 2.1255168624690235 134.81903187912474 25.593985507870165 C 0.0 **** -0.24
317 H 2.3988786720248783 134.20354842800492 26.45056760904 H 0.0 **** 0.06
318 H 1.1151927045475105 135.20392117112237 25.73065954780973 H 0.0 **** 0.06
319 H 2.16576722986893 134.21616655170118 24.686328183706713 H 0.0 **** 0.06
320 H 2.8237531245452097 135.65158483999966 25.50702472128158 H 0.0 **** 0.06
321 C 53.82780199735234 142.8694338554231 34.41008752567903 C 0.0 **** -0.24
322 H 54.35842438010151 141.930916807516 34.25022785260763 H 0.0 **** 0.06
323 H 54.54746639066609 143.68735183367605 34.469061325476986 H 0.0 **** 0.06
324 H 53.26307216612453 142.81401554750673 35.339942061786665 H 0.0 **** 0.06
325 H 53.14492184422815 143.04622030166644 33.57962096915026 H 0.0 **** 0.06
326 C 86.76631346275484 124.95550716505512 23.639681681219514 C 0.0 **** -0.24
327 H 86.0823101093745 124.13782748649054 23.865087557352098 H 0.0 **** 0.06
328 H 87.58306081667361 124.95588712799427 24.362693549822325 H 0.0 **** 0.06
329 H 86.23067250081624 125.9027740928901 23.695355576159812 H 0.0 **** 0.06
330 H 87.17019657044679 124.8248846303568 22.634816645702216 H 0.0 **** 0.06
331 C 42.94119002762912 11.28081984067964 33.43017058594165 C 0.0 **** -0.24
332 H 42.71099087275371 10.295096772481031 33.83441662973797 H 0.0 **** 0.06
333 H 42.02739628410556 11.871423668665017 33.37033271244627 H 0.0 **** 0.06
334 H 43.371477944314705 11.172700505594122 32.43417006919907 H 0.0 **** 0.06
335 H 43.65722152966649 11.782387643929951 34.082655206641505 H 0.0 **** 0.06
336 C 53.29933814030106 65.59306323489284 95.66700418037662 C 0.0 **** -0.24
337 H 53.923889533089934 64.96263687188292 95.03310774792094 H 0.0 **** 0.06
338 H 53.63819306994456 65.51732984613699 96.70098403107002 H 0.0 **** 0.06
339 H 52.26303499342983 65.26360467718172 95.5985549622791 H 0.0 **** 0.06
340 H 53.37424241527383 66.62794962918827 95.3347107188884 H 0.0 **** 0.06
341 C 57.82827562866585 134.17273460579 56.992308362304954 C 0.0 **** -0.24
342 H 58.84339381974286 134.3239364274099 57.360622878968286 H 0.0 **** 0.06
343 H 57.34803373459451 135.14038089738023 56.84316111286199 H 0.0 **** 0.06
344 H 57.26078908467548 133.593429288372 57.720030028048654 H 0.0 **** 0.06
345 H 57.86170127520815 133.63413541548198 56.046086366709574 H 0.0 **** 0.06
346 C 67.09337370926542 32.870950836842425 0.740030604876381 C 0.0 **** -0.24
347 H 66.24633448515658 33.479386918191715 1.0577405197080338 H 0.0 **** 0.06
348 H 67.55888376444474 32.41334052182065 1.6130642118079663 H 0.0 **** 0.06
349 H 67.82017056071513 33.50107612485108 0.22820845729671646 H 0.0 **** 0.06
350 H 66.74494103505495 32.091344066988285 0.061528952078390375 H 0.0 **** 0.06
351 C 77.99172384641459 2.227025552530165 94.20336424821583 C 0.0 **** -0.24
352 H 77.8487270614486 2.3655874752351735 95.27493178669017 H 0.0 **** 0.06
353 H 77.60473750312315 3.0965626440455196 93.67033951279087 H 0.0 **** 0.06
354 H 77.45764620564218 1.3339696030344896 93.87837557228916 H 0.0 **** 0.06
355 H 79.05396426027566 2.113023657323822 93.99107601709872 H 0.0 **** 0.06
356 C 143.58241088363016 30.234249261235846 24.069297529470816 C 0.0 **** -0.24
357 H 142.5353818627015 29.936916459278507 24.117680152339688 H 0.0 **** 0.06
358 H 144.14316734305416 29.49450193910272 23.498383736926712 H 0.0 **** 0.06
359 H 143.98928536538554 30.29908781551174 25.078968090252147 H 0.0 **** 0.06
360 H 143.66262009036177 31.206142716543923 23.582628165927474 H 0.0 **** 0.06
361 C 60.74140144227883 107.2519174970305 140.6881920043902 C 0.0 **** -0.24
362 H 59.94768167848818 107.45025118071435 141.40777322592288 H 0.0 **** 0.06
363 H 61.66477865988338 107.7194011872548 141.02859905237358 H 0.0 **** 0.06
364 H 60.46295650085554 107.66166541661791 139.7175738922946 H 0.0 **** 0.06
365 H 60.88946408395432 106.17513787626625 140.59881285488106 H 0.0 **** 0.06
366 C 55.59301814900692 70.27246422894996 128.56174848197765 C 0.0 **** -0.24
367 H 54.51521398454709 70.10822180217596 128.5818513768307 H 0.0 **** 0.06
368 H 56.099713715045624 69.33000927724174 128.35685409789113 H 0.0 **** 0.06
369 H 55.91979172001524 70.6594330912593 129.52758525019968 H 0.0 **** 0.06
370 H 55.835588250416635 70.9937359137495 127.78141305254894 H 0.0 **** 0.06
371 C 150.25398710706537 80.37364303238223 118.60198846688606 C 0.0 **** -0.24
372 H 150.70646678410347 80.27441679069258 117.61534325370623 H 0.0 **** 0.06
373 H 149.7983981396881 81.35957904417097 118.69585203576487 H 0.0 **** 0.06
374 H 151.02134074564663 80.25172584331622 119.36705454880011 H 0.0 **** 0.06
375 H 149.48994543696077 79.60605523360192 118.72932196628902 H 0.0 **** 0.06
376 C 58.243236096235535 76.14455814199907 119.0591043519088 C 0.0 **** -0.24
377 H 57.49261153680817 75.78845498136452 118.35392581262086 H 0.0 **** 0.06
378 H 58.9246351391281 76.82688690847226 118.55051286693698 H 0.0 **** 0.06
379 H 58.80377597420585 75.29589968943282 119.45064406398718 H 0.0 **** 0.06
380 H 57.7519039372022 76.66617260241155 119.8801814077067 H 0.0 **** 0.06
381 C 52.11180878588914 32.72933276530381 107.46616121899281 C 0.0 **** -0.24
382 H 51.780135246505125 32.53553074125648 106.4467212375984 H 0.0 **** 0.06
383 H 53.12331539833059 32.3438655482521 107.59821393678065 H 0.0 **** 0.06
384 H 51.43953166717645 32.23373619647168 108.16741156304742 H 0.0 **** 0.06
385 H 52.10434530802709 33.80310429362203 107.65318924406786 H 0.0 **** 0.06
386 C 49.86272503282525 118.89597937725115 3.2257731330013257 C 0.0 **** -0.24
387 H 49.504001499485454 119.64119660493235 2.5162069469380377 H 0.0 **** 0.06
388 H 49.36787983931691 119.04000839598159 4.185086053384648 H 0.0 **** 0.06
389 H 50.940621322638336 119.0047376814734 3.3513149693122237 H 0.0 **** 0.06
390 H 49.64050753082424 117.89807750512473 2.846943697777874 H 0.0 **** 0.06
391 C 66.81112823169477 92.07998098836266 86.3070526512858 C 0.0 **** -0.24
392 H 66.89683110782411 91.93847950045866 85.22886440525824 H 0.0 **** 0.06
393 H 67.52055562335434 92.84263742890204 86.62996510644112 H 0.0 **** 0.06
394 H 67.02937121651007 91.14135321057763 86.81474578290693 H 0.0 **** 0.06
395 H 65.79783421762255 92.3997884034678 86.55109354970295 H 0.0 **** 0.06
396 C 86.95900004359714 14.105177386321003 13.904535709829418 C 0.0 **** -0.24
397 H 86.11920093692277 14.432798501539253 13.29122227223121 H 0.0 **** 0.06
398 H 87.73409488423778 14.871585777371166 13.897348665735592 H 0.0 **** 0.06
399 H 87.36239035946187 13.176504582305256 13.501953385467516 H 0.0 **** 0.06
400 H 86.61961383059196 13.9402980673255 14.927087560748078 H 0.0 **** 0.06
401 C 113.75871377363282 28.679482184202932 116.3348332985269 C 0.0 **** -0.24
402 H 113.74297507899772 29.408721268419065 115.5249640938046 H 0.0 **** 0.06
403 H 113.11078238441311 29.01995010527149 117.14247925466226 H 0.0 **** 0.06
404 H 114.77736477768835 28.571376938629655 116.70585328570083 H 0.0 **** 0.06
405 H 113.40306922348637 27.71727978537131 115.9637564179386 H 0.0 **** 0.06
406 C 70.27965181362399 100.98785444743248 147.23671425751124 C 0.0 **** -0.24
407 H 69.67881895281624 101.82088262927516 146.87265055088346 H 0.0 **** 0.06
408 H 69.75203016827467 100.48855522401757 148.05061181995552 H 0.0 **** 0.06
409 H 71.23601313412686 101.36233859306645 147.6000819625295 H 0.0 **** 0.06
410 H 70.44993073801109 100.28010354790803 146.4250922670691 H 0.0 **** 0.06
411 C 150.34846744072934 140.14923378578112 98.77055914999787 C 0.0 **** -0.24
412 H 149.74269163877918 140.58484984164755 97.97627217693034 H 0.0 **** 0.06
413 H 149.6973147616444 139.7823322942865 99.56379868402655 H 0.0 **** 0.06
414 H 151.0201408361736 140.9082043732554 99.17241360326429 H 0.0 **** 0.06
415 H 150.93404607985653 139.32255620925002 98.36838092648793 H 0.0 **** 0.06
416 C 88.61920730281548 2.8254339605424548 27.57239373013408 C 0.0 **** -0.24
417 H 89.05029000442698 3.4128705103292987 26.76253297670445 H 0.0 **** 0.06
418 H 88.34263477389092 3.4866747227752057 28.39281479730022 H 0.0 **** 0.06
419 H 89.35151320755938 2.098006228613201 27.92274561444856 H 0.0 **** 0.06
420 H 87.73309798786428 2.303510093024954 27.211267382920767 H 0.0 **** 0.06
421 C 118.24192713928612 52.08337508160993 8.30435904933612 C 0.0 **** -0.24
422 H 118.86579689400655 52.709430715229914 8.942440834026954 H 0.0 **** 0.06
423 H 118.81208129684892 51.779125315659016 7.426629707001069 H 0.0 **** 0.06
424 H 117.36404142463972 52.647129285852586 7.990092725532371 H 0.0 **** 0.06
425 H 117.9278113883684 51.198596247740824 8.858820250976521 H 0.0 **** 0.06
426 C 89.22465907840756 0.7908778162555734 69.15736469951278 C 0.0 **** -0.24
427 H 89.49572820058809 1.5141726845936034 68.38826746920569 H 0.0 **** 0.06
428 H 88.17476143789007 0.5179971577651372 69.04520133981227 H 0.0 **** 0.06
429 H 89.38201871301818 1.231749208242121 70.14127516908378 H 0.0 **** 0.06
430 H 89.84465890389107 -0.09856775047865085 69.05314751923984 H 0.0 **** 0.06
431 C 109.77079362838059 36.83616266410962 59.09148202773295 C 0.0 **** -0.24
432 H 110.53244894938543 37.492118864061126 59.51191999596159 H 0.0 **** 0.06
433 H 109.10922156565421 37.415523350979015 58.446581162934166 H 0.0 **** 0.06
434 H 109.19064927426045 36.38859012756183 59.898815204045945 H 0.0 **** 0.06
435 H 110.2499035185083 36.05055921465197 58.507896226507626 H 0.0 **** 0.06
436 C 48.65510627759902 33.95609979146465 122.65583698695393 C 0.0 **** -0.24
437 H 48.202006855319496 34.25993206288342 121.71238781838015 H 0.0 **** 0.06
438 H 49.33260471318647 34.737207354438425 123.00247999086717 H 0.0 **** 0.06
439 H 49.212601538309315 33.03055294912201 122.50864800228406 H 0.0 **** 0.06
440 H 47.87366186519887 33.795249460027605 123.39853833072011 H 0.0 **** 0.06
441 C 1.4368614028192894 108.53322920318806 7.673712609833956 C 0.0 **** -0.24
442 H 1.291515725532605 107.7771412977857 8.444568729504809 H 0.0 **** 0.06
443 H 2.504523253699972 108.7080720241201 7.533581538129489 H 0.0 **** 0.06
444 H 0.9533329264008614 109.46110935999178 7.979189466372937 H 0.0 **** 0.06
445 H 0.999442745025334 108.18750710532032 6.7369700403692505 H 0.0 **** 0.06
446 C 138.94314692323013 73.17063644432787 16.436831328552927 C 0.0 **** -0.24
447 H 138.89778089363537 72.96370264662777 15.367842183299189 H 0.0 **** 0.06
448 H 138.4999131156109 74.14644293922397 16.6374104617897 H 0.0 **** 0.06
449 H 139.9834103145237 73.16918359842046 16.76335617300154 H 0.0 **** 0.06
450 H 138.39086178677152 72.40248050195949 16.978984529457307 H 0.0 **** 0.06
451 C 106.5885487268541 43.64060977219661 127.58839671469525 C 0.0 **** -0.24
452 H 107.56793750264873 43.55536831742353 127.1167336629509 H 0.0 **** 0.06
453 H 106.01291736751025 42.73461796560872 127.39693942232664 H 0.0 **** 0.06
454 H 106.06126554457452 44.50103190447186 127.1781009284519 H 0.0 **** 0.06
455 H 106.715190595471 43.77042144076901 128.66332660127475 H 0.0 **** 0.06
456 C 91.174894477463 39.70004117412708 20.04807160669415 C 0.0 **** -0.24
457 H 91.66321219490652 40.540219413683815 19.554137578280745 H 0.0 **** 0.06
458 H 90.45817555552318 40.075389980247394 20.779142587237175 H 0.0 **** 0.06
459 H 91.92343534868434 39.09041850462796 20.553490465641715 H 0.0 **** 0.06
460 H 90.65441938204845 39.09546749245703 19.305174016561296 H 0.0 **** 0.06
461 C 139.41352008277437 32.782675664282806 79.81142467942581 C 0.0 **** -0.24
462 H 139.43274873898577 32.930668834789216 80.89044724988281 H 0.0 **** 0.06
463 H 140.28701504966614 33.25748027908429 79.36422045755742 H 0.0 **** 0.06
464 H 138.50749120124436 33.22789869112136 79.39984039772557 H 0.0 **** 0.06
465 H 139.42649619901923 31.715507095870393 79.59078393988929 H 0.0 **** 0.06
466 C 88.24377851955778 42.45732719339249 98.59354895970395 C 0.0 **** -0.24
467 H 88.48964126171933 42.33140396892166 97.53881896518757 H 0.0 **** 0.06
468 H 87.86568103285168 43.46590046991567 98.76082932988004 H 0.0 **** 0.06
469 H 89.13902979212396 42.300254649527275 99.19545416058745 H 0.0 **** 0.06
470 H 87.48286603006825 41.7307744544937 98.87830460783297 H 0.0 **** 0.06
471 C 47.59827797521437 149.06696993606155 146.29697898931497 C 0.0 **** -0.24
472 H 46.70110507110479 149.28000161809973 146.87836420918643 H 0.0 **** 0.06
473 H 48.34704788928832 148.60587587338833 146.94128200450155 H 0.0 **** 0.06
474 H 47.99350668842982 149.9950209982527 145.88585867186447 H 0.0 **** 0.06
475 H 47.34976477698203 148.385438298375 145.48328966941423 H 0.0 **** 0.06
476 C 11.362894789336366 36.81488505401981 83.48293228695616 C 0.0 **** -0.24
477 H 10.52149714195673 36.14330599922645 83.31307044440516 H 0.0 **** 0.06
478 H 11.992673384078302 36.41449781250446 84.2781017677789 H 0.0 **** 0.06
479 H 10.990320945493067 37.79751345779155 83.77448447981422 H 0.0 **** 0.06
480 H 11.946933286951605 36.904510888941935 82.5670175943209 H 0.0 **** 0.06
481 C 51.25142381845416 38.952404281080135 1.3978694650011505 C 0.0 **** -0.24
482 H 51.48924114430817 38.985187590027124 0.334318017053846 H 0.0 **** 0.06
483 H 51.83978954515831 38.16897942908764 1.8765089852663834 H 0.0 **** 0.06
484 H 50.19005761692749 38.741078703133496 1.526480332476467 H 0.0 **** 0.06
485 H 51.4890700458091 39.913769866286884 1.852032347907084 H 0.0 **** 0.06
486 C 104.31605437526396 120.97234765344665 4.850857903442119 C 0.0 **** -0.24
487 H 104.85580644667182 121.49615804298504 5.639780498590454 H 0.0 **** 0.06
488 H 104.97920530202127 120.2509098850238 4.374808711639844 H 0.0 **** 0.06
489 H 103.96800877546464 121.69158894354577 4.110423801753171 H 0.0 **** 0.06
490 H 103.46007141354512 120.45211600039808 5.2812155415605275 H 0.0 **** 0.06
491 C 49.32522283283237 75.02114381390905 56.91627107740804 C 0.0 **** -0.24
492 H 48.94464149979791 75.24697959211494 55.92038729072786 H 0.0 **** 0.06
493 H 50.41040017825219 75.13369531784929 56.924199100742015 H 0.0 **** 0.06
494 H 49.06413230052948 73.9960722965199 57.18145147686502 H 0.0 **** 0.06
495 H 48.88400117244527 75.70735423342515 57.6382981860864 H 0.0 **** 0.06
496 C 67.27012294298709 132.02892972723828 26.444010722667883 C 0.0 **** -0.24
497 H 67.86522964796093 131.6768487987654 27.28678680414808 H 0.0 **** 0.06
498 H 67.8700513106751 131.99009888063114 25.53499884768884 H 0.0 **** 0.06
499 H 66.95292716307698 133.05527383880093 26.62690156846864 H 0.0 **** 0.06
500 H 66.39214782716415 131.39278839801278 26.328047709370765 H 0.0 **** 0.06
501 C 133.52958182246402 148.37954500158833 76.74088658176606 C 0.0 **** -0.24
502 H 133.88804092825984 149.06337338141577 75.9718577924675 H 0.0 **** 0.06
503 H 133.65830298515687 147.35189486503697 76.4015305274297 H 0.0 **** 0.06
504 H 132.47329372638816 148.57000573680483 76.93286751428731 H 0.0 **** 0.06
505 H 134.09867884593152 148.53373117132884 77.65785533822583 H 0.0 **** 0.06
506 C 5.123069835238983 44.62144662443413 18.259374220277834 C 0.0 **** -0.24
507 H 4.2086570961784915 44.58760010332114 17.667037963245264 H 0.0 **** 0.06
508 H 5.906214239612634 44.058979439573676 17.750637543789992 H 0.0 **** 0.06
509 H 4.937612995708381 44.181459780224856 19.238977610991014 H 0.0 **** 0.06
510 H 5.439270012849235 45.657701342256104 18.37999387217542 H 0.0 **** 0.06
511 C 83.66813165188461 109.23022690870317 14.080542768556505 C 0.0 **** -0.24
512 H 83.70730164872168 110.30408294266954 14.265257249943026 H 0.0 **** 0.06
513 H 83.18305860470943 109.0431174603122 13.122033138208053 H 0.0 **** 0.06
514 H 83.10158630393089 108.74621811190798 14.875385078159518 H 0.0 **** 0.06
515 H 84.68106914606112 108.82879604866275 14.059725381034156 H 0.0 **** 0.06
516 C 31.3582733231097 61.20502726754751 69.53240169850676 C 0.0 **** -0.24
517 H 30.992600515430695 60.95778663536669 70.52892713424762 H 0.0 **** 0.06
518 H 30.510664389959004 61.390063468920744 68.87119276840488 H 0.0 **** 0.06
519 H 31.947147636989087 60.37366777267687 69.14473570746998 H 0.0 **** 0.06
520 H 31.979728273801925 62.098897034633694 69.58431566767814 H 0.0 **** 0.06
521 C 89.12190094440501 91.45982532982529 121.98200098834354 C 0.0 **** -0.24
522 H 89.31576649013438 91.39055298785209 120.91148476383262 H 0.0 **** 0.06
523 H 88.39264911113078 92.24769632617338 122.16862497913132 H 0.0 **** 0.06
524 H 90.05059559961464 91.69283236591542 122.5045184559873 H 0.0 **** 0.06
525 H 88.73131605588475 90.50866237801446 122.34219805614265 H 0.0 **** 0.06
526 C 111.16435255335593 113.91427458953731 32.108243817768596 C 0.0 **** -0.24
527 H 110.2195330600466 113.81161539825635 32.641597062858864 H 0.0 **** 0.06
528 H 110.96653355228428 114.10126532232422 31.052706230549177 H 0.0 **** 0.06
529 H 111.7419066207144 112.99573830103341 32.212262419417016 H 0.0 **** 0.06
530 H 111.72951329313766 114.74754512143747 32.52535055318998 H 0.0 **** 0.06
531 C 147.76675146445803 143.4964786935121 55.914923975957265 C 0.0 **** -0.24
532 H 147.54986588178127 143.41902716946737 54.84982944222196 H 0.0 **** 0.06
533 H 147.02066075197442 144.1327508500159 56.391695305833025 H 0.0 **** 0.06
534 H 148.75721378188044 143.92926833210745 56.05389876909868 H 0.0 **** 0.06
535 H 147.7376958484784 142.5033005618116 56.36399243746672 H 0.0 **** 0.06
536 C 76.92106074974737 27.431003873259186 54.382357064732034 C 0.0 **** -0.24
537 H 76.78852476324414 27.990986638093062 53.45653040366243 H 0.0 **** 0.06
538 H 77.68302162571021 27.915924822758114 54.99387716907641 H 0.0 **** 0.06
539 H 77.23635671565765 26.4136044074954 54.149137653037684 H 0.0 **** 0.06
540 H 75.97873322079431 27.40374396289502 54.92809065570526 H 0.0 **** 0.06
541 C 112.89150020121484 57.45370455160722 136.8154239520462 C 0.0 **** -0.24
542 H 112.78229736396823 56.40792407708959 136.52923799758696 H 0.0 **** 0.06
543 H 112.85058420691756 57.539976536661484 137.90157474116825 H 0.0 **** 0.06
544 H 112.08272012501446 58.036200203338026 136.37360259997234 H 0.0 **** 0.06
545 H 113.8487507743264 57.830320487446585 136.45551250977704 H 0.0 **** 0.06
546 C 87.96378918392759 24.25290991371213 46.92657432485444 C 0.0 **** -0.24
547 H 88.61801624144383 24.53874509808672 46.10347915704787 H 0.0 **** 0.06
548 H 88.56322791392701 23.850219235917045 47.74343167721841 H 0.0 **** 0.06
549 H 87.25935867731175 23.49487783292131 46.583631877712946 H 0.0 **** 0.06
550 H 87.4151251441636 25.128104439110707 47.27499333772019 H 0.0 **** 0.06
551 C 105.6522545744492 102.33417190195306 114.10565665508344 C 0.0 **** -0.24
552 H 106.25103393007582 103.00246132138525 114.72392762591224 H 0.0 **** 0.06
553 H 106.29174270978065 101.85617804273355 113.3633162390436 H 0.0 **** 0.06
554 H 104.87424029170548 102.90662343574141 113.60029588121589 H 0.0 **** 0.06
555 H 105.19268991101573 101.57158619735188 114.73437984082003 H 0.0 **** 0.06
556 C 3.2360409318521306 98.22198159625165 141.430667249877 C 0.0 **** -0.24
557 H 3.820588440599863 99.03652190925185 141.85731199563656 H 0.0 **** 0.06
558 H 3.609045613703131 97.27031463876175 141.8073779375334 H 0.0 **** 0.06
559 H 3.323741699151583 98.24358456097232 140.3437999995092 H 0.0 **** 0.06
560 H 2.1892001773243805 98.33991024182552 141.71334517790032 H 0.0 **** 0.06
561 C 23.98386514852905 34.23548175958648 60.80719721120087 C 0.0 **** -0.24
562 H 23.12203869471915 34.69366299989309 60.32183692891773 H 0.0 **** 0.06
563 H 23.834919442745672 34.234019495632 61.88715347720451 H 0.0 **** 0.06
564 H 24.881462552534856 34.80352582819603 60.56512020240302 H 0.0 **** 0.06
565 H 24.09660864544918 33.20992704827755 60.45424543498821 H 0.0 **** 0.06
566 C 60.917407315067805 41.463891719019315 139.68377591872385 C 0.0 **** -0.24
567 H 61.009078368300266 40.39866350015633 139.4753588208181 H 0.0 **** 0.06
568 H 60.51583006591807 41.97274244000603 138.80641669461963 H 0.0 **** 0.06
569 H 61.8988666749143 41.8724317870533 139.9230435437079 H 0.0 **** 0.06
570 H 60.245153644382924 41.61277934285761 140.52964707668662 H 0.0 **** 0.06
571 C 40.23786857036207 48.790625579665345 72.21359389379303 C 0.0 **** -0.24
572 H 39.37065054489679 48.14335433062632 72.08549125592346 H 0.0 **** 0.06
573 H 40.79982566627989 48.83300451238239 71.28045524344313 H 0.0 **** 0.06
574 H 40.8742618112599 48.39459818053598 73.00483432387435 H 0.0 **** 0.06
575 H 39.90583987706512 49.793568494261876 72.48327327467157 H 0.0 **** 0.06
576 C 45.68766218844897 1.3496986683641516 137.32815476410806 C 0.0 **** -0.24
577 H 46.75315138673447 1.277818853721488 137.5432442637434 H 0.0 **** 0.06
578 H 45.18237912834307 1.8519669160121808 138.15395084806445 H 0.0 **** 0.06
579 H 45.27370467090849 0.348413051949489 137.20386953368288 H 0.0 **** 0.06
580 H 45.54039406064487 1.9197181942008186 136.41111806758295 H 0.0 **** 0.06
581 C 89.03079628925214 142.006394267856 131.3700854614761 C 0.0 **** -0.24
582 H 88.9451606291396 142.59517552409073 130.45630666869022 H 0.0 **** 0.06
583 H 89.13602884795984 140.95240352401393 131.1136501079771 H 0.0 **** 0.06
584 H 88.13650308828237 142.14633706518697 131.97692988110987 H 0.0 **** 0.06
585 H 89.90514516481164 142.33334952618537 131.93171500073998 H 0.0 **** 0.06
586 C 39.64978612017691 76.33341811614196 18.085802776908594 C 0.0 **** -0.24
587 H 39.28765945792772 76.20414870743537 19.106144981745572 H 0.0 **** 0.06
588 H 39.03591668463689 77.07227582435848 17.57275891093483 H 0.0 **** 0.06
589 H 39.592680853531604 75.3813148841233 17.55746960845208 H 0.0 **** 0.06
590 H 40.68515032443622 76.67321219296707 18.109749181485903 H 0.0 **** 0.06
591 C 13.34256418995605 59.960029797666834 57.03636468331112 C 0.0 **** -0.24
592 H 13.115285145460433 59.07631874225541 57.63359456654776 H 0.0 **** 0.06
593 H 13.799250037080128 60.71922040522307 57.67041996501456 H 0.0 **** 0.06
594 H 12.422769048227849 60.35199575455768 56.60296873587089 H 0.0 **** 0.06
595 H 14.034160715570096 59.690037794612635 56.2374478554932 H 0.0 **** 0.06
596 C 114.50778724757417 9.787589778247991 74.1926165671238 C 0.0 **** -0.24
597 H 114.3506882977125 9.215252128851603 75.10704646099606 H 0.0 **** 0.06
598 H 113.64738655808036 10.434056074825179 74.01710446523904 H 0.0 **** 0.06
599 H 114.62601827655972 9.103327362000158 73.352109652778 H 0.0 **** 0.06
600 H 115.40583884804123 10.395954825225118 74.29483074313465 H 0.0 **** 0.06
601 C 35.04515516477957 28.041268681569193 135.67729643893128 C 0.0 **** -0.24
602 H 35.9002805307623 27.374825357453602 135.79403726840977 H 0.0 **** 0.06
603 H 35.18090199245475 28.653226944904475 134.78565000622874 H 0.0 **** 0.06
604 H 34.966323473463774 28.68643963409889 136.55224642967707 H 0.0 **** 0.06
605 H 34.135136728947 27.45007640355692 135.57806137395755 H 0.0 **** 0.06
606 C 77.24233745160686 62.10570928716467 131.74955499665813 C 0.0 **** -0.24
607 H 77.10097661221201 63.09291384653508 132.190428884362 H 0.0 **** 0.06
608 H 77.60434316729162 61.416266532082446 132.51133513634156 H 0.0 **** 0.06
609 H 77.97111166429534 62.17108676670581 130.94179054630501 H 0.0 **** 0.06
610 H 76.29241412777235 61.74572128995993 131.35376234574858 H 0.0 **** 0.06
611 C 128.03437207148872 37.158589743983434 114.37962699287418 C 0.0 **** -0.24
612 H 127.11238532397434 37.06531726087989 113.80683897013812 H 0.0 **** 0.06
613 H 128.8895454108712 37.04087536825146 113.71441848901743 H 0.0 **** 0.06
614 H 128.06376873528498 36.38530121849291 115.14882024808001 H 0.0 **** 0.06
615 H 128.07134542794896 38.13982680683128 114.85118210582608 H 0.0 **** 0.06
616 C 98.28681527042602 93.27380890556414 76.38564179910563 C 0.0 **** -0.24
617 H 98.60553117526845 92.91339012333347 77.36307819691396 H 0.0 **** 0.06
618 H 98.43466298216188 92.48881653544488 75.64345142827906 H 0.0 **** 0.06
619 H 98.87707450805993 94.14898802459213 76.11124595023054 H 0.0 **** 0.06
620 H 97.2318730271472 93.5452484292603 76.42471777983869 H 0.0 **** 0.06
621 C 44.43310476813433 67.47517242701912 66.65354691171058 C 0.0 **** -0.24
622 H 45.21830772886831 67.872074959585 66.0114712859828 H 0.0 **** 0.06
623 H 43.88270480339459 66.70094864887764 66.11784274968076 H 0.0 **** 0.06
624 H 43.75144825327271 68.27901921549963 66.9318888368669 H 0.0 **** 0.06
625 H 44.878249761073434 67.04884226178348 67.55277770784681 H 0.0 **** 0.06
626 C 135.06832837717627 149.98624736327696 61.78383587743724 C 0.0 **** -0.24
627 H 135.21513621357525 149.49849253372338 62.747171824078066 H 0.0 **** 0.06
628 H 134.19288416714693 149.56130582817937 61.29167975325245 H 0.0 **** 0.06
629 H 135.9481240271426 149.82869069091137 61.15908870282507 H 0.0 **** 0.06
630 H 134.91758205413726 151.0542180375383 61.93661550538329 H 0.0 **** 0.06
631 C 33.358175858531695 34.07034623436596 12.362930893700366 C 0.0 **** -0.24
632 H 32.415565774956576 34.24787541948007 12.881081564260029 H 0.0 **** 0.06
633 H 33.419490155680506 34.72208385480296 11.489933065594613 H 0.0 **** 0.06
634 H 33.40636979411758 33.02962631209931 12.042842056925139 H 0.0 **** 0.06
635 H 34.18814125042533 34.28325488789034 13.03562085594669 H 0.0 **** 0.06
636 C 88.92830948496314 51.42821841226075 4.674191805990233 C 0.0 **** -0.24
637 H 88.63220688322225 52.42442385252923 4.3469832799812025 H 0.0 **** 0.06
638 H 89.61409623937044 51.51209362857023 5.517391644336328 H 0.0 **** 0.06
639 H 89.42178851100671 50.907954457348126 3.853596697323212 H 0.0 **** 0.06
640 H 88.04302646305506 50.868697028314244 4.979443086114657 H 0.0 **** 0.06
641 C 37.04705240079909 144.91151127516608 10.728967800354845 C 0.0 **** -0.24
642 H 36.30810439403348 145.2873638767453 11.437253181329012 H 0.0 **** 0.06
643 H 36.54137090662772 144.55421967239226 9.832172727443186 H 0.0 **** 0.06
644 H 37.60303905902032 144.0925976575758 11.185033358254628 H 0.0 **** 0.06
645 H 37.73616511452741 145.71389888298506 10.463565621989794 H 0.0 **** 0.06
646 C 98.8126113038924 141.24290032775355 58.813961138592816 C 0.0 **** -0.24
647 H 97.96468400306033 140.60691730753007 58.55917027513185 H 0.0 **** 0.06
648 H 99.41498353831712 140.75624161831 59.58096796466266 H 0.0 **** 0.06
649 H 98.44948460052055 142.19975632215827 59.18905457755373 H 0.0 **** 0.06
650 H 99.42168492001676 141.40980321683412 57.92503972889946 H 0.0 **** 0.06
651 C 65.55661572466354 23.000272582666618 127.38102311953057 C 0.0 **** -0.24
652 H 64.59669471608335 22.681631943124422 127.78747642166196 H 0.0 **** 0.06
653 H 66.34779945806382 22.366061841800892 127.78126620862919 H 0.0 **** 0.06
654 H 65.74422775637497 24.036283338071954 127.66012858745785 H 0.0 **** 0.06
655 H 65.53612525245006 22.91387691730992 126.29426397256263 H 0.0 **** 0.06
656 C 18.57896022315463 19.772973564224543 78.73118668477682 C 0.0 **** -0.24
657 H 17.676703289031437 19.82453030309111 78.12134750065903 H 0.0 **** 0.06
658 H 19.344076614372142 20.42266454415534 78.30437398631358 H 0.0 **** 0.06
659 H 18.944543373623112 18.746377264895756 78.7526687400026 H 0.0 **** 0.06
660 H 18.350517615591777 20.09832214475597 79.74635651213194 H 0.0 **** 0.06
661 C 95.58474730051874 147.0335780557193 129.39338417380293 C 0.0 **** -0.24
662 H 95.35059373786187 146.94091170820977 130.4542034631344 H 0.0 **** 0.06
663 H 95.53508065187201 148.08365432574888 129.10090233011064 H 0.0 **** 0.06
664 H 94.86411412934365 146.45955114614986 128.8109887585035 H 0.0 **** 0.06
665 H 96.58854291703342 146.65219269311703 129.20869791279947 H 0.0 **** 0.06
666 C 27.00034887585253 51.2566755185825 136.29623142324547 C 0.0 **** -0.24
667 H 26.344210065700636 52.12383920565827 136.37655275333398 H 0.0 **** 0.06
668 H 27.377508689213094 51.17994743052881 135.27606046304285 H 0.0 **** 0.06
669 H 26.441601811541148 50.35479414908754 136.54618581072455 H 0.0 **** 0.06
670 H 27.837211795045228 51.369100784460514 136.98558293065426 H 0.0 **** 0.06
671 C 84.19712654928225 83.22033274291184 135.43349303279805 C 0.0 **** -0.24
672 H 84.33310287457198 82.30667158996837 136.01204918069263 H 0.0 **** 0.06
673 H 83.72170687538755 83.97761513920005 136.0562931317168 H 0.0 **** 0.06
674 H 83.56624951484787 83.012619475468 134.56882033430412 H 0.0 **** 0.06
675 H 85.16748556137941 83.5843077766551 135.09581708453248 H 0.0 **** 0.06
676 C 81.51492628453516 132.2461727725108 90.87709440036123 C 0.0 **** -0.24
677 H 80.59982372427672 131.68511545970676 90.68687218846365 H 0.0 **** 0.06
678 H 82.22053429912589 132.07792502520428 90.0639477449775 H 0.0 **** 0.06
679 H 81.95663005206623 131.91362783760883 91.8169742686689 H 0.0 **** 0.06
680 H 81.28155172600242 133.30905251549808 90.94219019507739 H 0.0 **** 0.06
681 C 62.7216639973779 27.64748008551075 64.4224794682589 C 0.0 **** -0.24
682 H 62.91005765507009 27.21597710240613 63.43923661837265 H 0.0 **** 0.06
683 H 62.75847392167856 26.86086123061824 65.17692849553836 H 0.0 **** 0.06
684 H 61.73638103407393 28.113873133041437 64.4316719453514 H 0.0 **** 0.06
685 H 63.481397518726396 28.397838350586312 64.64212679464802 H 0.0 **** 0.06
686 C 130.57410778880111 7.321628459412011 36.06182802908336 C 0.0 **** -0.24
687 H 130.47431836239457 7.671173517646004 35.03399106529818 H 0.0 **** 0.06
688 H 131.3242185627572 7.9216938375550185 36.57816599794063 H 0.0 **** 0.06
689 H 130.8822566430345 6.276297925506128 36.06273713521074 H 0.0 **** 0.06
690 H 129.61630903087962 7.4193914825602505 36.57303094403173 H 0.0 **** 0.06
691 C 54.12746970197479 70.43819387593646 102.43004682101625 C 0.0 **** -0.24
692 H 53.52695110505634 71.06699450187818 103.08765816865936 H 0.0 **** 0.06
693 H 55.018176220761546 70.98371375697229 102.11948054013418 H 0.0 **** 0.06
694 H 53.54130487997081 70.16701845316277 101.55130725814135 H 0.0 **** 0.06
695 H 54.42227553404052 69.53334439845355 102.96259209684858 H 0.0 **** 0.06
696 C 132.99959378958852 141.61272266396216 65.89766375461261 C 0.0 **** -0.24
697 H 132.60638277257306 140.7171801528446 65.41694119841036 H 0.0 **** 0.06
698 H 132.62673499897886 141.66777340207705 66.92083053098725 H 0.0 **** 0.06
699 H 132.676094292713 142.4934682053889 65.34395552046422 H 0.0 **** 0.06
700 H 134.0885375635882 141.5694650320144 65.90969319757161 H 0.0 **** 0.06
701 C 98.85475786715062 89.35697764657226 93.19337876570535 C 0.0 **** -0.24
702 H 99.6841320834526 89.95080793976547 93.57564493185282 H 0.0 **** 0.06
703 H 98.65177064259359 89.63801194305199 92.15962569017375 H 0.0 **** 0.06
704 H 97.96754987195445 89.53955582828422 93.79966967196702 H 0.0 **** 0.06
705 H 99.1142392987712 88.29911573888751 93.23840172180189 H 0.0 **** 0.06
706 C 143.90819221225 137.56280975164012 1.7616985438902475 C 0.0 **** -0.24
707 H 144.30563134890966 137.29065992590225 2.7401269440246097 H 0.0 **** 0.06
708 H 144.01516997931256 136.71938496655014 1.0796583187051283 H 0.0 **** 0.06
709 H 144.46064915753024 138.41856191408988 1.3720331877523222 H 0.0 **** 0.06
710 H 142.8542787433212 137.82252409436921 1.857031190670284 H 0.0 **** 0.06
711 C 48.98683612007096 128.95274496221725 116.70288456818615 C 0.0 **** -0.24
712 H 49.004261439320885 128.23918145125242 115.87884575058455 H 0.0 **** 0.06
713 H 49.16775285840157 129.9565512621026 116.31726614951056 H 0.0 **** 0.06
714 H 49.764200137253056 128.69443929561925 117.42259554069817 H 0.0 **** 0.06
715 H 48.013967530841285 128.9209691737928 117.19144410442574 H 0.0 **** 0.06
716 C 99.27478283463344 80.05364449883794 138.02230184080238 C 0.0 **** -0.24
717 H 98.85372086439823 80.46859282028578 138.93785696056003 H 0.0 **** 0.06
718 H 100.32171221807467 79.79580468918851 138.1880186231583 H 0.0 **** 0.06
719 H 99.20503643353402 80.7911941318327 137.2233165907191 H 0.0 **** 0.06
720 H 98.72046858093879 79.15829066484696 137.74051697257235 H 0.0 **** 0.06
721 C 44.54145547597862 32.26260300303858 20.09494742309827 C 0.0 **** -0.24
722 H 44.39350139757468 33.282214033397366 19.738255057065416 H 0.0 **** 0.06
723 H 44.82540927861757 32.28360055500781 21.14765767154465 H 0.0 **** 0.06
724 H 45.33208779442256 31.785866299818423 19.51377773106598 H 0.0 **** 0.06
725 H 43.61564406579282 31.69920163271712 19.97807306224125 H 0.0 **** 0.06
726 C 109.54405980973445 41.65458259054017 96.09219464266555 C 0.0 **** -0.24
727 H 108.83898518860514 41.01040093345202 95.56628754432418 H 0.0 **** 0.06
728 H 109.25856968059611 41.723310844698716 97.14255474640154 H 0.0 **** 0.06
729 H 109.53019768053684 42.64906024064976 95.64577943039194 H 0.0 **** 0.06
730 H 110.54699500615715 41.23511324273889 96.01491637369814 H 0.0 **** 0.06
731 C 34.222907297463244 63.94202297416403 65.26174367251946 C 0.0 **** -0.24
732 H 34.9685109631144 63.78860596904647 66.04228444792585 H 0.0 **** 0.06
733 H 33.675130128279804 63.0142838562829 65.0959794100586 H 0.0 **** 0.06
734 H 34.720297349427234 64.24078330727248 64.3387458931505 H 0.0 **** 0.06
735 H 33.52967486373432 64.7239994676621 65.57090709730753 H 0.0 **** 0.06
736 C 119.59656372605681 139.32858262887743 37.29429840414645 C 0.0 **** -0.24
737 H 118.89795010882747 138.51300616774458 37.481641783132076 H 0.0 **** 0.06
738 H 119.39377750032762 139.76138220800715 36.31344426470468 H 0.0 **** 0.06
739 H 120.6167772057045 138.94612863118917 37.319653213765065 H 0.0 **** 0.06
740 H 119.47528127868307 140.093566719658 38.060767820536974 H 0.0 **** 0.06
741 C 132.58541441775446 50.84795536306885 85.7121856286721 C 0.0 **** -0.24
742 H 133.52720248010715 51.12993279308648 85.24053057599511 H 0.0 **** 0.06
743 H 132.52312800439586 51.304999717875944 86.69983554058349 H 0.0 **** 0.06
744 H 132.53852015659245 49.762687793387585 85.80913799746989 H 0.0 **** 0.06
745 H 131.75415741222167 51.193200167700894 85.09776371788081 H 0.0 **** 0.06
746 C 68.04388213379633 52.213885015701095 57.666350304892575 C 0.0 **** -0.24
747 H 68.8234807501919 52.11777483021024 56.90986477535216 H 0.0 **** 0.06
748 H 68.36345955577514 51.71577721599567 58.58188642518164 H 0.0 **** 0.06
749 H 67.12565144988952 51.753636011877376 57.30242761503102 H 0.0 **** 0.06
750 H 67.86551806354204 53.26947471784047 57.87094531220316 H 0.0 **** 0.06
751 C 44.26801124242746 108.59154012821321 3.1593404125405122 C 0.0 **** -0.24
752 H 43.19459919343785 108.7009080207782 3.002436791982163 H 0.0 **** 0.06
753 H 44.5305205583297 108.96441536788384 4.149957614648059 H 0.0 **** 0.06
754 H 44.806152479513486 109.16125389975119 2.4014969421710752 H 0.0 **** 0.06
755 H 44.54051558132926 107.53789614971325 3.083174060081234 H 0.0 **** 0.06
756 C 116.972979084097 124.03215089270175 86.49749773381652 C 0.0 **** -0.24
757 H 117.30627131123356 124.91250495090209 85.94890182675782 H 0.0 **** 0.06
758 H 116.94646780116904 124.2579287536286 87.56407498636402 H 0.0 **** 0.06
759 H 117.66439254678511 123.20889934880937 86.3174205081229 H 0.0 **** 0.06
760 H 115.97580437302258 123.75081723324898 86.16034729639554 H 0.0 **** 0.06
761 C 8.808133113739828 39.85358446676534 132.25619949770078 C 0.0 **** -0.24
762 H 9.18815360439995 39.904812134310816 131.2354999021051 H 0.0 **** 0.06
763 H 7.754179584697617 39.575965752008784 132.2365196111445 H 0.0 **** 0.06
764 H 8.919405236731969 40.826486874762026 132.73394406164118 H 0.0 **** 0.06
765 H 9.37112800100131 39.10666410989407 132.81556003236753 H 0.0 **** 0.06
766 C 80.66863479792309 28.775609213884394 55.68739638563946 C 0.0 **** -0.24
767 H 80.48053208287683 29.77312124473201 55.29094136697633 H 0.0 **** 0.06
768 H 81.08524097785586 28.144011517887193 54.90158585283784 H 0.0 **** 0.06
769 H 79.73408189711454 28.343317092289453 56.04348182879224 H 0.0 **** 0.06
770 H 81.37664726146552 28.84114174772762 56.514233953529526 H 0.0 **** 0.06
771 C 123.60198639662242 12.146218094199682 135.99710172168173 C 0.0 **** -0.24
772 H 123.23705228761882 12.577605619770395 136.93000066388473 H 0.0 **** 0.06
773 H 122.77968988680145 11.650241963856232 135.48082114488713 H 0.0 **** 0.06
774 H 124.3854939108296 11.421110056715243 136.21500710925216 H 0.0 **** 0.06
775 H 124.00534644636734 12.937105392249634 135.36443557817356 H 0.0 **** 0.06
776 C 51.134013048916415 49.08296262618592 55.34334113182376 C 0.0 **** -0.24
777 H 50.442703727773335 49.557216753272684 54.64787447520777 H 0.0 **** 0.06
778 H 50.89221322837096 48.024008118668434 55.431117333052015 H 0.0 **** 0.06
779 H 51.04734603369832 49.55814077079947 56.32100318007974 H 0.0 **** 0.06
780 H 52.15385124805903 49.1941063861976 54.97520448572584 H 0.0 **** 0.06
781 C 37.06160370490928 1.1851989862196604 35.49727974994208 C 0.0 **** -0.24
782 H 36.837720837098814 0.3847954700462708 34.79242221975492 H 0.0 **** 0.06
783 H 37.70727206484213 1.9217381846361832 35.01859417771317 H 0.0 **** 0.06
784 H 37.567864489730425 0.7699122325712153 36.3689272873262 H 0.0 **** 0.06
785 H 36.13322998201796 1.6635991856775831 35.80974890635322 H 0.0 **** 0.06
786 C 134.82052368689685 86.6959239432866 88.76865767561506 C 0.0 **** -0.24
787 H 133.83511760799288 86.88537148094338 88.34338133973458 H 0.0 **** 0.06
788 H 135.27831356672115 87.64195828240925 89.05976587289908 H 0.0 **** 0.06
789 H 135.44698641332846 86.20124621399333 88.02731576346784 H 0.0 **** 0.06
790 H 134.72012313875487 86.05551711200482 89.64572571936938 H 0.0 **** 0.06
791 C 63.53094922550491 86.96436520341429 45.1955510111339 C 0.0 **** -0.24
792 H 64.06025878815791 87.24156184275085 44.284245425120986 H 0.0 **** 0.06
793 H 63.68806226887513 87.730252460681 45.954508621619 H 0.0 **** 0.06
794 H 63.9086702368683 86.00870688965156 45.559359362178924 H 0.0 **** 0.06
795 H 62.46521743286188 86.87585469055469 44.982950105384006 H 0.0 **** 0.06
796 C 105.08503364679781 53.18029423535907 51.316876084479034 C 0.0 **** -0.24
797 H 105.16503801389523 54.15265405202169 50.829982664027796 H 0.0 **** 0.06
798 H 104.18877136043265 52.67057784342009 50.962147134730415 H 0.0 **** 0.06
799 H 105.02069879809243 53.319962628929005 52.3960328178938 H 0.0 **** 0.06
800 H 105.96350357358095 52.580517362968266 51.07960248391174 H 0.0 **** 0.06
801 C 13.372534094521626 101.02968335094783 135.5563336346685 C 0.0 **** -0.24
802 H 14.184986942781677 100.73490882898653 134.89184522287903 H 0.0 **** 0.06
803 H 12.60723554592579 101.55455335300172 134.9849816606136 H 0.0 **** 0.06
804 H 13.760536852948064 101.68676427756174 136.33507365692768 H 0.0 **** 0.06
805 H 12.93845501731775 100.14134401027749 136.01530101764516 H 0.0 **** 0.06
806 C 50.2185850009424 20.82714575008066 57.088995365889815 C 0.0 **** -0.24
807 H 51.06874438908139 21.42709251873555 57.41294344298424 H 0.0 **** 0.06
808 H 49.99514559733481 21.047482823458324 56.04506294624761 H 0.0 **** 0.06
809 H 49.35047563681616 21.065249386900632 57.70390046848601 H 0.0 **** 0.06
810 H 50.459396691475916 19.76953779285975 57.19431679992667 H 0.0 **** 0.06
811 C 92.74413321525877 129.11058925373683 40.16412447799425 C 0.0 **** -0.24
812 H 91.93052976687115 128.4369444478166 39.89564435223073 H 0.0 **** 0.06
813 H 93.6950774751727 128.66767494814442 39.868117019271494 H 0.0 **** 0.06
814 H 92.74016661801994 129.2748904732957 41.241962537530895 H 0.0 **** 0.06
815 H 92.61098488393208 130.06380584688944 39.650946935011945 H 0.0 **** 0.06
816 C 132.77874047715923 5.356214369904222 99.42787590371469 C 0.0 **** -0.24
817 H 133.535530270333 5.223070724387782 98.65549877895995 H 0.0 **** 0.06
818 H 131.8189830356358 4.9865197709898155 99.06420556882685 H 0.0 **** 0.06
819 H 132.6916499104662 6.415120670126839 99.67209543440025 H 0.0 **** 0.06
820 H 133.0673846430044 4.800127623465698 100.31969009485933 H 0.0 **** 0.06
821 C 64.07654821944135 9.358959625274565 3.4168382572003395 C 0.0 **** -0.24
822 H 64.64207185596689 10.281681531133188 3.286654588763753 H 0.0 **** 0.06
823 H 63.371269314701735 9.478495412389691 4.2385993571645315 H 0.0 **** 0.06
824 H 64.76228519779673 8.541989312540693 3.6417400000956093 H 0.0 **** 0.06
825 H 63.5319016841071 9.133985454526169 2.5000137115993653 H 0.0 **** 0.06
826 C 40.031089138292174 7.783768253450006 41.81591987123494 C 0.0 **** -0.24
827 H 39.76762980334229 8.714978971752231 41.31394449655903 H 0.0 **** 0.06
828 H 39.5994396253616 6.944200186567144 41.271055996810446 H 0.0 **** 0.06
829 H 39.63991939160482 7.796790097080731 42.833352008368365 H 0.0 **** 0.06
830 H 41.11544042863402 7.681088053940499 41.843497100081436 H 0.0 **** 0.06
831 C 84.8006113103578 21.226392328672844 60.39195033244465 C 0.0 **** -0.24
832 H 84.01514175962912 20.50814531343402 60.15416189581805 H 0.0 **** 0.06
833 H 85.41256723908832 21.40191027595779 59.50765804780298 H 0.0 **** 0.06
834 H 85.42466057381789 20.828846219418978 61.192944169468774 H 0.0 **** 0.06
835 H 84.34882129747395 22.164114609364255 60.71399094679674 H 0.0 **** 0.06
836 C 93.71599294192413 37.21086089993412 41.316983719767435 C 0.0 **** -0.24
837 H 93.85880628973419 36.150251722956796 41.10865458944809 H 0.0 **** 0.06
838 H 93.07245207774118 37.64690271653342 40.552564860306674 H 0.0 **** 0.06
839 H 94.68202542798618 37.71510046915654 41.30929244916595 H 0.0 **** 0.06
840 H 93.25090668607149 37.32985738249437 42.29456288440069 H 0.0 **** 0.06
841 C 37.919597452434175 41.24008114833248 139.2981966699103 C 0.0 **** -0.24
842 H 38.28948663983414 40.240886198963494 139.07103179877558 H 0.0 **** 0.06
843 H 38.410864274357436 41.965885060183325 138.64876604197545 H 0.0 **** 0.06
844 H 38.13478790796984 41.479893624689225 140.33961087048823 H 0.0 **** 0.06
845 H 36.84266436770713 41.275562675652964 139.13319157277533 H 0.0 **** 0.06
846 C 40.50692646661672 11.28106941894984 143.39363031749306 C 0.0 **** -0.24
847 H 40.75177853411266 12.2980195524339 143.08605041197706 H 0.0 **** 0.06
848 H 41.34123898844996 10.61970450277201 143.15795982529986 H 0.0 **** 0.06
849 H 39.61593593612936 10.94617759455199 142.86348619895716 H 0.0 **** 0.06
850 H 40.31992550057832 11.26249193707639 144.46740823088285 H 0.0 **** 0.06
851 C 108.19674856031209 99.08075936023856 81.10390690960357 C 0.0 **** -0.24
852 H 107.72118600813623 99.33682216564682 82.05044669553584 H 0.0 **** 0.06
853 H 109.23294309343102 99.4168548670776 81.11527068612517 H 0.0 **** 0.06
854 H 107.66414015399347 99.5685120345876 80.28691600849065 H 0.0 **** 0.06
855 H 108.16590968625711 98.00079520461775 80.96272675064552 H 0.0 **** 0.06
856 C 38.235791455372606 143.63798949805692 14.220459403428322 C 0.0 **** -0.24
857 H 37.71099622189112 142.77538433956488 13.8118719264329 H 0.0 **** 0.06
858 H 37.62522701659623 144.09986349612097 14.99709574227839 H 0.0 **** 0.06
859 H 38.42005724681029 144.36118612995898 13.4252454206393 H 0.0 **** 0.06
860 H 39.18557569290819 143.3170005365337 14.647300642849444 H 0.0 **** 0.06
861 C 81.35003110088797 49.606577852408364 45.36296946627459 C 0.0 **** -0.24
862 H 80.34859146383467 49.20078195752855 45.50693416728048 H 0.0 **** 0.06
863 H 81.69149272944672 50.06898849666631 46.28875227757685 H 0.0 **** 0.06
864 H 81.32738958970627 50.35400574058552 44.56953615501442 H 0.0 **** 0.06
865 H 82.03087692650853 48.80155812623185 45.084226340931934 H 0.0 **** 0.06
866 C 88.78821348218666 102.0334964587122 125.81221704639827 C 0.0 **** -0.24
867 H 89.26402980866634 101.15364063602726 125.38067679354853 H 0.0 **** 0.06
868 H 88.29287994423312 102.60221307635157 125.0241493827742 H 0.0 **** 0.06
869 H 89.54288956004562 102.6572161471791 126.29007812234042 H 0.0 **** 0.06
870 H 88.05208263416 101.72173259793476 126.5533406274761 H 0.0 **** 0.06
871 C 63.63804192982701 16.57875805942473 28.911082402505144 C 0.0 **** -0.24
872 H 63.65331110640744 16.958960593353424 29.932750835562103 H 0.0 **** 0.06
873 H 64.58665386324495 16.808356418309472 28.424128055875087 H 0.0 **** 0.06
874 H 62.82421218054898 17.049831122985438 28.360951739251163 H 0.0 **** 0.06
875 H 63.48953568753939 15.498918052887802 28.927236341635194 H 0.0 **** 0.06
876 C 40.5593680637559 83.89458188237504 102.57019642350681 C 0.0 **** -0.24
877 H 40.28343915446865 84.51215226902497 101.7153902801769 H 0.0 **** 0.06
878 H 41.5496774866194 84.18506457013311 102.92271959298722 H 0.0 **** 0.06
879 H 40.57285978361355 82.84665795490605 102.27132039068897 H 0.0 **** 0.06
880 H 39.832612143353785 84.03529183986477 103.37033080401108 H 0.0 **** 0.06
881 C 1.6430695745840502 15.113184314806311 56.36351182985328 C 0.0 **** -0.24
882 H 2.3718979911733804 14.866743541377588 57.13508719036349 H 0.0 **** 0.06
883 H 0.6644176986810209 15.258886765990006 56.82230027288165 H 0.0 **** 0.06
884 H 1.5879202380337247 14.29751520402936 55.64251395225625 H 0.0 **** 0.06
885 H 1.9469599800754587 16.028516733264226 55.85543931845132 H 0.0 **** 0.06
886 C 103.6735503566229 103.3655994169104 121.59354381422128 C 0.0 **** -0.24
887 H 104.27985407808269 103.89660094642757 120.85945003970005 H 0.0 **** 0.06
888 H 102.92379584853724 104.04401874542877 122.00291277280462 H 0.0 **** 0.06
889 H 104.31272020788951 103.00200895396854 122.39875086615922 H 0.0 **** 0.06
890 H 103.17786794498763 102.52210600542678 121.1137946428625 H 0.0 **** 0.06
891 C 96.92696070346543 135.50234105429527 47.516956666590744 C 0.0 **** -0.24
892 H 97.64912086429423 136.20171987017355 47.09635300800926 H 0.0 **** 0.06
893 H 95.9286174953576 135.93731166123223 47.465537707465984 H 0.0 **** 0.06
894 H 97.18187029542877 135.2980832914508 48.55731496278037 H 0.0 **** 0.06
895 H 96.94835785879663 134.57322138220323 46.948820924273974 H 0.0 **** 0.06
896 C 15.722398722046073 106.05132588754748 129.3042926950628 C 0.0 **** -0.24
897 H 15.201683314415313 106.49707566368778 128.45612872158645 H 0.0 **** 0.06
898 H 15.813162956678156 104.97551985426418 129.14932246752366 H 0.0 **** 0.06
899 H 15.157687286874577 106.24108309806871 130.21726788187797 H 0.0 **** 0.06
900 H 16.715139782303183 106.49201373661282 129.3933762236608 H 0.0 **** 0.06
901 C 59.635621416582325 117.88528897553138 74.734619886095 C 0.0 **** -0.24
902 H 60.5269908988316 117.40708443169686 75.14108557490499 H 0.0 **** 0.06
903 H 58.81969028580508 117.80185378077883 75.4531812793997 H 0.0 **** 0.06
904 H 59.35257592609045 117.39548248009916 73.80369976201399 H 0.0 **** 0.06
905 H 59.84430854605816 118.93745272974232 74.54233473167102 H 0.0 **** 0.06
906 C 145.79454736790257 85.72920307494107 7.70001023310931 C 0.0 **** -0.24
907 H 145.81501352600586 86.7750313082677 8.005329575054475 H 0.0 **** 0.06
908 H 146.7150398927348 85.23982464736727 8.019991153923115 H 0.0 **** 0.06
909 H 145.70877165118458 85.66927609037805 6.615206216856109 H 0.0 **** 0.06
910 H 144.93936440168505 85.2326802537514 8.159513986603429 H 0.0 **** 0.06
911 C 84.27436328724556 28.9153412159138 123.6408583185379 C 0.0 **** -0.24
912 H 85.02118565257251 28.172368526015447 123.92026019751445 H 0.0 **** 0.06
913 H 84.05422166302395 28.82661159538847 122.57721308264921 H 0.0 **** 0.06
914 H 84.65859766565583 29.91335926646903 123.85136815870844 H 0.0 **** 0.06
915 H 83.36346874983522 28.748445839909692 124.21622392241993 H 0.0 **** 0.06
916 C 114.44773949879509 76.71798199763711 71.29008789874132 C 0.0 **** -0.24
917 H 115.14123907350022 76.49060696013308 72.10005606933956 H 0.0 **** 0.06
918 H 113.83330777547123 75.84112330443 71.08123138410312 H 0.0 **** 0.06
919 H 115.00884683736702 76.98955523950602 70.39669942635155 H 0.0 **** 0.06
920 H 113.80670237433559 77.54931705951 71.58423568600423 H 0.0 **** 0.06
921 C 96.04770792630235 41.87187428433144 92.42159692710136 C 0.0 **** -0.24
922 H 96.70090179087227 42.495578941541766 91.81109240630434 H 0.0 **** 0.06
923 H 96.55236967566566 41.62346494844063 93.3559329752238 H 0.0 **** 0.06
924 H 95.81149024132073 40.95568661227941 91.88045107227477 H 0.0 **** 0.06
925 H 95.12718845561652 42.41329777595021 92.63822787061973 H 0.0 **** 0.06
926 C 76.53863294472325 100.66028264264335 55.35785165915378 C 0.0 **** -0.24
927 H 77.56039277174126 100.46008525296787 55.03737498877568 H 0.0 **** 0.06
928 H 75.93744824434711 99.75778975491232 55.24077867783711 H 0.0 **** 0.06
929 H 76.11631110457452 101.45940833162047 54.748100969059635 H 0.0 **** 0.06
930 H 76.53898169112458 100.96328838995646 56.40429555807836 H 0.0 **** 0.06
931 C 113.08432265050023 35.935984726909524 131.51285429282296 C 0.0 **** -0.24
932 H 113.54488475610943 35.38197467414221 132.33084872684395 H 0.0 **** 0.06
933 H 112.08799255834218 36.26324946779363 131.81173329376116 H 0.0 **** 0.06
934 H 113.007404957509 35.29241747625856 130.63644266043678 H 0.0 **** 0.06
935 H 113.69580542291199 36.80601122440132 131.2730789699898 H 0.0 **** 0.06
936 C 88.3281192379331 35.73722568798598 94.95586534549506 C 0.0 **** -0.24
937 H 87.24020333937165 35.67970707804926 94.92619923786299 H 0.0 **** 0.06
938 H 88.72564189477299 35.62512071606602 93.94742165541628 H 0.0 **** 0.06
939 H 88.71644862904924 34.94075979925958 95.5905076458626 H 0.0 **** 0.06
940 H 88.63019682339353 36.70425982308302 95.3596606490466 H 0.0 **** 0.06
941 C 107.83729277815749 106.94237969855662 112.60785818944977 C 0.0 **** -0.24
942 H 108.06899396900249 107.89751464557934 112.13665942995387 H 0.0 **** 0.06
943 H 108.1213846011569 106.97737165706071 113.65995129814145 H 0.0 **** 0.06
944 H 108.39120870246475 106.14749362055407 112.10830462894937 H 0.0 **** 0.06
945 H 106.7688194215954 106.74692667487842 112.52586289015188 H 0.0 **** 0.06
946 C 75.36190877508179 93.7645161268614 46.15251523296075 C 0.0 **** -0.24
947 H 75.37919988718335 93.07424161638244 45.30872578924364 H 0.0 **** 0.06
948 H 74.36534301990767 93.77070632149211 46.59493459351225 H 0.0 **** 0.06
949 H 75.61346628037583 94.76741779254807 45.80683391733288 H 0.0 **** 0.06
950 H 76.08937103337601 93.44300948914325 46.89826160433918 H 0.0 **** 0.06
951 C 106.45918810354148 57.25619897773083 138.45432074836637 C 0.0 **** -0.24
952 H 105.73944506770466 57.99010686700876 138.09125371666448 H 0.0 **** 0.06
953 H 106.21348845861029 56.984905385758395 139.48107483694966 H 0.0 **** 0.06
954 H 107.46133732217469 57.68433576709009 138.42175792519768 H 0.0 **** 0.06
955 H 106.42245128147424 56.3678233932734 137.82502856310686 H 0.0 **** 0.06
956 C 48.07413931673831 80.37228784917771 127.10968161324445 C 0.0 **** -0.24
957 H 48.91750803535284 80.55982465559595 127.77431056006813 H 0.0 **** 0.06
958 H 47.32466486374301 81.15151869438814 127.24681586796646 H 0.0 **** 0.06
959 H 47.63743390393984 79.40170242797942 127.34375165739061 H 0.0 **** 0.06
960 H 48.419130058157876 80.3765422377918 126.07586307898714 H 0.0 **** 0.06
961 C 111.73801392946363 76.17892581561034 101.91572800001984 C 0.0 **** -0.24
962 H 111.41538309780383 75.45251128204258 102.6620394492536 H 0.0 **** 0.06
963 H 111.9641676962958 75.66404172768914 100.98131568197607 H 0.0 **** 0.06
964 H 112.63088175556739 76.69350214837266 102.27297690822697 H 0.0 **** 0.06
965 H 110.94284988904253 76.9049467356464 101.7479953702122 H 0.0 **** 0.06
966 C 70.1144459774585 143.92246758192618 108.30412296308236 C 0.0 **** -0.24
967 H 70.77511690977663 144.76246886593864 108.51922818177792 H 0.0 **** 0.06
968 H 69.09026903562065 144.2843624770837 108.20406184762629 H 0.0 **** 0.06
969 H 70.16763870292198 143.20163407097334 109.11892293991417 H 0.0 **** 0.06
970 H 70.42419089607405 143.44488842313638 107.37501549593821 H 0.0 **** 0.06
971 C 130.15842741526706 129.39672978140914 53.30973755899063 C 0.0 **** -0.24
972 H 131.0799189067088 129.5458566536397 52.7463645782145 H 0.0 **** 0.06
973 H 130.1395651282814 130.07809877484738 54.16105538370974 H 0.0 **** 0.06
974 H 130.1144576539811 128.36750199986548 53.666819260009134 H 0.0 **** 0.06
975 H 129.3032059920738 129.59512824196162 52.66497419722745 H 0.0 **** 0.06
976 C 95.40603161376146 99.94864188044464 130.3584761891479 C 0.0 **** -0.24
977 H 95.2163047480777 98.90895219308848 130.6254154293871 H 0.0 **** 0.06
978 H 96.42646725070279 100.21339719248273 130.63530685266488 H 0.0 **** 0.06
979 H 94.70588641572779 100.59307581799848 130.8905317342032 H 0.0 **** 0.06
980 H 95.27502077497518 100.0772354556854 129.28412181084366 H 0.0 **** 0.06
981 C 105.8574566286617 35.4821796373166 35.8494327347577 C 0.0 **** -0.24
982 H 105.48137367951968 34.49433954394326 35.58144190476406 H 0.0 **** 0.06
983 H 105.71405466339881 35.64652384871753 36.91803527584264 H 0.0 **** 0.06
984 H 105.31401259321156 36.2418465697532 35.28902203124977 H 0.0 **** 0.06
985 H 106.91917990596654 35.54439931107576 35.61122091745702 H 0.0 **** 0.06
986 C 14.952278421363374 25.05665815655999 116.29473445836102 C 0.0 **** -0.24
987 H 14.816818775468334 25.41176307650386 115.27386443246986 H 0.0 **** 0.06
988 H 15.195508798326657 23.994121191491445 116.28060384718616 H 0.0 **** 0.06
989 H 14.033006964571022 25.211513755899205 116.85932121400337 H 0.0 **** 0.06
990 H 15.765725331074393 25.60911733245996 116.76663118679868 H 0.0 **** 0.06
991 C 44.28232677056238 56.49637631618219 27.041466733031484 C 0.0 **** -0.24
992 H 44.61758683625493 56.46217699862716 28.07741631173019 H 0.0 **** 0.06
993 H 43.34361061731627 55.9511121270729 26.944588337619905 H 0.0 **** 0.06
994 H 45.03666343630918 56.0388675000288 26.400474219766124 H 0.0 **** 0.06
995 H 44.13238677802022 57.5339149944698 26.741440058102626 H 0.0 **** 0.06
996 C 84.35457854959196 23.67354395380201 84.21575137272242 C 0.0 **** -0.24
997 H 84.12736721952379 22.77470917747695 84.78856855423268 H 0.0 **** 0.06
998 H 83.59694336057473 24.432074449817634 84.41514276801021 H 0.0 **** 0.06
999 H 84.35865035149448 23.43460677967235 83.15210249085516 H 0.0 **** 0.06
1000 H 85.3339968740832 24.052490605506733 84.50692082097501 H 0.0 **** 0.06
1001 C 62.57265141036744 9.772507382946145 138.7378706258318 C 0.0 **** -0.24
1002 H 62.63469702554217 10.505636419389333 139.5421079304233 H 0.0 **** 0.06
1003 H 62.58938826971199 10.286108121918716 137.77609535174494 H 0.0 **** 0.06
1004 H 61.64443579093327 9.208699872766687 138.83189374189178 H 0.0 **** 0.06
1005 H 63.42021894580152 9.0911210688771 138.8009847613097 H 0.0 **** 0.06
1006 C 149.06497486525205 131.30482177072204 8.699268426069722 C 0.0 **** -0.24
1007 H 149.66530323647535 130.40369736254704 8.82509821935625 H 0.0 **** 0.06
1008 H 149.0852320582833 131.6113316930785 7.653443967805686 H 0.0 **** 0.06
1009 H 149.47347447723658 132.10231890590956 9.320311811933209 H 0.0 **** 0.06
1010 H 148.03728128113426 131.10051443075056 8.998035655032368 H 0.0 **** 0.06
1011 C 100.94487695293111 52.115453347484404 107.81895155668477 C 0.0 **** -0.24
1012 H 100.34849008813637 51.56704590161479 107.09028192074643 H 0.0 **** 0.06
1013 H 100.29982554556986 52.47178695591926 108.62146977353709 H 0.0 **** 0.06
1014 H 101.42285423256212 52.96545104290932 107.33158399966075 H 0.0 **** 0.06
1015 H 101.70918900077382 51.45701452701046 108.23257327074916 H 0.0 **** 0.06
1016 C 31.7687296754356 44.0660023419438 73.43496013117507 C 0.0 **** -0.24
1017 H 30.82784966629307 43.63156524593478 73.09839858995457 H 0.0 **** 0.06
1018 H 32.53557636649072 43.29142945529179 73.47103677016283 H 0.0 **** 0.06
1019 H 31.63629244052421 44.49250117457183 74.42892722468362 H 0.0 **** 0.06
1020 H 32.075630550731326 44.8493832824513 72.74171944321614 H 0.0 **** 0.06
1021 C 143.69743997675525 54.58262706120105 27.339873778408105 C 0.0 **** -0.24
1022 H 142.96478895895453 55.38560916838057 27.428709326805915 H 0.0 **** 0.06
1023 H 143.88020777878197 54.1476968532957 28.322258688649413 H 0.0 **** 0.06
1024 H 144.62831787853943 54.98359964289527 26.940004085043654 H 0.0 **** 0.06
1025 H 143.3136418463316 53.8149903841437 26.66703467885219 H 0.0 **** 0.06
1026 C 5.155739507409919 112.87836006997215 122.92897769876375 C 0.0 **** -0.24
1027 H 4.670065713567226 112.09330019863943 123.5095640326822 H 0.0 **** 0.06
1028 H 6.132270141119818 112.52924631251948 122.59274116629912 H 0.0 **** 0.06
1029 H 5.28028685776917 113.76430426008135 123.5511989726517 H 0.0 **** 0.06
1030 H 4.539407708775968 113.12494404417028 122.06513286477208 H 0.0 **** 0.06
1031 C 95.64602714882535 85.00517592842458 4.317813903004065 C 0.0 **** -0.24
1032 H 95.62838156001497 86.04014204729204 4.659485168192106 H 0.0 **** 0.06
1033 H 95.27479526595454 84.9543741735249 3.294494043274309 H 0.0 **** 0.06
1034 H 95.01112434416004 84.39951972927312 4.965342683407474 H 0.0 **** 0.06
1035 H 96.66746354668298 84.62815290021167 4.354443919386636 H 0.0 **** 0.06
1036 C 35.79382089959972 130.73250104254515 26.712146299033094 C 0.0 **** -0.24
1037 H 36.35450196712668 130.43670102931054 27.599891557590865 H 0.0 **** 0.06
1038 H 35.056346341048766 129.96462611304892 26.47649213312556 H 0.0 **** 0.06
1039 H 36.47817552008837 130.84977946465963 25.872641704961495 H 0.0 **** 0.06
1040 H 35.28642988235981 131.6777470888226 26.902665903033693 H 0.0 **** 0.06
1041 C 4.774877928296291 90.02994110922111 31.912363892645168 C 0.0 **** -0.24
1042 H 3.9188272424856336 89.47446683157852 31.530198994886554 H 0.0 **** 0.06
1043 H 5.6949915026443705 89.50858054631647 31.646413340883974 H 0.0 **** 0.06
1044 H 4.701787548517302 90.10907237098468 32.99664498765721 H 0.0 **** 0.06
1045 H 4.784128727192922 91.02845427346818 31.475060363912256 H 0.0 **** 0.06
1046 C 43.68501856092817 135.2990458622267 109.22812206932728 C 0.0 **** -0.24
1047 H 43.36716290838925 135.36872915548184 108.18795742056837 H 0.0 **** 0.06
1048 H 42.810626539939335 135.34258435512322 109.87839395183023 H 0.0 **** 0.06
1049 H 44.352937310742476 136.12822395218257 109.46043587621755 H 0.0 **** 0.06
1050 H 44.20890899885143 134.35583288256498 109.38531810647812 H 0.0 **** 0.06
1051 C 74.8251658119778 124.5769608869711 29.293426589169258 C 0.0 **** -0.24
1052 H 75.51182108540831 125.14199984147707 28.663155222581715 H 0.0 **** 0.06
1053 H 74.87412743198445 124.95560580261865 30.314666665351503 H 0.0 **** 0.06
1054 H 75.10428890913755 123.52404648532722 29.28155262381749 H 0.0 **** 0.06
1055 H 73.80966986024276 124.68764142313621 28.91318025663081 H 0.0 **** 0.06
1056 C 3.6326583281449984 92.18673815251853 83.38247748491365 C 0.0 **** -0.24
1057 H 4.201841441434738 91.36456006559635 83.81787995684083 H 0.0 **** 0.06
1058 H 3.5694829383506317 92.05240276947373 82.30259908374295 H 0.0 **** 0.06
1059 H 4.130947715633965 93.13011739195852 83.60352893743323 H 0.0 **** 0.06
1060 H 2.6284008744287917 92.19783897340167 83.80683139992195 H 0.0 **** 0.06
1061 C 90.7022897317052 83.0329796289134 142.10444867133063 C 0.0 **** -0.24
1062 H 90.99699878138281 82.44857252552225 142.97643515102598 H 0.0 **** 0.06
1063 H 89.69181368218362 82.75329003751342 141.80470476852253 H 0.0 **** 0.06
1064 H 91.3927053503091 82.83467662269744 141.28525721794023 H 0.0 **** 0.06
1065 H 90.72674379940565 84.09389383314512 142.35312623153717 H 0.0 **** 0.06
1066 C 140.24246750424692 94.17538351002264 56.510647570996014 C 0.0 **** -0.24
1067 H 140.5365327875722 93.35946933872339 57.17010122372764 H 0.0 **** 0.06
1068 H 139.20917286297956 94.45519111448459 56.71820818376531 H 0.0 **** 0.06
1069 H 140.33076302276808 93.8542859206218 55.47321724141116 H 0.0 **** 0.06
1070 H 140.8926528533338 95.03368051944611 56.681559122049094 H 0.0 **** 0.06
1071 C 136.05135221459236 149.07618141201908 22.095710908835315 C 0.0 **** -0.24
1072 H 135.87455150071122 149.2457790680317 21.033046959456954 H 0.0 **** 0.06
1073 H 136.57511827088808 149.93436626932242 22.516980845070663 H 0.0 **** 0.06
1074 H 136.65867373876802 148.17960383865943 22.223463553366145 H 0.0 **** 0.06
1075 H 135.09745339195385 148.94478416334866 22.606063988856533 H 0.0 **** 0.06
1076 C 71.12984090654231 83.48200352424513 19.901415326262736 C 0.0 **** -0.24
1077 H 70.61022022367335 83.60254613534339 20.851379676663555 H 0.0 **** 0.06
1078 H 71.60776450288854 82.50348243628223 19.870871026845634 H 0.0 **** 0.06
1079 H 71.88612441675986 84.26075099684404 19.79970921177778 H 0.0 **** 0.06
1080 H 70.41332706703348 83.56322923034803 19.083147742163305 H 0.0 **** 0.06
1081 C 73.3731191492605 2.9905230075503653 81.2853697370004 C 0.0 **** -0.24
1082 H 73.40879028628527 4.076834359268986 81.20863858972547 H 0.0 **** 0.06
1083 H 72.96572041828819 2.5747891856321132 80.36321129800461 H 0.0 **** 0.06
1084 H 72.73902141356746 2.705475356852446 82.124351470953 H 0.0 **** 0.06
1085 H 74.38059476179833 2.60457779256069 81.44382698755982 H 0.0 **** 0.06
1086 C 55.63954654547973 45.39897671437018 44.19839213335129 C 0.0 **** -0.24
1087 H 54.65729243833479 45.788437170472434 43.93199415533459 H 0.0 **** 0.06
1088 H 56.38812301588705 45.80877181763515 43.52024559470519 H 0.0 **** 0.06
1089 H 55.63259337816288 44.31163232412564 44.118371269983754 H 0.0 **** 0.06
1090 H 55.87905584391855 45.686446338681435 45.22235844612064 H 0.0 **** 0.06
1091 C 113.3325462023458 129.46136554664207 16.104636116756694 C 0.0 **** -0.24
1092 H 112.49406837497973 128.7664027968697 16.148864936005623 H 0.0 **** 0.06
1093 H 113.45574069856944 129.81789717298128 15.081740805564095 H 0.0 **** 0.06
1094 H 114.24225185673528 128.95277239180746 16.42522485966606 H 0.0 **** 0.06
1095 H 113.1385479720888 130.30675956719102 16.764492242722042 H 0.0 **** 0.06
1096 C 7.340546286229696 4.801977737750747 45.61298839454061 C 0.0 **** -0.24
1097 H 6.581863268012327 4.208981987501829 46.1243157100628 H 0.0 **** 0.06
1098 H 7.285361183195924 5.835815082668262 45.95589724791736 H 0.0 **** 0.06
1099 H 7.165132855033903 4.764844020369935 44.53754071004475 H 0.0 **** 0.06
1100 H 8.32811698188609 4.398014506409481 45.834111179351666 H 0.0 **** 0.06
1101 C 79.60357069620402 128.4916591094306 147.4391818728187 C 0.0 **** -0.24
1102 H 80.22470968943081 127.63145899636378 147.1905162708553 H 0.0 **** 0.06
1103 H 79.51744596616133 129.14131752409668 146.56832083315518 H 0.0 **** 0.06
1104 H 80.06044024646663 129.04270732447512 148.2608926149694 H 0.0 **** 0.06
1105 H 78.61260016650667 128.1491395269608 147.73733490991611 H 0.0 **** 0.06
1106 C 2.481652003978269 83.44454835274215 135.95760565113753 C 0.0 **** -0.24
1107 H 2.8841252936626347 84.3337138436917 136.4430677719532 H 0.0 **** 0.06
1108 H 1.516685562832663 83.1946134793287 136.39844780581382 H 0.0 **** 0.06
1109 H 3.1713852254002006 82.61152407857739 136.09601140167422 H 0.0 **** 0.06
1110 H 2.3554631283130902 83.63783074279806 134.89161745968676 H 0.0 **** 0.06
1111 C 20.4647198924674 111.08084904795582 50.830397766647934 C 0.0 **** -0.24
1112 H 20.944422876104795 111.12832236830492 51.80848970970641 H 0.0 **** 0.06
1113 H 21.21713753092797 110.87944605479954 50.06660127034138 H 0.0 **** 0.06
1114 H 19.977788089555304 112.03247716502933 50.618827905128796 H 0.0 **** 0.06
1115 H 19.721702058301332 110.28362317205539 50.82741982019297 H 0.0 **** 0.06
1116 C 77.85872587024883 23.440845090562732 93.43934666493718 C 0.0 **** -0.24
1117 H 78.61619435596438 24.217874820483814 93.33959320363883 H 0.0 **** 0.06
1118 H 76.96739868444752 23.86015485712022 93.90762511298647 H 0.0 **** 0.06
1119 H 78.247617883695 22.630985240802886 94.05708733194967 H 0.0 **** 0.06
1120 H 77.60259448064545 23.054354933255752 92.45218983706471 H 0.0 **** 0.06
1121 C 68.9893579602292 8.80735297289067 105.88393825583728 C 0.0 **** -0.24
1122 H 69.65218158425006 9.606949859000167 105.55262094569935 H 0.0 **** 0.06
1123 H 69.5784486515939 7.917985766603408 106.10892632755997 H 0.0 **** 0.06
1124 H 68.2728113368185 8.57881306869632 105.09536998950983 H 0.0 **** 0.06
1125 H 68.45633465370273 9.125593442024638 106.7795423090077 H 0.0 **** 0.06
1126 C 115.8210686409049 86.52000879896586 111.125585467101 C 0.0 **** -0.24
1127 H 115.2439386186115 85.60818696237702 110.9714479797179 H 0.0 **** 0.06
1128 H 116.57480698418435 86.60903275198501 110.3418011778078 H 0.0 **** 0.06
1129 H 116.311135311184 86.48051173716094 112.09851307602484 H 0.0 **** 0.06
1130 H 115.15475461912233 87.38140139054615 111.08833115130555 H 0.0 **** 0.06
1131 C 140.69048742490153 22.76005918841159 10.837879167351417 C 0.0 **** -0.24
1132 H 140.00687214634144 23.242994092125144 11.535054510247761 H 0.0 **** 0.06
1133 H 140.9740329755049 23.467460657356128 10.057785190806754 H 0.0 **** 0.06
1134 H 140.19906040596754 21.897600704345535 10.385621058745045 H 0.0 **** 0.06
1135 H 141.58166116523273 22.430774421197953 11.372098585675332 H 0.0 **** 0.06
1136 C 14.03833459659117 48.59242344999362 132.60647767512668 C 0.0 **** -0.24
1137 H 14.316518337120414 48.239393479195115 133.59947975403114 H 0.0 **** 0.06
1138 H 14.456786479913006 47.92485783567864 131.85344736725818 H 0.0 **** 0.06
1139 H 14.427965248016932 49.59998794257035 132.45675700026447 H 0.0 **** 0.06
1140 H 12.952462003851764 48.60721820508681 132.51708369904264 H 0.0 **** 0.06
1141 C 77.15579361384172 29.228771791358533 40.012650165953275 C 0.0 **** -0.24
1142 H 77.94422832174668 29.059212087163786 39.27932233783113 H 0.0 **** 0.06
1143 H 76.87836050139379 30.283048904465673 40.00962785696355 H 0.0 **** 0.06
1144 H 77.51509879145054 28.94976181339181 41.00346080647084 H 0.0 **** 0.06
1145 H 76.28664193460486 28.62281972594142 39.75741121189212 H 0.0 **** 0.06
1146 C 54.976679862533615 45.306933030006746 105.02799433964385 C 0.0 **** -0.24
1147 H 54.50389841372167 44.56553701366022 104.3827469570766 H 0.0 **** 0.06
1148 H 54.217883458146304 45.78627116618628 105.6464702483468 H 0.0 **** 0.06
1149 H 55.474463823957294 46.05710639001791 104.41459846924046 H 0.0 **** 0.06
1150 H 55.710256850851806 44.815478878938904 105.66681754732663 H 0.0 **** 0.06
1151 C 106.79495786606599 129.56405389187364 4.573895157554492 C 0.0 **** -0.24
1152 H 106.88256844289755 129.2300068534987 3.5398228855497393 H 0.0 **** 0.06
1153 H 107.70068287717153 130.09946551624876 4.859994979350546 H 0.0 **** 0.06
1154 H 106.66064237776096 128.70057384328322 5.2249811878251435 H 0.0 **** 0.06
1155 H 105.93498741549926 130.227479102149 4.669238341572047 H 0.0 **** 0.06
1156 C 0.7475237309141107 143.04028638227703 14.219179946938851 C 0.0 **** -0.24
1157 H 0.4157960068321245 142.92134405927337 13.187331143165949 H 0.0 **** 0.06
1158 H 0.06873664733100782 142.50518428464903 14.883778584217964 H 0.0 **** 0.06
1159 H 0.7521314343277083 144.0991304148868 14.479329124738115 H 0.0 **** 0.06
1160 H 1.7543920945452953 142.6357221507682 14.326424508054572 H 0.0 **** 0.06
1161 C 24.8385536678 8.618638877516304 68.20989106954826 C 0.0 **** -0.24
1162 H 24.52225938582518 7.582745472878372 68.33397281741466 H 0.0 **** 0.06
1163 H 24.43435196581072 9.013079563699876 67.27772584531378 H 0.0 **** 0.06
1164 H 25.92683063758227 8.666009768324926 68.18325106045005 H 0.0 **** 0.06
1165 H 24.469874900288374 9.213174506221208 69.04684799904422 H 0.0 **** 0.06
1166 C 56.050768981689856 115.6376631979047 91.42001687494846 C 0.0 **** -0.24
1167 H 56.94001144409552 115.96235407315633 91.96076837061278 H 0.0 **** 0.06
1168 H 55.31831182708001 116.44389180459969 91.40755168077854 H 0.0 **** 0.06
1169 H 55.62438960546919 114.76566917915464 91.91488504386669 H 0.0 **** 0.06
1170 H 56.323764304201774 115.37797322947891 90.39778299032506 H 0.0 **** 0.06
1171 C 111.16684873458784 108.38235783745539 114.39827346399521 C 0.0 **** -0.24
1172 H 112.10181779460406 107.92826670287819 114.06800292167851 H 0.0 **** 0.06
1173 H 111.36162679052889 109.39209771852727 114.75756068922867 H 0.0 **** 0.06
1174 H 110.739446546042 107.78580262657364 115.20448543914883 H 0.0 **** 0.06
1175 H 110.46687870827184 108.4204566834892 113.56373591834542 H 0.0 **** 0.06
1176 C 6.85399115625053 122.02559657685384 106.21497758409375 C 0.0 **** -0.24
1177 H 5.790786895487123 122.26062001733442 106.27095249396062 H 0.0 **** 0.06
1178 H 7.385130833685956 122.5534213822163 107.00740873052298 H 0.0 **** 0.06
1179 H 7.243689672610358 122.33705400854649 105.24670192240741 H 0.0 **** 0.06
1180 H 6.995468389146573 120.95166685374579 106.33510923692499 H 0.0 **** 0.06
1181 C 46.457685837429665 76.22892328939551 122.11554217167402 C 0.0 **** -0.24
1182 H 45.60145327983554 75.94587033188313 122.72899418137236 H 0.0 **** 0.06
1183 H 46.441372471298166 75.66110478358564 121.18601678150885 H 0.0 **** 0.06
1184 H 47.37875486605043 76.01457325470082 122.65736352863347 H 0.0 **** 0.06
1185 H 46.40736736085768 77.29458262842275 121.89215751174918 H 0.0 **** 0.06
1186 C 126.35338568084669 94.32292051478294 73.12261739446393 C 0.0 **** -0.24
1187 H 125.31780995994936 94.6602648840747 73.08398875041547 H 0.0 **** 0.06
1188 H 126.88641779748045 94.876908336616 73.89567092376973 H 0.0 **** 0.06
1189 H 126.82742188184025 94.49718123316305 72.15682996670239 H 0.0 **** 0.06
1190 H 126.37912976092585 93.25789280078422 73.35419181379336 H 0.0 **** 0.06
1191 C 104.20512041748509 113.81811387996194 27.804660464038136 C 0.0 **** -0.24
1192 H 103.16936209663459 114.1159062020765 27.969278004558603 H 0.0 **** 0.06
1193 H 104.25954319508566 112.73351808056216 27.709820576390896 H 0.0 **** 0.06
1194 H 104.81410299575253 114.14097921417093 28.64839480510122 H 0.0 **** 0.06
1195 H 104.57467026764715 114.28228586141225 26.890851553069325 H 0.0 **** 0.06
1196 C 83.33080424267484 146.83969910916943 77.68640274326793 C 0.0 **** -0.24
1197 H 82.69265039622547 146.97159641603122 78.56020893175169 H 0.0 **** 0.06
1198 H 84.20817029233173 147.47988138693506 77.77638571477068 H 0.0 **** 0.06
1199 H 82.77499547488452 147.1079582404588 76.78769358412374 H 0.0 **** 0.06
1200 H 83.64557231110412 145.79856005939706 77.62119540846463 H 0.0 **** 0.06
1201 C 101.87555332764475 24.526415120523012 22.10732997811226 C 0.0 **** -0.24
1202 H 102.88501341981687 24.642902089995488 21.71127235488086 H 0.0 **** 0.06
1203 H 101.24454760297913 24.0529802113019 21.35500846907263 H 0.0 **** 0.06
1204 H 101.46885225566977 25.505657531984866 22.358381753141146 H 0.0 **** 0.06
1205 H 101.90523015178059 23.904026893930507 23.001348794351657 H 0.0 **** 0.06
1206 C 11.922913933950127 127.19913709669986 4.930184833818732 C 0.0 **** -0.24
1207 H 12.48668613677603 127.65251538355177 5.745803945394766 H 0.0 **** 0.06
1208 H 12.203961591524191 127.67135111952406 3.988906123758703 H 0.0 **** 0.06
1209 H 10.856579155179396 127.34086693246223 5.103679058521308 H 0.0 **** 0.06
1210 H 12.145060054941496 126.1334434061973 4.883746596076236 H 0.0 **** 0.06
1211 C 52.097060071719866 2.703771837290745 18.82087943764361 C 0.0 **** -0.24
1212 H 52.79071921860579 3.034141444815475 18.047989809000455 H 0.0 **** 0.06
1213 H 52.00688492648297 1.6171576595614852 18.78704712586969 H 0.0 **** 0.06
1214 H 51.11978743562413 3.1549854977990535 18.64888549605317 H 0.0 **** 0.06
1215 H 52.470322918179875 3.006971278976046 19.798987521724456 H 0.0 **** 0.06
1216 C 24.698050354431516 13.176983873402605 90.74584323409641 C 0.0 **** -0.24
1217 H 24.809857166268664 14.256615726819035 90.64503258146212 H 0.0 **** 0.06
1218 H 25.180405512004775 12.847091585330702 91.66606172503404 H 0.0 **** 0.06
1219 H 25.162351583810576 12.682281841283412 89.89320983001744 H 0.0 **** 0.06
1220 H 23.637587797556037 12.924069729022818 90.77977173405142 H 0.0 **** 0.06
1221 C 103.4161244905539 143.49430111994755 8.50244889894742 C 0.0 **** -0.24
1222 H 102.80476004231207 143.79766692313876 9.352599003954474 H 0.0 **** 0.06
1223 H 103.18804976522676 144.12933573912156 7.647146970280438 H 0.0 **** 0.06
1224 H 103.20049723918339 142.45555769297889 8.25335164037903 H 0.0 **** 0.06
1225 H 104.47108640107945 143.5956145341988 8.759867805218128 H 0.0 **** 0.06
1226 C 136.09323798958232 29.395307029416415 101.61635635704641 C 0.0 **** -0.24
1227 H 136.22545094883924 29.189084526594513 100.55394141008748 H 0.0 **** 0.06
1228 H 136.60500348540467 28.631090065596673 102.2013700284682 H 0.0 **** 0.06
1229 H 135.03029577061685 29.38839207035003 101.8570106639139 H 0.0 **** 0.06
1230 H 136.51254030556345 30.374763782964855 101.85076538514032 H 0.0 **** 0.06
1231 C 115.03370492215045 101.35885055194998 61.42158091221046 C 0.0 **** -0.24
1232 H 115.51454816498448 101.01150155359116 60.507195912501786 H 0.0 **** 0.06
1233 H 113.9875839099356 101.05215485892876 61.42014025525302 H 0.0 **** 0.06
1234 H 115.09379219526498 102.4459711318103 61.472076893080484 H 0.0 **** 0.06
1235 H 115.53944614401253 100.92575841713185 62.28474341925957 H 0.0 **** 0.06
1236 C 51.43798190069273 61.75624742644098 109.12742601099195 C 0.0 **** -0.24
1237 H 51.07166534590587 62.78280844685841 109.15925635240042 H 0.0 **** 0.06
1238 H 52.063352751579714 61.62108984207771 108.2448314164857 H 0.0 **** 0.06
1239 H 50.592877704915935 61.06951052680199 109.08266216359452 H 0.0 **** 0.06
1240 H 52.02444149780601 61.55285033973081 110.0234239185307 H 0.0 **** 0.06
1241 C 149.6887376826142 42.52814691525671 37.639892443784404 C 0.0 **** -0.24
1242 H 150.17558997980285 42.37522349803457 38.60322196388607 H 0.0 **** 0.06
1243 H 149.75368637307673 43.58155155444477 37.36439311743993 H 0.0 **** 0.06
1244 H 148.64142185250972 42.235050584735006 37.71131070803324 H 0.0 **** 0.06
1245 H 150.1848884037738 41.92257107656951 36.88179427678337 H 0.0 **** 0.06
1246 C 128.99813806946023 117.73677693095597 129.51069260141327 C 0.0 **** -0.24
1247 H 129.01425314779266 116.65020291611951 129.42275104258403 H 0.0 **** 0.06
1248 H 129.97684062547668 118.13721309291505 129.2464811944863 H 0.0 **** 0.06
1249 H 128.7553450399298 118.01460424483385 130.53650936106956 H 0.0 **** 0.06
1250 H 128.24440616935033 118.14365203563283 128.83687115569478 H 0.0 **** 0.06
1251 C 68.15731118195167 81.72758172880972 5.940213301294307 C 0.0 **** -0.24
1252 H 67.12618474040369 82.04721411997679 5.788312370243773 H 0.0 **** 0.06
1253 H 68.3558751365103 81.635866921537 7.008507862735655 H 0.0 **** 0.06
1254 H 68.83383922337879 82.46390768785054 5.506201343328712 H 0.0 **** 0.06
1255 H 68.3130902700467 80.76257497534752 5.456668712080727 H 0.0 **** 0.06
1256 C 7.915700087383144 143.5112347392241 82.96534721982908 C 0.0 **** -0.24
1257 H 8.026785690022216 144.11434815554003 82.0642436305692 H 0.0 **** 0.06
1258 H 8.806674846088029 143.61671848713146 83.58483383373567 H 0.0 **** 0.06
1259 H 7.786197904797085 142.4655659309356 82.68858854568572 H 0.0 **** 0.06
1260 H 7.042040635472063 143.85048230032413 83.52349308224137 H 0.0 **** 0.06
1261 C 71.85576758594947 3.0172621315477066 66.9158602941315 C 0.0 **** -0.24
1262 H 71.69356959255934 2.9493404323234635 67.9919230079759 H 0.0 **** 0.06
1263 H 72.54929815589624 3.8318876057169824 66.70388335799916 H 0.0 **** 0.06
1264 H 70.90538025076972 3.2095255592720022 66.41689816124727 H 0.0 **** 0.06
1265 H 72.27424113647103 2.0790442188717577 66.55105413670358 H 0.0 **** 0.06
1266 C 135.97719280629087 46.517926654751605 91.04636828112585 C 0.0 **** -0.24
1267 H 136.14825373027116 46.28410072626825 92.09765944796301 H 0.0 **** 0.06
1268 H 135.21024677387288 45.85441643621901 90.64764728549264 H 0.0 **** 0.06
1269 H 136.90424754751092 46.380646910943014 90.48852483328301 H 0.0 **** 0.06
1270 H 135.64795382978104 47.55290799892863 90.95390856892715 H 0.0 **** 0.06
1271 C 140.48556785533162 45.068743888106454 135.85183469608924 C 0.0 **** -0.24
1272 H 139.48823593072532 45.33230185359113 135.50040661298868 H 0.0 **** 0.06
1273 H 140.99848742845913 44.48968196231796 135.0837941450788 H 0.0 **** 0.06
1274 H 140.40529638113284 44.47448700300825 136.7623728606965 H 0.0 **** 0.06
1275 H 141.04950266345892 45.97797589225932 136.0596884238211 H 0.0 **** 0.06
1276 C 33.602756352806466 148.69153956382513 30.3746807257356 C 0.0 **** -0.24
1277 H 33.845724889746066 148.0987316663698 31.2554023038213 H 0.0 **** 0.06
1278 H 33.87212884365033 148.13551279178165 29.476366640715966 H 0.0 **** 0.06
1279 H 34.15901121270127 149.62909644073696 30.401757579287235 H 0.0 **** 0.06
1280 H 32.5338272232687 148.90417269818087 30.363449329732383 H 0.0 **** 0.06
1281 C 108.28003599422019 128.04465283204757 133.29899105123283 C 0.0 **** -0.24
1282 H 108.77923115541935 128.63600186933843 132.5314234718735 H 0.0 **** 0.06
1283 H 107.21640706929114 128.28370544558697 133.3064647763391 H 0.0 **** 0.06
1284 H 108.71152844738609 128.2760973636453 134.2731944190022 H 0.0 **** 0.06
1285 H 108.41311130793153 126.98503707279013 133.08479529016194 H 0.0 **** 0.06
1286 C 47.54004686224174 7.654998615675034 120.93674166370552 C 0.0 **** -0.24
1287 H 47.78694879738161 8.659951141838043 120.5941422705284 H 0.0 **** 0.06
1288 H 46.460803463124265 7.571954327757702 121.07112497612046 H 0.0 **** 0.06
1289 H 48.04112193930028 7.46087562901279 121.88446814035721 H 0.0 **** 0.06
1290 H 47.87099344906321 6.927613740875032 120.19483592944074 H 0.0 **** 0.06
1291 C 74.44274693515038 141.28338242962263 64.78631309233009 C 0.0 **** -0.24
1292 H 75.46919843220962 141.4016219274902 64.43824377137429 H 0.0 **** 0.06
1293 H 74.3449797577234 141.71776873174213 65.78206540308099 H 0.0 **** 0.06
1294 H 74.19147540357818 140.22351193287304 64.8251154934207 H 0.0 **** 0.06
1295 H 73.7664472649665 141.7928057837811 64.09994869792678 H 0.0 **** 0.06
1296 C 36.79277111300593 115.12780159074963 134.682479834397 C 0.0 **** -0.24
1297 H 37.18026324407592 116.1222514718723 134.46000110873374 H 0.0 **** 0.06
1298 H 36.16332666219273 114.79136891327563 133.85903147727646 H 0.0 **** 0.06
1299 H 36.20479992048635 115.16322448199087 135.59960391458904 H 0.0 **** 0.06
1300 H 37.62472937128112 114.43527121038103 134.81146286797951 H 0.0 **** 0.06
1301 C 100.79629209548183 91.60563169203715 17.94078791211019 C 0.0 **** -0.24
1302 H 99.92844228330975 91.96739740907552 17.389532303050522 H 0.0 **** 0.06
1303 H 101.43267548751685 91.02433692778493 17.27316969984262 H 0.0 **** 0.06
1304 H 100.46570830229706 90.97825576640686 18.767706430024624 H 0.0 **** 0.06
1305 H 101.35746940661014 92.45531346706997 18.330615332261885 H 0.0 **** 0.06
1306 C 105.95614107360882 41.33693559470842 13.125856423415755 C 0.0 **** -0.24
1307 H 105.08873156345288 41.97631933980597 13.287725588590796 H 0.0 **** 0.06
1308 H 105.6915262868435 40.531194439002235 12.441191772094342 H 0.0 **** 0.06
1309 H 106.27751418501964 40.91369449301098 14.078657480904049 H 0.0 **** 0.06
1310 H 106.76680450315189 41.92633001886239 12.698291839110553 H 0.0 **** 0.06
1311 C 37.53114726103783 110.37009445138528 19.184474380588455 C 0.0 **** -0.24
1312 H 37.99654695804747 110.99992868608564 18.426413408942636 H 0.0 **** 0.06
1313 H 36.54060157733566 110.06512797627732 18.84638090900677 H 0.0 **** 0.06
1314 H 37.44021354133257 110.9303052817271 20.11574631421672 H 0.0 **** 0.06
1315 H 38.14616768812951 109.48637738370587 19.350779692880934 H 0.0 **** 0.06
1316 C 62.68931618698551 102.83414423268925 141.37558203335706 C 0.0 **** -0.24
1317 H 62.744139176098855 101.7823916364427 141.65915822209692 H 0.0 **** 0.06
1318 H 61.657223448860776 103.17706399151996 141.45479780545017 H 0.0 **** 0.06
1319 H 63.03400281543381 102.95135563567561 140.34795753209298 H 0.0 **** 0.06
1320 H 63.320986551564545 103.42253518728847 142.04126974382243 H 0.0 **** 0.06
1321 C 101.10214658018356 129.2164088566547 117.01787315546139 C 0.0 **** -0.24
1322 H 101.98920939602834 129.2156617836315 117.65081269762206 H 0.0 **** 0.06
1323 H 100.62493127217175 128.2365914391938 117.05993162365857 H 0.0 **** 0.06
1324 H 101.39015825342841 129.43645276187556 115.98882771422112 H 0.0 **** 0.06
1325 H 100.40565078093005 129.9761429999222 117.37004364239354 H 0.0 **** 0.06
1326 C 142.08499366128507 67.14871302440704 137.49920451764592 C 0.0 **** -0.24
1327 H 143.1515618620908 67.12638274984775 137.7220275448079 H 0.0 **** 0.06
1328 H 141.55911766058392 67.67507121815497 138.29653632600392 H 0.0 **** 0.06
1329 H 141.70811522789495 66.12829970067287 137.42626757836467 H 0.0 **** 0.06
1330 H 141.92284484445872 67.66535900258376 136.5537643342232 H 0.0 **** 0.06
1331 C 9.59495580114853 39.84812139531873 32.07490235314691 C 0.0 **** -0.24
1332 H 10.143352302866333 40.77012966868283 31.88491956027906 H 0.0 **** 0.06
1333 H 10.022287393551835 39.042633154768396 31.47733653834274 H 0.0 **** 0.06
1334 H 8.548660091313764 39.98499853052326 31.80558034449399 H 0.0 **** 0.06
1335 H 9.667461613005088 39.59389403808402 33.13251752610523 H 0.0 **** 0.06
1336 C 100.81859831077483 13.93516272727905 101.3144399006339 C 0.0 **** -0.24
1337 H 101.31796463156579 14.896056532855425 101.19762470100297 H 0.0 **** 0.06
1338 H 101.04952392398258 13.299875108059496 100.4592601001801 H 0.0 **** 0.06
1339 H 99.74112979832947 14.089641219351847 101.37162803551202 H 0.0 **** 0.06
1340 H 101.16541450348566 13.453938137145059 102.22849125500093 H 0.0 **** 0.06
1341 C 18.909890714882664 65.97746590571315 126.90386983499877 C 0.0 **** -0.24
1342 H 19.94848362116349 65.80554489640795 127.18843874733011 H 0.0 **** 0.06
1343 H 18.733405738933442 65.56838205217377 125.90945145689079 H 0.0 **** 0.06
1344 H 18.707985200208697 67.04950825679302 126.89849244514727 H 0.0 **** 0.06
1345 H 18.250790084623787 65.48723994320044 127.62086521485344 H 0.0 **** 0.06
1346 C 135.60887654897016 21.177968463061944 31.604870637525323 C 0.0 **** -0.24
1347 H 135.01224267275202 20.852747239723755 32.45710573140897 H 0.0 **** 0.06
1348 H 135.4517261932596 22.243855570695928 31.436591224755432 H 0.0 **** 0.06
1349 H 135.30708078629235 20.621870761359304 30.717533535586 H 0.0 **** 0.06
1350 H 136.66390760484884 20.99358273802784 31.80743633038591 H 0.0 **** 0.06
1351 C 84.04739736233248 115.93216932615378 12.415334827167555 C 0.0 **** -0.24
1352 H 84.58539288274736 116.84781494055709 12.65990669061381 H 0.0 **** 0.06
1353 H 84.40935218987671 115.11913391736563 13.04679243337489 H 0.0 **** 0.06
1354 H 84.21462059115022 115.68100528548605 11.368220947086229 H 0.0 **** 0.06
1355 H 82.98089570981348 116.0792832472835 12.588283476123536 H 0.0 **** 0.06
1356 C 147.7067811936934 34.089450183482086 62.53285397375535 C 0.0 **** -0.24
1357 H 147.73395698598193 33.22948495130382 61.86359037639991 H 0.0 **** 0.06
1358 H 147.0981993358438 34.876286447298185 62.08724618882175 H 0.0 **** 0.06
1359 H 148.71984483063846 34.459115178578145 62.69015409334702 H 0.0 **** 0.06
1360 H 147.2756366317275 33.791938438568394 63.488479734364915 H 0.0 **** 0.06
1361 C 100.34356080595742 87.95944057862059 141.53726288423726 C 0.0 **** -0.24
1362 H 99.65122991982889 87.9809695141171 142.37833297593147 H 0.0 **** 0.06
1363 H 100.29550683350212 88.90837485237206 141.00317390184932 H 0.0 **** 0.06
1364 H 100.07056303854722 87.14717691614021 140.86250329732985 H 0.0 **** 0.06
1365 H 101.3572094512071 87.8004150069913 141.9055383057829 H 0.0 **** 0.06
1366 C 23.955969515981508 21.363585822122985 80.14747063782714 C 0.0 **** -0.24
1367 H 24.069816142838235 22.4129417454495 79.8762151120344 H 0.0 **** 0.06
1368 H 23.614391979301935 20.79980563624133 79.27880602550542 H 0.0 **** 0.06
1369 H 23.224710557974745 21.27284346129531 80.94965925941997 H 0.0 **** 0.06
1370 H 24.914433321000836 20.969464711419846 80.48291826407319 H 0.0 **** 0.06
1371 C 148.28759622138932 85.73049923874768 47.51228918450224 C 0.0 **** -0.24
1372 H 148.88768359037917 86.60191984836769 47.77360841858767 H 0.0 **** 0.06
1373 H 147.22951012055776 85.98310562387746 47.586027413409155 H 0.0 **** 0.06
1374 H 148.51581991339287 84.91447360200914 48.196494210604556 H 0.0 **** 0.06
1375 H 148.5181496233727 85.42407200996854 46.49164233543473 H 0.0 **** 0.06
1376 C 3.8244400192841113 20.868878925782404 48.674222611663964 C 0.0 **** -0.24
1377 H 4.866389748116205 20.550378943540956 48.652064341733194 H 0.0 **** 0.06
1378 H 3.5871955469239936 21.39822150860853 47.7510481983758 H 0.0 **** 0.06
1379 H 3.664510387685084 21.531298363993663 49.524843842485794 H 0.0 **** 0.06
1380 H 3.1799734355776934 19.994430348051104 48.767710655415726 H 0.0 **** 0.06
1381 C 148.30555987666037 118.6175053565237 100.96919190445126 C 0.0 **** -0.24
1382 H 148.60549040783985 118.95094228715793 101.9620433178872 H 0.0 **** 0.06
1383 H 149.08459945916283 118.87173040643121 100.24959654436033 H 0.0 **** 0.06
1384 H 147.3757816342865 119.11134673250892 100.68645420521551 H 0.0 **** 0.06
1385 H 148.1558424739287 117.53783500501417 100.97750560670814 H 0.0 **** 0.06
1386 C 125.69159407249933 41.11894918565156 137.33811762533134 C 0.0 **** -0.24
1387 H 125.45777770072536 40.55794474318887 138.24253864280018 H 0.0 **** 0.06
1388 H 126.03602665373555 40.433463990863444 136.56362570291867 H 0.0 **** 0.06
1389 H 126.47444562372422 41.84624773984277 137.55427442409265 H 0.0 **** 0.06
1390 H 124.79861317636195 41.63901331544383 136.99200364390492 H 0.0 **** 0.06
1391 C 149.31930312238146 79.08280136620422 150.41263839099184 C 0.0 **** -0.24
1392 H 149.60000381493853 79.6486620088184 151.3010472742493 H 0.0 **** 0.06
1393 H 148.746193866062 79.72208324911475 149.74055732090557 H 0.0 **** 0.06
1394 H 148.71391532392278 78.22464675098456 150.70445469064344 H 0.0 **** 0.06
1395 H 150.2193328435175 78.73588255886312 149.90458097153083 H 0.0 **** 0.06
1396 C 147.67568418960533 15.475168882206106 65.81098083087731 C 0.0 **** -0.24
1397 H 148.21497373662928 16.40028833757816 65.6086784748233 H 0.0 **** 0.06
1398 H 146.6216989062 15.697886064655279 65.97708490012678 H 0.0 **** 0.06
1399 H 148.09167790149255 14.999302511466766 66.69928141623546 H 0.0 **** 0.06
1400 H 147.77513917262146 14.802544300020628 64.9588080922095 H 0.0 **** 0.06
1401 C 5.1574503682818715 19.613917903054976 58.600086798945355 C 0.0 **** -0.24
1402 H 5.3164758997652655 18.53951098690785 58.49952734926876 H 0.0 **** 0.06
1403 H 4.155884139213924 19.866705667538334 58.249597164789535 H 0.0 **** 0.06
1404 H 5.897713845670978 20.147576109575382 58.00510752367511 H 0.0 **** 0.06
1405 H 5.25931346167701 19.898524900861865 59.64772141103721 H 0.0 **** 0.06
1406 C 120.4371921591388 45.81503665653129 130.8879254174799 C 0.0 **** -0.24
1407 H 121.50824034830471 45.616942501126005 130.85187059103987 H 0.0 **** 0.06
1408 H 120.01076790235287 45.3435422748223 131.77351612225868 H 0.0 **** 0.06
1409 H 119.96206569239878 45.40766884213029 129.99501678823196 H 0.0 **** 0.06
1410 H 120.26770559797838 46.891082808971575 130.9302158135774 H 0.0 **** 0.06
1411 C 58.117174549346856 27.548615779228555 137.54246245832107 C 0.0 **** -0.24
1412 H 57.748743774497 26.64605463442342 138.0307581196843 H 0.0 **** 0.06
1413 H 59.20606054523755 27.51960814284294 137.5000792506693 H 0.0 **** 0.06
1414 H 57.79749346707409 28.423940030715926 138.1089180933643 H 0.0 **** 0.06
1415 H 57.714444384002974 27.6043790863111 136.53106522889004 H 0.0 **** 0.06
1416 C 64.31780869689237 28.518928241894137 6.728301205702877 C 0.0 **** -0.24
1417 H 65.00087977104971 27.830510961243093 7.2246790807809305 H 0.0 **** 0.06
1418 H 64.78819320568886 29.498297521917245 6.641746574667991 H 0.0 **** 0.06
1419 H 63.40147819441114 28.606172195080497 7.313167371501862 H 0.0 **** 0.06
1420 H 64.07956061344453 28.140829445268658 5.7344659025541205 H 0.0 **** 0.06
1421 C 54.32436489599718 34.19917271860127 8.83334265091898 C 0.0 **** -0.24
1422 H 54.96075003221834 34.58227794140368 9.63121221385807 H 0.0 **** 0.06
1423 H 53.81705903953808 33.29663995948403 9.17536150954993 H 0.0 **** 0.06
1424 H 54.93682476564199 33.964300219456874 7.963290773058397 H 0.0 **** 0.06
1425 H 53.58557994434642 34.953797581598984 8.564650314881234 H 0.0 **** 0.06
1426 C 112.18827635263146 142.95578360603167 71.7108459774855 C 0.0 **** -0.24
1427 H 112.18707477726564 141.8739896483063 71.84365737083763 H 0.0 **** 0.06
1428 H 111.88895012327431 143.43744752254017 72.64312236355096 H 0.0 **** 0.06
1429 H 111.4880736568678 143.22596168503824 70.92108814516033 H 0.0 **** 0.06
1430 H 113.1902634404996 143.28739269945794 71.43633766734997 H 0.0 **** 0.06
1431 C 139.60445573216407 62.29982009318883 108.84016918883977 C 0.0 **** -0.24
1432 H 138.67932506033947 62.297453596526736 109.4170029101082 H 0.0 **** 0.06
1433 H 139.62490190892333 61.42831750460482 108.18377466269742 H 0.0 **** 0.06
1434 H 140.45585019390307 62.263355449172536 109.51972439638867 H 0.0 **** 0.06
1435 H 139.65536851627945 63.208335161651405 108.23997109893001 H 0.0 **** 0.06
1436 C 132.98859250589476 114.4661911332677 102.82016632439826 C 0.0 **** -0.24
1437 H 132.08386647311877 114.43637914167525 103.42741465653512 H 0.0 **** 0.06
1438 H 133.08622098859388 115.45113452939623 102.36354868236239 H 0.0 **** 0.06
1439 H 132.927546229577 113.70735760583145 102.04044746991849 H 0.0 **** 0.06
1440 H 133.8554408712446 114.27055683662778 103.4509520236536 H 0.0 **** 0.06
1441 C 24.01678990173815 6.615250454868686 46.24793701126234 C 0.0 **** -0.24
1442 H 24.23916225066273 5.66697008231958 45.75684901383633 H 0.0 **** 0.06
1443 H 24.731339405990425 7.370359809860815 45.91888019803727 H 0.0 **** 0.06
1444 H 24.091568430081566 6.490277841247774 47.3281349092687 H 0.0 **** 0.06
1445 H 23.00675813675265 6.931133259465355 45.98683287137041 H 0.0 **** 0.06
1446 C 13.059966201077913 36.20157315969317 123.0116534337656 C 0.0 **** -0.24
1447 H 13.523028648512138 36.56523378064273 122.09520291699322 H 0.0 **** 0.06
1448 H 12.070672151594806 35.801189475343364 122.7841984505432 H 0.0 **** 0.06
1449 H 12.964407353814153 37.023520029450566 123.72166284267992 H 0.0 **** 0.06
1450 H 13.678929553058794 35.41643591593876 123.44556742451569 H 0.0 **** 0.06
1451 C 84.96498233856613 2.9075540852860513 107.28108976174265 C 0.0 **** -0.24
1452 H 84.85121372111084 1.9787292903224056 107.83955700806324 H 0.0 **** 0.06
1453 H 85.99457166946445 2.9997547030161513 106.9348378995996 H 0.0 **** 0.06
1454 H 84.72224482129477 3.751931815276862 107.92663623539086 H 0.0 **** 0.06
1455 H 84.29233544183094 2.9004663353425144 106.42393320220351 H 0.0 **** 0.06
1456 C 113.62071194866745 120.29104954153233 80.53706134257274 C 0.0 **** -0.24
1457 H 113.97561270090848 121.04681188057289 81.23768479568653 H 0.0 **** 0.06
1458 H 112.54182358425781 120.38631503999146 80.41442013354956 H 0.0 **** 0.06
1459 H 113.8559955281536 119.29915451810702 80.92325610284865 H 0.0 **** 0.06
1460 H 114.11034167566014 120.43154869059019 79.57279672822789 H 0.0 **** 0.06
1461 C 52.23376790651787 24.836574556011584 55.45993831906772 C 0.0 **** -0.24
1462 H 53.172639221386405 25.36399656206865 55.629841764108505 H 0.0 **** 0.06
1463 H 52.19167683934249 24.494919843022757 54.425738202241945 H 0.0 **** 0.06
1464 H 51.39874824475794 25.509408477815185 55.656150385502485 H 0.0 **** 0.06
1465 H 52.173547645098736 23.97850996066498 56.12955250700162 H 0.0 **** 0.06
1466 C 15.954089243418288 59.795291099725134 29.593852253985048 C 0.0 **** -0.24
1467 H 15.734472824074778 60.30475354283723 28.655559051488268 H 0.0 **** 0.06
1468 H 16.643111244640778 58.97113619770691 29.40731033424686 H 0.0 **** 0.06
1469 H 15.028601489260566 59.407026911382374 30.020635417767124 H 0.0 **** 0.06
1470 H 16.408409304239875 60.49880633849452 30.291140612328405 H 0.0 **** 0.06
1471 C 99.20442447737506 90.80544718154138 109.87595327433348 C 0.0 **** -0.24
1472 H 99.55774414708739 89.78912689360655 109.70115403486227 H 0.0 **** 0.06
1473 H 100.02790760813028 91.41889384108245 110.24032558424653 H 0.0 **** 0.06
1474 H 98.40580986532115 90.79017292368641 110.61797477058104 H 0.0 **** 0.06
1475 H 98.8249637477384 91.22265246950226 108.94248992009392 H 0.0 **** 0.06
1476 C 24.36392030937438 95.82886884132282 57.100148078016616 C 0.0 **** -0.24
1477 H 23.762175474851688 96.70738409125136 57.33186897555257 H 0.0 **** 0.06
1478 H 24.168356335101464 95.51444069040474 56.07468517041329 H 0.0 **** 0.06
1479 H 24.10492673115536 95.02002808546547 57.784572289773934 H 0.0 **** 0.06
1480 H 25.421085888271563 96.07293444355352 57.21034993165344 H 0.0 **** 0.06
1481 C 14.730823603951762 4.292010792418665 149.67532846156288 C 0.0 **** -0.24
1482 H 15.4554902097356 3.831658521388846 150.34716444800623 H 0.0 **** 0.06
1483 H 13.77971218278595 3.7663042336076273 149.75254970102148 H 0.0 **** 0.06
1484 H 15.096971044299991 4.233549447408848 148.64989789871433 H 0.0 **** 0.06
1485 H 14.592284706450194 5.337103133573464 149.95226610100727 H 0.0 **** 0.06
1486 C 120.55256051878702 19.665099348097158 106.99906255141141 C 0.0 **** -0.24
1487 H 120.2926127588746 19.566498804466903 105.94408119692164 H 0.0 **** 0.06
1488 H 119.64107681840626 19.727314654780514 107.59297178487262 H 0.0 **** 0.06
1489 H 121.14380745897249 20.56912676599711 107.14387607417487 H 0.0 **** 0.06
1490 H 121.1322582004541 18.796728345491317 107.31196969528528 H 0.0 **** 0.06
1491 C 92.85506646363251 22.683215101539886 8.585354502220312 C 0.0 **** -0.24
1492 H 92.22763854223024 22.06868470494414 9.230142095778639 H 0.0 **** 0.06
1493 H 92.46180917393076 22.660478923577685 7.568738903789033 H 0.0 **** 0.06
1494 H 93.87326942087532 22.29432949077676 8.59137112474557 H 0.0 **** 0.06
1495 H 92.85619743989673 23.709566278571046 8.95153266018957 H 0.0 **** 0.06
1496 C 3.267568370776054 138.4342919651929 104.7214363376766 C 0.0 **** -0.24
1497 H 4.297190947871645 138.2385980658722 104.42090056019076 H 0.0 **** 0.06
1498 H 3.083667160126115 139.5094483750464 104.70759469002691 H 0.0 **** 0.06
1499 H 3.1038440149582627 138.05021874344007 105.72773576498157 H 0.0 **** 0.06
1500 H 2.5868825169332474 137.94029595939125 104.02798467867272 H 0.0 **** 0.06
1501 C 18.059676539977517 36.83032390213047 139.05344488925093 C 0.0 **** -0.24
1502 H 18.960765415449885 36.583297649103756 139.6149334091688 H 0.0 **** 0.06
1503 H 17.294162525128996 36.07785003466935 139.2456320231138 H 0.0 **** 0.06
1504 H 18.290052979203836 36.851498648711754 137.98810981372137 H 0.0 **** 0.06
1505 H 17.69393378033601 37.809144672421695 139.36641242666903 H 0.0 **** 0.06
1506 C 84.80353378428869 54.48776948756941 129.974014872078 C 0.0 **** -0.24
1507 H 84.55645849693116 55.48107109470375 129.60008281675655 H 0.0 **** 0.06
1508 H 85.86358356401043 54.292609883658386 129.81414101631646 H 0.0 **** 0.06
1509 H 84.21239186878779 53.741669187771876 129.44227236863944 H 0.0 **** 0.06
1510 H 84.58001470984837 54.43601305762856 131.03983615060167 H 0.0 **** 0.06
1511 C 39.7381757677276 136.42529383744662 2.406073746153755 C 0.0 **** -0.24
1512 H 39.680051265869366 137.51279707496795 2.3640413348921605 H 0.0 **** 0.06
1513 H 39.68992905472999 136.0199762521634 1.3950112253019213 H 0.0 **** 0.06
1514 H 38.90520598790327 136.0394045168151 2.9938715578326907 H 0.0 **** 0.06
1515 H 40.6790360152243 136.1298200734807 2.8714948147957813 H 0.0 **** 0.06
1516 C 94.20318382164493 15.52447531718417 133.43822216858703 C 0.0 **** -0.24
1517 H 94.00605566241268 14.45509633265931 133.37193858682082 H 0.0 **** 0.06
1518 H 93.96129093270088 15.876740405630443 134.44149464408093 H 0.0 **** 0.06
1519 H 93.588239213544 16.052898035237064 132.7094629096876 H 0.0 **** 0.06
1520 H 95.25621818494633 15.713514846886113 133.23009921601448 H 0.0 **** 0.06
1521 C 16.48274696940109 43.849712029172395 1.1580267140135447 C 0.0 **** -0.24
1522 H 15.815938099460112 44.70745235980465 1.2379509907864588 H 0.0 **** 0.06
1523 H 16.2076060423301 43.25593691128458 0.2857382858139488 H 0.0 **** 0.06
1524 H 16.397258997407732 43.23779400817759 2.0555904160429463 H 0.0 **** 0.06
1525 H 17.511006466924783 44.197454222071684 1.051695581943477 H 0.0 **** 0.06
1526 C 37.794084548721855 73.16680538225874 89.65421174674483 C 0.0 **** -0.24
1527 H 38.18903582663705 73.0239048841802 88.64838550972073 H 0.0 **** 0.06
1528 H 37.74958512117644 72.20501623322255 90.1671776252098 H 0.0 **** 0.06
1529 H 36.79247991270972 73.59366427881349 89.59446099991956 H 0.0 **** 0.06
1530 H 38.44585497942097 73.8436028816266 90.20756513223756 H 0.0 **** 0.06
1531 C 68.34518760250509 71.99996939815625 21.135820589599433 C 0.0 **** -0.24
1532 H 68.37948797281994 71.33399736589958 21.996967588347303 H 0.0 **** 0.06
1533 H 67.33272420577097 72.38469259052275 21.014748683643433 H 0.0 **** 0.06
1534 H 68.63506198968075 71.45222712409533 20.239858159139516 H 0.0 **** 0.06
1535 H 69.03338056275427 72.83114542213485 21.292173970939615 H 0.0 **** 0.06
1536 C 104.65502404986945 18.686365272703092 43.088199980837615 C 0.0 **** -0.24
1537 H 104.08561070197219 18.075338393524916 42.387809320598734 H 0.0 **** 0.06
1538 H 104.08524558949982 19.58203939996637 43.33458956806534 H 0.0 **** 0.06
1539 H 105.60356443059898 18.971902395646303 42.632771389055506 H 0.0 **** 0.06
1540 H 104.84508479495811 18.114396636663017 43.996418169004826 H 0.0 **** 0.06
1541 C 111.40616984661632 5.568696917822191 86.37670791162182 C 0.0 **** -0.24
1542 H 111.72388877594157 5.884122524791259 87.3706535146467 H 0.0 **** 0.06
1543 H 111.29223769529143 6.444742820841338 85.73701456256373 H 0.0 **** 0.06
1544 H 110.45266395357159 5.046069283033123 86.44854333432735 H 0.0 **** 0.06
1545 H 112.15525296845361 4.9017248149297075 85.95092376003012 H 0.0 **** 0.06
1546 C 28.10910882116724 88.10997635009441 62.29476763388547 C 0.0 **** -0.24
1547 H 27.799666689153185 88.37031024986727 61.28309314503099 H 0.0 **** 0.06
1548 H 28.850789010284387 88.8281438678511 62.64476535724086 H 0.0 **** 0.06
1549 H 28.543600746016864 87.11013845320399 62.29596929051044 H 0.0 **** 0.06
1550 H 27.243250411206077 88.12989702208847 62.95673808043618 H 0.0 **** 0.06
1551 C 142.71340528380546 50.49668549290628 56.06037345914493 C 0.0 **** -0.24
1552 H 143.67483793274533 50.36418705726217 55.56431005030649 H 0.0 **** 0.06
1553 H 142.29074604088362 49.52094401420844 56.30024263222626 H 0.0 **** 0.06
1554 H 142.0347225158792 51.033976715288006 55.39684623293002 H 0.0 **** 0.06
1555 H 142.85382582180256 51.069432765572685 56.97735553997194 H 0.0 **** 0.06
1556 C 105.5577482383083 106.06763207505723 98.2192519219907 C 0.0 **** -0.24
1557 H 106.11180444591287 105.9928319948914 99.15437924567388 H 0.0 **** 0.06
1558 H 105.58773495322566 107.09758158908913 97.8615183109287 H 0.0 **** 0.06
1559 H 104.52282626437358 105.77135560519629 98.38633931195612 H 0.0 **** 0.06
1560 H 106.00863476324332 105.41080637061721 97.47567018330315 H 0.0 **** 0.06
1561 C 104.95540002863771 141.22020163163873 144.39067615123503 C 0.0 **** -0.24
1562 H 103.90979570197595 141.41607419343572 144.15037620797963 H 0.0 **** 0.06
1563 H 105.1683837177439 141.57458061302188 145.3991571698745 H 0.0 **** 0.06
1564 H 105.5948214936106 141.7415913339133 143.67845606787878 H 0.0 **** 0.06
1565 H 105.14643474214893 140.1484977941178 144.33356998727055 H 0.0 **** 0.06
1566 C 88.40044105843393 40.38422096890716 50.49860348024015 C 0.0 **** -0.24
1567 H 87.54557514877705 39.79220182559246 50.82522419155735 H 0.0 **** 0.06
1568 H 88.2345012607295 41.43156975383687 50.752426290841115 H 0.0 **** 0.06
1569 H 88.51830122534018 40.286653104409964 49.4194010080158 H 0.0 **** 0.06
1570 H 89.30080729191305 40.02699348367145 50.996331896455445 H 0.0 **** 0.06
1571 C 15.182548149310833 149.83633949564447 92.04322907402823 C 0.0 **** -0.24
1572 H 15.82242356965699 149.32921172305592 91.32248343313395 H 0.0 **** 0.06
1573 H 14.197428138799268 149.99763048377045 91.60424239385426 H 0.0 **** 0.06
1574 H 15.623405191357023 150.79651534394682 92.30912351150485 H 0.0 **** 0.06
1575 H 15.084432445692073 149.22115271242953 92.93848661673505 H 0.0 **** 0.06
1576 C 69.66373051494256 89.21319542297351 71.32840585594982 C 0.0 **** -0.24
1577 H 69.50430118312353 88.13564689148762 71.34546127100054 H 0.0 **** 0.06
1578 H 70.70300384233313 89.4230928937645 71.07457815120068 H 0.0 **** 0.06
1579 H 69.43790875599353 89.63004763633495 72.31034438795837 H 0.0 **** 0.06
1580 H 69.00854311570914 89.66479559936118 70.58322114642624 H 0.0 **** 0.06
1581 C 116.3494054864304 9.008615462704455 30.413562472306424 C 0.0 **** -0.24
1582 H 116.82072695035355 9.245204579826975 31.367073941412826 H 0.0 **** 0.06
1583 H 116.08711583714562 9.932304832117353 29.898090302329194 H 0.0 **** 0.06
1584 H 115.4470617901565 8.421871385980864 30.590471453603897 H 0.0 **** 0.06
1585 H 117.04135492861967 8.433374319386786 29.799723713894807 H 0.0 **** 0.06
1586 C 116.02182363933005 56.83723602068591 9.462641349931822 C 0.0 **** -0.24
1587 H 115.00087445742 57.07783852658696 9.163543132317272 H 0.0 **** 0.06
1588 H 116.42311976703164 56.071879706201884 8.798240402908313 H 0.0 **** 0.06
1589 H 116.02253011134925 56.46849689209759 10.487791775829365 H 0.0 **** 0.06
1590 H 116.63871222683255 57.73374415897182 9.398219892159354 H 0.0 **** 0.06
1591 C 17.92660776820685 113.09045684611704 13.341081443051166 C 0.0 **** -0.24
1592 H 17.014213606920208 112.50618699146804 13.459382352174373 H 0.0 **** 0.06
1593 H 18.340096294779386 113.32053237724904 14.32292713647331 H 0.0 **** 0.06
1594 H 17.69857237138467 114.01762429593441 12.815923526903418 H 0.0 **** 0.06
1595 H 18.653408968359884 112.51636931254126 12.765233328465627 H 0.0 **** 0.06
1596 C 77.07383359167099 140.84961486428097 91.8231022182997 C 0.0 **** -0.24
1597 H 76.22381589756793 141.24509178413066 92.37857983869688 H 0.0 **** 0.06
1598 H 76.79363139768587 140.71142838958744 90.77840525493737 H 0.0 **** 0.06
1599 H 77.37096122507019 139.89068816016913 92.24964446720232 H 0.0 **** 0.06
1600 H 77.9074244038115 141.54944672928053 91.88700233563348 H 0.0 **** 0.06
1601 C 15.352162358221562 94.75629951970399 101.0737866277317 C 0.0 **** -0.24
1602 H 15.40096042931151 93.92899475097653 100.3655535708981 H 0.0 **** 0.06
1603 H 16.355200083459692 95.14570688400491 101.24669611974718 H 0.0 **** 0.06
1604 H 14.930694724105422 94.4041057493835 102.01486422068196 H 0.0 **** 0.06
1605 H 14.720123660376743 95.5460368226266 100.66627638063943 H 0.0 **** 0.06
1606 C 109.09287840547712 9.074867886460424 118.36640694766113 C 0.0 **** -0.24
1607 H 108.2402488769222 9.266786627197632 117.7157307345821 H 0.0 **** 0.06
1608 H 108.77562791666402 8.455666190611055 119.20662236117 H 0.0 **** 0.06
1609 H 109.48514972397045 10.020684077253463 118.73967282814887 H 0.0 **** 0.06
1610 H 109.86894421041806 8.555528572596359 117.80458668280424 H 0.0 **** 0.06
1611 C 103.1051302817029 57.74153645485559 143.9872754373977 C 0.0 **** -0.24
1612 H 103.68956193951924 57.0454297333645 144.58799792965468 H 0.0 **** 0.06
1613 H 103.62617337281073 58.697369851461474 143.93044140455234 H 0.0 **** 0.06
1614 H 102.1275559979527 57.8859797937627 144.44867133338406 H 0.0 **** 0.06
1615 H 102.97665236124497 57.33640371761385 142.98331010406136 H 0.0 **** 0.06
1616 C 57.24041362586178 104.10690376021103 8.03363191662342 C 0.0 **** -0.24
1617 H 56.21199706176128 104.23459827085719 8.372568478169228 H 0.0 **** 0.06
1618 H 57.89997448681254 104.73488327812248 8.632508929803947 H 0.0 **** 0.06
1619 H 57.316020248625705 104.39588873663638 6.985364390961394 H 0.0 **** 0.06
1620 H 57.5317857389785 103.06225804306717 8.144776493150204 H 0.0 **** 0.06
1621 C 6.959938823315774 123.42574068360481 2.260000938225005 C 0.0 **** -0.24
1622 H 7.009058838621989 124.47924072548905 1.9855390076909316 H 0.0 **** 0.06
1623 H 5.9182777224367875 123.10758232257272 2.298287736968291 H 0.0 **** 0.06
1624 H 7.419698385194174 123.28399327888634 3.2385372611196317 H 0.0 **** 0.06
1625 H 7.494641928137263 122.83256830046817 1.5179998563724553 H 0.0 **** 0.06
1626 C 135.86283180784574 100.29889782785254 31.63195720690544 C 0.0 **** -0.24
1627 H 136.02845000361623 100.77796007749676 32.59642826528909 H 0.0 **** 0.06
1628 H 136.81976581126517 99.99392087155125 31.209418661279216 H 0.0 **** 0.06
1629 H 135.37501158554636 101.00241845412906 30.95697301608655 H 0.0 **** 0.06
1630 H 135.22803220318502 99.42290070298993 31.76564709787587 H 0.0 **** 0.06
1631 C 95.61998195909118 27.25627949917066 130.83411335832528 C 0.0 **** -0.24
1632 H 95.10114256165386 27.826321612604545 131.605648321935 H 0.0 **** 0.06
1633 H 96.67565171101509 27.52609690830434 130.83179109056624 H 0.0 **** 0.06
1634 H 95.18326663293712 27.48094120483347 129.8613794275628 H 0.0 **** 0.06
1635 H 95.51721375868541 26.190171611287496 131.0407076836213 H 0.0 **** 0.06
1636 C 38.98881042736258 127.72037107857736 110.95761547852038 C 0.0 **** -0.24
1637 H 39.26189222301008 128.60374711283762 110.38199535079883 H 0.0 **** 0.06
1638 H 37.915170542997714 127.5505413476047 110.87518518344461 H 0.0 **** 0.06
1639 H 39.254929222023065 127.87178154048095 112.00333298930394 H 0.0 **** 0.06
1640 H 39.524583015081646 126.853816882041 110.56778717085228 H 0.0 **** 0.06
1641 C 10.06389270981137 101.45515686296439 138.0741501394744 C 0.0 **** -0.24
1642 H 10.630714210575206 101.74568378945217 138.95945292632075 H 0.0 **** 0.06
1643 H 9.374729503078669 100.65045804794724 138.3321858165527 H 0.0 **** 0.06
1644 H 10.750179149087074 101.11239354426317 137.29999982934515 H 0.0 **** 0.06
1645 H 9.499917066364816 102.31282866845768 137.70652933291714 H 0.0 **** 0.06
1646 C 138.8733089035787 52.11039198275036 58.09300483358079 C 0.0 **** -0.24
1647 H 137.82130444264635 52.0558885863169 57.81648104406611 H 0.0 **** 0.06
1648 H 139.2322623439523 53.13098954304594 57.95713886501359 H 0.0 **** 0.06
1649 H 139.45122067691054 51.434777450284656 57.461782608163375 H 0.0 **** 0.06
1650 H 138.989255084678 51.81983375816293 59.13777558972285 H 0.0 **** 0.06
1651 C 136.37571889377355 39.76950415865606 77.67009779475421 C 0.0 **** -0.24
1652 H 136.15246512133652 40.03843370138665 78.70314338108486 H 0.0 **** 0.06
1653 H 137.14598168978011 38.99814587785103 77.65390742174756 H 0.0 **** 0.06
1654 H 136.73254438781493 40.650343900654505 77.13477129558052 H 0.0 **** 0.06
1655 H 135.47297141822068 39.39356163388793 77.18988257960501 H 0.0 **** 0.06
1656 C 8.691815880806509 57.900884278796354 70.01312599635426 C 0.0 **** -0.24
1657 H 9.425494425028361 57.475357960604526 69.3272304558783 H 0.0 **** 0.06
1658 H 7.905255671121722 58.39469040856244 69.44213033692043 H 0.0 **** 0.06
1659 H 9.180048577406744 58.62719008425819 70.66229790410398 H 0.0 **** 0.06
1660 H 8.257111484601957 57.10639298043964 70.61870679599559 H 0.0 **** 0.06
1661 C 97.53333596195723 37.72333637582534 140.23268247686266 C 0.0 **** -0.24
1662 H 97.59912681455167 38.68200603420155 140.74747033973983 H 0.0 **** 0.06
1663 H 96.75672797150942 37.115147422931386 140.69547797940598 H 0.0 **** 0.06
1664 H 98.49065476099307 37.2072744636543 140.3037478940554 H 0.0 **** 0.06
1665 H 97.28864743851868 37.89129811089202 139.18381934507568 H 0.0 **** 0.06
1666 C 12.748795633926477 113.52757999639225 39.74398708668346 C 0.0 **** -0.24
1667 H 12.43267502516818 113.21447132162005 38.74832688042105 H 0.0 **** 0.06
1668 H 12.559306316901768 112.72282092744989 40.454608039698485 H 0.0 **** 0.06
1669 H 12.188579812741807 114.41492967559218 40.040402842814814 H 0.0 **** 0.06
1670 H 13.813782544800176 113.75807828300766 39.730537869191565 H 0.0 **** 0.06
1671 C 25.288132366073114 24.578021370103926 62.91316409156681 C 0.0 **** -0.24
1672 H 26.290461159463348 24.25532562997134 63.1967429581276 H 0.0 **** 0.06
1673 H 24.759808800342007 24.940448430749115 63.79524704438809 H 0.0 **** 0.06
1674 H 24.743942189653936 23.737637243033745 62.48310243703776 H 0.0 **** 0.06
1675 H 25.35981287309528 25.37954226293138 62.177663131122586 H 0.0 **** 0.06
1676 C 137.2893629445155 11.40057727042992 121.8862658987295 C 0.0 **** -0.24
1677 H 137.90954592014677 11.171871696858915 121.01885632645877 H 0.0 **** 0.06
1678 H 137.3487698417204 12.467352902621968 122.10411467099283 H 0.0 **** 0.06
1679 H 137.6450973231301 10.833680776789834 122.74634780462543 H 0.0 **** 0.06
1680 H 136.2556743686143 11.129531029203065 121.67518939752222 H 0.0 **** 0.06
1681 C 24.989168891260704 103.71094992476732 18.24449719171352 C 0.0 **** -0.24
1682 H 25.03293756008975 102.7335084453595 18.7255304167019 H 0.0 **** 0.06
1683 H 24.12567481804237 103.74948354310588 17.579519994095136 H 0.0 **** 0.06
1684 H 25.89975272369722 103.8738297792285 17.668208453498977 H 0.0 **** 0.06
1685 H 24.896108373424852 104.48549652603059 19.005707926878443 H 0.0 **** 0.06
1686 C 84.96563230118625 97.46988815268884 140.79070703055808 C 0.0 **** -0.24
1687 H 84.91061506382766 96.72140334621712 139.9997183380536 H 0.0 **** 0.06
1688 H 83.96043891098995 97.69627409503737 141.14679430958043 H 0.0 **** 0.06
1689 H 85.42629065457325 98.377517530237 140.39940878741209 H 0.0 **** 0.06
1690 H 85.5648692853222 97.08379424189523 141.61454376628106 H 0.0 **** 0.06
1691 C 120.27015458284127 44.69301408579108 120.59707738678304 C 0.0 **** -0.24
1692 H 120.46482987479094 45.65265994649525 120.11879628011428 H 0.0 **** 0.06
1693 H 119.59894421490911 44.83927807120246 121.44298160660583 H 0.0 **** 0.06
1694 H 121.20928930198313 44.26386170555077 120.94704840940113 H 0.0 **** 0.06
1695 H 119.8077197338959 44.01583835066508 119.87814236812926 H 0.0 **** 0.06
1696 C 57.0000446762314 25.43936212936098 125.25469109245918 C 0.0 **** -0.24
1697 H 57.359026926494366 24.924863313364412 124.36273244150786 H 0.0 **** 0.06
1698 H 57.26491738824227 24.860112439858042 126.13888943281196 H 0.0 **** 0.06
1699 H 55.91676008259377 25.547761855876466 125.20064042255652 H 0.0 **** 0.06
1700 H 57.46141049653424 26.425580741940678 125.31527946038378 H 0.0 **** 0.06
1701 C 82.25269040874481 36.36900127629078 120.7867371397418 C 0.0 **** -0.24
1702 H 83.26262995492155 35.96962844246582 120.7025535306698 H 0.0 **** 0.06
1703 H 81.539984972056 35.54602138634905 120.8477336687063 H 0.0 **** 0.06
1704 H 82.02954907842145 36.98044221037645 119.911867749979 H 0.0 **** 0.06
1705 H 82.17853445537898 36.98150126154334 121.68548190725764 H 0.0 **** 0.06
1706 C 140.7746018621775 35.41637480631269 77.36064878458903 C 0.0 **** -0.24
1707 H 140.26639487408198 34.71334037058523 76.69978513303322 H 0.0 **** 0.06
1708 H 141.60499865758825 35.879601238219664 76.82834821543835 H 0.0 **** 0.06
1709 H 141.15309721841075 34.88555668594168 78.23345049446588 H 0.0 **** 0.06
1710 H 140.07232709723579 36.18612797581625 77.67970312856136 H 0.0 **** 0.06
1711 C 100.77523089269343 139.29570755675041 65.9322144739942 C 0.0 **** -0.24
1712 H 101.15583889115193 138.35411759438787 66.32900964431262 H 0.0 **** 0.06
1713 H 100.05470200086128 139.09040659872525 65.13998777236299 H 0.0 **** 0.06
1714 H 101.60230411412189 139.88070565748436 65.52861116473726 H 0.0 **** 0.06
1715 H 100.28827585465619 139.85567043917936 66.73013728850319 H 0.0 **** 0.06
1716 C 2.2654765651230377 87.69559595437856 44.97743612157325 C 0.0 **** -0.24
1717 H 2.4042192033654146 88.56927663165983 44.340485539164604 H 0.0 **** 0.06
1718 H 2.1445971744009285 86.80761426213901 44.35588546386009 H 0.0 **** 0.06
1719 H 1.3760898308890717 87.83282527110197 45.59226278506753 H 0.0 **** 0.06
1720 H 3.137000051836708 87.57266765261338 45.621110698200994 H 0.0 **** 0.06
1721 C 11.553300882694515 82.72908226509838 1.8439409260252546 C 0.0 **** -0.24
1722 H 11.382079617666506 82.65600767904442 0.7692298374103075 H 0.0 **** 0.06
1723 H 10.622590714780472 83.00480141513151 2.341480953608766 H 0.0 **** 0.06
1724 H 12.309732504938864 83.48870892261397 2.040384340530693 H 0.0 **** 0.06
1725 H 11.8966863820215 81.76700280881226 2.2225488454607785 H 0.0 **** 0.06
1726 C 150.30223237006504 124.38117304131141 62.631304176762214 C 0.0 **** -0.24
1727 H 150.09922824255608 123.75481845324482 61.76216738189936 H 0.0 **** 0.06
1728 H 150.19058504757226 123.7875695272897 63.53937481031866 H 0.0 **** 0.06
1729 H 149.59865411209003 125.21307269415695 62.65125570096782 H 0.0 **** 0.06
1730 H 151.3197130459201 124.7658564996308 62.57139467375633 H 0.0 **** 0.06
1731 C 139.00946596694973 37.790478967045374 33.6619732014681 C 0.0 **** -0.24
1732 H 139.5173827121856 38.44750875392174 34.36766853733039 H 0.0 **** 0.06
1733 H 139.35683845450603 36.76649385605185 33.805804341537 H 0.0 **** 0.06
1734 H 139.23229793108516 38.11028564702309 32.643904884730404 H 0.0 **** 0.06
1735 H 137.93460345017317 37.83726298256839 33.83163240025311 H 0.0 **** 0.06
1736 C 34.9281682672259 143.08574695146956 134.47132934715782 C 0.0 **** -0.24
1737 H 34.72911729786791 143.34449744919732 133.431758596737 H 0.0 **** 0.06
1738 H 34.24626772202295 143.63647816010715 135.11981087526246 H 0.0 **** 0.06
1739 H 35.95670212055584 143.34885986894173 134.71942249363607 H 0.0 **** 0.06
1740 H 34.781793240752165 142.01503063766202 134.61420487650415 H 0.0 **** 0.06
1741 C 16.305298031961343 142.80716909507296 34.11854990641305 C 0.0 **** -0.24
1742 H 16.63893109976945 143.04114011997862 33.10822769456426 H 0.0 **** 0.06
1743 H 16.35382503630484 141.72924280132688 34.27696886178933 H 0.0 **** 0.06
1744 H 15.278911956757014 143.14872201254795 34.25008578826741 H 0.0 **** 0.06
1745 H 16.95039506507763 143.30992677763683 34.839256519838614 H 0.0 **** 0.06
1746 C 102.16661776664665 28.62231094679487 146.43262376362264 C 0.0 **** -0.24
1747 H 102.3370106632332 28.59503821786626 147.5081180141082 H 0.0 **** 0.06
1748 H 101.39350717672787 27.899922564645067 146.1688822965426 H 0.0 **** 0.06
1749 H 103.09135251417874 28.37221462094692 145.91215188596155 H 0.0 **** 0.06
1750 H 101.84402404126885 29.622177954682968 146.14005618862848 H 0.0 **** 0.06
1751 C 50.81724706223875 94.64672044820178 54.453527310764855 C 0.0 **** -0.24
1752 H 51.2772440858501 95.53164318864089 54.89277661122799 H 0.0 **** 0.06
1753 H 51.46130540679623 93.78255946171255 54.61857320859798 H 0.0 **** 0.06
1754 H 50.68403889623988 94.80081679296865 53.3820822886961 H 0.0 **** 0.06
1755 H 49.84682186364603 94.47272602007259 54.91892324386288 H 0.0 **** 0.06
1756 C 108.275206137461 132.34782017614984 148.74726387635488 C 0.0 **** -0.24
1757 H 107.19338847681763 132.45361027857328 148.83098067676787 H 0.0 **** 0.06
1758 H 108.53431933007164 131.28962487066306 148.70316670712018 H 0.0 **** 0.06
1759 H 108.75314669188958 132.8037763207869 149.6144301300461 H 0.0 **** 0.06
1760 H 108.61817581649586 132.8442598510796 147.83959437354608 H 0.0 **** 0.06
1761 C 125.10575890561402 62.25360616214276 143.69656603973465 C 0.0 **** -0.24
1762 H 125.54411680154713 62.15161993412289 142.70460152861074 H 0.0 **** 0.06
1763 H 125.84322896633674 61.97920025538946 144.4506746406537 H 0.0 **** 0.06
1764 H 124.23937683796005 61.598003928967515 143.7798023373358 H 0.0 **** 0.06
1765 H 124.7949583941362 63.28733150064295 143.85159665343292 H 0.0 **** 0.06
1766 C 73.13134621286635 108.54433348024628 35.73843091560438 C 0.0 **** -0.24
1767 H 74.01978011168649 107.94465777806727 35.936495918258565 H 0.0 **** 0.06
1768 H 72.92313770517306 108.54363308732627 34.66830231305902 H 0.0 **** 0.06
1769 H 73.3021014039673 109.56699589964393 36.07542459673192 H 0.0 **** 0.06
1770 H 72.2812803250431 108.12239836170488 36.274520668601475 H 0.0 **** 0.06
1771 C 127.79102725589655 102.13142341972895 134.80921401140694 C 0.0 **** -0.24
1772 H 128.6505073594016 101.67757634797852 135.30413352677152 H 0.0 **** 0.06
1773 H 128.1382351052648 102.8576780475376 134.07382946318614 H 0.0 **** 0.06
1774 H 127.16787270279661 102.63246175944323 135.54991871990694 H 0.0 **** 0.06
1775 H 127.20965407212384 101.35700443143833 134.30959625005414 H 0.0 **** 0.06
1776 C 145.2802075988115 113.19230617988944 2.591603995472383 C 0.0 **** -0.24
1777 H 144.4884480483005 113.11513152795806 3.3364793913931976 H 0.0 **** 0.06
1778 H 145.46400537467548 114.24276975135587 2.3640052669627494 H 0.0 **** 0.06
1779 H 144.9769539058667 112.67133599061714 1.6838921940618548 H 0.0 **** 0.06
1780 H 146.19233530626082 112.74072132809806 2.982832422628462 H 0.0 **** 0.06
1781 C 72.63578266230334 68.22914518541698 111.40067971938173 C 0.0 **** -0.24
1782 H 72.87278374453851 69.28188001049078 111.2468052295991 H 0.0 **** 0.06
1783 H 72.06322592612864 68.11643698256646 112.32287342644752 H 0.0 **** 0.06
1784 H 73.55971226966773 67.65606694667404 111.47500251396444 H 0.0 **** 0.06
1785 H 72.04685574355827 67.86297408081585 110.56006014414108 H 0.0 **** 0.06
1786 C 136.0473803285245 95.95237934514715 119.5482717035733 C 0.0 **** -0.24
1787 H 135.6773582463179 96.36207248932693 120.48913712389614 H 0.0 **** 0.06
1788 H 135.82168599700228 94.88735969220976 119.5026136099618 H 0.0 **** 0.06
1789 H 137.12591870686464 96.09862237612411 119.48902284286996 H 0.0 **** 0.06
1790 H 135.56451578841808 96.46330673291986 118.71524557834962 H 0.0 **** 0.06
1791 C 97.88764653556886 26.955245701271508 49.79196783169489 C 0.0 **** -0.24
1792 H 97.12389394470095 26.7060365633578 49.05434372632459 H 0.0 **** 0.06
1793 H 97.56106333534635 26.623782150916817 50.77794289864035 H 0.0 **** 0.06
1794 H 98.0421259551226 28.03387024711588 49.8025345840785 H 0.0 **** 0.06
1795 H 98.82077573874457 26.456428594125768 49.53063880931097 H 0.0 **** 0.06
1796 C 100.51870942984671 139.01819284721816 81.13099282806218 C 0.0 **** -0.24
1797 H 100.75566647515697 139.37806864200886 80.1300581480146 H 0.0 **** 0.06
1798 H 99.43659215589935 138.9852720935355 81.25864831140461 H 0.0 **** 0.06
1799 H 100.95203543293763 139.69254172783516 81.87070338228838 H 0.0 **** 0.06
1800 H 100.93071735167817 138.0187596782314 81.26524722574177 H 0.0 **** 0.06
1801 C 125.18208415293726 14.830820753378532 29.57508007033323 C 0.0 **** -0.24
1802 H 124.84351894171145 13.822628245142369 29.812596228626006 H 0.0 **** 0.06
1803 H 126.14793568637306 15.010046260319086 30.049136581662736 H 0.0 **** 0.06
1804 H 124.45632021730633 15.554109508046963 29.945936573066007 H 0.0 **** 0.06
1805 H 125.28142885764773 14.93648508444113 28.494712000123826 H 0.0 **** 0.06
1806 C 61.34135516138318 133.37742626526062 81.77177994855393 C 0.0 **** -0.24
1807 H 60.58877583730721 134.1383273297646 81.97701735133171 H 0.0 **** 0.06
1808 H 61.716028466668206 133.5031395548994 80.75496991741535 H 0.0 **** 0.06
1809 H 60.896194588394096 132.38775428369593 81.8748717626129 H 0.0 **** 0.06
1810 H 62.164109185440225 133.48152981452162 82.47806791800757 H 0.0 **** 0.06
1811 C 63.38138425667482 139.11393733368817 106.88497997942032 C 0.0 **** -0.24
1812 H 63.22515545225261 138.0464908366517 107.04542958178224 H 0.0 **** 0.06
1813 H 62.590965153134206 139.5029089433132 106.24215943336107 H 0.0 **** 0.06
1814 H 64.3490605915683 139.27183928584856 106.40837114385504 H 0.0 **** 0.06
1815 H 63.35895804741607 139.6318969932689 107.84349357820376 H 0.0 **** 0.06
1816 C 46.7776587975182 64.00349489761787 62.316123808584436 C 0.0 **** -0.24
1817 H 46.32216236416008 63.06341722029276 62.00692258469245 H 0.0 **** 0.06
1818 H 47.35144332874046 64.41864091520853 61.48711077708107 H 0.0 **** 0.06
1819 H 47.43937969704365 63.825820215516 63.16370131666753 H 0.0 **** 0.06
1820 H 45.996998194104265 64.70705769450191 62.60594773578664 H 0.0 **** 0.06
1821 C 75.90929437481259 106.52958503204881 50.95251331199442 C 0.0 **** -0.24
1822 H 76.79397797910184 106.17567258699778 50.42239689461233 H 0.0 **** 0.06
1823 H 75.89230789124085 107.6195613156899 50.943757996332465 H 0.0 **** 0.06
1824 H 75.93847986636092 106.1741233515637 51.98296938527528 H 0.0 **** 0.06
1825 H 75.01519872419634 106.1475761442586 50.46143327559682 H 0.0 **** 0.06
1826 C 123.8122555492488 117.09163338680415 23.72497495594655 C 0.0 **** -0.24
1827 H 123.65562215926626 117.0732000656673 22.645647044484633 H 0.0 **** 0.06
1828 H 123.90831382254454 116.07136036889054 24.095107671427854 H 0.0 **** 0.06
1829 H 122.96202744991562 117.57534919956996 24.20598917656656 H 0.0 **** 0.06
1830 H 124.72218756754545 117.64859144315383 23.950094828176134 H 0.0 **** 0.06
1831 C 123.1430985553941 56.60959666711153 71.64155498904819 C 0.0 **** -0.24
1832 H 123.13052305350236 55.81750303861038 70.89436562740849 H 0.0 **** 0.06
1833 H 123.66391809920391 57.479817113406554 71.23927654801602 H 0.0 **** 0.06
1834 H 123.65932662455803 56.258759400840475 72.53464134723893 H 0.0 **** 0.06
1835 H 122.12055400009392 56.884604811664744 71.8978626036172 H 0.0 **** 0.06
1836 C 77.31446871254963 39.73491101172961 9.692900766340806 C 0.0 **** -0.24
1837 H 76.53880975052499 39.455193292418585 8.980689687824047 H 0.0 **** 0.06
1838 H 77.8097101020295 38.8365325910118 10.062512311657741 H 0.0 **** 0.06
1839 H 76.86387990944411 40.27197039169383 10.528411082993813 H 0.0 **** 0.06
1840 H 78.04514910883665 40.376847787405964 9.200279371819548 H 0.0 **** 0.06
1841 C 145.4457960979803 33.72929732857685 35.30129398794273 C 0.0 **** -0.24
1842 H 145.67518491223376 34.57528983866348 35.949354120846294 H 0.0 **** 0.06
1843 H 144.36927561715004 33.674601200131235 35.14166490302742 H 0.0 **** 0.06
1844 H 145.79168008955708 32.807452969674365 35.77033532375725 H 0.0 **** 0.06
1845 H 145.95017464940207 33.859555483908316 34.34276613330289 H 0.0 **** 0.06
1846 C 25.972907488651174 53.884359450591575 146.3537046967298 C 0.0 **** -0.24
1847 H 25.387989597151602 54.399384601091384 147.11635905611246 H 0.0 **** 0.06
1848 H 25.65052565027827 52.84509663428523 146.2914132495809 H 0.0 **** 0.06
1849 H 27.029484064169253 53.922465516119956 146.61952298958292 H 0.0 **** 0.06
1850 H 25.82252787673889 54.37150030695378 145.39064851131104 H 0.0 **** 0.06
1851 C 1.1797224438489025 23.296171739855822 46.3353899259217 C 0.0 **** -0.24
1852 H 2.25202258348628 23.438524700002546 46.47353683422378 H 0.0 **** 0.06
1853 H 0.8305622587340054 22.506892214970293 46.999851676167935 H 0.0 **** 0.06
1854 H 0.9811897546792352 23.016560249595983 45.300945314626745 H 0.0 **** 0.06
1855 H 0.6575669742682066 24.22494322591865 46.56725564072755 H 0.0 **** 0.06
1856 C 55.07493188006842 100.29243433048995 102.18324484204251 C 0.0 **** -0.24
1857 H 54.33030825399142 100.5435494503688 102.93842119575626 H 0.0 **** 0.06
1858 H 55.592477071839596 101.19838584949724 101.86787315365072 H 0.0 **** 0.06
1859 H 54.58200839714016 99.83721972066627 101.32354802019356 H 0.0 **** 0.06
1860 H 55.79454752715681 99.58925860158882 102.60282285320014 H 0.0 **** 0.06
1861 C 18.208184351378378 59.03840004202101 71.53015057807838 C 0.0 **** -0.24
1862 H 18.177263280905038 59.858758621732036 70.81266037257531 H 0.0 **** 0.06
1863 H 17.558689711581025 58.23295558129665 71.18848496875025 H 0.0 **** 0.06
1864 H 17.867273944049714 59.39350495024753 72.50212642332201 H 0.0 **** 0.06
1865 H 19.231009369589827 58.670105993366775 71.61514465838876 H 0.0 **** 0.06
1866 C 87.12945493375821 99.04221371445281 29.39587981347225 C 0.0 **** -0.24
1867 H 87.40918417417062 99.92645868515845 28.82261818747915 H 0.0 **** 0.06
1868 H 88.0168064579906 98.44184014103661 29.593898221830074 H 0.0 **** 0.06
1869 H 86.41053794193576 98.45402630034046 28.826545670663023 H 0.0 **** 0.06
1870 H 86.67997205409593 99.35040949568982 30.340001095582224 H 0.0 **** 0.06
1871 C 12.638198760085373 109.43022220207361 50.988713623601754 C 0.0 **** -0.24
1872 H 13.516016163743785 109.94803163546722 50.60265343830169 H 0.0 **** 0.06
1873 H 12.780257334152793 108.35374154749859 50.89360188314032 H 0.0 **** 0.06
1874 H 11.758827828462074 109.7338712476119 50.42085580673023 H 0.0 **** 0.06
1875 H 12.498232364280653 109.68717224481865 52.039155245796806 H 0.0 **** 0.06
1876 C 68.73851383875439 40.19497911631731 66.49274945850786 C 0.0 **** -0.24
1877 H 68.37199341324362 41.19023643558495 66.2421060565178 H 0.0 **** 0.06
1878 H 68.19573946837886 39.81527861560397 67.35931801057097 H 0.0 **** 0.06
1879 H 69.80190658611298 40.24692547660163 66.72378815553128 H 0.0 **** 0.06
1880 H 68.58297811253118 39.52667782502982 65.64524161684713 H 0.0 **** 0.06
1881 C 72.52003240014608 22.15887384205203 125.69668298446113 C 0.0 **** -0.24
1882 H 72.42275477190816 21.586467574903992 126.61904983319795 H 0.0 **** 0.06
1883 H 71.92466218511646 21.68889749145015 124.91398890937823 H 0.0 **** 0.06
1884 H 73.56616011942856 22.1839773721926 125.39324921212621 H 0.0 **** 0.06
1885 H 72.16632483977753 23.177269111061534 125.86236816658446 H 0.0 **** 0.06
1886 C 95.13299222123598 108.42659459355792 119.74100437923792 C 0.0 **** -0.24
1887 H 95.12085298112329 107.82867865243065 118.82924691093908 H 0.0 **** 0.06
1888 H 94.41610922659932 109.24276783547077 119.64950297511055 H 0.0 **** 0.06
1889 H 96.13228863693753 108.83420949159057 119.89389078383189 H 0.0 **** 0.06
1890 H 94.86288509720178 107.79888577126246 120.59011229608578 H 0.0 **** 0.06
1891 C 97.36123476466753 97.70410044786236 85.40183456321242 C 0.0 **** -0.24
1892 H 97.70608660017231 97.00825751495313 86.1662456331733 H 0.0 **** 0.06
1893 H 97.18105986032145 97.1617723012218 84.47268132773468 H 0.0 **** 0.06
1894 H 98.12064190399278 98.46749954733599 85.23592176934199 H 0.0 **** 0.06
1895 H 96.43593742643478 98.1767606256502 85.7322278127047 H 0.0 **** 0.06
1896 C 14.173022937695748 134.654635016779 26.630409428349367 C 0.0 **** -0.24
1897 H 14.721262921121252 135.1663450603498 25.84012707768116 H 0.0 **** 0.06
1898 H 13.101945748428477 134.75630757786556 26.454495123044182 H 0.0 **** 0.06
1899 H 14.425769079242286 135.09873445075462 27.593119954707817 H 0.0 **** 0.06
1900 H 14.441899306207745 133.5988442562501 26.635185640183494 H 0.0 **** 0.06
1901 C 133.17848461031568 45.64986006511138 143.79637678128245 C 0.0 **** -0.24
1902 H 132.24663401039587 46.213993735553515 143.8302903747201 H 0.0 **** 0.06
1903 H 133.94639974213834 46.24670977189598 143.30349719252956 H 0.0 **** 0.06
1904 H 133.02362651485072 44.7251543312872 143.2406270596476 H 0.0 **** 0.06
1905 H 133.49738299127125 45.4143473169126 144.81227741250882 H 0.0 **** 0.06
1906 C 75.4968463039467 64.12975045375015 64.60972000280537 C 0.0 **** -0.24
1907 H 76.29664783941398 64.18918070806944 65.3481995552718 H 0.0 **** 0.06
1908 H 75.9232586291906 63.913263403335804 63.63000862430263 H 0.0 **** 0.06
1909 H 74.96562270821224 65.08190506484652 64.5724152049338 H 0.0 **** 0.06
1910 H 74.80244308507382 63.33677313191242 64.8878577926418 H 0.0 **** 0.06
1911 C 134.26471514160573 134.12848463427662 119.31478173996375 C 0.0 **** -0.24
1912 H 133.64792948150696 134.21370366345826 118.41932336427315 H 0.0 **** 0.06
1913 H 135.24025068601634 133.72351139681618 119.04559859910215 H 0.0 **** 0.06
1914 H 133.77883930757542 133.46346513161836 120.02836088583204 H 0.0 **** 0.06
1915 H 134.39096750266106 135.11344305014717 119.76356311381748 H 0.0 **** 0.06
1916 C 138.60191949661194 22.525636758994416 67.01495112184156 C 0.0 **** -0.24
1917 H 137.5171030808134 22.568029361363536 66.91931805860705 H 0.0 **** 0.06
1918 H 139.03471084841323 23.460123910554472 66.65473733179297 H 0.0 **** 0.06
1919 H 138.98731801191235 21.694498382621404 66.42331228486054 H 0.0 **** 0.06
1920 H 138.86912952677963 22.3803345841947 68.06175366723667 H 0.0 **** 0.06
1921 C 57.13295939333827 102.84727986138789 98.03523536966433 C 0.0 **** -0.24
1922 H 56.54493247493701 103.58096380655194 97.48376488210634 H 0.0 **** 0.06
1923 H 57.97625000029532 103.34412868255863 98.51571607949379 H 0.0 **** 0.06
1924 H 57.50172818559426 102.0859803565033 97.34745114176116 H 0.0 **** 0.06
1925 H 56.5068271951389 102.37816194765269 98.7947696810247 H 0.0 **** 0.06
1926 C 33.99165893087058 32.23851396327345 15.56796834642168 C 0.0 **** -0.24
1927 H 34.18997072409535 32.35910844360288 16.63380461557449 H 0.0 **** 0.06
1928 H 34.92425837095662 32.33706386920264 15.013074972044109 H 0.0 **** 0.06
1929 H 33.289909267722365 33.00620496316358 15.241093075602947 H 0.0 **** 0.06
1930 H 33.563119155948826 31.25316367295511 15.387696573261138 H 0.0 **** 0.06
1931 C 42.782651691505976 130.16671375308016 2.96632684872543 C 0.0 **** -0.24
1932 H 41.69826823453761 130.21265646745053 3.0640982606795433 H 0.0 **** 0.06
1933 H 43.19249992416164 129.54056411873668 3.7593927841106165 H 0.0 **** 0.06
1934 H 43.197809241456184 131.1713347307109 3.0452912371548564 H 0.0 **** 0.06
1935 H 43.04202936586867 129.74229969542247 1.9965251129566468 H 0.0 **** 0.06
1936 C 41.20813375928884 118.65880644428586 146.75236953737684 C 0.0 **** -0.24
1937 H 41.099522102212575 117.5753041833454 146.79481742176085 H 0.0 **** 0.06
1938 H 42.182620525542575 118.90962052939716 146.33166016858212 H 0.0 **** 0.06
1939 H 41.12910373369823 119.07196300994889 147.7576960383401 H 0.0 **** 0.06
1940 H 40.42237001618446 119.07789654801871 146.12368096878228 H 0.0 **** 0.06
1941 C 23.41361656576447 47.299740747256436 27.411027495084056 C 0.0 **** -0.24
1942 H 23.85305699526353 47.68512069776912 26.49131728853473 H 0.0 **** 0.06
1943 H 24.040043213224266 46.49987254037973 27.806437417818586 H 0.0 **** 0.06
1944 H 22.416337922504596 46.911616710034394 27.20174167097852 H 0.0 **** 0.06
1945 H 23.34298166259717 48.103231888987835 28.14481303132655 H 0.0 **** 0.06
1946 C 25.144523706135388 41.50703369861793 40.461813297022346 C 0.0 **** -0.24
1947 H 24.061196212459834 41.383443330973535 40.454365049115864 H 0.0 **** 0.06
1948 H 25.42251862360144 42.22543907133769 41.23380168799102 H 0.0 **** 0.06
1949 H 25.473836078225027 41.872883624320764 39.489205111322306 H 0.0 **** 0.06
1950 H 25.617896396571794 40.54807421107046 40.66884088913787 H 0.0 **** 0.06
1951 C 10.885901600831232 124.31920981173337 75.34335347949474 C 0.0 **** -0.24
1952 H 10.04903533369162 124.99280914061089 75.15897539565304 H 0.0 **** 0.06
1953 H 10.517543090490904 123.39760607264256 75.79500497524373 H 0.0 **** 0.06
1954 H 11.595882349610918 124.79645563976405 76.0174849009 H 0.0 **** 0.06
1955 H 11.38028089091216 124.08818180132235 74.39969905879121 H 0.0 **** 0.06
1956 C 99.97938861908955 71.17785744329076 82.6157731132495 C 0.0 **** -0.24
1957 H 100.0194896658127 70.94901014201334 81.55056593982395 H 0.0 **** 0.06
1958 H 100.96842150511719 71.47817990264846 82.9604654705014 H 0.0 **** 0.06
1959 H 99.6559483939221 70.29255753980142 83.16459279139671 H 0.0 **** 0.06
1960 H 99.27216257838145 71.98935356427545 82.78698892227618 H 0.0 **** 0.06
1961 C 122.43554631891142 32.68660897321277 75.07692402757039 C 0.0 **** -0.24
1962 H 122.94081058213773 33.392185491176065 74.4170586611747 H 0.0 **** 0.06
1963 H 123.16060561393526 31.971383411014614 75.4675926373242 H 0.0 **** 0.06
1964 H 121.66555126320542 32.15498166372214 74.51792626560834 H 0.0 **** 0.06
1965 H 121.97615765862092 33.22834486077639 75.90416691683933 H 0.0 **** 0.06
1966 C 130.71321688329104 84.24942089690092 69.25635444149174 C 0.0 **** -0.24
1967 H 129.89634243061548 84.1852152203777 69.97548743340012 H 0.0 **** 0.06
1968 H 130.8434674916617 83.284687133837 68.76656672260536 H 0.0 **** 0.06
1969 H 131.6328560832383 84.52169460921328 69.77501066618797 H 0.0 **** 0.06
1970 H 130.48014820192807 85.00806773385773 68.50862221537815 H 0.0 **** 0.06
1971 C 138.91525432096174 142.91504098470304 13.62081875289087 C 0.0 **** -0.24
1972 H 137.98504309395378 142.67432954912545 14.135399707567245 H 0.0 **** 0.06
1973 H 139.44711402450068 143.68751854415368 14.175568364707289 H 0.0 **** 0.06
1974 H 138.69149515139844 143.27556533050293 12.61663773054596 H 0.0 **** 0.06
1975 H 139.53538320852803 142.02051084456875 13.555907227070549 H 0.0 **** 0.06
1976 C 95.95040105043083 48.584568782438964 34.18625470171422 C 0.0 **** -0.24
1977 H 94.91417183477948 48.24840024930711 34.21083492499473 H 0.0 **** 0.06
1978 H 96.60243992652023 47.778753394418686 34.523698560260534 H 0.0 **** 0.06
1979 H 96.06800040167428 49.44651717548129 34.844602574058285 H 0.0 **** 0.06
1980 H 96.21652136817058 48.866679276098125 33.1677464213294 H 0.0 **** 0.06
1981 C 86.27103470030391 63.60146523284175 20.879877526394125 C 0.0 **** -0.24
1982 H 86.31226037556851 63.6936907399523 21.964856492527133 H 0.0 **** 0.06
1983 H 87.2703859684504 63.39231014440335 20.495200050382323 H 0.0 **** 0.06
1984 H 85.90362574384119 64.53236098383286 20.449806386721946 H 0.0 **** 0.06
1985 H 85.59938567621202 62.785923465604185 20.610105899312543 H 0.0 **** 0.06
1986 C 78.00371048670402 45.7710656245298 142.44062672310065 C 0.0 **** -0.24
1987 H 77.11561915653809 46.25330238287026 142.8484231942709 H 0.0 **** 0.06
1988 H 77.78413929802466 44.72444417798428 142.22894409110773 H 0.0 **** 0.06
1989 H 78.81499232978004 45.83207605558074 143.1670563734587 H 0.0 **** 0.06
1990 H 78.3011879431721 46.27461236952412 141.52068469716292 H 0.0 **** 0.06
1991 C 39.08438056601537 68.04894584712844 35.72332073800722 C 0.0 **** -0.24
1992 H 40.05146011310569 68.44878777829206 35.41987382301856 H 0.0 **** 0.06
1993 H 39.047221062800986 66.98122576543267 35.50267270381498 H 0.0 **** 0.06
1994 H 38.29219070030564 68.56087282224104 35.17700354782161 H 0.0 **** 0.06
1995 H 38.94711612866361 68.20356272690043 36.79367983191636 H 0.0 **** 0.06
1996 C 149.5295296402286 78.98555331048487 136.98518564718847 C 0.0 **** -0.24
1997 H 149.69564737883698 78.08923571608292 136.3879577723886 H 0.0 **** 0.06
1998 H 150.0729678336642 79.82113810221585 136.54337743982606 H 0.0 **** 0.06
1999 H 149.88611979253616 78.816485482379 138.00146761276835 H 0.0 **** 0.06
2000 H 148.464812478727 79.21520334123801 137.00697249497514 H 0.0 **** 0.06
2001 C 41.949917405753695 100.90719583060451 137.56834774362036 C 0.0 **** -0.24
2002 H 41.732619058427375 101.78565342411738 138.1752333472672 H 0.0 **** 0.06
2003 H 43.00766945744424 100.9009658175182 137.30382686520917 H 0.0 **** 0.06
2004 H 41.34795263625698 100.93494930910768 136.6595542144671 H 0.0 **** 0.06
2005 H 41.71183532779966 100.00657184297006 138.13412758934692 H 0.0 **** 0.06
2006 C 108.96501849224035 19.853891919778718 88.45532817009115 C 0.0 **** -0.24
2007 H 109.22234266445588 20.292250217185448 89.42024827367428 H 0.0 **** 0.06
2008 H 107.89772173950576 19.631078452099423 88.430502158782 H 0.0 **** 0.06
2009 H 109.53146015307459 18.934002551013542 88.31240911972434 H 0.0 **** 0.06
2010 H 109.2080236315835 20.558376943183816 87.66032199935995 H 0.0 **** 0.06
2011 C 10.70571649006854 134.3851024347261 22.473126418243737 C 0.0 **** -0.24
2012 H 9.863565902706398 133.73769098642828 22.715840773038337 H 0.0 **** 0.06
2013 H 11.501909538894807 133.79157636601298 22.02328651903224 H 0.0 **** 0.06
2014 H 11.073595476922918 134.8583499045542 23.383896088652534 H 0.0 **** 0.06
2015 H 10.382263941390335 135.1529096519684 21.770283611580226 H 0.0 **** 0.06
2016 C 52.87656652123428 36.708366354370725 91.44540274914762 C 0.0 **** -0.24
2017 H 53.39391427609182 37.57397444199108 91.85769194277621 H 0.0 **** 0.06
2018 H 53.17636809105704 35.81211179258483 91.9889726911968 H 0.0 **** 0.06
2019 H 53.13548900288312 36.59842392890201 90.39256074910897 H 0.0 **** 0.06
2020 H 51.79960031472619 36.849095919641144 91.54196099827179 H 0.0 **** 0.06
2021 C 16.455989845425478 82.85248016079315 15.53872719813316 C 0.0 **** -0.24
2022 H 16.047229934399724 81.87890476477985 15.811946562889403 H 0.0 **** 0.06
2023 H 17.307614119108564 83.08087580351494 16.178424749386124 H 0.0 **** 0.06
2024 H 15.68920469209948 83.61661246973064 15.6665545435919 H 0.0 **** 0.06
2025 H 16.777708900451614 82.83082406487888 14.497064401969652 H 0.0 **** 0.06
2026 C 14.913109619025875 66.5506712997963 96.59867807345478 C 0.0 **** -0.24
2027 H 14.746420691795464 65.82182965447356 97.39193852686724 H 0.0 **** 0.06
2028 H 15.759231320869077 66.2353329067476 95.98751420365836 H 0.0 **** 0.06
2029 H 15.125320322295835 67.5248748284767 97.03968556067962 H 0.0 **** 0.06
2030 H 14.020469430981422 66.6199859079851 95.97682642628678 H 0.0 **** 0.06
2031 C 9.579755812785947 118.3115556899411 35.58463853740433 C 0.0 **** -0.24
2032 H 8.652159855210868 117.99971358837969 35.104081833552584 H 0.0 **** 0.06
2033 H 9.69566889083734 119.39161152624122 35.48220749538579 H 0.0 **** 0.06
2034 H 10.422035494703039 117.80854394718592 35.109313787072885 H 0.0 **** 0.06
2035 H 9.547931627932883 118.04838961378057 36.64112103129347 H 0.0 **** 0.06
2036 C 90.89779407762902 49.984346656661344 107.18399070725096 C 0.0 **** -0.24
2037 H 90.8119064263181 50.968693220870534 106.72270156454951 H 0.0 **** 0.06
2038 H 89.91116448860905 49.64578302958385 107.50236981572849 H 0.0 **** 0.06
2039 H 91.55763249561309 50.04574519769868 108.04967539695352 H 0.0 **** 0.06
2040 H 91.30950677533005 49.278900664294724 106.46264954812833 H 0.0 **** 0.06
2041 C 1.438154473472025 25.10644236317482 79.83620916610681 C 0.0 **** -0.24
2042 H 1.3212087072754457 25.039302311835897 80.91775175807145 H 0.0 **** 0.06
2043 H 2.4957131158379866 25.035373625964837 79.57996031366201 H 0.0 **** 0.06
2044 H 1.0423223229692837 26.059813395814302 79.48624050246639 H 0.0 **** 0.06
2045 H 0.8934671104717324 24.290349737773084 79.3612386471758 H 0.0 **** 0.06
2046 C 90.1725886372154 141.0430627619473 23.923992831214136 C 0.0 **** -0.24
2047 H 90.90021653403657 141.35184139879956 23.173737631274612 H 0.0 **** 0.06
2048 H 89.99203630928558 141.86638765677878 24.61663814856135 H 0.0 **** 0.06
2049 H 90.55873361028563 140.18417379718073 24.472983079593597 H 0.0 **** 0.06
2050 H 89.23795612992528 140.76989471377226 23.432547172863266 H 0.0 **** 0.06
2051 C 15.173478137088672 50.74789185930203 27.548118091418615 C 0.0 **** -0.24
2052 H 14.42035299952309 50.047480381123506 27.908266323859124 H 0.0 **** 0.06
2053 H 16.000160079722583 50.19593220249122 27.100695481295467 H 0.0 **** 0.06
2054 H 15.543127298474275 51.34424787667298 28.382053021756043 H 0.0 **** 0.06
2055 H 14.729268829240873 51.406061360650185 26.800864111096672 H 0.0 **** 0.06
2056 C 24.72711953610903 97.91613186012405 80.4086835225481 C 0.0 **** -0.24
2057 H 25.59381687871607 98.5620123754133 80.26987955533278 H 0.0 **** 0.06
2058 H 25.031385436648407 97.00617902984132 80.92474315908079 H 0.0 **** 0.06
2059 H 24.305274388063026 97.660025817635 79.43619347484618 H 0.0 **** 0.06
2060 H 23.976674199943744 98.43810104292236 81.00374025283276 H 0.0 **** 0.06
2061 C 43.73093692971288 100.66936049584895 111.76977742594518 C 0.0 **** -0.24
2062 H 42.9525092103345 100.78639988351304 112.52354565331397 H 0.0 **** 0.06
2063 H 43.92671909678727 99.60822270642105 111.61144718074912 H 0.0 **** 0.06
2064 H 44.64357773305622 101.16025150097595 112.11039647261224 H 0.0 **** 0.06
2065 H 43.40288968429199 101.12271597429513 110.8348082982463 H 0.0 **** 0.06
2066 C 52.44293971030608 81.58628577512495 91.2504559838822 C 0.0 **** -0.24
2067 H 51.41949707660697 81.56865513425569 91.62570501636128 H 0.0 **** 0.06
2068 H 52.497971842480055 81.0236715010044 90.3194409127762 H 0.0 **** 0.06
2069 H 53.10772373963917 81.13697172099126 91.98775072411843 H 0.0 **** 0.06
2070 H 52.744941879996944 82.61838035768112 91.06989303167671 H 0.0 **** 0.06
2071 C 1.2432882031092447 21.02432696178073 4.58840528886293 C 0.0 **** -0.24
2072 H 0.28821370685113834 21.549488604661065 4.573357289483397 H 0.0 **** 0.06
2073 H 1.1902685535094975 20.155550152742762 3.931902224115845 H 0.0 **** 0.06
2074 H 1.4630376249462245 20.699478456163547 5.605912124976953 H 0.0 **** 0.06
2075 H 2.03188094347189 21.693271494465932 4.24329052655429 H 0.0 **** 0.06
2076 C 66.4142129639994 139.85884606983302 34.19206091429422 C 0.0 **** -0.24
2077 H 66.38483165878688 140.8807609809367 33.813660139316056 H 0.0 **** 0.06
2078 H 65.3971537805936 139.48007843842245 34.29417942318878 H 0.0 **** 0.06
2079 H 66.90646055585738 139.8459990701403 35.16450358466173 H 0.0 **** 0.06
2080 H 66.96820538330287 139.2298694372283 33.49544461576599 H 0.0 **** 0.06
2081 C 69.96906710514052 136.14117400364083 137.85474925555195 C 0.0 **** -0.24
2082 H 69.4657765542804 135.61992714991771 137.0399340294787 H 0.0 **** 0.06
2083 H 70.10889201157424 135.45831336384657 138.692319431222 H 0.0 **** 0.06
2084 H 69.36125817608773 136.9881932028785 138.17334033436387 H 0.0 **** 0.06
2085 H 70.93929536045674 136.4993829642011 137.51063741959481 H 0.0 **** 0.06
2086 C 27.435691515394097 89.61182369332666 139.0419706092451 C 0.0 **** -0.24
2087 H 27.027833932029182 89.90756041364038 138.07573386666212 H 0.0 **** 0.06
2088 H 27.661684786044773 90.501338218309 139.62969879612498 H 0.0 **** 0.06
2089 H 28.34896123799345 89.0353598108262 138.88982153239994 H 0.0 **** 0.06
2090 H 26.705120992193258 89.00073346632747 139.5726277046549 H 0.0 **** 0.06
2091 C 34.49676085206933 60.343969157458616 94.04304342833767 C 0.0 **** -0.24
2092 H 34.86499474617716 59.32536286564702 94.16555264202029 H 0.0 **** 0.06
2093 H 33.650363023034515 60.343199540281475 93.35576427849288 H 0.0 **** 0.06
2094 H 35.2926155796641 60.970984701411396 93.63978261654235 H 0.0 **** 0.06
2095 H 34.18087700931338 60.734776177737885 95.0105064865139 H 0.0 **** 0.06
2096 C 125.71346100562494 147.42676559089352 57.08893360952891 C 0.0 **** -0.24
2097 H 125.52452892169339 147.64020800964306 56.036945264056385 H 0.0 **** 0.06
2098 H 124.89106627264755 146.8361885192234 57.493067401210794 H 0.0 **** 0.06
2099 H 125.79476459343462 148.36274927869118 57.6405074511988 H 0.0 **** 0.06
2100 H 126.64439836625661 146.86676091793856 57.18353234448699 H 0.0 **** 0.06
2101 C 31.611661191074695 20.609827295371275 88.9644646503005 C 0.0 **** -0.24
2102 H 32.25599312997611 21.3439168275153 88.48131832435746 H 0.0 **** 0.06
2103 H 30.594004697084458 20.99732015599477 89.01489316211648 H 0.0 **** 0.06
2104 H 31.9770443276416 20.414140894027753 89.97339950436337 H 0.0 **** 0.06
2105 H 31.620874436546465 19.6842952421635 88.38874768874449 H 0.0 **** 0.06
2106 C 61.22718798789788 144.8125969062164 96.15567681559632 C 0.0 **** -0.24
2107 H 61.181441817541895 145.198574932518 97.17330183543424 H 0.0 **** 0.06
2108 H 61.182231032860955 143.72359534540527 96.1766998236786 H 0.0 **** 0.06
2109 H 62.16097748651475 145.12780702571115 95.6892443285495 H 0.0 **** 0.06
2110 H 60.38616296500544 145.20034377178172 95.58128257433354 H 0.0 **** 0.06
2111 C 130.6175094262055 24.92485977328888 64.99079526312887 C 0.0 **** -0.24
2112 H 130.492126979331 24.648625474204437 66.03776915992528 H 0.0 **** 0.06
2113 H 131.47849125870604 25.58663030130409 64.89142437845295 H 0.0 **** 0.06
2114 H 129.7219080822616 25.437440579357904 64.64064156868666 H 0.0 **** 0.06
2115 H 130.77898790249716 24.02652748876259 64.39574883020035 H 0.0 **** 0.06
2116 C 48.27625623432111 86.2941619017964 112.22572307062995 C 0.0 **** -0.24
2117 H 47.65895938214149 86.97326893492905 112.81399233283258 H 0.0 **** 0.06
2118 H 49.31076853308002 86.63871942698917 112.24203072120224 H 0.0 **** 0.06
2119 H 47.916192024287 86.2744749807471 111.19765564504866 H 0.0 **** 0.06
2120 H 48.220411930789695 85.29250135556376 112.65017447260664 H 0.0 **** 0.06
2121 C 98.84683636325555 48.21313237904624 1.3576015827625838 C 0.0 **** -0.24
2122 H 98.85973504523167 47.31164729763286 1.9712104171349552 H 0.0 **** 0.06
2123 H 98.77613307420279 47.935150338082494 0.3060030307427155 H 0.0 **** 0.06
2124 H 99.76356044121616 48.778394131503134 1.5243006672951651 H 0.0 **** 0.06
2125 H 97.9875316357375 48.82500487076119 1.6307387223118326 H 0.0 **** 0.06
2126 C 139.52798509144608 28.529282301439693 65.09771022727615 C 0.0 **** -0.24
2127 H 140.56241992488933 28.475514396005025 64.7583121237476 H 0.0 **** 0.06
2128 H 139.1818724608619 29.562015706819523 65.04655091671818 H 0.0 **** 0.06
2129 H 139.46331713324292 28.17518156196911 66.12648143566784 H 0.0 **** 0.06
2130 H 138.90297789362683 27.90472420183002 64.45845932803248 H 0.0 **** 0.06
2131 C 68.47525361206982 38.11450753625279 108.39887261773534 C 0.0 **** -0.24
2132 H 68.86515584321056 38.80653467968368 107.65219251249876 H 0.0 **** 0.06
2133 H 67.66716255333053 38.594075854542496 108.95123803360126 H 0.0 **** 0.06
2134 H 69.2726549463672 37.836688348354286 109.0880896320054 H 0.0 **** 0.06
2135 H 68.09599701365056 37.22034082606833 107.9026117316232 H 0.0 **** 0.06
2136 C 43.54282854865225 106.84574823272648 70.518148034033 C 0.0 **** -0.24
2137 H 44.03715657016703 107.7978359493383 70.71364050278432 H 0.0 **** 0.06
2138 H 44.01373894117586 106.36042665023349 69.6627493665455 H 0.0 **** 0.06
2139 H 42.488715652650455 107.02100146844752 70.30375405169639 H 0.0 **** 0.06
2140 H 43.63295115424917 106.20364601334812 71.39498506672818 H 0.0 **** 0.06
2141 C 1.7053278120430662 9.065105349808903 83.25036643368475 C 0.0 **** -0.24
2142 H 0.8936029982367266 9.53466829390095 82.69373729963624 H 0.0 **** 0.06
2143 H 1.3954964914036765 8.071020197842643 83.57316785565692 H 0.0 **** 0.06
2144 H 1.9454576867922384 9.67200062505026 84.12360252279063 H 0.0 **** 0.06
2145 H 2.584020415100788 8.983416170448834 82.61120241577359 H 0.0 **** 0.06
2146 C 11.20260545852409 149.61975009476186 96.69932874551498 C 0.0 **** -0.24
2147 H 12.142042553735678 149.613703960673 97.25243532371309 H 0.0 **** 0.06
2148 H 10.765253231548513 150.61718290727424 96.7363324804783 H 0.0 **** 0.06
2149 H 10.513738665834694 148.90381178514585 97.14694391404197 H 0.0 **** 0.06
2150 H 11.39022695692347 149.34282892801954 95.66195835766572 H 0.0 **** 0.06
2151 C 94.91632683351324 56.71245253335529 18.53641048025321 C 0.0 **** -0.24
2152 H 95.47200708706916 57.17430723011799 19.35267280851201 H 0.0 **** 0.06
2153 H 95.56727693216172 56.02224036792069 17.999125039223884 H 0.0 **** 0.06
2154 H 94.56409894551595 57.48622861744366 17.854341153125404 H 0.0 **** 0.06
2155 H 94.06289720610675 56.16881233202085 18.94147551355036 H 0.0 **** 0.06
2156 C 150.17510076236545 142.6554748246477 106.27334957811476 C 0.0 **** -0.24
2157 H 149.44319458534147 142.084544528064 106.84396801200509 H 0.0 **** 0.06
2158 H 151.03543793385305 142.0239612569418 106.05107034010595 H 0.0 **** 0.06
2159 H 150.49747579666865 143.51701784602602 106.85693367132998 H 0.0 **** 0.06
2160 H 149.72429473359858 142.9963756675589 105.34142628901802 H 0.0 **** 0.06
2161 C 65.9196385398254 25.161060169963378 35.69122362367523 C 0.0 **** -0.24
2162 H 66.36741015694915 25.200597501159166 36.68415154509182 H 0.0 **** 0.06
2163 H 65.6630467026632 26.170586991685866 35.36854770939789 H 0.0 **** 0.06
2164 H 65.01845214628352 24.549978079432606 35.723967975004996 H 0.0 **** 0.06
2165 H 66.63016335809598 24.725271707898003 34.989186327837444 H 0.0 **** 0.06
2166 C 37.66944015512808 21.60860116923078 77.76867933339928 C 0.0 **** -0.24
2167 H 37.91738129064864 22.619377625709888 78.09116591740583 H 0.0 **** 0.06
2168 H 37.67320687978521 20.9407051909142 78.63001158845579 H 0.0 **** 0.06
2169 H 38.407381791471984 21.267847388230877 77.04156480869187 H 0.0 **** 0.06
2170 H 36.680177813189474 21.60531195668213 77.3098539606027 H 0.0 **** 0.06
2171 C 37.606705825899425 93.67112601359904 7.328149714487665 C 0.0 **** -0.24
2172 H 36.99603004618793 94.56301772695932 7.1890787469556585 H 0.0 **** 0.06
2173 H 37.97100165294042 93.32591654115639 6.359725988202399 H 0.0 **** 0.06
2174 H 37.00504107286475 92.88778176148544 7.790167925659034 H 0.0 **** 0.06
2175 H 38.45384039199916 93.90723298462663 7.972696869682579 H 0.0 **** 0.06
2176 C 23.790565996983332 92.30019072018632 1.4562753826229766 C 0.0 **** -0.24
2177 H 23.966154617290073 91.91690212792435 2.461652918991767 H 0.0 **** 0.06
2178 H 22.880899650819856 92.90032497684096 1.4497576008368291 H 0.0 **** 0.06
2179 H 23.68078726216143 91.46515206184125 0.7645120243080896 H 0.0 **** 0.06
2180 H 24.636020639907088 92.91699191704939 1.150407373093266 H 0.0 **** 0.06
2181 C 100.47168330348563 14.561240702868673 120.35653182069287 C 0.0 **** -0.24
2182 H 101.20537601879397 15.353933836415848 120.50556237993818 H 0.0 **** 0.06
2183 H 99.58771417987913 14.765947560415071 120.96078026826127 H 0.0 **** 0.06
2184 H 100.90349229014487 13.605923560699608 120.65424750179822 H 0.0 **** 0.06
2185 H 100.18994338367486 14.520248209777066 119.30420737960758 H 0.0 **** 0.06
2186 C 59.01312820112594 127.22536182132048 53.7513131454389 C 0.0 **** -0.24
2187 H 60.07861796649733 127.07703252683267 53.929707372604014 H 0.0 **** 0.06
2188 H 58.80380673957218 127.11482911306679 52.68727718100848 H 0.0 **** 0.06
2189 H 58.72694009898569 128.22659232181354 54.076446058344544 H 0.0 **** 0.06
2190 H 58.44414504689249 126.48452489039562 54.31311052808327 H 0.0 **** 0.06
2191 C 132.2127464330651 137.6110007538277 53.56758579482258 C 0.0 **** -0.24
2192 H 132.21071258418812 137.81188782653018 52.49601976798331 H 0.0 **** 0.06
2193 H 132.61550296160016 136.6137284872499 53.749056858829476 H 0.0 **** 0.06
2194 H 131.19327581192408 137.6654428013425 53.94888906545421 H 0.0 **** 0.06
2195 H 132.8309714965087 138.35104495479047 54.07531881429961 H 0.0 **** 0.06
2196 C 126.1422716985391 89.3002928248957 141.1045709682642 C 0.0 **** -0.24
2197 H 126.81426066176338 88.74025568675611 141.7548583818311 H 0.0 **** 0.06
2198 H 126.49275216212347 89.22989380894953 140.07377516476473 H 0.0 **** 0.06
2199 H 126.12711034744062 90.34608319122108 141.41164934679358 H 0.0 **** 0.06
2200 H 125.13750953279795 88.88496524887242 141.17641417081043 H 0.0 **** 0.06
2201 C 123.35810229301127 16.453182270786918 119.81504602042476 C 0.0 **** -0.24
2202 H 123.84097386351202 17.429857627393133 119.80792270763042 H 0.0 **** 0.06
2203 H 124.10007251671014 15.68061340025298 119.61132061745924 H 0.0 **** 0.06
2204 H 122.58429100938615 16.4244541083432 119.0479793544978 H 0.0 **** 0.06
2205 H 122.90809028652525 16.276130592904344 120.7914907714421 H 0.0 **** 0.06
2206 C 81.54336728935144 29.31058608603388 84.29101708204522 C 0.0 **** -0.24
2207 H 82.53968918258556 29.094766363053452 83.90559263497428 H 0.0 **** 0.06
2208 H 80.85320075814494 29.447818333874523 83.45775661636375 H 0.0 **** 0.06
2209 H 81.57519987571149 30.220681113098067 84.89012159369449 H 0.0 **** 0.06
2210 H 81.20522454147326 28.480468043451765 84.91038447116111 H 0.0 **** 0.06
2211 C 7.340656661578379 118.64065444883327 8.891639354218114 C 0.0 **** -0.24
2212 H 8.35033522625426 118.62540326826065 8.48245841015654 H 0.0 **** 0.06
2213 H 6.853558658441784 119.57854699974298 8.62038547092726 H 0.0 **** 0.06
2214 H 7.387452687984279 118.55665822938572 9.978211172327406 H 0.0 **** 0.06
2215 H 6.771164603446039 117.80401366575519 8.486486923930045 H 0.0 **** 0.06
2216 C 56.41456968980867 50.40164235947748 42.75201147883739 C 0.0 **** -0.24
2217 H 55.91672324124207 50.43605394446509 41.783353018877364 H 0.0 **** 0.06
2218 H 57.47834784693217 50.60283227996267 42.62028759555902 H 0.0 **** 0.06
2219 H 56.28214052179493 49.41422108065149 43.193435528164144 H 0.0 **** 0.06
2220 H 55.981237787532876 51.15467724602328 43.409747278449075 H 0.0 **** 0.06
2221 C 67.79726893176797 109.01889199626032 143.50370266723422 C 0.0 **** -0.24
2222 H 67.05282954466068 109.44718054525526 142.83318542739985 H 0.0 **** 0.06
2223 H 67.93811571229307 109.6797140113951 144.35935268496652 H 0.0 **** 0.06
2224 H 68.74244238787549 108.90449469752417 142.97310500903794 H 0.0 **** 0.06
2225 H 67.45513872590533 108.04383944343243 143.85042578632238 H 0.0 **** 0.06
2226 C 23.533581095329282 30.691550161767395 6.784573130044748 C 0.0 **** -0.24
2227 H 22.4906107389331 30.485740388802014 6.545147497423102 H 0.0 **** 0.06
2228 H 23.665473224721495 31.762547855916182 6.941595182883418 H 0.0 **** 0.06
2229 H 24.167412946092185 30.36375276575893 5.960983721703201 H 0.0 **** 0.06
2230 H 23.809899333074668 30.154384312723437 7.691609263782709 H 0.0 **** 0.06
2231 C 104.94420781804963 73.25915349400881 80.3587566543585 C 0.0 **** -0.24
2232 H 105.06149674722711 72.17647179356521 80.30567039525386 H 0.0 **** 0.06
2233 H 104.00925508515586 73.49816858947813 80.86562217679068 H 0.0 **** 0.06
2234 H 104.9272196020823 73.67227425198672 79.35027853399247 H 0.0 **** 0.06
2235 H 105.77839861608915 73.68758711258576 80.91288459222324 H 0.0 **** 0.06
2236 C 65.17050290202947 125.9785725789018 69.51044073251339 C 0.0 **** -0.24
2237 H 65.86602092166545 126.7741080449592 69.77772052741645 H 0.0 **** 0.06
2238 H 65.47153268643832 125.05276265702705 70.00077892579057 H 0.0 **** 0.06
2239 H 65.17938750003105 125.83692241240723 68.42946811592284 H 0.0 **** 0.06
2240 H 64.16548665324905 126.25163618727257 69.8330676244205 H 0.0 **** 0.06
2241 C 128.479472227302 25.162814808113218 44.6056442105519 C 0.0 **** -0.24
2242 H 128.01143709971248 24.1881812408146 44.74146389745137 H 0.0 **** 0.06
2243 H 127.95012147716335 25.906288215451966 45.20127878521568 H 0.0 **** 0.06
2244 H 128.435972517696 25.44256550569805 43.55220751512559 H 0.0 **** 0.06
2245 H 129.52021858257856 25.114805574379744 44.925251161343624 H 0.0 **** 0.06
2246 C 146.27532312790336 30.069643144808794 132.81942659181757 C 0.0 **** -0.24
2247 H 146.47427795936122 29.045502631264384 133.13578822500247 H 0.0 **** 0.06
2248 H 147.18815359690745 30.6598653770736 132.90746511505782 H 0.0 **** 0.06
2249 H 145.5004150750576 30.50152387896358 133.45130391995554 H 0.0 **** 0.06
2250 H 145.94021967019427 30.06994438305972 131.78146410569204 H 0.0 **** 0.06
2251 C 31.063736392418093 56.46807089179478 126.05729263471554 C 0.0 **** -0.24
2252 H 31.100177608574825 55.604220069212005 125.39449309288409 H 0.0 **** 0.06
2253 H 30.13352893193553 56.45039418268473 126.62556643657928 H 0.0 **** 0.06
2254 H 31.1121439049586 57.3821848403048 125.46634690858664 H 0.0 **** 0.06
2255 H 31.90918720708885 56.43397725610015 126.74469283915687 H 0.0 **** 0.06
2256 C 140.97042158683556 71.48455116594829 51.86897050966019 C 0.0 **** -0.24
2257 H 140.84562389699238 72.44152639372555 51.36076436020343 H 0.0 **** 0.06
2258 H 140.00526194032506 71.14499742964765 52.24438439894999 H 0.0 **** 0.06
2259 H 141.66350087558092 71.6034264239224 52.70143085915586 H 0.0 **** 0.06
2260 H 141.36681473190208 70.75074320444358 51.16769894489036 H 0.0 **** 0.06
2261 C 51.07092390581562 50.555353132730914 13.111903187750933 C 0.0 **** -0.24
2262 H 50.295269368045695 51.1631125567547 13.5770923739815 H 0.0 **** 0.06
2263 H 51.43271172904042 49.817564025820275 13.827853100514567 H 0.0 **** 0.06
2264 H 51.8964110712173 51.195862828824716 12.8011319560663 H 0.0 **** 0.06
2265 H 50.659340809345736 50.045547668773764 12.240798011442543 H 0.0 **** 0.06
2266 C 128.63490240892705 96.00276720271093 1.4577166724579627 C 0.0 **** -0.24
2267 H 129.7144274811837 95.88466217211734 1.5475068588305305 H 0.0 **** 0.06
2268 H 128.2407345697949 95.23858056587491 0.7879921214347405 H 0.0 **** 0.06
2269 H 128.41052097164373 96.99013809954755 1.0545924313744024 H 0.0 **** 0.06
2270 H 128.1737703913459 95.89826941347711 2.439976805466216 H 0.0 **** 0.06
2271 C 149.168252089504 59.79204581923565 136.68290410353885 C 0.0 **** -0.24
2272 H 148.5686712123232 60.61048860352139 136.28400602438998 H 0.0 **** 0.06
2273 H 149.0342957795171 58.90744660729686 136.05854723067074 H 0.0 **** 0.06
2274 H 148.84888468902668 59.57043202642325 137.70088310525966 H 0.0 **** 0.06
2275 H 150.21939674863168 60.07963446858534 136.68575724287479 H 0.0 **** 0.06
2276 C 38.575949188335514 69.88025269542317 144.038234252107 C 0.0 **** -0.24
2277 H 38.19934180161677 70.60835808761834 144.756768804981 H 0.0 **** 0.06
2278 H 37.737811676150244 69.35086061344964 143.5840987551054 H 0.0 **** 0.06
2279 H 39.223029931742644 69.16688276405324 144.5493598373872 H 0.0 **** 0.06
2280 H 39.1440959502478 70.39444262585863 143.26345077721547 H 0.0 **** 0.06
2281 C 57.01258343586804 49.881828534611856 135.17658861723265 C 0.0 **** -0.24
2282 H 56.10587062020599 50.010173288968275 135.7668630772776 H 0.0 **** 0.06
2283 H 56.96887989315994 48.930788515794816 134.6462742302741 H 0.0 **** 0.06
2284 H 57.88014538446873 49.88961556507074 135.8368689613728 H 0.0 **** 0.06
2285 H 57.096765039027986 50.69609133331228 134.45725488670925 H 0.0 **** 0.06
2286 C 120.58799995163109 97.34360252311903 41.941447677256775 C 0.0 **** -0.24
2287 H 120.9431922667846 96.70993605088876 41.12891540242906 H 0.0 **** 0.06
2288 H 121.25154601641599 97.23753694973614 42.800720778951515 H 0.0 **** 0.06
2289 H 119.57898823345333 97.04290046743805 42.22240156408053 H 0.0 **** 0.06
2290 H 120.5804274686554 98.38309668074236 41.61444306447247 H 0.0 **** 0.06
2291 C 49.65525842142392 108.36471917253884 33.01361131881454 C 0.0 **** -0.24
2292 H 49.66274304017783 107.2910866065812 32.82179466162358 H 0.0 **** 0.06
2293 H 48.62884255235494 108.73160033559334 32.9770844862265 H 0.0 **** 0.06
2294 H 50.24999811838475 108.87247655524074 32.25463134683365 H 0.0 **** 0.06
2295 H 50.07783337632462 108.5611988140701 33.99868422025439 H 0.0 **** 0.06
2296 C 5.984329474326355 14.069715414661246 70.17178577334937 C 0.0 **** -0.24
2297 H 6.512230222591295 13.65143707315724 69.31423254072888 H 0.0 **** 0.06
2298 H 5.872407832888207 13.30400292971342 70.93867453873031 H 0.0 **** 0.06
2299 H 4.999375910827482 14.415838563524233 69.85725476509384 H 0.0 **** 0.06
2300 H 6.553244359199589 14.907883406570363 70.57455092332836 H 0.0 **** 0.06
2301 C 7.424753698869132 20.498426369649962 80.68694810045423 C 0.0 **** -0.24
2302 H 6.629087382914751 20.974158905629906 80.11323809712547 H 0.0 **** 0.06
2303 H 8.208656892688346 20.160510629349176 80.00813054804985 H 0.0 **** 0.06
2304 H 7.020599862221758 19.6443263638443 81.23064778991858 H 0.0 **** 0.06
2305 H 7.841675726992364 21.216117431072803 81.39435893695912 H 0.0 **** 0.06
2306 C 31.62249364969506 80.09617871413685 58.55477323498488 C 0.0 **** -0.24
2307 H 30.61457829164135 79.80000247108384 58.84452265810475 H 0.0 **** 0.06
2308 H 32.320915846084006 79.2958475890777 58.79726854186728 H 0.0 **** 0.06
2309 H 31.90321872967229 81.00057193444675 59.093913096905 H 0.0 **** 0.06
2310 H 31.648946861997842 80.28999747329188 57.481734532282644 H 0.0 **** 0.06
2311 C 143.43682975250087 58.1223018115258 20.242285685155338 C 0.0 **** -0.24
2312 H 143.71694497708685 58.061044207902256 19.190399535499182 H 0.0 **** 0.06
2313 H 144.33671650348052 58.19082190494973 20.854248386932426 H 0.0 **** 0.06
2314 H 142.8737350279712 57.23194219927049 20.520452078628836 H 0.0 **** 0.06
2315 H 142.8205733147556 59.007646896753755 20.402165658092798 H 0.0 **** 0.06
2316 C 148.89208705933788 123.69466770417391 93.77947015303513 C 0.0 **** -0.24
2317 H 148.10473091267198 122.96200243260152 93.95307987818627 H 0.0 **** 0.06
2318 H 149.55566421927196 123.72602536900094 94.64346987686952 H 0.0 **** 0.06
2319 H 148.44694771451492 124.67798678262331 93.62682334827448 H 0.0 **** 0.06
2320 H 149.46181141556167 123.41174900224361 92.8937813333837 H 0.0 **** 0.06
2321 C 42.74440799469457 140.80514018383582 67.15527167787985 C 0.0 **** -0.24
2322 H 42.93552047060844 139.74312437627512 67.30392856840518 H 0.0 **** 0.06
2323 H 43.63237006926488 141.37610528106364 67.42937156968298 H 0.0 **** 0.06
2324 H 41.906216683089 141.11429233796335 67.78011867649599 H 0.0 **** 0.06
2325 H 42.50340504000553 140.9880156428929 66.10784500013528 H 0.0 **** 0.06
2326 C 85.92753634204894 126.70446969566979 19.81193330928943 C 0.0 **** -0.24
2327 H 86.78342340863608 126.09943554996163 20.111253370582972 H 0.0 **** 0.06
2328 H 86.26995363279192 127.69339944167014 19.508279203719297 H 0.0 **** 0.06
2329 H 85.23918190944903 126.79954688911738 20.651930928011353 H 0.0 **** 0.06
2330 H 85.41695835840906 126.22356299984968 18.97720019051323 H 0.0 **** 0.06
2331 C 146.710767306269 139.04611226697546 135.7940225742838 C 0.0 **** -0.24
2332 H 146.12557560544602 138.68940591857776 136.64166267534188 H 0.0 **** 0.06
2333 H 147.71462969823338 139.30668328618856 136.13045169305153 H 0.0 **** 0.06
2334 H 146.2314206955693 139.9252651959865 135.3644513864537 H 0.0 **** 0.06
2335 H 146.77209174368718 138.26109032988782 135.0402743687562 H 0.0 **** 0.06
2336 C 102.45435241807851 100.17613692102194 108.55756679116315 C 0.0 **** -0.24
2337 H 103.08789871135586 101.03138005041092 108.79228313205856 H 0.0 **** 0.06
2338 H 101.79286413883574 100.4306102854894 107.729922532922 H 0.0 **** 0.06
2339 H 101.85803346371002 99.9146699303748 109.43275092450698 H 0.0 **** 0.06
2340 H 103.07823195086463 99.32766953893432 108.27726178081274 H 0.0 **** 0.06
2341 C 140.15459828976765 24.412412148522705 44.947064660294274 C 0.0 **** -0.24
2342 H 140.21000710428126 23.790599302343573 44.0529599855319 H 0.0 **** 0.06
2343 H 139.26750116454002 25.044831798606666 44.894456510474214 H 0.0 **** 0.06
2344 H 141.0447696703995 25.038441140068052 45.00969934391789 H 0.0 **** 0.06
2345 H 140.09505013959154 23.775035361047806 45.8293216154122 H 0.0 **** 0.06
2346 C 23.096292588565348 56.72225550407339 83.83475031951647 C 0.0 **** -0.24
2347 H 23.060953978350625 55.813244118216176 84.43554311353373 H 0.0 **** 0.06
2348 H 23.439469840572684 56.479344112644384 82.82873742683091 H 0.0 **** 0.06
2349 H 23.78296708311919 57.433442368092386 84.29285601967811 H 0.0 **** 0.06
2350 H 22.099455037072772 57.16102269804745 83.78271419114222 H 0.0 **** 0.06
2351 C 44.40404890088732 47.92086735626641 0.24598181282146925 C 0.0 **** -0.24
2352 H 43.66279287302997 48.55249567596567 0.7361181924099753 H 0.0 **** 0.06
2353 H 43.89613691788162 47.13599978509701 -0.31526129783301826 H 0.0 **** 0.06
2354 H 45.05124067044663 47.470423578663315 0.9975060262300133 H 0.0 **** 0.06
2355 H 45.002702560103245 48.526213180951245 -0.4348784690603509 H 0.0 **** 0.06
2356 C 133.54419455604727 13.345873241665572 91.51693356319362 C 0.0 **** -0.24
2357 H 133.7452621315066 13.579054251713245 92.56292732976158 H 0.0 **** 0.06
2358 H 133.5623524768412 12.264623227313592 91.37735487659438 H 0.0 **** 0.06
2359 H 134.30657840429936 13.806308600479184 90.88897288585713 H 0.0 **** 0.06
2360 H 132.5632231435688 13.732480842824543 91.24103661409225 H 0.0 **** 0.06
2361 C 95.58024739874779 56.370023441995755 87.29398863749792 C 0.0 **** -0.24
2362 H 96.27953036335828 56.749604387962336 86.54874026404377 H 0.0 **** 0.06
2363 H 94.68242405112551 56.98845725463221 87.29764326576861 H 0.0 **** 0.06
2364 H 96.04691108884538 56.40020548276996 88.27861472444009 H 0.0 **** 0.06
2365 H 95.31349014148009 55.34151312452778 87.05076738437667 H 0.0 **** 0.06
2366 C 29.337145729686107 108.92703112997573 78.67392920556901 C 0.0 **** -0.24
2367 H 30.356320597799943 109.20180487346992 78.94467528683285 H 0.0 **** 0.06
2368 H 29.359228681958122 108.24431968127855 77.82319600048089 H 0.0 **** 0.06
2369 H 28.777874634896463 109.82250488097633 78.40566994057896 H 0.0 **** 0.06
2370 H 28.85602075808754 108.43697940837403 79.5207866794472 H 0.0 **** 0.06
2371 C 145.25341913970735 100.98728545261761 10.065713414629613 C 0.0 **** -0.24
2372 H 144.6410851000016 100.32806242490906 9.449254526940365 H 0.0 **** 0.06
2373 H 146.2709019931446 101.00914149384073 9.673943735512637 H 0.0 **** 0.06
2374 H 145.26609085380795 100.61732279795643 11.090480955002647 H 0.0 **** 0.06
2375 H 144.83446979932043 101.99382411805794 10.047413667752323 H 0.0 **** 0.06
2376 C 135.69684704013432 144.02649513203815 6.659514595902522 C 0.0 **** -0.24
2377 H 136.18479935283807 143.30535944564477 6.003458681996818 H 0.0 **** 0.06
2378 H 136.3511281421343 144.25018448327592 7.502677588377196 H 0.0 **** 0.06
2379 H 134.76064082231977 143.60631856313094 7.026639971910157 H 0.0 **** 0.06
2380 H 135.4922299809043 144.9415711030554 6.1045575909486445 H 0.0 **** 0.06
2381 C 72.49658654917744 28.394040626074066 73.41121693430543 C 0.0 **** -0.24
2382 H 71.87382538813134 28.948046546881386 72.70975388311285 H 0.0 **** 0.06
2383 H 72.21745303160687 28.65658341978193 74.43130527347937 H 0.0 **** 0.06
2384 H 73.54462526595955 28.647011423122436 73.24524954490094 H 0.0 **** 0.06
2385 H 72.35287889859335 27.32473035704068 73.25841602272061 H 0.0 **** 0.06
2386 C 150.43113619374657 63.693224443467656 1.452566228509852 C 0.0 **** -0.24
2387 H 150.24871377605245 63.8318353716419 2.5182662611878293 H 0.0 **** 0.06
2388 H 151.41255411725712 63.24132873962871 1.3072437221521191 H 0.0 **** 0.06
2389 H 150.39688038045207 64.65973725650223 0.94987248255282 H 0.0 **** 0.06
2390 H 149.6651617024235 63.03998317202674 1.0355717738904602 H 0.0 **** 0.06
2391 C 93.21196674604342 96.3879635873956 72.49019735071805 C 0.0 **** -0.24
2392 H 94.06507494627341 96.63660393250933 71.85775927806087 H 0.0 **** 0.06
2393 H 93.56818474306358 96.03547770491846 73.45785219758032 H 0.0 **** 0.06
2394 H 92.62206221434731 95.60499311979635 72.01232454205544 H 0.0 **** 0.06
2395 H 92.59402592032204 97.27477912107273 72.62988563926719 H 0.0 **** 0.06
2396 C 29.9859444415618 80.08314274508595 128.485321788205 C 0.0 **** -0.24
2397 H 29.137606331358597 80.1762083066833 127.80604658908325 H 0.0 **** 0.06
2398 H 30.711251270651587 79.3860921929136 128.0652705702579 H 0.0 **** 0.06
2399 H 29.640061660283436 79.71089034423872 129.44953064947975 H 0.0 **** 0.06
2400 H 30.45295879175552 81.0583175649007 128.6183747945202 H 0.0 **** 0.06
2401 C 71.93653539522445 101.96265789943851 74.05162162746527 C 0.0 **** -0.24
2402 H 71.08589816383817 101.74675223450342 73.40446278957134 H 0.0 **** 0.06
2403 H 72.35091295691818 102.93722808361582 73.79293902751661 H 0.0 **** 0.06
2404 H 72.699008103325 101.19539923880109 73.91690709860873 H 0.0 **** 0.06
2405 H 71.60899083772426 101.97093227516476 75.09111697329621 H 0.0 **** 0.06
2406 C 107.08553334372341 56.32797963852056 34.40328081556564 C 0.0 **** -0.24
2407 H 106.40945379608881 55.4748527300286 34.449110576267984 H 0.0 **** 0.06
2408 H 108.05229675840995 56.00576129252076 34.01602852976603 H 0.0 **** 0.06
2409 H 107.21459334627427 56.74225823981817 35.403757342750055 H 0.0 **** 0.06
2410 H 106.66528119047327 57.08928296480326 33.74661131619126 H 0.0 **** 0.06
2411 C 119.09291068541529 134.78287475268664 22.444490920081314 C 0.0 **** -0.24
2412 H 118.7853762591239 133.7382685473128 22.491839975706696 H 0.0 **** 0.06
2413 H 119.91143849427021 134.95242073182993 23.144605839054158 H 0.0 **** 0.06
2414 H 118.24956004926497 135.421345067026 22.70802811758883 H 0.0 **** 0.06
2415 H 119.42520369012271 135.01820172888802 21.432856550750323 H 0.0 **** 0.06
2416 C 11.82114629257643 145.46453052151017 148.0730424132315 C 0.0 **** -0.24
2417 H 11.512635122898587 144.7967528081368 147.26842618020981 H 0.0 **** 0.06
2418 H 11.634133471696828 144.98537756565113 149.03448672463827 H 0.0 **** 0.06
2419 H 11.252909994759023 146.39294196721025 148.01273325344212 H 0.0 **** 0.06
2420 H 12.884466427789334 145.68243615925238 147.9758678924146 H 0.0 **** 0.06
2421 C 14.755437603462354 75.56117635013965 19.881812939487347 C 0.0 **** -0.24
2422 H 14.109981021136065 76.41799149762326 19.68603213675987 H 0.0 **** 0.06
2423 H 15.791434057707392 75.83265434217114 19.67847445602736 H 0.0 **** 0.06
2424 H 14.463885459825377 74.7325381697195 19.23604470117934 H 0.0 **** 0.06
2425 H 14.655092534908391 75.2615917782673 20.924924835635778 H 0.0 **** 0.06
2426 C 96.15437320800146 63.03182817650993 98.57891332272395 C 0.0 **** -0.24
2427 H 95.13503298313184 63.1365231673916 98.20864191895048 H 0.0 **** 0.06
2428 H 96.13686451841347 62.92761827429722 99.66448058521674 H 0.0 **** 0.06
2429 H 96.73215339360868 63.91562808612392 98.30892582219627 H 0.0 **** 0.06
2430 H 96.61330730663845 62.148004037016364 98.13656635158674 H 0.0 **** 0.06
2431 C 20.173679809292963 80.63205636143503 102.14441420260499 C 0.0 **** -0.24
2432 H 20.80826071514427 81.46490903721504 101.84392472825965 H 0.0 **** 0.06
2433 H 20.59100966028167 79.70021915546933 101.76357213609077 H 0.0 **** 0.06
2434 H 19.1711938881323 80.77447625367904 101.7378836076253 H 0.0 **** 0.06
2435 H 20.120928145982496 80.59033351872205 103.23227354321246 H 0.0 **** 0.06
2436 C 24.63822558279415 144.66002372767596 138.9296567577749 C 0.0 **** -0.24
2437 H 23.656048652944904 144.57662242426173 138.46603069196195 H 0.0 **** 0.06
2438 H 24.53341802732976 145.08094243965706 139.92979440329825 H 0.0 **** 0.06
2439 H 25.271619863494493 145.31121008819815 138.32604633148586 H 0.0 **** 0.06
2440 H 25.09322627429995 143.67131962233458 138.99685855975318 H 0.0 **** 0.06
2441 C 139.55273198862457 57.86413415096351 119.94779739682014 C 0.0 **** -0.24
2442 H 139.2270920640682 58.04877742980217 118.9241333992702 H 0.0 **** 0.06
2443 H 140.6085073927618 58.120803701750376 120.04421101036377 H 0.0 **** 0.06
2444 H 139.41159273225242 56.811146602402715 120.18934734618779 H 0.0 **** 0.06
2445 H 138.96622548691923 58.47637346404501 120.63228012332854 H 0.0 **** 0.06
2446 C 43.950847927829614 112.43443805876439 29.41488553244696 C 0.0 **** -0.24
2447 H 44.973227843702915 112.09848973482599 29.241024887114776 H 0.0 **** 0.06
2448 H 43.590420037007945 112.96947120509765 28.536025038144643 H 0.0 **** 0.06
2449 H 43.928577817204896 113.09839257753924 30.279575625175923 H 0.0 **** 0.06
2450 H 43.312575093705306 111.57150223512559 29.60297862790914 H 0.0 **** 0.06
2451 C 72.80662059206429 143.338933892602 89.99518385479575 C 0.0 **** -0.24
2452 H 72.13886223757605 142.52297737645236 89.7184994994235 H 0.0 **** 0.06
2453 H 72.47851246516306 143.77251941330596 90.94045057717909 H 0.0 **** 0.06
2454 H 72.78732216531876 144.1037510358511 89.2180443343082 H 0.0 **** 0.06
2455 H 73.82142200810047 142.95700204801702 90.10296421853575 H 0.0 **** 0.06
2456 C 10.304203966089005 53.54848322716627 66.42569669876376 C 0.0 **** -0.24
2457 H 9.674051042972195 54.23655776898069 65.86306523398657 H 0.0 **** 0.06
2458 H 11.311496674228863 53.957464333031595 66.5006187746488 H 0.0 **** 0.06
2459 H 10.338949211536459 52.58697037963056 65.91353042407657 H 0.0 **** 0.06
2460 H 9.89008675094783 53.41305406468615 67.42550438380499 H 0.0 **** 0.06
2461 C 61.69589337209625 67.63116170583257 107.20917162229442 C 0.0 **** -0.24
2462 H 61.091808788680794 66.90706939266427 107.75663545909178 H 0.0 **** 0.06
2463 H 61.046843468374746 68.39700877939987 106.78287944820796 H 0.0 **** 0.06
2464 H 62.233241462942075 67.12245914999933 106.40771526868953 H 0.0 **** 0.06
2465 H 62.410582796311544 68.09567072531296 107.88809640381028 H 0.0 **** 0.06
2466 C 122.65009004377345 86.98522779743168 54.22698755593805 C 0.0 **** -0.24
2467 H 122.79039277096467 87.9795883957977 53.802442328828164 H 0.0 **** 0.06
2468 H 123.5580526656708 86.68113395498756 54.747759382 H 0.0 **** 0.06
2469 H 122.43375584275788 86.2763843705223 53.42839006434437 H 0.0 **** 0.06
2470 H 121.81740466489583 87.00637735812249 54.930259374366926 H 0.0 **** 0.06
2471 C 137.01664670547137 143.17108370112265 31.420088338819504 C 0.0 **** -0.24
2472 H 136.0179991177603 142.73455777712766 31.451403249808713 H 0.0 **** 0.06
2473 H 137.49347142734882 143.05571152591517 32.39363235045441 H 0.0 **** 0.06
2474 H 136.94208476867436 144.22981576630056 31.173318428633827 H 0.0 **** 0.06
2475 H 137.61146935612976 142.66193552603613 30.661547208907862 H 0.0 **** 0.06
2476 C 91.17270919012662 47.47083886937206 116.40653256695289 C 0.0 **** -0.24
2477 H 92.25701447798427 47.4498495260258 116.29885730947437 H 0.0 **** 0.06
2478 H 90.78511183721837 46.452648823939924 116.37682066771241 H 0.0 **** 0.06
2479 H 90.73856097931366 48.050002539322946 115.59186070665582 H 0.0 **** 0.06
2480 H 90.91178443666381 47.9322969637159 117.35908817914542 H 0.0 **** 0.06
2481 C 113.04390694592642 111.31435605893115 94.38174200390696 C 0.0 **** -0.24
2482 H 113.70336117901506 112.03551541762677 94.86426326315396 H 0.0 **** 0.06
2483 H 112.90026661608884 110.45637717366544 95.03985235669649 H 0.0 **** 0.06
2484 H 113.49073107611888 110.98256544436079 93.44448447707575 H 0.0 **** 0.06
2485 H 112.08087502102505 111.78290946088696 94.17928534269558 H 0.0 **** 0.06
2486 C 23.616398987744887 133.94745867129265 30.800305567221955 C 0.0 **** -0.24
2487 H 22.834811367572883 134.70040613248713 30.906867451765926 H 0.0 **** 0.06
2488 H 24.057039568215394 133.7418705841595 31.776421821753075 H 0.0 **** 0.06
2489 H 24.38650664010388 134.31674145952692 30.122770384408938 H 0.0 **** 0.06
2490 H 23.185058482978413 133.03185805874566 30.395566917920554 H 0.0 **** 0.06
2491 C 140.2190271175822 14.165757458115422 53.80398318036798 C 0.0 **** -0.24
2492 H 140.25819217655896 13.232863337622426 54.367003755452046 H 0.0 **** 0.06
2493 H 141.21892120311293 14.41749625014139 53.45002146675489 H 0.0 **** 0.06
2494 H 139.84993077278114 14.963727119070995 54.44882177865148 H 0.0 **** 0.06
2495 H 139.5500975792852 14.047486936377304 52.95176265332934 H 0.0 **** 0.06
2496 C 15.855261937903634 63.901338284184504 102.04552496143657 C 0.0 **** -0.24
2497 H 15.561148370363043 64.23098827828441 101.04953272229363 H 0.0 **** 0.06
2498 H 15.257846119328207 64.42480087262213 102.79273161519455 H 0.0 **** 0.06
2499 H 16.911054086975412 64.12087571777849 102.20363482582303 H 0.0 **** 0.06
2500 H 15.689589079102632 62.8273195421569 102.13582870725907 H 0.0 **** 0.06
2501 C 2.9123696704270685 24.972933780492895 107.32000794689432 C 0.0 **** -0.24
2502 H 1.945007665861226 24.82627108588443 107.8010623223573 H 0.0 **** 0.06
2503 H 3.1031516563089383 24.149548765328632 106.63119167173008 H 0.0 **** 0.06
2504 H 3.6946870394635027 25.00089247685301 108.07841306596302 H 0.0 **** 0.06
2505 H 2.906149057429417 25.91291479118982 106.76993302742179 H 0.0 **** 0.06
2506 C 138.92797289213505 62.92295617558767 5.263887618452003 C 0.0 **** -0.24
2507 H 139.79446662328715 62.87953816020109 4.603630098198067 H 0.0 **** 0.06
2508 H 138.01682742159974 62.82344977486457 4.673743652317938 H 0.0 **** 0.06
2509 H 138.91942245649628 63.87849149839923 5.7888329889915155 H 0.0 **** 0.06
2510 H 138.98375263216596 62.11061745806893 5.987832972546329 H 0.0 **** 0.06
2511 C 8.654956936233276 28.105037921294723 79.32148024398948 C 0.0 **** -0.24
2512 H 9.677549227812278 28.39796792978163 79.0837293316551 H 0.0 **** 0.06
2513 H 8.65264510000867 27.094743850209767 79.73079923221835 H 0.0 **** 0.06
2514 H 8.050163847203407 28.131847698037575 78.41550728140156 H 0.0 **** 0.06
2515 H 8.240816034067649 28.796007964860394 80.05576574477001 H 0.0 **** 0.06
2516 C 118.83963444917354 12.295121268679708 24.070053371950706 C 0.0 **** -0.24
2517 H 118.50434572209214 11.802997646667535 23.15734242257176 H 0.0 **** 0.06
2518 H 119.62450610978645 13.012440212579435 23.829158143667968 H 0.0 **** 0.06
2519 H 119.2284916887509 11.549405840278979 24.763719029414887 H 0.0 **** 0.06
2520 H 117.99987734254249 12.817224469409211 24.530865489419682 H 0.0 **** 0.06
2521 C 8.694874202939673 64.32269741596345 132.91899843014335 C 0.0 **** -0.24
2522 H 8.233673127100161 63.3755511073571 133.19850677466965 H 0.0 **** 0.06
2523 H 9.00167033722883 64.28263279520031 131.8734524144819 H 0.0 **** 0.06
2524 H 9.56755271220095 64.50133369432082 133.54760387260325 H 0.0 **** 0.06
2525 H 7.976205529861517 65.13049127716357 133.05691469974568 H 0.0 **** 0.06
2526 C 15.715155360347069 12.438190007931127 60.446255576359704 C 0.0 **** -0.24
2527 H 14.857307475069632 13.10922641341864 60.47629879641886 H 0.0 **** 0.06
2528 H 15.633985558106701 11.783818797334675 59.577942677910514 H 0.0 **** 0.06
2529 H 15.737734698582273 11.836174432406182 61.35439757385031 H 0.0 **** 0.06
2530 H 16.63131521264171 13.024354683483438 60.375873944178565 H 0.0 **** 0.06
2531 C 146.18880273583568 50.51226483664297 73.70596373383258 C 0.0 **** -0.24
2532 H 147.23914235740378 50.263067608682206 73.56025907523586 H 0.0 **** 0.06
2533 H 145.97908574489375 50.5931519056883 74.77285200073784 H 0.0 **** 0.06
2534 H 145.56621648092255 49.7297850266163 73.27138783794743 H 0.0 **** 0.06
2535 H 145.9707663601227 51.46305480558493 73.21935602140923 H 0.0 **** 0.06
2536 C 121.84418831049268 74.26583310116273 111.40623897865345 C 0.0 **** -0.24
2537 H 121.54073801299282 74.8905856550162 110.56631360180427 H 0.0 **** 0.06
2538 H 122.92225065795597 74.34966783296231 111.54928391984049 H 0.0 **** 0.06
2539 H 121.58404110044327 73.22786156380195 111.1991882743169 H 0.0 **** 0.06
2540 H 121.3305528423563 74.59691035516389 112.30896759268876 H 0.0 **** 0.06
2541 C 45.291662560912016 93.30781094054177 3.807210213051789 C 0.0 **** -0.24
2542 H 44.54076787749844 93.97325612778138 4.234748995146713 H 0.0 **** 0.06
2543 H 44.991680015935145 92.27238838396929 3.9653716787002224 H 0.0 **** 0.06
2544 H 46.25230221958813 93.48730740817871 4.2907936879401944 H 0.0 **** 0.06
2545 H 45.38109611524709 93.5016548944653 2.737717019205043 H 0.0 **** 0.06
2546 C 134.61977406828515 13.052041959304312 21.89060827622407 C 0.0 **** -0.24
2547 H 134.3382879640229 13.496991624474958 22.84501639255606 H 0.0 **** 0.06
2548 H 133.72944057466302 12.664043870970914 21.394975079147088 H 0.0 **** 0.06
2549 H 135.32350815420253 12.237646630855359 22.063046883222313 H 0.0 **** 0.06
2550 H 135.08623993483468 13.808832899674051 21.26036980515218 H 0.0 **** 0.06
2551 C 9.70386299705524 106.01063713260822 134.9645915668245 C 0.0 **** -0.24
2552 H 9.428895477641447 106.70104736739785 134.1667644676092 H 0.0 **** 0.06
2553 H 9.500139763647269 106.47319884538024 135.93118457875744 H 0.0 **** 0.06
2554 H 10.766072301341922 105.77594039126194 134.8904744630517 H 0.0 **** 0.06
2555 H 9.121326724559992 105.0945742033544 134.86956702090302 H 0.0 **** 0.06
2556 C 47.46831325983496 142.7925500681368 36.242759806302516 C 0.0 **** -0.24
2557 H 48.15633835003942 143.3441289692392 36.883726800582835 H 0.0 **** 0.06
2558 H 46.74900334830531 143.48455305417852 35.80290339516182 H 0.0 **** 0.06
2559 H 46.93946698876256 142.0464063551989 36.834553360642985 H 0.0 **** 0.06
2560 H 48.02824850577505 142.29793348036665 35.449831441664436 H 0.0 **** 0.06
2561 C 45.63527000729894 134.59408670845613 42.708939869643544 C 0.0 **** -0.24
2562 H 45.395781439089234 135.14988815220207 41.80214469938369 H 0.0 **** 0.06
2563 H 44.773126820170745 134.6015808901857 43.376878112709235 H 0.0 **** 0.06
2564 H 46.48503091866917 135.0593702073401 43.20602643565559 H 0.0 **** 0.06
2565 H 45.88491346080875 133.56521537111217 42.44872184637467 H 0.0 **** 0.06
2566 C 92.48406276328174 45.99180379306071 111.09144924286109 C 0.0 **** -0.24
2567 H 91.5123433454676 46.339191800838506 110.74038025942572 H 0.0 **** 0.06
2568 H 92.59436272148182 44.93077858316295 110.86526139296815 H 0.0 **** 0.06
2569 H 92.55628120356519 46.14415465746569 112.16881094278476 H 0.0 **** 0.06
2570 H 93.27349007544544 46.554395619328716 110.59183891078654 H 0.0 **** 0.06
2571 C 129.241842504581 131.48939783575983 94.98251139520734 C 0.0 **** -0.24
2572 H 129.00425257689048 132.26237771527573 95.7129561868488 H 0.0 **** 0.06
2573 H 128.94216065750285 131.82370190860067 93.98918211078454 H 0.0 **** 0.06
2574 H 128.70695405994908 130.5738785438463 95.2348033994478 H 0.0 **** 0.06
2575 H 130.31487121236458 131.29812887787668 94.9930972881538 H 0.0 **** 0.06
2576 C 74.498248233336 111.93237774170895 134.20857089012404 C 0.0 **** -0.24
2577 H 75.36702951715901 112.41273643965395 134.65875317438824 H 0.0 **** 0.06
2578 H 74.53159920385185 112.06089725242303 133.12649882841953 H 0.0 **** 0.06
2579 H 73.58883148677607 112.38721937587697 134.60134659697388 H 0.0 **** 0.06
2580 H 74.50578881601709 110.86948411394128 134.4499766862556 H 0.0 **** 0.06
2581 C 112.80631241274631 34.94402514882262 74.41630305997974 C 0.0 **** -0.24
2582 H 112.520265955664 35.95980528414839 74.14345214112508 H 0.0 **** 0.06
2583 H 111.95179654711512 34.278130162169106 74.28372817995348 H 0.0 **** 0.06
2584 H 113.12569210533206 34.92335483509902 75.458097579782 H 0.0 **** 0.06
2585 H 113.62608403995745 34.614287637224294 73.77828023419708 H 0.0 **** 0.06
2586 C 95.3973378202198 120.42982358626543 53.574380808216404 C 0.0 **** -0.24
2587 H 95.57510686927813 119.93681156823064 52.62011842520049 H 0.0 **** 0.06
2588 H 95.04181864678449 121.44607876454896 53.39866204217354 H 0.0 **** 0.06
2589 H 96.3261360187482 120.4638270238934 54.14432043352741 H 0.0 **** 0.06
2590 H 94.64647170285198 119.87465402188414 54.13657944878862 H 0.0 **** 0.06
2591 C 93.15428366518252 69.37783746379449 89.5537335041765 C 0.0 **** -0.24
2592 H 92.98041154651591 68.37627284550007 89.15976611635972 H 0.0 **** 0.06
2593 H 94.041678715237 69.37008694394018 90.18683890410946 H 0.0 **** 0.06
2594 H 92.29069258670569 69.69180650563356 90.14046887275481 H 0.0 **** 0.06
2595 H 93.30370298183816 70.07281398557842 88.72719493904228 H 0.0 **** 0.06
2596 C 89.88071662953402 141.4995516746983 53.45337986817893 C 0.0 **** -0.24
2597 H 90.40786670626358 140.55599023532557 53.596980413300116 H 0.0 **** 0.06
2598 H 90.29076539012158 142.01477962929062 52.584536000383906 H 0.0 **** 0.06
2599 H 90.00562830175807 142.12318381405686 54.338624193401955 H 0.0 **** 0.06
2600 H 88.82117627765385 141.30308706760138 53.293191416629924 H 0.0 **** 0.06
2601 C 13.079330097998024 68.63998299462617 74.43771885453546 C 0.0 **** -0.24
2602 H 12.246903921858461 67.95873033277161 74.61405080498264 H 0.0 **** 0.06
2603 H 13.371442429673039 69.10764259545658 75.378953912881 H 0.0 **** 0.06
2604 H 12.77497824396255 69.40978249717426 73.72914060952087 H 0.0 **** 0.06
2605 H 13.924237916843367 68.08423102026387 74.03168562230744 H 0.0 **** 0.06
2606 C 31.42587768839553 136.037064922857 149.13062001655013 C 0.0 **** -0.24
2607 H 31.76458275558707 135.43843222704137 148.2845258799754 H 0.0 **** 0.06
2608 H 30.335758962376076 136.02932586862093 149.1670729193498 H 0.0 **** 0.06
2609 H 31.777910532605688 137.06154870261182 149.01489922858624 H 0.0 **** 0.06
2610 H 31.82289626498232 135.61832508800964 150.05455866729355 H 0.0 **** 0.06
2611 C 13.80914756889468 25.802364448174174 45.93366691326571 C 0.0 **** -0.24
2612 H 13.646429026009912 25.726492530320193 47.00856951117669 H 0.0 **** 0.06
2613 H 12.975717755916016 25.336229108622895 45.406534921963896 H 0.0 **** 0.06
2614 H 14.736297746160126 25.29379450834483 45.66999545718784 H 0.0 **** 0.06
2615 H 13.877183814993735 26.852928254907162 45.64984078867167 H 0.0 **** 0.06
2616 C 30.16735025957476 72.63359820178576 11.081407586086563 C 0.0 **** -0.24
2617 H 30.615391334405274 71.75924349756171 11.553107190495894 H 0.0 **** 0.06
2618 H 30.95537886518119 73.28635638993828 10.70492760722771 H 0.0 **** 0.06
2619 H 29.56692813838714 73.17289184523496 11.813401501158708 H 0.0 **** 0.06
2620 H 29.533444457327192 72.31469866875665 10.25491563135568 H 0.0 **** 0.06
2621 C 112.20711111041552 119.97405758759396 26.61493724022941 C 0.0 **** -0.24
2622 H 111.97131409956668 118.95466906850532 26.921931268368184 H 0.0 **** 0.06
2623 H 111.50416852262154 120.66451215552058 27.079666887439473 H 0.0 **** 0.06
2624 H 112.13105626453032 120.05327574073192 25.53018351147726 H 0.0 **** 0.06
2625 H 113.22150813657973 120.22180573397657 26.92698210904888 H 0.0 **** 0.06
2626 C 93.59833920526076 7.517486024841617 4.463558397469711 C 0.0 **** -0.24
2627 H 94.25134511036069 6.755801211089249 4.888821835193028 H 0.0 **** 0.06
2628 H 93.21956632649481 8.158210732830725 5.2600051607262515 H 0.0 **** 0.06
2629 H 92.76223662978026 7.0364146702066535 3.955230405219453 H 0.0 **** 0.06
2630 H 94.1598047764015 8.11965913654285 3.749272433640783 H 0.0 **** 0.06
2631 C 119.74586648304806 27.52661582572619 97.35658265777717 C 0.0 **** -0.24
2632 H 118.88689585366227 27.55396542297273 96.68587933084927 H 0.0 **** 0.06
2633 H 119.44428877177442 27.107087855852285 98.31628711539298 H 0.0 **** 0.06
2634 H 120.12292362877413 28.53937915236027 97.50414584058636 H 0.0 **** 0.06
2635 H 120.52898162406554 26.907338345185153 96.91855231461058 H 0.0 **** 0.06
2636 C 106.64258440806361 104.54225344153826 0.19119929106557265 C 0.0 **** -0.24
2637 H 107.4956667568922 104.53711071308095 0.8699227653621335 H 0.0 **** 0.06
2638 H 105.771632069377 104.1283240428719 0.699491496381512 H 0.0 **** 0.06
2639 H 106.8734727686824 103.93806778015193 -0.6864474225392598 H 0.0 **** 0.06
2640 H 106.43113078099032 105.5662469911469 -0.11827137351781403 H 0.0 **** 0.06
2641 C 106.96827978568741 0.6197562353210948 135.9752419912092 C 0.0 **** -0.24
2642 H 107.86432109197823 0.01539317952489938 136.11016676188308 H 0.0 **** 0.06
2643 H 106.1849750086932 0.012417990812902957 135.52116778433862 H 0.0 **** 0.06
2644 H 107.19602888864593 1.4653818060997246 135.32524870438127 H 0.0 **** 0.06
2645 H 106.62891382819232 0.9877108839245317 136.94391976850076 H 0.0 **** 0.06
2646 C 42.2950522028556 111.71572169902475 120.64874449433482 C 0.0 **** -0.24
2647 H 43.04552663788712 112.48792183272508 120.47898122476197 H 0.0 **** 0.06
2648 H 42.04769217532575 111.67655035109522 121.70960410215874 H 0.0 **** 0.06
2649 H 42.689940113709724 110.75070973435544 120.33102774855085 H 0.0 **** 0.06
2650 H 41.39860791571098 111.94830197935113 120.07387621397787 H 0.0 **** 0.06
2651 C 94.44637051827912 51.28611353372028 27.29466103791424 C 0.0 **** -0.24
2652 H 94.18083123033605 51.99839811413433 26.51434187400406 H 0.0 **** 0.06
2653 H 94.4530133417347 50.27794420792287 26.879529742976672 H 0.0 **** 0.06
2654 H 93.71535427059095 51.34163640918864 28.10105171624815 H 0.0 **** 0.06
2655 H 95.43582566203045 51.52520908448136 27.68415341539827 H 0.0 **** 0.06
2656 C 49.81669875941762 119.69122901188403 68.70007835542613 C 0.0 **** -0.24
2657 H 49.27832874727707 120.12941411366994 67.85937623841566 H 0.0 **** 0.06
2658 H 49.11485254958612 119.47193150113371 69.5050727684014 H 0.0 **** 0.06
2659 H 50.5688325883404 120.39478281746985 69.05531234190485 H 0.0 **** 0.06
2660 H 50.30222674668161 118.76981861978318 68.37936364117229 H 0.0 **** 0.06
2661 C 135.34350723483158 63.14102415604849 20.632741321667908 C 0.0 **** -0.24
2662 H 136.4144860509047 62.943326481501956 20.585028660957875 H 0.0 **** 0.06
2663 H 134.82226104655956 62.2402965506936 20.95690281744598 H 0.0 **** 0.06
2664 H 134.98368568392505 63.43505209522634 19.646831335754484 H 0.0 **** 0.06
2665 H 135.1544171956501 63.94621238285454 21.343039413060495 H 0.0 **** 0.06
2666 C 63.510881035698816 51.830457657861785 111.03390571761396 C 0.0 **** -0.24
2667 H 64.15294242895202 52.68244175687573 111.25839794724952 H 0.0 **** 0.06
2668 H 62.5091223523673 52.18578455193567 110.78872234149351 H 0.0 **** 0.06
2669 H 63.46165249768825 51.17470831028915 111.90301952859632 H 0.0 **** 0.06
2670 H 63.91926900377905 51.28045135654105 110.18602316500325 H 0.0 **** 0.06
2671 C 95.75718833336259 109.58215411609257 52.51519556347597 C 0.0 **** -0.24
2672 H 95.70031006596531 108.71427383115753 51.85748651575706 H 0.0 **** 0.06
2673 H 95.50729433353558 110.48118063191669 51.951880559813205 H 0.0 **** 0.06
2674 H 96.76820817212388 109.6709532719616 52.91192475954344 H 0.0 **** 0.06
2675 H 95.05249170343258 109.46037459813743 53.338292715857506 H 0.0 **** 0.06
2676 C 77.74668204192903 91.23189365034912 7.747548589730414 C 0.0 **** -0.24
2677 H 77.07074906242593 90.5520711434723 8.26584718562058 H 0.0 **** 0.06
2678 H 77.5065985024483 91.24073342301546 6.683774985432162 H 0.0 **** 0.06
2679 H 78.77444490965496 90.89746676980893 7.885811390049341 H 0.0 **** 0.06
2680 H 77.63382902857353 92.23778354886235 8.154022763848964 H 0.0 **** 0.06
2681 C 60.214950726582344 70.06404103041078 4.108139876446927 C 0.0 **** -0.24
2682 H 60.59229066641177 71.08145123185145 4.207112126602624 H 0.0 **** 0.06
2683 H 59.1245686899436 70.08067351118217 4.097704218379533 H 0.0 **** 0.06
2684 H 60.56180703695162 69.46427463211418 4.949680995730006 H 0.0 **** 0.06
2685 H 60.58171802508815 69.63026877379545 3.177423544061952 H 0.0 **** 0.06
2686 C 23.526071055221337 31.038244170205473 146.0400755481088 C 0.0 **** -0.24
2687 H 24.07875537511819 30.906582739214315 145.1101348108232 H 0.0 **** 0.06
2688 H 22.612662976969943 30.44395187530577 146.00676109202664 H 0.0 **** 0.06
2689 H 23.270956179180928 32.090278542524715 146.16574394789347 H 0.0 **** 0.06
2690 H 24.141565325212582 30.711175485043952 146.87861379627316 H 0.0 **** 0.06
2691 C 69.0495957607817 37.611420490864305 10.809011913385838 C 0.0 **** -0.24
2692 H 68.733875597212 38.06434371303067 9.869751684523457 H 0.0 **** 0.06
2693 H 68.54022297965258 38.103510157579706 11.638548334232972 H 0.0 **** 0.06
2694 H 70.12692516105373 37.72660910257213 10.924901527832361 H 0.0 **** 0.06
2695 H 68.79547276570688 36.5510881020565 10.80440304516334 H 0.0 **** 0.06
2696 C 86.0406317806123 47.71699827945508 104.547543519434 C 0.0 **** -0.24
2697 H 87.0530633340667 47.353224135435994 104.37086521766743 H 0.0 **** 0.06
2698 H 86.06347444765542 48.50190773645306 105.30410143053665 H 0.0 **** 0.06
2699 H 85.41520909159024 46.89463366854764 104.89541188990846 H 0.0 **** 0.06
2700 H 85.63209307569312 48.11738429167883 103.62054751399405 H 0.0 **** 0.06
2701 C 6.523505154669568 36.86283192108705 139.64544384408885 C 0.0 **** -0.24
2702 H 7.477786455667882 36.38049043395435 139.43260730949112 H 0.0 **** 0.06
2703 H 5.866029303004332 36.76449604120974 138.78145712287792 H 0.0 **** 0.06
2704 H 6.6893942187035265 37.918643515914184 139.857689336822 H 0.0 **** 0.06
2705 H 6.061042401502441 36.386313603798015 140.5098465164873 H 0.0 **** 0.06
2706 C 143.20229535130795 88.38546156439206 106.24874474345616 C 0.0 **** -0.24
2707 H 143.65297510946093 87.47771058858201 106.64955940544938 H 0.0 **** 0.06
2708 H 142.76704226452347 88.96534895820449 107.06382873721701 H 0.0 **** 0.06
2709 H 142.42231267983695 88.11931867055304 105.53565817007673 H 0.0 **** 0.06
2710 H 143.9661338366227 88.97996208620332 105.74642370864014 H 0.0 **** 0.06
2711 C 123.64491336689822 4.591410434462716 146.0330033284209 C 0.0 **** -0.24
2712 H 122.7594547405604 4.0763416212213315 146.40597200627678 H 0.0 **** 0.06
2713 H 124.41233833079256 3.8581328007916795 145.78171985928907 H 0.0 **** 0.06
2714 H 124.02278891923869 5.265387165966558 146.80105467656668 H 0.0 **** 0.06
2715 H 123.38285324772518 5.163830696264938 145.14273817064074 H 0.0 **** 0.06
2716 C 39.35295343889486 73.83525307827585 60.68464210042572 C 0.0 **** -0.24
2717 H 39.602420344874716 73.86843995438923 59.62401710376085 H 0.0 **** 0.06
2718 H 40.205393216831624 74.18062112757748 61.269822268357984 H 0.0 **** 0.06
2719 H 39.108354666517656 72.81162486560264 60.968545625696464 H 0.0 **** 0.06
2720 H 38.49465185218331 74.4793266340237 60.87629838110743 H 0.0 **** 0.06
2721 C 119.23569871734891 7.7195814951084 105.4105093516001 C 0.0 **** -0.24
2722 H 119.37765323576222 6.848452292556118 104.77075524401138 H 0.0 **** 0.06
2723 H 120.00950326290673 7.735942482603804 106.17940167511622 H 0.0 **** 0.06
2724 H 118.25457920035605 7.667803960613725 105.88267994402068 H 0.0 **** 0.06
2725 H 119.30239663976216 8.626074359389634 104.80874397783955 H 0.0 **** 0.06
2726 C 57.746156309401414 76.31548833086708 102.38148384382457 C 0.0 **** -0.24
2727 H 57.01134369828819 76.5618637577156 101.61492851968906 H 0.0 **** 0.06
2728 H 57.23926343981162 76.1564436286952 103.33337348736082 H 0.0 **** 0.06
2729 H 58.45692873296852 77.13591717445756 102.48073886900998 H 0.0 **** 0.06
2730 H 58.27733613585124 75.40767478597054 102.09550300197618 H 0.0 **** 0.06
2731 C 145.5399172712164 147.0388496611766 79.88338905485324 C 0.0 **** -0.24
2732 H 145.1225423988579 146.58058443176495 78.98773252628683 H 0.0 **** 0.06
2733 H 144.87767885355294 147.83369776294765 80.22621007002937 H 0.0 **** 0.06
2734 H 146.52081525637078 147.4567641288773 79.65377159771916 H 0.0 **** 0.06
2735 H 145.63944501300742 146.28578955552538 80.66403246103698 H 0.0 **** 0.06
2736 C 23.850172585105724 29.592181685592948 63.178024754235 C 0.0 **** -0.24
2737 H 23.286602833445272 30.410917379686623 63.62641132226358 H 0.0 **** 0.06
2738 H 23.36444443702956 28.6449218918767 63.416217116340704 H 0.0 **** 0.06
2739 H 24.8658025529526 29.589990764615713 63.574326998588646 H 0.0 **** 0.06
2740 H 23.882071031200354 29.722219255169215 62.09633108264555 H 0.0 **** 0.06
2741 C 112.35469447644847 31.76286352343334 82.9163201982382 C 0.0 **** -0.24
2742 H 111.55431241453046 31.33654265854254 83.5223157537578 H 0.0 **** 0.06
2743 H 113.31766464522862 31.423973909791783 83.29795976204707 H 0.0 **** 0.06
2744 H 112.30628581340433 32.85057342990467 82.965230678734 H 0.0 **** 0.06
2745 H 112.23932255697396 31.4394667554795 81.88237711875226 H 0.0 **** 0.06
2746 C 22.948737212485753 18.68960757312948 70.55902177247836 C 0.0 **** -0.24
2747 H 23.81856448567686 18.74359481123099 71.21360818601332 H 0.0 **** 0.06
2748 H 22.3003156697348 17.875289534039666 70.88432957273346 H 0.0 **** 0.06
2749 H 23.27463669369132 18.507958917131305 69.53581225987378 H 0.0 **** 0.06
2750 H 22.40183974074148 19.63110897576081 70.60509487930142 H 0.0 **** 0.06
2751 C 5.039339547168993 96.24958537712928 124.1927019527365 C 0.0 **** -0.24
2752 H 5.502882237612653 95.40893736296698 123.6753890751527 H 0.0 **** 0.06
2753 H 5.67552699524316 96.56145247167149 125.02149261312847 H 0.0 **** 0.06
2754 H 4.064730976415092 95.9461389967446 124.57722630032184 H 0.0 **** 0.06
2755 H 4.913809839468229 97.07888762681893 123.49722691991731 H 0.0 **** 0.06
2756 C 55.353681199821 21.681383651435567 13.945581251623395 C 0.0 **** -0.24
2757 H 55.51744080876516 22.746348357594 14.107918616967908 H 0.0 **** 0.06
2758 H 55.99854928404649 21.33493060920364 13.137797284192033 H 0.0 **** 0.06
2759 H 54.31138489632498 21.510807650027232 13.676899820865287 H 0.0 **** 0.06
2760 H 55.58871511181404 21.13453817947311 14.858313713289817 H 0.0 **** 0.06
2761 C 113.26346362278842 14.343648062501245 117.04219065641068 C 0.0 **** -0.24
2762 H 112.3947201772644 13.948054142041514 117.56855912612262 H 0.0 **** 0.06
2763 H 114.16124789219224 13.827839473435773 117.38488212166486 H 0.0 **** 0.06
2764 H 113.35744576143735 15.409938748002418 117.24625680131304 H 0.0 **** 0.06
2765 H 113.14137173756701 14.187493015445824 115.9709429674278 H 0.0 **** 0.06
2766 C 108.73613433280981 46.629615283159495 1.6497521984510968 C 0.0 **** -0.24
2767 H 108.56984029047838 45.737767215590395 2.252870554848812 H 0.0 **** 0.06
2768 H 108.46492306568813 47.51350130411734 2.22767819723839 H 0.0 **** 0.06
2769 H 108.12205276501437 46.580734270475205 0.7507511176771118 H 0.0 **** 0.06
2770 H 109.78751951173912 46.68725703193735 1.3697877688881022 H 0.0 **** 0.06
2771 C 120.19421222740442 51.069839503614446 141.92324951492054 C 0.0 **** -0.24
2772 H 120.8626125253553 51.92955758923284 141.8799560316167 H 0.0 **** 0.06
2773 H 119.94182821893247 50.755561224741996 140.9096371509506 H 0.0 **** 0.06
2774 H 119.2838509853596 51.342787278221465 142.45621515736434 H 0.0 **** 0.06
2775 H 120.6891242093501 50.250420092706236 142.44425472887207 H 0.0 **** 0.06
2776 C 0.6515149265861737 25.102444794178155 68.61711162381732 C 0.0 **** -0.24
2777 H -0.38594714567386745 25.29877793694297 68.34586590121344 H 0.0 **** 0.06
2778 H 1.229415371558332 24.898206685039924 67.7154751263891 H 0.0 **** 0.06
2779 H 0.6956806569208425 24.239309125650394 69.28079051064469 H 0.0 **** 0.06
2780 H 1.0653275915370273 25.972910494151648 69.12453646162996 H 0.0 **** 0.06
2781 C 2.6629431218998043 126.87436305479898 41.82611018065714 C 0.0 **** -0.24
2782 H 2.7127060960080023 126.11369106573017 41.04605998413345 H 0.0 **** 0.06
2783 H 3.3035714022486147 126.58351401483785 42.65902299089126 H 0.0 **** 0.06
2784 H 1.6343958385216695 126.9697458595304 42.173805568432414 H 0.0 **** 0.06
2785 H 2.999841319863563 127.82925452304715 41.423346787270134 H 0.0 **** 0.06
2786 C 13.979583402366245 50.483460269819616 5.126563567425414 C 0.0 **** -0.24
2787 H 14.773133504613 49.75895942710726 5.305195004646279 H 0.0 **** 0.06
2788 H 13.011862493308598 50.015352348946706 5.311905867739885 H 0.0 **** 0.06
2789 H 14.025735754611276 50.82599838546632 4.093080590708059 H 0.0 **** 0.06
2790 H 14.106421420084942 51.33394029151347 5.79727242812271 H 0.0 **** 0.06
2791 C 110.81853176862323 125.2151428769494 119.40384779778387 C 0.0 **** -0.24
2792 H 111.32975151616988 125.41150512272151 118.46082512475246 H 0.0 **** 0.06
2793 H 110.70282941476835 124.1388478461757 119.5355576831831 H 0.0 **** 0.06
2794 H 109.83666531552886 125.68844497128478 119.39104605845696 H 0.0 **** 0.06
2795 H 111.4068756492258 125.62084292319611 120.22756891357463 H 0.0 **** 0.06
2796 C 117.76068339268426 141.03001528883547 51.0003778781562 C 0.0 **** -0.24
2797 H 117.01224357476167 140.63292381711526 51.68589642196518 H 0.0 **** 0.06
2798 H 117.35204476858303 141.89491332030664 50.4768175740234 H 0.0 **** 0.06
2799 H 118.03257764686202 140.26175777690293 50.276011657900256 H 0.0 **** 0.06
2800 H 118.6454038939882 141.3292510948532 51.56126646379249 H 0.0 **** 0.06
2801 C 29.64577985147323 111.70647323657845 31.099027137366022 C 0.0 **** -0.24
2802 H 29.417429979823986 111.8395788093935 32.15672215189272 H 0.0 **** 0.06
2803 H 29.949316788133743 110.67460124010738 30.920771659394887 H 0.0 **** 0.06
2804 H 30.45627005588637 112.37811836884647 30.814970892885512 H 0.0 **** 0.06
2805 H 28.760468368774177 111.9330510479265 30.505247260184376 H 0.0 **** 0.06
2806 C 61.41856505526613 110.90095549760342 88.69079437912943 C 0.0 **** -0.24
2807 H 61.49885682501639 110.4475178680995 89.67857422255234 H 0.0 **** 0.06
2808 H 61.130407163510625 111.94721153732884 88.7928424676809 H 0.0 **** 0.06
2809 H 60.66504319950738 110.37140253674657 88.10843372518701 H 0.0 **** 0.06
2810 H 62.381181148413674 110.83708393587095 88.18297434962136 H 0.0 **** 0.06
2811 C 122.26925263365506 86.50524892214759 133.08911699004403 C 0.0 **** -0.24
2812 H 122.64301862007675 86.51644195906448 132.06482102687102 H 0.0 **** 0.06
2813 H 122.03397638676906 85.47947266739936 133.37818057704436 H 0.0 **** 0.06
2814 H 121.36954638947675 87.11681951829922 133.15375867874644 H 0.0 **** 0.06
2815 H 123.03089501782317 86.90590647959812 133.75764063491374 H 0.0 **** 0.06
2816 C 141.48865581081435 67.55750603259403 112.69497073155753 C 0.0 **** -0.24
2817 H 141.33539917587552 68.62373564523055 112.86113719897668 H 0.0 **** 0.06
2818 H 142.3958256484646 67.40753962894178 112.10878093091884 H 0.0 **** 0.06
2819 H 140.63423154325267 67.14839739338196 112.15359852727892 H 0.0 **** 0.06
2820 H 141.5866713803598 67.05009729438993 113.65472059867648 H 0.0 **** 0.06
2821 C 95.98697247620856 93.57891857990832 108.71692639796707 C 0.0 **** -0.24
2822 H 96.40821873530572 93.03465129843835 107.87057111300298 H 0.0 **** 0.06
2823 H 96.77474418757336 93.79458966512942 109.43802150952585 H 0.0 **** 0.06
2824 H 95.2152803205282 92.972904910442 109.19074925778547 H 0.0 **** 0.06
2825 H 95.54923918700797 94.51347124194089 108.36464467878368 H 0.0 **** 0.06
2826 C 66.21224005958963 112.69076548158372 89.49338174663262 C 0.0 **** -0.24
2827 H 65.90280041156437 113.1755030203282 88.56799044088297 H 0.0 **** 0.06
2828 H 65.3311833137482 112.34076584514182 90.03246225558075 H 0.0 **** 0.06
2829 H 66.75760120841412 113.40282733913884 90.11250822792454 H 0.0 **** 0.06
2830 H 66.85771335352679 111.84283252339154 89.26183164275216 H 0.0 **** 0.06
2831 C 23.488110979804638 22.213016794232487 89.75710402003774 C 0.0 **** -0.24
2832 H 23.131846266423715 21.208397345120602 89.52772719986282 H 0.0 **** 0.06
2833 H 23.18252171422133 22.896852216795537 88.96503974896272 H 0.0 **** 0.06
2834 H 24.57541392458849 22.204990453314053 89.83178573990044 H 0.0 **** 0.06
2835 H 23.06036319206668 22.540956628593847 90.70558325168233 H 0.0 **** 0.06
2836 C 120.99728535228614 127.45961375010381 85.08801896208999 C 0.0 **** -0.24
2837 H 120.3461558022994 126.59110412166024 84.98787493765046 H 0.0 **** 0.06
2838 H 121.60634590359813 127.35449035644302 85.98650315433413 H 0.0 **** 0.06
2839 H 120.3914474711478 128.3618275220452 85.16263263422613 H 0.0 **** 0.06
2840 H 121.64709504181367 127.52871812732405 84.21492018128278 H 0.0 **** 0.06
2841 C 77.54083918882773 48.08940663123806 2.9789495266935013 C 0.0 **** -0.24
2842 H 77.97051626637929 49.09123537717585 2.9683068158650414 H 0.0 **** 0.06
2843 H 76.76781342080369 48.03315072291568 3.7445701081450693 H 0.0 **** 0.06
2844 H 78.32315955255581 47.36165427626011 3.196409574921855 H 0.0 **** 0.06
2845 H 77.10391253815206 47.872227691168604 2.0034445541763226 H 0.0 **** 0.06
2846 C 15.043474616113798 42.560379447930075 87.30753798888162 C 0.0 **** -0.24
2847 H 15.204114728996387 43.52816694519966 86.83198082601135 H 0.0 **** 0.06
2848 H 14.011361222391571 42.49477578385586 87.65441786835662 H 0.0 **** 0.06
2849 H 15.719545065934796 42.45472735795049 88.15504657760948 H 0.0 **** 0.06
2850 H 15.235834439236868 41.765601480392874 86.58741637884727 H 0.0 **** 0.06
2851 C 129.7937676481873 126.05174912265934 69.05014143261072 C 0.0 **** -0.24
2852 H 129.6486590050176 125.26106992419439 68.31328974472432 H 0.0 **** 0.06
2853 H 128.87383745692838 126.62824619376156 69.14990651243914 H 0.0 **** 0.06
2854 H 130.6013391918091 126.70691690746095 68.72471274493495 H 0.0 **** 0.06
2855 H 130.05102563928884 125.60753093602048 70.01194444243954 H 0.0 **** 0.06
2856 C 108.9551105008263 11.612225490777234 138.80449489692657 C 0.0 **** -0.24
2857 H 108.61121174749323 11.041423209809523 139.66642694015874 H 0.0 **** 0.06
2858 H 109.35801228145252 10.93067278322576 138.05500669619263 H 0.0 **** 0.06
2859 H 109.73264342936264 12.309790476925343 139.11717708209383 H 0.0 **** 0.06
2860 H 108.11921814501042 12.167470024673662 138.3799846750059 H 0.0 **** 0.06
2861 C 124.15802058828928 95.12345177583148 13.003645157974262 C 0.0 **** -0.24
2862 H 124.1678842011072 95.20000378700138 11.91581703402403 H 0.0 **** 0.06
2863 H 124.03608406303425 94.07883857586592 13.29223531084304 H 0.0 **** 0.06
2864 H 123.32952626032238 95.70981348282396 13.40122607776729 H 0.0 **** 0.06
2865 H 125.0975877127301 95.50440952021734 13.403192751212003 H 0.0 **** 0.06
2866 C 117.40283459387904 19.273165439102726 123.92850626840543 C 0.0 **** -0.24
2867 H 117.28177247112028 19.32664594689033 122.84702198945466 H 0.0 **** 0.06
2868 H 116.62468152445125 18.637195198722296 124.35140597756713 H 0.0 **** 0.06
2869 H 117.32441943285032 20.274311743127896 124.3525423865968 H 0.0 **** 0.06
2870 H 118.381989244291 18.85482869124705 124.16381257271861 H 0.0 **** 0.06
2871 C 9.72843922995105 54.72598407728796 95.38224325982503 C 0.0 **** -0.24
2872 H 9.982648310254035 54.23114819677315 96.31894739374866 H 0.0 **** 0.06
2873 H 8.793567799740913 54.31643455520489 94.99716385095422 H 0.0 **** 0.06
2874 H 10.52427354852989 54.55904519873056 94.65573196178042 H 0.0 **** 0.06
2875 H 9.612670106512724 55.795399719454906 95.55489357862677 H 0.0 **** 0.06
2876 C 136.5337840246504 75.76862084374324 103.70520867991404 C 0.0 **** -0.24
2877 H 135.6725009342306 75.5323703655376 104.33009237581093 H 0.0 **** 0.06
2878 H 136.23590784443851 76.47202328779434 102.92792800290799 H 0.0 **** 0.06
2879 H 136.90957116011757 74.85550419036086 103.24507887308276 H 0.0 **** 0.06
2880 H 137.31608343363487 76.21515645792698 104.31986232490438 H 0.0 **** 0.06
2881 C 120.9413174760749 1.9471640125033574 14.244984362197783 C 0.0 **** -0.24
2882 H 122.0198039060147 1.8610309488127221 14.114452447600002 H 0.0 **** 0.06
2883 H 120.72686131774294 2.3894294420326254 15.218507024931 H 0.0 **** 0.06
2884 H 120.48897909793037 0.956653342733162 14.187537673361874 H 0.0 **** 0.06
2885 H 120.52962558261136 2.5815423164349305 13.459440302898088 H 0.0 **** 0.06
2886 C 46.269567572451336 14.98591498735452 117.63240967058786 C 0.0 **** -0.24
2887 H 46.623039673193674 14.877919527630972 118.65774665506879 H 0.0 **** 0.06
2888 H 45.20684046935624 14.750418611695487 117.58777785609291 H 0.0 **** 0.06
2889 H 46.82053746874233 14.303307506927048 116.98496646324392 H 0.0 **** 0.06
2890 H 46.42980116353618 16.011986554500666 117.29869739413394 H 0.0 **** 0.06
2891 C 65.02500553027727 100.27516202171724 21.300228705905894 C 0.0 **** -0.24
2892 H 65.70009954443401 99.43761658335247 21.122177519607895 H 0.0 **** 0.06
2893 H 64.7169479019459 100.70102519579947 20.34537869965493 H 0.0 **** 0.06
2894 H 65.53842127371331 101.03528874337961 21.8892373077464 H 0.0 **** 0.06
2895 H 64.14729234990125 99.92490662909269 21.84365324197053 H 0.0 **** 0.06
2896 C 135.38437451766546 65.35648318958488 116.13561825610404 C 0.0 **** -0.24
2897 H 135.660318558272 66.24076128982313 116.70978861341544 H 0.0 **** 0.06
2898 H 134.88730640074067 64.63920537673931 116.79004347986543 H 0.0 **** 0.06
2899 H 136.28070864826017 64.90317842026059 115.71332882438318 H 0.0 **** 0.06
2900 H 134.70825502021043 65.64334129451572 115.33067831481893 H 0.0 **** 0.06
2901 C 22.56418005423953 26.709943044240013 128.2630884346991 C 0.0 **** -0.24
2902 H 21.751473272917963 26.040040788690064 128.54313686648106 H 0.0 **** 0.06
2903 H 22.629851086598308 27.524308249680026 128.9853308796247 H 0.0 **** 0.06
2904 H 22.373689229260435 27.117861557296727 127.27017744542866 H 0.0 **** 0.06
2905 H 23.504052003586224 26.156887700836258 128.2539214297269 H 0.0 **** 0.06
2906 C 143.17908143846884 102.47663389282224 121.18511954763561 C 0.0 **** -0.24
2907 H 144.2232781567522 102.33146297885156 120.90717688474446 H 0.0 **** 0.06
2908 H 142.9289046573285 103.53532313254163 121.11698619471623 H 0.0 **** 0.06
2909 H 143.02392317319982 102.13014833406663 122.20657249890608 H 0.0 **** 0.06
2910 H 142.54166873089474 101.90817691454987 120.50837427585257 H 0.0 **** 0.06
2911 C 118.01169330458337 3.6862323124335603 5.097877518670941 C 0.0 **** -0.24
2912 H 118.72096833082249 4.460860259063622 5.387252568698784 H 0.0 **** 0.06
2913 H 118.17400626384834 2.797963775000767 5.709127896965924 H 0.0 **** 0.06
2914 H 118.15671400558499 3.4349710157428603 4.047189058176741 H 0.0 **** 0.06
2915 H 116.99543338407064 4.049811191321453 5.247582662992954 H 0.0 **** 0.06
2916 C 60.05808974519245 114.05546016922766 94.78344348644757 C 0.0 **** -0.24
2917 H 60.566185784561185 113.65591464475601 95.66191905476754 H 0.0 **** 0.06
2918 H 59.76146669994375 115.08727852365568 94.97382774173408 H 0.0 **** 0.06
2919 H 59.174231356292836 113.45523680833459 94.57042775171769 H 0.0 **** 0.06
2920 H 60.734294832099124 114.02277339061864 93.92901516972896 H 0.0 **** 0.06
2921 C 105.79167503440227 106.8830468719205 29.74262881883334 C 0.0 **** -0.24
2922 H 106.52845437187834 107.64173910533259 29.475863299851 H 0.0 **** 0.06
2923 H 105.76261173381862 106.7716171824498 30.825989880407064 H 0.0 **** 0.06
2924 H 106.06777823697367 105.93320373887792 29.285129622565734 H 0.0 **** 0.06
2925 H 104.80925551905936 107.18809122610332 29.38153971732794 H 0.0 **** 0.06
2926 C 41.27680558670767 19.34979580754908 144.5619799835866 C 0.0 **** -0.24
2927 H 41.693618194201804 18.62830442977443 143.85913581028316 H 0.0 **** 0.06
2928 H 40.925348452169544 20.22543954117743 144.01682826646353 H 0.0 **** 0.06
2929 H 42.04562905413843 19.648826043093877 145.27424037672935 H 0.0 **** 0.06
2930 H 40.44262854180306 18.895188231389355 145.0959922287586 H 0.0 **** 0.06
2931 C 73.7917061906892 23.649023392826138 88.29718620109554 C 0.0 **** -0.24
2932 H 74.42546506935722 22.891145242786536 88.75739361821684 H 0.0 **** 0.06
2933 H 74.12750534122777 24.639130391681846 88.6043156841323 H 0.0 **** 0.06
2934 H 72.75927503333666 23.500375541682303 88.61546006039202 H 0.0 **** 0.06
2935 H 73.85310335715127 23.56393921614685 87.21282532546957 H 0.0 **** 0.06
2936 C 144.1552018995174 28.007428007836637 104.3664305388444 C 0.0 **** -0.24
2937 H 143.79909858368003 27.623382167321225 103.41003536053161 H 0.0 **** 0.06
2938 H 145.2169135745989 27.782876292666387 104.47513831246609 H 0.0 **** 0.06
2939 H 143.5985672615052 27.536713736262328 105.17633819468121 H 0.0 **** 0.06
2940 H 144.00606558463969 29.08653765961094 104.40177453155691 H 0.0 **** 0.06
2941 C 137.0918133821046 126.44951868301203 2.5234995473426522 C 0.0 **** -0.24
2942 H 136.81910964899723 127.35561269749621 3.064580683608284 H 0.0 **** 0.06
2943 H 138.1764770072284 126.39075269836758 2.437094467086524 H 0.0 **** 0.06
2944 H 136.64740548078817 126.47217326660459 1.528374491140653 H 0.0 **** 0.06
2945 H 136.72281245083454 125.57844010828845 3.0668981033118143 H 0.0 **** 0.06
2946 C 100.21428778473319 50.39244194524615 148.59207613814587 C 0.0 **** -0.24
2947 H 99.37516510726056 51.0847562215223 148.53347141777417 H 0.0 **** 0.06
2948 H 100.9477035330226 50.644583808391275 147.8256210938682 H 0.0 **** 0.06
2949 H 99.85625864727672 49.37508940815029 148.4321934951968 H 0.0 **** 0.06
2950 H 100.67705754124836 50.46418803953142 149.57615648040004 H 0.0 **** 0.06
2951 C 119.10004582568472 9.089785072959756 44.46641913808395 C 0.0 **** -0.24
2952 H 119.07519084353505 8.76412974141806 45.5067197425162 H 0.0 **** 0.06
2953 H 119.54872074052581 8.3083766244674 43.85241248440889 H 0.0 **** 0.06
2954 H 119.69224189308075 10.001400095786295 44.385379894248615 H 0.0 **** 0.06
2955 H 118.08376846686379 9.284128901829803 44.12247245821965 H 0.0 **** 0.06
2956 C 24.337910893750035 43.01859545925137 35.96878161979612 C 0.0 **** -0.24
2957 H 24.08059539614328 41.99151159434339 36.229021854448604 H 0.0 **** 0.06
2958 H 25.414513757630147 43.09565655705157 35.818341174365656 H 0.0 **** 0.06
2959 H 24.034591188577252 43.684109963975345 36.77664241472459 H 0.0 **** 0.06
2960 H 23.82014059321253 43.3011069972693 35.051995035458106 H 0.0 **** 0.06
2961 C 55.482737212836454 1.5870229413172865 5.859208482905245 C 0.0 **** -0.24
2962 H 55.76513084965303 1.09933564545139 4.925811758522087 H 0.0 **** 0.06
2963 H 54.42247369043295 1.8373519301660508 5.831529514001431 H 0.0 **** 0.06
2964 H 56.06898813880207 2.49838842637962 5.98407782585241 H 0.0 **** 0.06
2965 H 55.675794727478205 0.9133870333447476 6.6937436357734725 H 0.0 **** 0.06
2966 C 31.820978875060803 84.56259302647356 20.844270899054663 C 0.0 **** -0.24
2967 H 32.61705273271633 84.36187304258061 21.560577641215673 H 0.0 **** 0.06
2968 H 31.356487950816756 85.52152612899545 21.07552183359951 H 0.0 **** 0.06
2969 H 31.073065603383213 83.77223831782507 20.90192182296937 H 0.0 **** 0.06
2970 H 32.23856014550421 84.59508192613492 19.837241659067672 H 0.0 **** 0.06
2971 C 123.56347322538775 76.51139381922793 75.31148748083172 C 0.0 **** -0.24
2972 H 124.6440874098553 76.40375360785964 75.40518407923079 H 0.0 **** 0.06
2973 H 123.07000745677757 75.77201011146298 75.94326338793564 H 0.0 **** 0.06
2974 H 123.27096013012667 76.35558658985133 74.27304167869062 H 0.0 **** 0.06
2975 H 123.26908065144411 77.51243254021323 75.62611259381424 H 0.0 **** 0.06
2976 C 53.0003264780257 101.19392940248156 146.10445384459967 C 0.0 **** -0.24
2977 H 53.82492575768876 100.72724263653741 145.56639349140832 H 0.0 **** 0.06
2978 H 52.054183520226644 100.8793040977366 145.6636467226416 H 0.0 **** 0.06
2979 H 53.089742874725886 102.27850367223056 146.0368308221496 H 0.0 **** 0.06
2980 H 53.033424859822986 100.8916663141222 147.1511868604402 H 0.0 **** 0.06
2981 C 5.055951358845164 44.57766634627521 75.09879834899087 C 0.0 **** -0.24
2982 H 4.35183698866631 45.36840547541476 74.83797062290009 H 0.0 **** 0.06
2983 H 4.6300878888288395 43.95813955605696 75.88871440959005 H 0.0 **** 0.06
2984 H 5.987645862670938 45.023047398973006 75.44806409913255 H 0.0 **** 0.06
2985 H 5.252858437854538 43.962793649681046 74.22006307237709 H 0.0 **** 0.06
2986 C 98.50110592542217 146.2261928504336 74.3607706564589 C 0.0 **** -0.24
2987 H 98.26101748037308 146.2991368874348 75.42084666282693 H 0.0 **** 0.06
2988 H 97.6000883155387 146.3974414781642 73.77109219635395 H 0.0 **** 0.06
2989 H 98.89305100989515 145.23130526475495 74.14547019760602 H 0.0 **** 0.06
2990 H 99.25131086372778 146.9741376644506 74.10508418596686 H 0.0 **** 0.06
2991 C 136.25323870425865 51.927016362313125 102.22494647370519 C 0.0 **** -0.24
2992 H 136.80635958762235 52.82620584514436 102.49832731978235 H 0.0 **** 0.06
2993 H 136.77768907656133 51.40898151068288 101.42222225507456 H 0.0 **** 0.06
2994 H 135.25471682077654 52.20417327782248 101.88773651435079 H 0.0 **** 0.06
2995 H 136.17606684772727 51.271029904645715 103.09176291266253 H 0.0 **** 0.06
2996 C 16.411782617141654 19.718676639031344 126.77644779942662 C 0.0 **** -0.24
2997 H 17.165634424078434 18.985321394922124 126.48918129961459 H 0.0 **** 0.06
2998 H 16.897078483937747 20.566274531106302 127.26172634550382 H 0.0 **** 0.06
2999 H 15.704332601564062 19.260016820277258 127.4667217317392 H 0.0 **** 0.06
3000 H 15.882947443328987 20.06236805139892 125.88703052773494 H 0.0 **** 0.06
3001 C 112.83631604266112 93.31183669572874 121.72170226576553 C 0.0 **** -0.24
3002 H 112.6348063830987 93.71469252826927 122.71356287449954 H 0.0 **** 0.06
3003 H 113.47227907114909 94.00484888381749 121.17011487580503 H 0.0 **** 0.06
3004 H 111.89666562071848 93.17611778183235 121.18660794744908 H 0.0 **** 0.06
3005 H 113.34201275086524 92.35052126270688 121.815898784743 H 0.0 **** 0.06
3006 C 95.87943893150089 93.37452362585454 136.95496484094957 C 0.0 **** -0.24
3007 H 96.47116905939826 92.50285545621878 137.23675126230975 H 0.0 **** 0.06
3008 H 95.05647840690294 93.06172258053962 136.31271726722343 H 0.0 **** 0.06
3009 H 96.51030892680824 94.08303596996582 136.41864518486975 H 0.0 **** 0.06
3010 H 95.48186569764954 93.84869769260044 137.8524886427105 H 0.0 **** 0.06
3011 C 130.1569383278335 143.75613542347543 123.50550155173356 C 0.0 **** -0.24
3012 H 130.87167938486314 144.35722043471446 122.94275245887691 H 0.0 **** 0.06
3013 H 129.17868587890834 143.81351400951354 123.0275775526275 H 0.0 **** 0.06
3014 H 130.08716825796145 144.13579327107024 124.5250119984871 H 0.0 **** 0.06
3015 H 130.49199152561283 142.71893269161438 123.52653356650912 H 0.0 **** 0.06
3016 C 150.02634643262022 138.312000403948 3.993846927328292 C 0.0 **** -0.24
3017 H 149.13530255935493 138.06306879685278 3.4171968017130894 H 0.0 **** 0.06
3018 H 150.91154255905738 137.952930497322 3.4693794983290616 H 0.0 **** 0.06
3019 H 149.9669362627556 137.8404252836223 4.97467301541792 H 0.0 **** 0.06
3020 H 150.08850751295557 139.39361016080932 4.114664253726005 H 0.0 **** 0.06
3021 C 96.57479700505043 22.692701891367122 14.151362712760772 C 0.0 **** -0.24
3022 H 96.35631979251468 23.553726218444737 14.783579704597571 H 0.0 **** 0.06
3023 H 97.30405136495045 22.9763980629954 13.391388957540329 H 0.0 **** 0.06
3024 H 95.65829096770513 22.3542474970275 13.668312216708415 H 0.0 **** 0.06
3025 H 96.98188077983568 21.887544812861307 14.763136665121891 H 0.0 **** 0.06
3026 C 101.0239589560916 60.94513998234328 111.68468340293238 C 0.0 **** -0.24
3027 H 101.4199159399773 60.323540007069994 110.8815619775498 H 0.0 **** 0.06
3028 H 101.09975648407891 61.995278657576876 111.40149441253565 H 0.0 **** 0.06
3029 H 101.59657033283156 60.77032988590079 112.5948856230328 H 0.0 **** 0.06
3030 H 99.97818210218969 60.68998451459892 111.8577959832751 H 0.0 **** 0.06
3031 C 28.84187186580911 89.57887456086456 74.31383307920913 C 0.0 **** -0.24
3032 H 28.163867689843812 89.8234083756978 75.13165154451339 H 0.0 **** 0.06
3033 H 29.655968271519697 90.30242351791983 74.28860632571326 H 0.0 **** 0.06
3034 H 28.297119043521974 89.61109236610685 73.36937348697289 H 0.0 **** 0.06
3035 H 29.24762678792976 88.57915529409058 74.46523246515729 H 0.0 **** 0.06
3036 C 19.140978239633625 10.680454816272231 115.66096938792242 C 0.0 **** -0.24
3037 H 19.778234096173975 10.974005506483678 114.82664663337567 H 0.0 **** 0.06
3038 H 19.040333651186387 9.594478944238148 115.67578876931435 H 0.0 **** 0.06
3039 H 18.157523281890917 11.135703143581637 115.5444155924929 H 0.0 **** 0.06
3040 H 19.58923223684633 11.017468184956499 116.59529898944186 H 0.0 **** 0.06
3041 C 40.00265398165095 141.6111372669256 18.810866137043234 C 0.0 **** -0.24
3042 H 40.01718119586417 142.69851475667951 18.881212553273627 H 0.0 **** 0.06
3043 H 41.02338273951929 141.23054836508015 18.84478318885087 H 0.0 **** 0.06
3044 H 39.533883717534636 141.3136488368634 17.872575895919766 H 0.0 **** 0.06
3045 H 39.4341742053374 141.20170497502139 19.64630940284539 H 0.0 **** 0.06
3046 C 108.48383797695932 59.839219514523435 125.74873634123665 C 0.0 **** -0.24
3047 H 108.4875074727427 59.82794870893291 126.8385642995679 H 0.0 **** 0.06
3048 H 109.50350323427962 59.960086767610804 125.38340999072005 H 0.0 **** 0.06
3049 H 107.86988390033476 60.668436642670244 125.39642419207561 H 0.0 **** 0.06
3050 H 108.07229600159958 58.90004395723089 125.37699178643558 H 0.0 **** 0.06
3051 C 25.20994935758074 46.09182730346646 120.00684143237737 C 0.0 **** -0.24
3052 H 25.9778113156232 45.951765137659606 119.2456311410761 H 0.0 **** 0.06
3053 H 24.734563672752586 47.062433174384964 119.86863092791532 H 0.0 **** 0.06
3054 H 25.667204952347248 46.04750225156694 120.99593856641707 H 0.0 **** 0.06
3055 H 24.462499379949776 45.303569294128664 119.91636862123266 H 0.0 **** 0.06
3056 C 126.70130423557379 44.291084885527894 108.81081784790094 C 0.0 **** -0.24
3057 H 127.05020925556808 44.30061575164086 109.84353414078056 H 0.0 **** 0.06
3058 H 126.77324149467795 43.27883554607237 108.4122280700655 H 0.0 **** 0.06
3059 H 127.31889605545754 44.96141492146728 108.21336704972644 H 0.0 **** 0.06
3060 H 125.66413113173431 44.62346397197784 108.77478234740936 H 0.0 **** 0.06
3061 C 141.41501154120945 54.33013085894058 32.13781269657369 C 0.0 **** -0.24
3062 H 141.50258069135427 54.08404490487959 31.07992858045168 H 0.0 **** 0.06
3063 H 141.61830852833614 53.44136391869645 32.735134336877934 H 0.0 **** 0.06
3064 H 140.40488675560002 54.68481306290046 32.345651530744135 H 0.0 **** 0.06
3065 H 142.13310943234094 55.10980549483301 32.3898986502968 H 0.0 **** 0.06
3066 C 149.47420115508243 7.22030178720226 125.13352610654569 C 0.0 **** -0.24
3067 H 149.2547105265038 8.285904374524222 125.20572377028752 H 0.0 **** 0.06
3068 H 148.56249661299552 6.678615411265753 124.88165276427169 H 0.0 **** 0.06
3069 H 149.85769714220328 6.863516636302563 126.08900694810784 H 0.0 **** 0.06
3070 H 150.22132020299443 7.055321457565896 124.35752605261219 H 0.0 **** 0.06
3071 C 129.105996985604 137.9173416982206 17.65954642051142 C 0.0 **** -0.24
3072 H 128.96376432280132 137.55770618609458 16.64046219844235 H 0.0 **** 0.06
3073 H 129.41760087118422 137.08901783300215 18.29626307306296 H 0.0 **** 0.06
3074 H 128.16968927019977 138.33133814044555 18.032361727746633 H 0.0 **** 0.06
3075 H 129.8738631722381 138.69050725321068 17.667227844215745 H 0.0 **** 0.06
3076 C 122.82014563426691 27.43315332188638 115.95626415920653 C 0.0 **** -0.24
3077 H 123.56390937648729 27.668376566136118 115.19443016534252 H 0.0 **** 0.06
3078 H 122.54024895642317 26.38226564000456 115.87918346461625 H 0.0 **** 0.06
3079 H 121.93817495150961 28.056027704311518 115.80785023225305 H 0.0 **** 0.06
3080 H 123.23914624455142 27.626336770731456 116.94379447630278 H 0.0 **** 0.06
3081 C 101.01340672390623 99.61778055635335 49.34515066987748 C 0.0 **** -0.24
3082 H 101.4846399337845 100.11373299013763 48.49667855903647 H 0.0 **** 0.06
3083 H 100.6934443134742 100.36612135797213 50.07009727356413 H 0.0 **** 0.06
3084 H 101.72776605754225 98.93996492007284 49.81226327227063 H 0.0 **** 0.06
3085 H 100.14840783961554 99.05256834463438 48.99956343982201 H 0.0 **** 0.06
3086 C 8.056103627870755 107.2710769440924 12.235297593573648 C 0.0 **** -0.24
3087 H 8.89673739701874 106.77708610087488 11.746761573728435 H 0.0 **** 0.06
3088 H 7.800439556307765 106.73447536844229 13.14857908855896 H 0.0 **** 0.06
3089 H 7.197951164380612 107.27620322587053 11.56306507179363 H 0.0 **** 0.06
3090 H 8.33100601291008 108.29680174844519 12.480339986723521 H 0.0 **** 0.06
3091 C 77.84173915659107 85.35220036318091 89.23823804200144 C 0.0 **** -0.24
3092 H 78.3658374877192 84.93317941756189 88.3792491766741 H 0.0 **** 0.06
3093 H 78.43581557141616 86.16136653717845 89.66572825813097 H 0.0 **** 0.06
3094 H 77.69283116375075 84.57480819798948 89.98775610162669 H 0.0 **** 0.06
3095 H 76.87438088119 85.74081440415756 88.9195193758032 H 0.0 **** 0.06
3096 C 67.54718874506224 69.94009431307876 85.20993624466276 C 0.0 **** -0.24
3097 H 67.75155705827012 70.23488113703917 86.23945206373753 H 0.0 **** 0.06
3098 H 67.79731516891366 70.76322259791382 84.54037512426719 H 0.0 **** 0.06
3099 H 66.48957402183366 69.69453825607667 85.10552904193518 H 0.0 **** 0.06
3100 H 68.14940929815701 69.06853544425246 84.95627313464948 H 0.0 **** 0.06
3101 C 117.72075687435192 92.10540056659585 57.22123531162627 C 0.0 **** -0.24
3102 H 117.94167461160343 93.02443772126679 56.678763624797455 H 0.0 **** 0.06
3103 H 116.78940740896881 92.22697350413908 57.775087014397 H 0.0 **** 0.06
3104 H 118.5314074884795 91.88914675954197 57.91620675897603 H 0.0 **** 0.06
3105 H 117.61848747069548 91.28222301111204 56.51424651539331 H 0.0 **** 0.06
3106 C 47.215822407981406 106.17368158307605 20.308020732022754 C 0.0 **** -0.24
3107 H 46.70454818714465 105.5725548867571 19.55635336065228 H 0.0 **** 0.06
3108 H 47.203501401439624 105.64716158034318 21.263452802301003 H 0.0 **** 0.06
3109 H 46.707164647921516 107.13174710655161 20.41344941024707 H 0.0 **** 0.06
3110 H 48.247463994026404 106.34167092656102 19.999131277136627 H 0.0 **** 0.06
3111 C 103.86903640982551 44.63943840466749 112.97505186889533 C 0.0 **** -0.24
3112 H 104.70356084010878 44.954688531479064 113.59992365553582 H 0.0 **** 0.06
3113 H 103.05553269446479 44.28341238520136 113.60872507709739 H 0.0 **** 0.06
3114 H 104.19260475167086 43.836298980337745 112.31304501655636 H 0.0 **** 0.06
3115 H 103.52208034967252 45.483640776365405 112.37907507670185 H 0.0 **** 0.06
3116 C 52.77077359442889 109.39413752038945 92.04586980836514 C 0.0 **** -0.24
3117 H 52.561926156519945 108.89636991993177 92.99350618111617 H 0.0 **** 0.06
3118 H 53.37582073498035 110.28189970604325 92.22724981422684 H 0.0 **** 0.06
3119 H 51.83146178448173 109.68353930048107 91.5736702201554 H 0.0 **** 0.06
3120 H 53.312095472264446 108.71190609241506 91.38992361386015 H 0.0 **** 0.06
3121 C 115.61424293926335 45.777413734107 43.706414846842065 C 0.0 **** -0.24
3122 H 114.76409224905687 45.79549771032421 43.02445718015126 H 0.0 **** 0.06
3123 H 115.2804389401975 46.04130692030034 44.710231454847346 H 0.0 **** 0.06
3124 H 116.36279651843621 46.496050015623126 43.371471644220975 H 0.0 **** 0.06
3125 H 116.0501660686488 44.77875945523536 43.718124558129034 H 0.0 **** 0.06
3126 C 39.9675364918391 136.9269784327976 24.62660276695439 C 0.0 **** -0.24
3127 H 40.87031646847586 137.48284869996778 24.373442653144906 H 0.0 **** 0.06
3128 H 40.023633121996255 136.59576257281307 25.663789695312232 H 0.0 **** 0.06
3129 H 39.879805391450844 136.0593658898746 23.972232662911807 H 0.0 **** 0.06
3130 H 39.09725152512104 137.569427194202 24.49695282664959 H 0.0 **** 0.06
3131 C 149.25920267170676 43.29003994008967 77.95816893278149 C 0.0 **** -0.24
3132 H 148.72356376487264 43.39109515986854 78.90228084411922 H 0.0 **** 0.06
3133 H 150.24860726096244 43.739897490424 78.05237244885319 H 0.0 **** 0.06
3134 H 148.70328013014324 43.79602298536983 77.16921218612256 H 0.0 **** 0.06
3135 H 149.36243843669388 42.233686084038496 77.71094155723038 H 0.0 **** 0.06
3136 C 94.40071234919404 128.7342624076912 78.33033857950295 C 0.0 **** -0.24
3137 H 95.05444452289616 128.91071308501557 77.47694075952715 H 0.0 **** 0.06
3138 H 93.36087904446453 128.75531076218743 78.00131849428003 H 0.0 **** 0.06
3139 H 94.56060114754605 129.511611443044 79.0774774764033 H 0.0 **** 0.06
3140 H 94.6246131250462 127.75971053323074 78.76486313798014 H 0.0 **** 0.06
3141 C 70.55265475414681 70.6483303959503 41.46820096836609 C 0.0 **** -0.24
3142 H 70.20671240517237 70.16768051391816 42.38329280280266 H 0.0 **** 0.06
3143 H 71.6414404293358 70.69737976508102 41.47313945048677 H 0.0 **** 0.06
3144 H 70.1439858625734 71.65792754050602 41.41135135402476 H 0.0 **** 0.06
3145 H 70.21738644898436 70.07147856434653 40.606599209825276 H 0.0 **** 0.06
3146 C 102.30222103069181 62.18802763398213 98.2394325020368 C 0.0 **** -0.24
3147 H 101.27615802880862 62.28142664118957 97.88266107468851 H 0.0 **** 0.06
3148 H 102.91633874622656 62.967702905397346 97.78847973630909 H 0.0 **** 0.06
3149 H 102.69488067329945 61.209828335091174 97.96471635279553 H 0.0 **** 0.06
3150 H 102.32003829075066 62.29428427311785 99.3249653779288 H 0.0 **** 0.06
3151 C 148.65112946160164 140.67329292617805 86.03837931276438 C 0.0 **** -0.24
3152 H 148.28012439337306 139.80123468807463 85.50098736163764 H 0.0 **** 0.06
3153 H 148.42566753367507 141.57471263161412 85.46754925141343 H 0.0 **** 0.06
3154 H 149.72954953658797 140.58764919893648 86.1713521446887 H 0.0 **** 0.06
3155 H 148.16788016242367 140.73010751456857 87.01381957550245 H 0.0 **** 0.06
3156 C 134.62899065206034 74.20075191727807 125.12574732313279 C 0.0 **** -0.24
3157 H 133.97159213834783 73.87447272456319 124.31891795998523 H 0.0 **** 0.06
3158 H 135.20606288332158 75.06578442625323 124.79719455162136 H 0.0 **** 0.06
3159 H 135.3081856582907 73.38990379955868 125.39021656512756 H 0.0 **** 0.06
3160 H 134.02964403407006 74.47115720093382 125.99422762949405 H 0.0 **** 0.06
3161 C 76.3422045108353 101.6916589954281 42.827591877673356 C 0.0 **** -0.24
3162 H 76.68561010744159 101.82228012849369 41.80111819603785 H 0.0 **** 0.06
3163 H 76.94127252601251 102.3131111492472 43.492495016249805 H 0.0 **** 0.06
3164 H 76.44850655023917 100.64510534263862 43.11532762138168 H 0.0 **** 0.06
3165 H 75.29460736691657 101.98388081231032 42.89984225083887 H 0.0 **** 0.06
3166 C 95.05651089794017 48.93659074061492 2.6954093089815956 C 0.0 **** -0.24
3167 H 94.4729258871587 49.23193169156093 3.5673718896530886 H 0.0 **** 0.06
3168 H 95.33516696839742 49.824020451797594 2.126434955036018 H 0.0 **** 0.06
3169 H 94.45967177738771 48.27487537123557 2.0671837590772384 H 0.0 **** 0.06
3170 H 95.95639315437363 48.414736347947326 3.019749211453245 H 0.0 **** 0.06
3171 C 76.39858825785734 74.06282473419812 43.494208173698425 C 0.0 **** -0.24
3172 H 75.83061790412998 74.98883615814007 43.586436269636025 H 0.0 **** 0.06
3173 H 76.38113161350458 73.52921807572599 44.44407587687566 H 0.0 **** 0.06
3174 H 77.4294305361941 74.29567109208591 43.22562431899705 H 0.0 **** 0.06
3175 H 75.95288265960897 73.43980972776134 42.71898866101829 H 0.0 **** 0.06
3176 C 131.23393691738664 61.493988425703805 38.60286021149179 C 0.0 **** -0.24
3177 H 131.9448519452597 62.15565363011547 38.10867154381941 H 0.0 **** 0.06
3178 H 131.654596647326 60.49100327223471 38.66713010513661 H 0.0 **** 0.06
3179 H 130.30658403213857 61.464432190080174 38.030166082240754 H 0.0 **** 0.06
3180 H 131.02857190471417 61.8680244564344 39.60678043242248 H 0.0 **** 0.06
3181 C 6.558752915087439 139.1530839705628 84.2259564324634 C 0.0 **** -0.24
3182 H 7.518892641901459 139.22948088035892 84.7360473002089 H 0.0 **** 0.06
3183 H 5.781621474083067 139.60183385966704 84.84568362290356 H 0.0 **** 0.06
3184 H 6.323029340304856 138.10373747023593 84.0508913748887 H 0.0 **** 0.06
3185 H 6.612400899767238 139.6771293547857 83.27152947099069 H 0.0 **** 0.06
3186 C 1.2704981702998133 114.49600088098836 3.893231487200296 C 0.0 **** -0.24
3187 H 2.0853072120446754 114.77806472140057 3.225680938152834 H 0.0 **** 0.06
3188 H 0.6425504215350699 115.36537569901381 4.087320444333841 H 0.0 **** 0.06
3189 H 1.6832436214122026 114.12841166791165 4.832624823763666 H 0.0 **** 0.06
3190 H 0.6746164633044671 113.71217150104636 3.42694731041351 H 0.0 **** 0.06
3191 C 85.3831797264252 17.98881621364758 31.726897318893037 C 0.0 **** -0.24
3192 H 85.34911638559367 17.3343582679017 32.5981337881402 H 0.0 **** 0.06
3193 H 86.21876251356213 18.6816167561931 31.826382476265834 H 0.0 **** 0.06
3194 H 84.4509738703266 18.5504840322265 31.658413553389835 H 0.0 **** 0.06
3195 H 85.51255320324145 17.38885925438791 30.826468748367986 H 0.0 **** 0.06
3196 C 1.871716247412337 110.17683526172424 36.43204028461317 C 0.0 **** -0.24
3197 H 2.8687708099466143 110.54368299226631 36.67606575619245 H 0.0 **** 0.06
3198 H 1.797092849065546 109.12184309266785 36.69712967082576 H 0.0 **** 0.06
3199 H 1.6918717048733427 110.29637801525801 35.363399103701 H 0.0 **** 0.06
3200 H 1.1283511796162031 110.74467329225804 36.990666093057165 H 0.0 **** 0.06
3201 C 25.73826309291936 108.04111951135962 68.76461815215232 C 0.0 **** -0.24
3202 H 24.832985551266006 107.43714272346472 68.70195954506048 H 0.0 **** 0.06
3203 H 26.406167848248224 107.78171162144679 67.94284245879868 H 0.0 **** 0.06
3204 H 26.237933043672214 107.8493259471876 69.7146611443032 H 0.0 **** 0.06
3205 H 25.47545119721228 109.09708737708388 68.70006379400604 H 0.0 **** 0.06
3206 C 18.665909152750487 64.38332724693129 93.5660842620013 C 0.0 **** -0.24
3207 H 17.72764307383335 64.23409228632403 93.03119062941505 H 0.0 **** 0.06
3208 H 19.227624462844346 63.44840354711016 93.57916596364826 H 0.0 **** 0.06
3209 H 18.455767420278505 64.69576998390636 94.58830802494785 H 0.0 **** 0.06
3210 H 19.25122693671301 65.15316043125449 93.06292180798559 H 0.0 **** 0.06
3211 C 121.27359042218042 40.592853841958885 27.99868239960307 C 0.0 **** -0.24
3212 H 121.9987318215512 40.466981496281704 27.19420827655395 H 0.0 **** 0.06
3213 H 121.28998860782694 41.62683505324398 28.34396989787996 H 0.0 **** 0.06
3214 H 121.53098814734393 39.9294070503706 28.824750965279378 H 0.0 **** 0.06
3215 H 120.27705363770293 40.34771060287923 27.6318790470946 H 0.0 **** 0.06
3216 C 20.189845888506085 76.57267322104903 90.26552467433045 C 0.0 **** -0.24
3217 H 19.100240350851465 76.57555774591347 90.31107662501508 H 0.0 **** 0.06
3218 H 20.533185900838617 75.6243718578555 89.85171353988967 H 0.0 **** 0.06
3219 H 20.596061343277057 76.70060432700626 91.26813978775392 H 0.0 **** 0.06
3220 H 20.528112531935648 77.3905636880801 89.62879052958374 H 0.0 **** 0.06
3221 C 146.30506885552632 117.73312535980422 37.29105819378297 C 0.0 **** -0.24
3222 H 146.58997275251164 116.68106883971204 37.31564172127793 H 0.0 **** 0.06
3223 H 145.22213176551827 117.81477328232738 37.20106742695715 H 0.0 **** 0.06
3224 H 146.7796795488574 118.21779326467926 36.43723898905686 H 0.0 **** 0.06
3225 H 146.63115629913273 118.21783133628897 38.211636600230044 H 0.0 **** 0.06
3226 C 96.08584129756989 117.75446636960042 60.25765332332816 C 0.0 **** -0.24
3227 H 95.80448866201499 118.70216539337515 60.71677066968641 H 0.0 **** 0.06
3228 H 96.9853016958103 117.37030210459962 60.73948038521104 H 0.0 **** 0.06
3229 H 96.27854224720161 117.90853921721317 59.196218274027046 H 0.0 **** 0.06
3230 H 95.27343528113585 117.03686723609947 60.3793475815076 H 0.0 **** 0.06
3231 C 111.42814061768195 14.11010079294934 12.17820164911086 C 0.0 **** -0.24
3232 H 110.8583620084583 13.183085452725322 12.110390164165523 H 0.0 **** 0.06
3233 H 112.03757327088567 14.09547611849743 13.081795830075208 H 0.0 **** 0.06
3234 H 110.74206504094383 14.956573223052004 12.215433759397598 H 0.0 **** 0.06
3235 H 112.07384460353575 14.20373970575642 11.304801617062395 H 0.0 **** 0.06
3236 C 64.54576837304971 129.55162015409695 56.145473108094535 C 0.0 **** -0.24
3237 H 64.48041453542335 129.28494925792035 57.20004457124108 H 0.0 **** 0.06
3238 H 65.42726022023133 129.0843559710876 55.70699987886135 H 0.0 **** 0.06
3239 H 64.62306648692896 130.63539946421974 56.04934842817704 H 0.0 **** 0.06
3240 H 63.65231019935581 129.20351174466398 55.6264928233949 H 0.0 **** 0.06
3241 C 128.64171868749784 89.15734133814179 38.53754796130663 C 0.0 **** -0.24
3242 H 127.60182641052513 89.01889438317683 38.240537859363776 H 0.0 **** 0.06
3243 H 129.01206077480128 90.09929275789744 38.13176134130466 H 0.0 **** 0.06
3244 H 129.2423958380698 88.33449988188185 38.152005065408495 H 0.0 **** 0.06
3245 H 128.7095502250686 89.17882535752483 39.62533461865203 H 0.0 **** 0.06
3246 C 110.40237331784586 142.17547124201644 52.975152158967234 C 0.0 **** -0.24
3247 H 111.3685739453549 141.67053824116445 52.97096754778829 H 0.0 **** 0.06
3248 H 110.45195486650296 143.06104154873015 52.34320966928259 H 0.0 **** 0.06
3249 H 110.15233619187676 142.46937427047777 53.995094789043335 H 0.0 **** 0.06
3250 H 109.63785390588039 141.4980285621425 52.59434908666549 H 0.0 **** 0.06
3251 C 68.80697911671434 34.207977341662016 107.35710412344753 C 0.0 **** -0.24
3252 H 69.2951962478319 34.37817523237703 108.31678646792164 H 0.0 **** 0.06
3253 H 68.05002475664048 33.431042928959755 107.46826405476389 H 0.0 **** 0.06
3254 H 69.5491024138216 33.89050056563315 106.62414504095699 H 0.0 **** 0.06
3255 H 68.33488543261224 35.1307558193316 107.02072799804483 H 0.0 **** 0.06
3256 C 58.538934020985096 39.38636488081028 38.458229149621054 C 0.0 **** -0.24
3257 H 58.96604917358226 38.45160360668012 38.09619122300799 H 0.0 **** 0.06
3258 H 59.28456484193504 40.17798220537857 38.38426852728163 H 0.0 **** 0.06
3259 H 58.23652611028521 39.26793233168631 39.499453297561246 H 0.0 **** 0.06
3260 H 57.669461356807545 39.64695571162619 37.85507230958418 H 0.0 **** 0.06
3261 C 62.175877118497056 100.30524816169208 97.54129654467665 C 0.0 **** -0.24
3262 H 61.896668295472864 101.04614707734609 96.79230274931162 H 0.0 **** 0.06
3263 H 62.384941019116866 99.35385292714331 97.05076017754035 H 0.0 **** 0.06
3264 H 61.355875321607044 100.17696589632074 98.24791256451107 H 0.0 **** 0.06
3265 H 63.06440016835708 100.64347497241413 98.07396706196502 H 0.0 **** 0.06
3266 C 104.2681777002004 72.40681762595955 104.56399111915123 C 0.0 **** -0.24
3267 H 105.27774996615227 72.75072985072555 104.33938101250054 H 0.0 **** 0.06
3268 H 103.83841621124617 71.9406443868717 103.67705195643346 H 0.0 **** 0.06
3269 H 103.65349962982947 73.25702976689931 104.86162631845694 H 0.0 **** 0.06
3270 H 104.30311399750286 71.68124503842134 105.3760781370231 H 0.0 **** 0.06
3271 C 33.792486770489475 18.382763997317312 127.94712922720274 C 0.0 **** -0.24
3272 H 33.11955753115727 17.527489519400717 128.00709824799296 H 0.0 **** 0.06
3273 H 33.84970625613873 18.728897955725643 126.91527473835365 H 0.0 **** 0.06
3274 H 34.785307194323124 18.088239937296834 128.2881302394105 H 0.0 **** 0.06
3275 H 33.414771399757456 19.18642767474259 128.57992011500787 H 0.0 **** 0.06
3276 C 41.059486725657095 43.71396559613879 130.17160388417597 C 0.0 **** -0.24
3277 H 40.52216820050846 42.76554005920656 130.1741122164561 H 0.0 **** 0.06
3278 H 40.36628878612149 44.525529448619295 130.3913792016374 H 0.0 **** 0.06
3279 H 41.508853847601344 43.873706702918355 129.19061432565803 H 0.0 **** 0.06
3280 H 41.842435223995764 43.68898559460041 130.9297174257383 H 0.0 **** 0.06
3281 C 122.89478372904587 30.013883251010952 52.31469794015152 C 0.0 **** -0.24
3282 H 122.55197909980053 30.42411692518632 51.36500178411973 H 0.0 **** 0.06
3283 H 123.90657448983443 29.626746755805414 52.19936264610811 H 0.0 **** 0.06
3284 H 122.22891062587037 29.20797201053007 52.62422110233575 H 0.0 **** 0.06
3285 H 122.88920850205766 30.799028126884586 53.071789071929174 H 0.0 **** 0.06
3286 C 18.585184608825585 52.20012873607838 121.92174569850727 C 0.0 **** -0.24
3287 H 19.620773372758123 52.519338648127984 121.80662224697579 H 0.0 **** 0.06
3288 H 18.48087712304428 51.172769433431 121.57246457358906 H 0.0 **** 0.06
3289 H 17.93782477535683 52.85141141089031 121.33448714581829 H 0.0 **** 0.06
3290 H 18.30136887036801 52.2579869900495 122.97199256918691 H 0.0 **** 0.06
3291 C 33.96510511351664 19.2030210155755 112.17758725413834 C 0.0 **** -0.24
3292 H 33.46364165970857 18.94042815938417 111.24486437788777 H 0.0 **** 0.06
3293 H 33.425406983090795 18.76028006028895 113.01545771119008 H 0.0 **** 0.06
3294 H 33.98202902549116 20.287224861367577 112.28745115444171 H 0.0 **** 0.06
3295 H 34.98605709937857 18.823139980829097 112.16109839175836 H 0.0 **** 0.06
3296 C 106.13281169792216 55.315338991196086 134.1305733656337 C 0.0 **** -0.24
3297 H 105.35897534910768 55.93219978194645 133.67510272347184 H 0.0 **** 0.06
3298 H 107.00721811989982 55.929366360324295 134.34477248028105 H 0.0 **** 0.06
3299 H 106.41014295415258 54.51437800192221 133.4451374766324 H 0.0 **** 0.06
3300 H 105.75492312184767 54.88451669607504 135.05772645697886 H 0.0 **** 0.06
3301 C 71.81942955088685 79.63669136073203 73.25300423554938 C 0.0 **** -0.24
3302 H 70.8444425398415 79.32552999981412 73.62690179795919 H 0.0 **** 0.06
3303 H 72.20941946415275 80.43878277846295 73.87923317983086 H 0.0 **** 0.06
3304 H 71.71849910707908 79.99165949009382 72.22704947004274 H 0.0 **** 0.06
3305 H 72.50468022911564 78.7888708540828 73.27791231884274 H 0.0 **** 0.06
3306 C 43.29280880670092 17.584777669983055 95.22093204289138 C 0.0 **** -0.24
3307 H 42.75067817097204 16.88849902562754 94.58041355073726 H 0.0 **** 0.06
3308 H 44.040250657132674 18.114154729903646 94.63079048491204 H 0.0 **** 0.06
3309 H 43.78432971805961 17.033232218240414 96.0217929909034 H 0.0 **** 0.06
3310 H 42.593931461753925 18.302321261633722 95.65076355953624 H 0.0 **** 0.06
3311 C 74.09335265849168 98.34168715887823 98.38844468480008 C 0.0 **** -0.24
3312 H 74.67833285497764 97.64388186057262 97.7888152654472 H 0.0 **** 0.06
3313 H 73.28920685102153 97.80312273961724 98.89077864213826 H 0.0 **** 0.06
3314 H 73.66831699775679 99.10822444737798 97.73976773161846 H 0.0 **** 0.06
3315 H 74.73789814850844 98.81031170538779 99.13118863709613 H 0.0 **** 0.06
3316 C 22.194205838223432 141.08083178399448 95.00554760555998 C 0.0 **** -0.24
3317 H 22.61722417396615 140.74989195127628 95.95353324010428 H 0.0 **** 0.06
3318 H 22.35209788462803 142.15286190372132 94.89192115310557 H 0.0 **** 0.06
3319 H 21.125733335519755 140.8663577356175 94.98993130124731 H 0.0 **** 0.06
3320 H 22.68326772701259 140.5526494486984 94.18625863302158 H 0.0 **** 0.06
3321 C 18.87464535968445 148.6813979421352 32.776237243518494 C 0.0 **** -0.24
3322 H 17.886240211622606 148.7404373339317 32.32096910006413 H 0.0 **** 0.06
3323 H 19.450465840920145 147.89029084037654 32.29566797661505 H 0.0 **** 0.06
3324 H 18.77249254060507 148.46246837314243 33.8390820701423 H 0.0 **** 0.06
3325 H 19.390287143975087 149.6343637140634 32.64978432057865 H 0.0 **** 0.06
3326 C 128.15222435946322 27.236088693307323 86.46509526585194 C 0.0 **** -0.24
3327 H 129.08777071437441 26.88626185371652 86.0281150589863 H 0.0 **** 0.06
3328 H 127.56147906264135 27.743188277321934 85.70115642698667 H 0.0 **** 0.06
3329 H 128.36773272566467 27.930726192564805 87.2773282335568 H 0.0 **** 0.06
3330 H 127.59205755806948 26.384867342434887 86.85307062451884 H 0.0 **** 0.06
3331 C 69.79124119650845 132.29294634273884 90.37668028798691 C 0.0 **** -0.24
3332 H 70.02547248173363 133.19179294840688 89.80684527134031 H 0.0 **** 0.06
3333 H 70.338727828823 132.30648668019919 91.31895600115719 H 0.0 **** 0.06
3334 H 70.07939254300015 131.41293369512925 89.80134035482781 H 0.0 **** 0.06
3335 H 68.72006554927462 132.26021269907787 90.57917417903884 H 0.0 **** 0.06
3336 C 62.49491566854908 91.054766130377 83.93952720506935 C 0.0 **** -0.24
3337 H 63.14130308853629 90.27062713940443 83.54517858590715 H 0.0 **** 0.06
3338 H 62.457073874954574 90.98118932489929 85.02588943597432 H 0.0 **** 0.06
3339 H 61.49115684334191 90.93584462737368 83.53100376928984 H 0.0 **** 0.06
3340 H 62.89099095249492 92.02926467194155 83.6541179529418 H 0.0 **** 0.06
3341 C 23.061464282537827 129.71263591229936 137.59628625261396 C 0.0 **** -0.24
3342 H 23.72246639100186 130.57334391561227 137.70133126202086 H 0.0 **** 0.06
3343 H 22.32105839219369 129.91632602353306 136.82209120278557 H 0.0 **** 0.06
3344 H 22.554941273288478 129.52682274975572 138.54388185589033 H 0.0 **** 0.06
3345 H 23.646443793216633 128.83683636342693 137.31900023930726 H 0.0 **** 0.06
3346 C 56.63398608546538 103.42186605181976 2.2773297553285374 C 0.0 **** -0.24
3347 H 56.20269648920561 103.2766666753885 1.2871444751423837 H 0.0 **** 0.06
3348 H 56.96039551011347 102.46097425252921 2.675713161353542 H 0.0 **** 0.06
3349 H 55.8838191933678 103.85451143328086 2.939308677408121 H 0.0 **** 0.06
3350 H 57.48773337734741 104.09506080083193 2.206035711760194 H 0.0 **** 0.06
3351 C 27.39857345113947 90.12657240550955 129.47411185834991 C 0.0 **** -0.24
3352 H 28.1224746862126 89.9474113094542 130.26917273195616 H 0.0 **** 0.06
3353 H 27.156230277904513 91.18882135266797 129.43752693320516 H 0.0 **** 0.06
3354 H 26.49315842688415 89.5530378822229 129.67097537737354 H 0.0 **** 0.06
3355 H 27.823425158481626 89.81785371361838 128.519332693111 H 0.0 **** 0.06
3356 C 93.04268913134081 6.048909682413637 106.15819687322482 C 0.0 **** -0.24
3357 H 92.02671134199488 6.002616438090513 106.54933306808039 H 0.0 **** 0.06
3358 H 93.19766663458003 5.233422176591091 105.45185376979703 H 0.0 **** 0.06
3359 H 93.75278350601656 5.959021683979017 106.97969950665868 H 0.0 **** 0.06
3360 H 93.19376605897969 7.0019739756480135 105.65088955636156 H 0.0 **** 0.06
3361 C 79.82265483952159 72.53181732232608 99.73038003542047 C 0.0 **** -0.24
3362 H 80.46518668846791 72.06335045598374 98.98467224252171 H 0.0 **** 0.06
3363 H 79.97100121293688 73.61125756749064 99.71039064264713 H 0.0 **** 0.06
3364 H 80.07386035536497 72.14787426612173 100.71837241837099 H 0.0 **** 0.06
3365 H 78.78095951721848 72.30271109192958 99.50552746789316 H 0.0 **** 0.06
3366 C 139.18650821059367 126.79305465619485 51.93409892786724 C 0.0 **** -0.24
3367 H 138.7426118024588 127.62668096964822 52.47808111912525 H 0.0 **** 0.06
3368 H 140.27098809129416 126.82322800661572 52.04542048213034 H 0.0 **** 0.06
3369 H 138.92688313517877 126.86887269733225 50.87884925247505 H 0.0 **** 0.06
3370 H 138.80554240499293 125.85335255968556 52.3357748672733 H 0.0 **** 0.06
3371 C 71.13533343150738 139.10136735452159 144.38855140083865 C 0.0 **** -0.24
3372 H 71.70812179971654 139.4493237309196 145.24796126580165 H 0.0 **** 0.06
3373 H 70.48763300138265 139.9038442914593 144.03494226968053 H 0.0 **** 0.06
3374 H 70.52691676183792 138.2450822412977 144.67909302248583 H 0.0 **** 0.06
3375 H 71.81808477250325 138.80753775804746 143.59095797183554 H 0.0 **** 0.06
3376 C 42.46079505058202 41.24999027968266 123.20272477421815 C 0.0 **** -0.24
3377 H 42.65846658737071 41.05153853149449 124.25615837615811 H 0.0 **** 0.06
3378 H 41.709813346199354 40.551374946030876 122.8360607324039 H 0.0 **** 0.06
3379 H 43.38127501746965 41.128006464598286 122.63138067367396 H 0.0 **** 0.06
3380 H 42.094668595491044 42.27057172404125 123.08855192807653 H 0.0 **** 0.06
3381 C 109.17600823173088 71.78049078645837 127.29089084556429 C 0.0 **** -0.24
3382 H 109.29768572410181 72.8389500970688 127.06110191297117 H 0.0 **** 0.06
3383 H 109.34246627979614 71.61872524569418 128.3563096103509 H 0.0 **** 0.06
3384 H 109.89924265552675 71.19837018204915 126.71816043641653 H 0.0 **** 0.06
3385 H 108.16662274889181 71.4654012577376 127.02888326642986 H 0.0 **** 0.06
3386 C 107.2715602429352 15.718727436493594 83.78589264568048 C 0.0 **** -0.24
3387 H 107.20691460321531 16.801943021060282 83.67905420076909 H 0.0 **** 0.06
3388 H 107.3800450977695 15.463301760714529 84.84008582181515 H 0.0 **** 0.06
3389 H 108.13581662846381 15.349861522960822 83.23188597759228 H 0.0 **** 0.06
3390 H 106.36501441406726 15.26091953568968 83.39138151607045 H 0.0 **** 0.06
3391 C 109.4818027424835 36.41559166783418 69.49357077158311 C 0.0 **** -0.24
3392 H 110.52633001570186 36.224365807162435 69.24599056515831 H 0.0 **** 0.06
3393 H 108.93233259892813 35.474114894955605 69.50260078982257 H 0.0 **** 0.06
3394 H 109.04924815344057 37.08293822889929 68.74837981199329 H 0.0 **** 0.06
3395 H 109.42190106290113 36.882044559732385 70.47749303214479 H 0.0 **** 0.06
3396 C 50.82298053006201 144.55410910263444 6.411443889413903 C 0.0 **** -0.24
3397 H 49.82319220925899 144.28133022920986 6.0760464774095055 H 0.0 **** 0.06
3398 H 51.381413378903176 144.98243656094945 5.579121341128996 H 0.0 **** 0.06
3399 H 51.33927494465104 143.66613553346738 6.77722733510501 H 0.0 **** 0.06
3400 H 50.74856135382322 145.2870982301061 7.21456853639458 H 0.0 **** 0.06
3401 C 40.006030904442596 113.48764261093686 24.39971094943914 C 0.0 **** -0.24
3402 H 39.33593821954875 114.17767120348697 23.886142211486998 H 0.0 **** 0.06
3403 H 41.034522605154066 113.8295983919075 24.28779795623376 H 0.0 **** 0.06
3404 H 39.90336043291859 112.4930072401346 23.966200021039498 H 0.0 **** 0.06
3405 H 39.74772750622385 113.45172858030259 25.45814565578317 H 0.0 **** 0.06
3406 C 4.148093287648752 74.78067475800836 95.53876758022147 C 0.0 **** -0.24
3407 H 5.1460941204185 74.64069127515378 95.12422756776297 H 0.0 **** 0.06
3408 H 4.166243578307846 75.60014370501645 96.25792453808684 H 0.0 **** 0.06
3409 H 3.8296508491018066 73.86536880013242 96.03671322513937 H 0.0 **** 0.06
3410 H 3.451774003036096 75.01838395125344 94.73433343695555 H 0.0 **** 0.06
3411 C 149.49944033231586 58.969218660810924 21.310903957941548 C 0.0 **** -0.24
3412 H 149.65019525253626 58.41172525690162 22.235656121450177 H 0.0 **** 0.06
3413 H 149.43635949259462 60.03468348179139 21.53560835171521 H 0.0 **** 0.06
3414 H 148.5730907725726 58.64262701467018 20.8367321228086 H 0.0 **** 0.06
3415 H 150.33612686873045 58.78836947417757 20.63649260268403 H 0.0 **** 0.06
3416 C 138.5694905557416 71.32824783982588 111.50250334096354 C 0.0 **** -0.24
3417 H 137.94391596911868 71.40671718370217 112.39088638444049 H 0.0 **** 0.06
3418 H 138.84759050959818 70.28587055215067 111.34437833203647 H 0.0 **** 0.06
3419 H 139.46987807859387 71.92771837572528 111.63771753351598 H 0.0 **** 0.06
3420 H 138.0175751204996 71.69270756166762 110.63561524108287 H 0.0 **** 0.06
3421 C 51.473034650165914 136.692821694112 149.747997948885 C 0.0 **** -0.24
3422 H 50.548750502770005 136.55093784117702 149.18803967672528 H 0.0 **** 0.06
3423 H 51.60160381999036 135.86859826255088 150.45032709189493 H 0.0 **** 0.06
3424 H 51.42538153611993 137.6333917139567 150.29529553037835 H 0.0 **** 0.06
3425 H 52.31646973860006 136.7162715895939 149.05704941022378 H 0.0 **** 0.06
3426 C 144.67900041361318 142.67106677299282 138.81655140873485 C 0.0 **** -0.24
3427 H 143.7002127305617 142.9585314976795 139.19922509555826 H 0.0 **** 0.06
3428 H 145.44551721960232 142.9285274744168 139.54819783635085 H 0.0 **** 0.06
3429 H 144.87447787450327 143.19922135149938 137.8842495676594 H 0.0 **** 0.06
3430 H 144.696343502995 141.59598692962288 138.63536901055775 H 0.0 **** 0.06
3431 C 41.69260750152459 92.4935695663225 83.41776635595616 C 0.0 **** -0.24
3432 H 41.40679840250502 92.81149130892014 82.41524284119292 H 0.0 **** 0.06
3433 H 42.27965597563872 91.57708464758493 83.35404833821441 H 0.0 **** 0.06
3434 H 40.79583733703842 92.31030833636125 84.00986101621478 H 0.0 **** 0.06
3435 H 42.28757564962494 93.27456815255154 83.89187458992056 H 0.0 **** 0.06
3436 C 106.46686632885924 47.54874690318465 5.404781880870132 C 0.0 **** -0.24
3437 H 107.11225508371366 48.41431658372585 5.559530143641055 H 0.0 **** 0.06
3438 H 105.46334924756123 47.775453035487914 5.765362376619812 H 0.0 **** 0.06
3439 H 106.86640373855211 46.69559040563334 5.952115686905341 H 0.0 **** 0.06
3440 H 106.42684150570345 47.31159647070311 4.341663746261254 H 0.0 **** 0.06
3441 C 7.325600394491573 94.34286117856203 32.35969150080052 C 0.0 **** -0.24
3442 H 6.703542921970978 94.06771118128059 33.210804551626666 H 0.0 **** 0.06
3443 H 8.18494227358471 93.67474710248024 32.30683714536332 H 0.0 **** 0.06
3444 H 7.671023163037631 95.37021380592842 32.47994629292464 H 0.0 **** 0.06
3445 H 6.7438733584105535 94.26130610270953 31.441966117805748 H 0.0 **** 0.06
3446 C 113.5621861678073 13.604513242428993 146.36211537534032 C 0.0 **** -0.24
3447 H 113.29276168889386 13.900610970451964 145.34801277205267 H 0.0 **** 0.06
3448 H 114.31553223894046 14.288747783990573 146.75234898332403 H 0.0 **** 0.06
3449 H 113.96228806610652 12.590655157285937 146.3502942565768 H 0.0 **** 0.06
3450 H 112.67717235248172 13.637677977181454 146.99686264762363 H 0.0 **** 0.06
3451 C 30.382336375054315 87.04019690977665 111.65953460774865 C 0.0 **** -0.24
3452 H 31.109750676043127 86.25416097100208 111.86301294024527 H 0.0 **** 0.06
3453 H 30.759014100016145 87.9899435101911 112.03940665733172 H 0.0 **** 0.06
3454 H 29.4409690902145 86.79868789425431 112.15434321644447 H 0.0 **** 0.06
3455 H 30.219302421052532 87.11534673856833 110.58523443900141 H 0.0 **** 0.06
3456 C 55.87915523068284 79.20488711067713 124.26094613935557 C 0.0 **** -0.24
3457 H 55.72743843773253 78.20802025053464 124.67492918620617 H 0.0 **** 0.06
3458 H 55.547268503013015 79.22102443845168 123.22237582177324 H 0.0 **** 0.06
3459 H 56.937716918381795 79.46036552595822 124.30827916049283 H 0.0 **** 0.06
3460 H 55.303770491569765 79.928893946221 124.83768089598324 H 0.0 **** 0.06
3461 C 59.33619420793808 78.05201240746081 90.02537237951402 C 0.0 **** -0.24
3462 H 58.694636742585416 78.58870838612847 89.32606347091097 H 0.0 **** 0.06
3463 H 59.0864605269998 76.99091614099262 90.00654937506476 H 0.0 **** 0.06
3464 H 59.18429684478957 78.44321839538671 91.03095953195348 H 0.0 **** 0.06
3465 H 60.37892963803634 78.18569134544963 89.73716888775687 H 0.0 **** 0.06
3466 C 56.80954094876272 25.182841004366267 46.0513078570457 C 0.0 **** -0.24
3467 H 55.83514233231638 25.527189141155873 45.70566619510399 H 0.0 **** 0.06
3468 H 57.28144636653637 25.967198838864036 46.643926271078556 H 0.0 **** 0.06
3469 H 57.43810554241101 24.947954524324246 45.192199374247224 H 0.0 **** 0.06
3470 H 56.68380481891606 24.289952524058677 46.663583991796415 H 0.0 **** 0.06
3471 C 39.827365028025255 75.91793230634103 110.14561837413653 C 0.0 **** -0.24
3472 H 40.518791784716385 75.90595782856536 110.98757508277158 H 0.0 **** 0.06
3473 H 40.371981013832794 76.15679551561075 109.23130259987592 H 0.0 **** 0.06
3474 H 39.05735035523364 76.66987928609855 110.31779160931772 H 0.0 **** 0.06
3475 H 39.36135605449465 74.93724325765453 110.04420264431302 H 0.0 **** 0.06
3476 C 112.0947274679518 73.43794197823502 92.61412343645888 C 0.0 **** -0.24
3477 H 111.17821686314457 73.99194035038204 92.8196730343765 H 0.0 **** 0.06
3478 H 112.19625007804993 72.6260199435427 93.33476015489646 H 0.0 **** 0.06
3479 H 112.9500922662917 74.10851504476284 92.69898404644258 H 0.0 **** 0.06
3480 H 112.05236569313732 73.027456793042 91.6059707576286 H 0.0 **** 0.06
3481 C 70.19223498499859 42.13566182991269 80.4800761591958 C 0.0 **** -0.24
3482 H 69.51989796139564 42.39711221810924 81.29701929885822 H 0.0 **** 0.06
3483 H 71.12564946389085 41.74743681633089 80.88830189626385 H 0.0 **** 0.06
3484 H 70.39734600354475 43.022114590069094 79.87973670176915 H 0.0 **** 0.06
3485 H 69.72400414932908 41.37471235211302 79.85478558411894 H 0.0 **** 0.06
3486 C 134.056698493835 85.72372131948458 150.12070142097434 C 0.0 **** -0.24
3487 H 134.47164803779526 85.33662494723035 149.1906209294599 H 0.0 **** 0.06
3488 H 133.701125062418 84.89486135519061 150.73243679024222 H 0.0 **** 0.06
3489 H 133.22619962512815 86.39313669777937 149.89677250382334 H 0.0 **** 0.06
3490 H 134.82857750491493 86.2707086827483 150.66186691435598 H 0.0 **** 0.06
3491 C 146.5357275475282 115.19986414312888 25.03813842874208 C 0.0 **** -0.24
3492 H 147.56818572888128 115.34533859826342 25.353753258378504 H 0.0 **** 0.06
3493 H 146.51781584128594 114.63813124425718 24.103776168216136 H 0.0 **** 0.06
3494 H 146.06144617505808 116.16949241723137 24.888690612305453 H 0.0 **** 0.06
3495 H 145.99617670852814 114.64446583321649 25.805721074090457 H 0.0 **** 0.06
3496 C 58.77419356114922 136.16507547419 67.61998897404953 C 0.0 **** -0.24
3497 H 59.21684645775218 135.17657892602224 67.74477074620887 H 0.0 **** 0.06
3498 H 58.775450987731006 136.68636736996368 68.57776645233622 H 0.0 **** 0.06
3499 H 57.749092819820305 136.06149154158183 67.26303750020854 H 0.0 **** 0.06
3500 H 59.3555133191706 136.7352324010504 66.89514560295764 H 0.0 **** 0.06
3501 C 44.98283686445234 8.781702241611413 124.02235485010439 C 0.0 **** -0.24
3502 H 45.3702698698672 7.8136325227552845 124.33901420765878 H 0.0 **** 0.06
3503 H 44.68876120082848 9.359563331342855 124.89912653442744 H 0.0 **** 0.06
3504 H 44.11599989388398 8.632732460558572 123.37779671518584 H 0.0 **** 0.06
3505 H 45.7553602123414 9.320503693683435 123.4744532837914 H 0.0 **** 0.06
3506 C 82.27725651652558 101.54595535512757 83.73610397645076 C 0.0 **** -0.24
3507 H 82.42072642161784 100.82725588076372 84.5431535089967 H 0.0 **** 0.06
3508 H 83.08796941095572 101.448584864342 83.01481552275686 H 0.0 **** 0.06
3509 H 82.27470944700097 102.5563656408932 84.14648684182168 H 0.0 **** 0.06
3510 H 81.32574382741626 101.35199982901531 83.24215934510482 H 0.0 **** 0.06
3511 C 31.302209525457044 15.798776697417985 87.28131947736473 C 0.0 **** -0.24
3512 H 30.26004031619385 15.48085213800313 87.32206042640429 H 0.0 **** 0.06
3513 H 31.929690632573852 15.048612430371634 87.76111575123062 H 0.0 **** 0.06
3514 H 31.410734425791134 16.751238850986887 87.8003297703019 H 0.0 **** 0.06
3515 H 31.604517681765117 15.915819030700888 86.2407065092099 H 0.0 **** 0.06
3516 C 125.58994735988747 23.879823317370324 65.17982923340236 C 0.0 **** -0.24
3517 H 124.92492237930473 23.21664955464132 64.62730792944888 H 0.0 **** 0.06
3518 H 126.62447856915121 23.648254389306544 64.92827117284773 H 0.0 **** 0.06
3519 H 125.43568658917566 23.739713872658854 66.25036110667929 H 0.0 **** 0.06
3520 H 125.37374115240753 24.91441220401896 64.91346445728567 H 0.0 **** 0.06
3521 C 28.621446403580336 70.00739766219228 14.811728323899132 C 0.0 **** -0.24
3522 H 27.94419113333106 70.86072802025411 14.765901328038865 H 0.0 **** 0.06
3523 H 29.27493628710826 70.10869595523438 15.678464805045678 H 0.0 **** 0.06
3524 H 29.224209216941716 69.9727535983824 13.903298181103082 H 0.0 **** 0.06
3525 H 28.041462859294086 69.08807690044966 14.897989212609986 H 0.0 **** 0.06
3526 C 52.35866341382821 69.13911634972818 124.84733611420008 C 0.0 **** -0.24
3527 H 51.930311139333455 68.17050737106776 124.58715059184205 H 0.0 **** 0.06
3528 H 51.56236781430458 69.81630314849467 125.15778880964483 H 0.0 **** 0.06
3529 H 52.87168861303125 69.55464706751579 123.97983287906924 H 0.0 **** 0.06
3530 H 53.06840926899581 69.01466661686018 125.66517324229781 H 0.0 **** 0.06
3531 C 103.5175526904896 89.00637584417379 48.55485458925092 C 0.0 **** -0.24
3532 H 103.81738923420187 87.96989557971588 48.70495502784051 H 0.0 **** 0.06
3533 H 103.8645970160473 89.34664825291733 47.578325802683466 H 0.0 **** 0.06
3534 H 103.9580589640342 89.62877613693749 49.333741347299025 H 0.0 **** 0.06
3535 H 102.43126682714586 89.08041264259421 48.600220207161 H 0.0 **** 0.06
3536 C 115.16085627878012 14.221938868339578 141.58562270235404 C 0.0 **** -0.24
3537 H 116.13754793690005 13.913991286996264 141.2114794153846 H 0.0 **** 0.06
3538 H 114.45653760547013 13.395489378681987 141.48462777976067 H 0.0 **** 0.06
3539 H 114.8052720978864 15.076656786831421 141.01088047765768 H 0.0 **** 0.06
3540 H 115.24697794255697 14.500064203894254 142.63584259690072 H 0.0 **** 0.06
3541 C 92.4682840534266 126.03797244665823 55.41538128044954 C 0.0 **** -0.24
3542 H 92.10773078779306 127.04254272973512 55.19502620661393 H 0.0 **** 0.06
3543 H 92.003008532065 125.32710935957869 54.73310141451134 H 0.0 **** 0.06
3544 H 92.2126176649863 125.77801895927576 56.44266087778897 H 0.0 **** 0.06
3545 H 93.5508871948632 126.0062221074673 55.29160791037691 H 0.0 **** 0.06
3546 C 136.17829680403466 75.69041566697209 11.19246397339856 C 0.0 **** -0.24
3547 H 136.7207801588789 76.5225388226653 11.641315118178397 H 0.0 **** 0.06
3548 H 135.44848819248662 76.0747984103021 10.479342798225787 H 0.0 **** 0.06
3549 H 135.66340641535234 75.13017246434478 11.973955485962165 H 0.0 **** 0.06
3550 H 136.8799227322689 75.03531204754205 10.67794602663065 H 0.0 **** 0.06
3551 C 103.7681257772253 84.10224965879755 148.52629339536114 C 0.0 **** -0.24
3552 H 102.95679614400899 83.72818683648518 147.90144562700075 H 0.0 **** 0.06
3553 H 103.74481417488505 83.59524871334537 149.4917638266221 H 0.0 **** 0.06
3554 H 103.64700162371207 85.17429456286823 148.6751727898248 H 0.0 **** 0.06
3555 H 104.72243600338089 83.90855299833007 148.03607803901997 H 0.0 **** 0.06
3556 C 51.515352032457656 31.984767507018937 95.40814692172812 C 0.0 **** -0.24
3557 H 51.45562472337342 32.34167988255229 94.38002500081541 H 0.0 **** 0.06
3558 H 51.511442310954806 32.837041450288076 96.08896803576114 H 0.0 **** 0.06
3559 H 52.434819569073696 31.416377888272095 95.5425199735021 H 0.0 **** 0.06
3560 H 50.65801520711872 31.345572006296678 95.62066559758338 H 0.0 **** 0.06
3561 C 146.45174707977625 103.86459939866575 144.7180511617758 C 0.0 **** -0.24
3562 H 146.01426067010811 103.05705290538754 145.30579159580495 H 0.0 **** 0.06
3563 H 146.10247371155415 103.79477262170485 143.6877983646571 H 0.0 **** 0.06
3564 H 147.5380790017624 103.78169290954588 144.74063281351806 H 0.0 **** 0.06
3565 H 146.1521969371432 104.82422822272349 145.13874071155783 H 0.0 **** 0.06
3566 C 45.349044071961345 12.381541890385535 19.487709698617458 C 0.0 **** -0.24
3567 H 46.06581582419784 13.034165930029275 19.98702185983749 H 0.0 **** 0.06
3568 H 45.29149181403437 12.647164087942343 18.431081972795873 H 0.0 **** 0.06
3569 H 44.36780916546408 12.501291228043783 19.947123066388492 H 0.0 **** 0.06
3570 H 45.67251366817385 11.345514856940383 19.585509850711126 H 0.0 **** 0.06
3571 C 123.20212532305355 55.7973560662889 127.5631440845289 C 0.0 **** -0.24
3572 H 122.7124499305326 55.581937228669716 128.512700406507 H 0.0 **** 0.06
3573 H 124.26596731003328 55.57356299049064 127.64325884893945 H 0.0 **** 0.06
3574 H 123.06928854242263 56.85117004805852 127.31672372387226 H 0.0 **** 0.06
3575 H 122.759234193708 55.182409101028725 126.77869190701668 H 0.0 **** 0.06
3576 C 40.78188563255358 118.77185612376785 24.811649376026594 C 0.0 **** -0.24
3577 H 40.79739683647493 119.30754491639352 23.86295007071658 H 0.0 **** 0.06
3578 H 39.79372815770914 118.86105911117563 25.263180241632085 H 0.0 **** 0.06
3579 H 41.528277464390996 119.19783584219029 25.482029858801013 H 0.0 **** 0.06
3580 H 41.00948984269593 117.71964851751652 24.63781037166973 H 0.0 **** 0.06
3581 C 68.05446175399894 49.492054018597656 94.64361139341906 C 0.0 **** -0.24
3582 H 68.8465649204965 50.07181308860294 94.16880142023143 H 0.0 **** 0.06
3583 H 68.369637826854 49.20048396064368 95.64634739619848 H 0.0 **** 0.06
3584 H 67.85244218481324 48.60031095728169 94.05129657486714 H 0.0 **** 0.06
3585 H 67.15095079795957 50.098698154838644 94.70918080670032 H 0.0 **** 0.06
3586 C 56.65433888119463 121.06514386723286 33.067433686406254 C 0.0 **** -0.24
3587 H 55.85396704576647 120.49358979681817 33.536870941456556 H 0.0 **** 0.06
3588 H 56.72563141180714 120.79273881107561 32.01411257265523 H 0.0 **** 0.06
3589 H 57.59853890782965 120.8437865424301 33.565804789948565 H 0.0 **** 0.06
3590 H 56.43873996048001 122.13016003527689 33.154583898599675 H 0.0 **** 0.06
3591 C 76.46576333425496 142.21452219455048 98.25100325949842 C 0.0 **** -0.24
3592 H 77.55040418183074 142.29798021676154 98.17291020289292 H 0.0 **** 0.06
3593 H 76.04104150835931 142.06484743237868 97.25878035590901 H 0.0 **** 0.06
3594 H 76.06255002080754 143.12963240677053 98.68561439146725 H 0.0 **** 0.06
3595 H 76.2116382436585 141.36694549833035 98.88748708893388 H 0.0 **** 0.06
3596 C 18.54095335368936 138.1642126988731 21.93461294292993 C 0.0 **** -0.24
3597 H 17.600486979132256 138.0678894280177 21.391696444235038 H 0.0 **** 0.06
3598 H 18.705595936535076 139.21006733383615 22.19368510228773 H 0.0 **** 0.06
3599 H 19.35992672477329 137.8104027772852 21.30814774049034 H 0.0 **** 0.06
3600 H 18.49743537431158 137.5666187029523 22.845520791984825 H 0.0 **** 0.06
3601 C 103.43188627389911 149.55819338804298 44.45761736484343 C 0.0 **** -0.24
3602 H 103.4332551958749 150.6291734344628 44.659489445889164 H 0.0 **** 0.06
3603 H 104.45352121926938 149.1792224026255 44.49543983666075 H 0.0 **** 0.06
3604 H 103.0124205224284 149.37551502019727 43.46800855276604 H 0.0 **** 0.06
3605 H 102.8268129524542 149.04807415985556 45.20767813742168 H 0.0 **** 0.06
3606 C 85.52221341692496 137.9742367620355 37.06276065238259 C 0.0 **** -0.24
3607 H 86.00237911025596 137.90331806718228 36.08649841795482 H 0.0 **** 0.06
3608 H 85.35054670118174 139.02348262240668 37.307714179733566 H 0.0 **** 0.06
3609 H 86.16853617907014 137.52661783943606 37.81804648399036 H 0.0 **** 0.06
3610 H 84.56995242791527 137.44606628207234 37.03883635513588 H 0.0 **** 0.06
3611 C 14.387942250769441 17.67969334945471 16.460261606702858 C 0.0 **** -0.24
3612 H 14.907661749420868 18.636123931844878 16.418721117382148 H 0.0 **** 0.06
3613 H 15.016526087032162 16.90515504489261 16.02174110446515 H 0.0 **** 0.06
3614 H 13.454095757431872 17.749350639623543 15.902170142038187 H 0.0 **** 0.06
3615 H 14.172123783426997 17.428476729762906 17.498601663302054 H 0.0 **** 0.06
3616 C 66.92106837473862 41.58342930970049 132.5586789441602 C 0.0 **** -0.24
3617 H 67.18533751618006 40.59394765058214 132.18466507233552 H 0.0 **** 0.06
3618 H 67.82623906317434 42.11337660059577 132.8544007053659 H 0.0 **** 0.06
3619 H 66.26177337269114 41.480500396007756 133.42062396952832 H 0.0 **** 0.06
3620 H 66.41066661609092 42.14292254579968 131.7753623979695 H 0.0 **** 0.06
3621 C 133.3893629439538 7.800380508334797 140.45836548752888 C 0.0 **** -0.24
3622 H 132.61509721588104 7.556227031312432 139.72978178426453 H 0.0 **** 0.06
3623 H 134.34126408444752 7.38474827915735 140.12706113841583 H 0.0 **** 0.06
3624 H 133.12416640002812 7.377105498777809 141.4268749201474 H 0.0 **** 0.06
3625 H 133.4759041744193 8.883540638659241 140.5467524046591 H 0.0 **** 0.06
3626 C 63.152987330825624 122.10919279970965 32.556668024009014 C 0.0 **** -0.24
3627 H 63.96039633309704 122.27630712750756 31.843464685140475 H 0.0 **** 0.06
3628 H 63.48896806341031 122.38333328435338 33.55704917695954 H 0.0 **** 0.06
3629 H 62.869959578265366 121.05583657716205 32.54431868686589 H 0.0 **** 0.06
3630 H 62.29331372686693 122.7198632259488 32.28114778826841 H 0.0 **** 0.06
3631 C 69.38233301531855 75.94621152714717 14.145054673278594 C 0.0 **** -0.24
3632 H 68.37278609047402 75.88745493419017 13.73720888751302 H 0.0 **** 0.06
3633 H 69.8711517666363 74.9770827649874 14.044869057217568 H 0.0 **** 0.06
3634 H 69.3322003382643 76.22052000827567 15.1998414466226 H 0.0 **** 0.06
3635 H 69.95111677955234 76.69982184326813 13.600218907641136 H 0.0 **** 0.06
3636 C 41.04186437224476 12.357499747112769 100.66987469523174 C 0.0 **** -0.24
3637 H 40.95866355580611 12.006586967317531 99.64163041432529 H 0.0 **** 0.06
3638 H 40.94357482583197 13.442776973535075 100.69198772208814 H 0.0 **** 0.06
3639 H 42.012693890235624 12.071664053138505 101.0737019565062 H 0.0 **** 0.06
3640 H 40.25120754242974 11.908229629134297 101.2708693915148 H 0.0 **** 0.06
3641 C 111.65235293879094 92.06482441128304 28.291690828281055 C 0.0 **** -0.24
3642 H 111.46242247708675 91.27296524628929 27.567284893720277 H 0.0 **** 0.06
3643 H 111.7960553933972 93.00976289337405 27.76647810846098 H 0.0 **** 0.06
3644 H 112.5488154767812 91.82619589062136 28.86410487079793 H 0.0 **** 0.06
3645 H 110.80177956004142 92.15051928742423 28.96753014353566 H 0.0 **** 0.06
3646 C 60.88487661584563 39.10310108437514 25.861888799494494 C 0.0 **** -0.24
3647 H 60.542751425816874 39.41295130736688 26.849392562359327 H 0.0 **** 0.06
3648 H 61.94738670114353 39.3253691470411 25.76068737729716 H 0.0 **** 0.06
3649 H 60.325182729250656 39.64319781592329 25.09841532355773 H 0.0 **** 0.06
3650 H 60.72358432487559 38.032199909682376 25.74103793806404 H 0.0 **** 0.06
3651 C 22.909920115070186 92.26611683788718 23.402196997729533 C 0.0 **** -0.24
3652 H 22.98138055826508 91.1983694596396 23.19957578199302 H 0.0 **** 0.06
3653 H 22.292880666708434 92.42842251407194 24.287282731730244 H 0.0 **** 0.06
3654 H 22.458184516680056 92.76906862996543 22.54673282265057 H 0.0 **** 0.06
3655 H 23.908106194910886 92.67034714887978 23.576297434459065 H 0.0 **** 0.06
3656 C 17.19800034199683 21.367352550107114 89.26031069146552 C 0.0 **** -0.24
3657 H 17.04194397062909 21.12807924080434 90.3116736804642 H 0.0 **** 0.06
3658 H 16.29724470530359 21.82814635098771 88.85552331603697 H 0.0 **** 0.06
3659 H 17.418453944624503 20.45335796959378 88.70826936806401 H 0.0 **** 0.06
3660 H 18.035107996732513 22.060079712508866 89.16638846003929 H 0.0 **** 0.06
3661 C 61.97544324426133 60.58079139116465 133.05992196745413 C 0.0 **** -0.24
3662 H 62.808531236021736 60.32747916427391 132.40527187114594 H 0.0 **** 0.06
3663 H 62.343393822818086 61.150900428232234 133.912705952304 H 0.0 **** 0.06
3664 H 61.49972949074356 59.66528865463685 133.4128648542031 H 0.0 **** 0.06
3665 H 61.248614612679546 61.17806305726157 132.50801958836803 H 0.0 **** 0.06
3666 C 48.06045883522387 83.87794345791121 108.0856987006179 C 0.0 **** -0.24
3667 H 47.46572832762456 82.98314399342954 107.90019923915672 H 0.0 **** 0.06
3668 H 48.0655277585856 84.50274731499914 107.192875140629 H 0.0 **** 0.06
3669 H 49.08261383444096 83.58872413655962 108.33302011262897 H 0.0 **** 0.06
3670 H 47.62914896195072 84.43397279811359 108.91790518783942 H 0.0 **** 0.06
3671 C 129.06842392440734 81.17573423963958 135.93230912104457 C 0.0 **** -0.24
3672 H 128.90910549860646 80.9967813895478 136.99670288382686 H 0.0 **** 0.06
3673 H 130.0602434986337 81.60327867897479 135.7811892564667 H 0.0 **** 0.06
3674 H 128.31267786525575 81.86964081130921 135.5643144924353 H 0.0 **** 0.06
3675 H 128.99253459083323 80.23289274176776 135.39091998928927 H 0.0 **** 0.06
3676 C 4.146734583765863 9.435580014158148 42.91438200344666 C 0.0 **** -0.24
3677 H 5.220402085866226 9.48160089055935 42.73493390456494 H 0.0 **** 0.06
3678 H 3.618213926903536 9.428847092581378 41.96081496989211 H 0.0 **** 0.06
3679 H 3.8383284336133556 10.305897013621546 43.49513798869991 H 0.0 **** 0.06
3680 H 3.9096614144643524 8.52721659404736 43.468726402026306 H 0.0 **** 0.06
3681 C 96.74322633938446 53.139440105660384 81.30541886182117 C 0.0 **** -0.24
3682 H 96.83591582530083 52.896182179142045 80.24743082429328 H 0.0 **** 0.06
3683 H 95.70725053176753 53.01258888586793 81.61759722400464 H 0.0 **** 0.06
3684 H 97.04894973059774 54.17276504446667 81.46865260275978 H 0.0 **** 0.06
3685 H 97.38268354611542 52.47606397908467 81.88737338098836 H 0.0 **** 0.06
3686 C 23.712553300202046 121.79166989745919 59.75690420563939 C 0.0 **** -0.24
3687 H 24.670265164008526 121.64601558270057 59.25881863853195 H 0.0 **** 0.06
3688 H 23.008490880028262 122.25024492882592 59.06253576290669 H 0.0 **** 0.06
3689 H 23.847558007788052 122.44144381087084 60.62082146201823 H 0.0 **** 0.06
3690 H 23.32361885601324 120.82713049282647 60.08420871501687 H 0.0 **** 0.06
3691 C 27.117120392972083 76.6022688586393 114.61252070523739 C 0.0 **** -0.24
3692 H 27.180999493063553 77.14281031819925 115.55686644330416 H 0.0 **** 0.06
3693 H 26.14552266712809 76.11387751329633 114.53894604431679 H 0.0 **** 0.06
3694 H 27.90616731808403 75.8520424220556 114.56899256234618 H 0.0 **** 0.06
3695 H 27.236161043622886 77.30203689907366 113.7853233305218 H 0.0 **** 0.06
3696 C 47.12005906062896 147.9551137150171 119.07996504037206 C 0.0 **** -0.24
3697 H 48.06405202506252 148.1572121762852 118.5740273240668 H 0.0 **** 0.06
3698 H 46.304283668183984 148.42129014369294 118.52741049012403 H 0.0 **** 0.06
3699 H 47.154671460859646 148.3624230504676 120.09055772857974 H 0.0 **** 0.06
3700 H 46.958354351970314 146.87799050273802 119.12903315810101 H 0.0 **** 0.06
3701 C 64.39553205326473 40.31240149159788 23.05910983995244 C 0.0 **** -0.24
3702 H 64.46409672968237 39.49632091007747 23.778975023368332 H 0.0 **** 0.06
3703 H 64.39263106071819 41.2645683757533 23.588516346047697 H 0.0 **** 0.06
3704 H 63.47422923728139 40.21219978321892 22.4842878980092 H 0.0 **** 0.06
3705 H 65.25055005401686 40.27358531793067 22.38451737799801 H 0.0 **** 0.06
3706 C 37.10481332859601 52.261200443037325 109.62518736004107 C 0.0 **** -0.24
3707 H 36.08216995211241 52.551602852665724 109.38454769905381 H 0.0 **** 0.06
3708 H 37.685808114975096 53.15107538871314 109.86970149835373 H 0.0 **** 0.06
3709 H 37.55183481714077 51.75982467621367 108.76594079214111 H 0.0 **** 0.06
3710 H 37.0988925051677 51.58390080606583 110.47909872731078 H 0.0 **** 0.06
3711 C 141.80296912925863 82.07567346940999 126.01693996574363 C 0.0 **** -0.24
3712 H 141.90427665835477 82.46974829318589 125.00530449134745 H 0.0 **** 0.06
3713 H 141.99163553350562 82.872611257914 126.73726259245231 H 0.0 **** 0.06
3714 H 142.5224080334724 81.27169212566409 126.16781771734428 H 0.0 **** 0.06
3715 H 140.7926892391853 81.69065556384481 126.15693373146391 H 0.0 **** 0.06
3716 C 47.22216179971164 49.61659533393566 122.20496156203201 C 0.0 **** -0.24
3717 H 47.71257157875476 48.644146857738804 122.23527089890685 H 0.0 **** 0.06
3718 H 47.79496550181739 50.3301865297386 122.79760650126356 H 0.0 **** 0.06
3719 H 46.216034056792836 49.529202889999056 122.6140018754014 H 0.0 **** 0.06
3720 H 47.16648475450813 49.96285228303046 121.172842052739 H 0.0 **** 0.06
3721 C 110.24129837753536 60.73420101749352 148.58067604296497 C 0.0 **** -0.24
3722 H 109.33826884912214 61.25885875477206 148.89181812070524 H 0.0 **** 0.06
3723 H 110.67458144655724 60.21737300784734 149.43664745216864 H 0.0 **** 0.06
3724 H 110.96136406599415 61.45254665760835 148.18686075080973 H 0.0 **** 0.06
3725 H 109.99166274063508 60.0094439905932 147.80550135394648 H 0.0 **** 0.06
3726 C 111.04154387011206 29.901828832658055 142.86981711843418 C 0.0 **** -0.24
3727 H 110.88055219171784 30.81538505632426 143.44210130141317 H 0.0 **** 0.06
3728 H 112.02559926159861 29.93434854640242 142.40255388879746 H 0.0 **** 0.06
3729 H 110.27516186471004 29.815935513610384 142.10057828513325 H 0.0 **** 0.06
3730 H 110.9849073429422 29.041178895277255 143.5368242392325 H 0.0 **** 0.06
3731 C 45.15586573156064 39.61887912012331 93.47636729609567 C 0.0 **** -0.24
3732 H 44.89292201725924 39.266305524243464 94.47459423033735 H 0.0 **** 0.06
3733 H 44.34813017446983 39.38183933606146 92.78356147001578 H 0.0 **** 0.06
3734 H 46.072088258225975 39.127285646663736 93.14815296120622 H 0.0 **** 0.06
3735 H 45.310677176613 40.69704588809539 93.50131286588866 H 0.0 **** 0.06
3736 C 110.89190389338718 95.53409195078748 1.1250233821035636 C 0.0 **** -0.24
3737 H 111.76584088071844 95.12063283356858 1.6288737584203545 H 0.0 **** 0.06
3738 H 110.07567172872864 94.81210778342799 1.1629236397650402 H 0.0 **** 0.06
3739 H 111.13920903453074 95.7491617726584 0.08610973154674184 H 0.0 **** 0.06
3740 H 110.5868566787809 96.45462735629226 1.6244163246701078 H 0.0 **** 0.06
3741 C 139.09271727358157 138.3268735729556 104.89029710949676 C 0.0 **** -0.24
3742 H 139.42550343471143 139.10045850268395 104.19840607508327 H 0.0 **** 0.06
3743 H 139.58208183264452 138.46831958866662 105.8545439030634 H 0.0 **** 0.06
3744 H 139.35237014353737 137.3468707625727 104.49173430352583 H 0.0 **** 0.06
3745 H 138.01254716608724 138.39303436233683 105.01788922407586 H 0.0 **** 0.06
3746 C 0.7495517800096607 109.91174944841501 109.51147517814279 C 0.0 **** -0.24
3747 H 1.5725305694736207 109.25807791700734 109.22112891361606 H 0.0 **** 0.06
3748 H 0.6476433985684622 109.90606437350519 110.59673867126689 H 0.0 **** 0.06
3749 H -0.17440808032264243 109.55556050743624 109.05632785591241 H 0.0 **** 0.06
3750 H 0.9556794204507213 110.92649767572337 109.1703345441335 H 0.0 **** 0.06
3751 C 107.43850224755336 75.64781151616515 13.55502918875061 C 0.0 **** -0.24
3752 H 107.30536012339446 75.93831987697385 12.51290704995938 H 0.0 **** 0.06
3753 H 107.02261298248224 76.41965161486883 14.203130637699587 H 0.0 **** 0.06
3754 H 108.50112409411706 75.5295699928441 13.765483964704913 H 0.0 **** 0.06
3755 H 106.92393759153752 74.70467558705231 13.736832075359814 H 0.0 **** 0.06
3756 C 17.770697098392645 116.01299015689486 17.3586065153209 C 0.0 **** -0.24
3757 H 18.24592096746528 115.03231599990627 17.40229868586971 H 0.0 **** 0.06
3758 H 16.796104796581005 115.9645807018978 17.844647526805545 H 0.0 **** 0.06
3759 H 17.644482888857112 116.30848825929488 16.317570834715127 H 0.0 **** 0.06
3760 H 18.397680099362276 116.74249974347109 17.870562116150836 H 0.0 **** 0.06
3761 C 87.66217841245623 54.10811058702252 27.255320304516147 C 0.0 **** -0.24
3762 H 86.98578054086838 53.495800898621866 27.850766530388285 H 0.0 **** 0.06
3763 H 88.68954453863377 53.927654586505014 27.57088161529174 H 0.0 **** 0.06
3764 H 87.41850173055738 55.161163516743 27.39757606519896 H 0.0 **** 0.06
3765 H 87.55480530370498 53.85020792484312 26.201502609975535 H 0.0 **** 0.06
3766 C 136.69781006001048 34.799073307953535 9.1076152483719 C 0.0 **** -0.24
3767 H 136.41823920435456 35.16430778407155 8.119422758514546 H 0.0 **** 0.06
3768 H 137.6865052362826 34.34048367482973 9.059046157446055 H 0.0 **** 0.06
3769 H 135.96951803487002 34.059618296762096 9.440483830017982 H 0.0 **** 0.06
3770 H 136.71736627766782 35.63249431047021 9.810293335092119 H 0.0 **** 0.06
3771 C 70.69076304435937 0.6739099340354358 15.910841694346473 C 0.0 **** -0.24
3772 H 70.64994529366385 -0.17447916374294437 16.59422690507813 H 0.0 **** 0.06
3773 H 70.62097583957365 0.3172358348290629 14.883344343012574 H 0.0 **** 0.06
3774 H 71.63195501373933 1.2066374163979958 16.048161046446538 H 0.0 **** 0.06
3775 H 69.85915574914866 1.3473628746075121 16.1192809989355 H 0.0 **** 0.06
3776 C 105.11858867181529 58.82574961574174 99.33329208828759 C 0.0 **** -0.24
3777 H 104.18879037196932 59.375895090616694 99.18347347229805 H 0.0 **** 0.06
3778 H 104.99331777775662 57.79981783731844 98.98647558385187 H 0.0 **** 0.06
3779 H 105.37131095210249 58.82331566031678 100.39336519486483 H 0.0 **** 0.06
3780 H 105.91839214517823 59.3057378461522 98.77049093388345 H 0.0 **** 0.06
3781 C 14.684418475405948 63.83724876791064 15.816468366294743 C 0.0 **** -0.24
3782 H 14.544545263617465 62.801406799459045 15.506262936306058 H 0.0 **** 0.06
3783 H 14.111880633263297 64.49282714271615 15.159686112919161 H 0.0 **** 0.06
3784 H 15.742027759685698 64.09429102838538 15.755138344278834 H 0.0 **** 0.06
3785 H 14.338542681315516 63.958800334979315 16.84312685253869 H 0.0 **** 0.06
3786 C 101.65575365192231 43.533874852852136 37.02121325396962 C 0.0 **** -0.24
3787 H 101.27074692719997 44.524077031028014 36.778680922480305 H 0.0 **** 0.06
3788 H 102.60934448158564 43.63214865676913 37.54040810116675 H 0.0 **** 0.06
3789 H 101.79764318480073 42.96414704148229 36.102627884806395 H 0.0 **** 0.06
3790 H 100.94400777137287 43.01553703302892 37.66423752486497 H 0.0 **** 0.06
3791 C 59.10726246902223 100.59249633030154 89.79285273830453 C 0.0 **** -0.24
3792 H 58.53445655645399 99.72136445069282 90.11158481320217 H 0.0 **** 0.06
3793 H 59.462639740367024 101.1345216129402 90.6703082309607 H 0.0 **** 0.06
3794 H 58.471248463001984 101.24638433912784 89.1955160085281 H 0.0 **** 0.06
3795 H 59.95940350005591 100.26844332966192 89.19566785231086 H 0.0 **** 0.06
3796 C 45.310415902125186 136.4298938823153 32.22540423235989 C 0.0 **** -0.24
3797 H 45.916984404842424 135.53119063552694 32.33993209636327 H 0.0 **** 0.06
3798 H 45.31903438782777 136.74356362463715 31.18126366723294 H 0.0 **** 0.06
3799 H 45.720588800408066 137.22611962142352 32.84718496232921 H 0.0 **** 0.06
3800 H 44.286432746278294 136.21899622003545 32.53310236601823 H 0.0 **** 0.06
3801 C 68.06476753542182 35.12429448304902 101.37738569722757 C 0.0 **** -0.24
3802 H 68.78290152914697 34.30468167829643 101.37517696704532 H 0.0 **** 0.06
3803 H 67.64728472285653 35.243946458217884 100.3766254542457 H 0.0 **** 0.06
3804 H 68.56697652463534 36.04530305218305 101.67456216902411 H 0.0 **** 0.06
3805 H 67.26353311155464 34.90400494593038 102.08184318534717 H 0.0 **** 0.06
3806 C 103.97887213122462 82.93223251114844 57.029939943006866 C 0.0 **** -0.24
3807 H 103.64017537105227 82.51551617564675 57.97801823712925 H 0.0 **** 0.06
3808 H 104.99054679901579 82.5838284200365 56.82173224887774 H 0.0 **** 0.06
3809 H 103.97313613332429 84.02018674397988 57.08738668451136 H 0.0 **** 0.06
3810 H 103.31182639341554 82.6071013029607 56.23179575184014 H 0.0 **** 0.06
3811 C 57.37654404827606 114.12355544089773 138.64462669232262 C 0.0 **** -0.24
3812 H 58.40423414902284 113.90573752573435 138.35185726020185 H 0.0 **** 0.06
3813 H 57.36109362275906 115.01084890523761 139.27764966303886 H 0.0 **** 0.06
3814 H 56.96916570262641 113.27590692360842 139.19655186328401 H 0.0 **** 0.06
3815 H 56.7748453746737 114.30045312273576 137.75361919064304 H 0.0 **** 0.06
3816 C 63.40548292010277 54.455508231810754 9.185715777335645 C 0.0 **** -0.24
3817 H 63.60080185387474 54.90644834940957 10.158982457974048 H 0.0 **** 0.06
3818 H 63.93076395987916 53.503600244762765 9.11511508319785 H 0.0 **** 0.06
3819 H 63.75662135118563 55.12389582687621 8.399312368046651 H 0.0 **** 0.06
3820 H 62.334865506186304 54.29058831743009 9.070675760147083 H 0.0 **** 0.06
3821 C 47.679640113169384 109.67553028627442 21.786451453896824 C 0.0 **** -0.24
3822 H 47.415725404183505 110.72617834515457 21.904756756836562 H 0.0 **** 0.06
3823 H 46.85854861960537 109.05196946383482 22.142051220034432 H 0.0 **** 0.06
3824 H 48.57700281337817 109.45998496559791 22.36644273224222 H 0.0 **** 0.06
3825 H 47.86776557110679 109.46400923351372 20.73388452617432 H 0.0 **** 0.06
3826 C 106.51762530385446 39.58645705431269 100.88040847089792 C 0.0 **** -0.24
3827 H 106.22186774604575 39.063776304188934 99.97040967506973 H 0.0 **** 0.06
3828 H 105.6302114772588 39.82255461109111 101.46770833475475 H 0.0 **** 0.06
3829 H 107.03545086928597 40.50932740117463 100.61703130683593 H 0.0 **** 0.06
3830 H 107.18290154226031 38.95080448873176 101.46434152243835 H 0.0 **** 0.06
3831 C 143.21650893697154 86.09519962502557 137.06669826980232 C 0.0 **** -0.24
3832 H 142.36692108823974 85.76904221453677 137.66722748689904 H 0.0 **** 0.06
3833 H 142.86357892115274 86.73098807191596 136.2536896601054 H 0.0 **** 0.06
3834 H 143.7235369736852 85.22409686015604 136.65335582437075 H 0.0 **** 0.06
3835 H 143.90961898182417 86.65655579407772 137.6930888771837 H 0.0 **** 0.06
3836 C 42.38988021834217 105.40690010144085 46.85774974089793 C 0.0 **** -0.24
3837 H 42.70370816813835 104.45275859407344 46.4357551396476 H 0.0 **** 0.06
3838 H 42.84995232020094 105.53953476795165 47.83725686778291 H 0.0 **** 0.06
3839 H 41.30490684188027 105.4189104342977 46.961836289214716 H 0.0 **** 0.06
3840 H 42.70094172323678 106.21588686272402 46.197469792329684 H 0.0 **** 0.06
3841 C 98.20825925440913 129.15572119278136 129.1393903723245 C 0.0 **** -0.24
3842 H 98.27004913724207 130.23838451216236 129.24730984899242 H 0.0 **** 0.06
3843 H 98.40997016811552 128.88207281470872 128.1037375551074 H 0.0 **** 0.06
3844 H 97.20871905393953 128.81944914492726 129.41607250672536 H 0.0 **** 0.06
3845 H 98.9433327007924 128.6831075036448 129.79021737128613 H 0.0 **** 0.06
3846 C 0.5107908633619616 46.662844930847186 9.121811493193377 C 0.0 **** -0.24
3847 H 1.3017442956862055 46.61943796719979 8.371680129068295 H 0.0 **** 0.06
3848 H -0.45869173246529726 46.685633391289315 8.625256737743456 H 0.0 **** 0.06
3849 H 0.6327995977056275 47.56199679495343 9.725202124113707 H 0.0 **** 0.06
3850 H 0.5702376940478757 45.78348148042298 9.762928074347144 H 0.0 **** 0.06
3851 C 105.58235670121876 113.81360124189585 96.65892815364143 C 0.0 **** -0.24
3852 H 104.92183681950893 113.29630986049987 97.35526257064382 H 0.0 **** 0.06
3853 H 105.8243072269867 114.80056714185154 97.05355550821719 H 0.0 **** 0.06
3854 H 105.08319234402377 113.9187361872625 95.69555331535801 H 0.0 **** 0.06
3855 H 106.4981873694375 113.23724983435365 96.53130882388044 H 0.0 **** 0.06
3856 C 109.2619927301599 40.166913895104344 36.590124431668045 C 0.0 **** -0.24
3857 H 108.32112023824445 39.69165053675279 36.31115273316311 H 0.0 **** 0.06
3858 H 109.38423022249296 41.0908114405006 36.02514585586165 H 0.0 **** 0.06
3859 H 110.08826282469082 39.49191784670951 36.36887452857438 H 0.0 **** 0.06
3860 H 109.25172078157877 40.39116481227633 37.65693440098727 H 0.0 **** 0.06
3861 C 144.58729378055136 43.85462241170322 97.9223793374554 C 0.0 **** -0.24
3862 H 143.60349319898808 44.286922333234045 98.1036047729672 H 0.0 **** 0.06
3863 H 145.0865124262324 44.40955617245517 97.12746501269996 H 0.0 **** 0.06
3864 H 144.4763504936045 42.81235172745741 97.6241816318558 H 0.0 **** 0.06
3865 H 145.18214783399208 43.91090257737737 98.83420152080421 H 0.0 **** 0.06
3866 C 143.24339173195943 114.64602458978187 80.09618364837795 C 0.0 **** -0.24
3867 H 142.2194823138908 114.96629585651341 79.9030507694604 H 0.0 **** 0.06
3868 H 143.33282239958032 113.57742239419333 79.90034444702908 H 0.0 **** 0.06
3869 H 143.4961328992009 114.84836998590497 81.13701011238135 H 0.0 **** 0.06
3870 H 143.92482143419528 115.19276745099044 79.44375333105953 H 0.0 **** 0.06
3871 C 113.86285140196408 42.49299722416578 88.07272712926854 C 0.0 **** -0.24
3872 H 113.6017269857398 41.53394569840157 88.5193530013857 H 0.0 **** 0.06
3873 H 114.78115246040862 42.86693754958756 88.5279681260248 H 0.0 **** 0.06
3874 H 113.05568804768599 43.2051684011079 88.2440076464261 H 0.0 **** 0.06
3875 H 114.0149841205676 42.36516947914822 87.0012547000629 H 0.0 **** 0.06
3876 C 51.2436762919785 120.23229111759892 39.627686491196926 C 0.0 **** -0.24
3877 H 50.996630749251125 119.22150947630522 39.303263230663305 H 0.0 **** 0.06
3878 H 50.69038155221938 120.46683240311418 40.536993807630125 H 0.0 **** 0.06
3879 H 50.973933083969385 120.94125701834852 38.84503495253992 H 0.0 **** 0.06
3880 H 52.312995249157225 120.29837710789505 39.82550977348447 H 0.0 **** 0.06
3881 C 2.0300039654509305 30.677950499870263 99.56810382924039 C 0.0 **** -0.24
3882 H 1.8887180299519422 30.807087393862105 98.49473974637874 H 0.0 **** 0.06
3883 H 1.3099874275167167 31.296250215701946 100.10646357862592 H 0.0 **** 0.06
3884 H 3.0415506792574583 30.978417142949468 99.83970923354008 H 0.0 **** 0.06
3885 H 1.8785944440317586 29.631533973010747 99.83030611780237 H 0.0 **** 0.06
3886 C 17.68054681720224 55.818410724766224 67.77657832100122 C 0.0 **** -0.24
3887 H 16.649875009210376 55.9716816424403 67.45745903953781 H 0.0 **** 0.06
3888 H 18.03453371561733 56.70574819657513 68.30280548201853 H 0.0 **** 0.06
3889 H 18.307616345128054 55.639229800139674 66.9029499655699 H 0.0 **** 0.06
3890 H 17.729786974391914 54.956716023886116 68.44221120006011 H 0.0 **** 0.06
3891 C 129.9912442055437 76.98116707419645 26.38539734693481 C 0.0 **** -0.24
3892 H 130.98954416701267 77.284824263702 26.070537098232535 H 0.0 **** 0.06
3893 H 129.57338423724295 77.73911227793553 27.047597150766165 H 0.0 **** 0.06
3894 H 130.05114337583734 76.02920919998485 26.912561234715866 H 0.0 **** 0.06
3895 H 129.35219258132298 76.87108676175721 25.509118373171333 H 0.0 **** 0.06
3896 C 70.69377639127427 100.92003258549097 57.49421255989998 C 0.0 **** -0.24
3897 H 71.5814868153279 100.36127615847589 57.20015322744379 H 0.0 **** 0.06
3898 H 69.8218208642875 100.26676993319924 57.4495249256812 H 0.0 **** 0.06
3899 H 70.55308435757226 101.76144234581959 56.814117029258426 H 0.0 **** 0.06
3900 H 70.8188553202726 101.2918866789678 58.51120286544018 H 0.0 **** 0.06
3901 C 19.17267767157142 17.3890820767582 40.507575377354186 C 0.0 **** -0.24
3902 H 18.611311894501114 17.867856327683683 41.31104798507923 H 0.0 **** 0.06
3903 H 18.860709540195614 16.348242234559223 40.41679640822204 H 0.0 **** 0.06
3904 H 20.23749819220768 17.431835006849212 40.732963641825506 H 0.0 **** 0.06
3905 H 18.978448035499696 17.91010652200208 39.570232404542736 H 0.0 **** 0.06
3906 C 58.29573579631827 114.77757088408175 2.637918108783623 C 0.0 **** -0.24
3907 H 57.24627249290873 115.00650404291441 2.824398359658943 H 0.0 **** 0.06
3908 H 58.873956842733236 115.7018232109982 2.6395177983201847 H 0.0 **** 0.06
3909 H 58.39365959166449 114.28771620887913 1.6690859178919197 H 0.0 **** 0.06
3910 H 58.66748212959729 114.1153666570034 3.419792591451426 H 0.0 **** 0.06
3911 C 106.9256009204641 141.1647256120848 20.290084282506626 C 0.0 **** -0.24
3912 H 106.61690955394208 140.86347917818668 19.289268268319773 H 0.0 **** 0.06
3913 H 107.80525785203152 141.8053803392382 20.220315209023056 H 0.0 **** 0.06
3914 H 107.16709468284192 140.27812800909808 20.877367842443988 H 0.0 **** 0.06
3915 H 106.11436689892194 141.71051983096208 20.772139804617666 H 0.0 **** 0.06
3916 C 110.91812470180334 122.87231433377777 4.516863376524981 C 0.0 **** -0.24
3917 H 111.99683494305536 123.02027817794665 4.572956336601607 H 0.0 **** 0.06
3918 H 110.45123195466262 123.25042628166541 5.426649077613263 H 0.0 **** 0.06
3919 H 110.70400187986779 121.8080343597842 4.413267620827071 H 0.0 **** 0.06
3920 H 110.52309293089515 123.4079602624356 3.6539764765148277 H 0.0 **** 0.06
3921 C 31.826975247703615 101.05536784719544 105.49760650519572 C 0.0 **** -0.24
3922 H 31.667566511401702 100.98373601538418 106.57364843298218 H 0.0 **** 0.06
3923 H 32.87420613486242 100.85071661044483 105.27253792619099 H 0.0 **** 0.06
3924 H 31.57110936928774 102.05920006729909 105.15804499014912 H 0.0 **** 0.06
3925 H 31.196401092799817 100.3270964727769 104.98808368306244 H 0.0 **** 0.06
3926 C 7.578157230030513 68.6732954946885 11.344844324364885 C 0.0 **** -0.24
3927 H 7.522751605693259 69.69314457575484 10.96338977519082 H 0.0 **** 0.06
3928 H 8.355769382425194 68.12693434250065 10.81003748443294 H 0.0 **** 0.06
3929 H 6.618649409701675 68.17791336169938 11.198028961277657 H 0.0 **** 0.06
3930 H 7.815964192706474 68.695450270999 12.408743533955885 H 0.0 **** 0.06
3931 C 14.215380963236441 139.13687758000822 134.0066633500608 C 0.0 **** -0.24
3932 H 14.961410975105167 139.91018234216418 133.82040145896326 H 0.0 **** 0.06
3933 H 13.61307365441158 139.4157948724242 134.8717688727629 H 0.0 **** 0.06
3934 H 14.716194853094834 138.18890080822845 134.20219840360247 H 0.0 **** 0.06
3935 H 13.572262120147684 139.03524523449647 133.13268824097833 H 0.0 **** 0.06
3936 C 107.12611064810552 44.073074379892404 76.11147927655544 C 0.0 **** -0.24
3937 H 107.1633122677221 45.1475498871915 76.29317665251273 H 0.0 **** 0.06
3938 H 107.40246222233712 43.54233936840254 77.02219471778903 H 0.0 **** 0.06
3939 H 107.82381298774222 43.81544646470891 75.31476302875699 H 0.0 **** 0.06
3940 H 106.11639011669517 43.789485786933454 75.81630576002237 H 0.0 **** 0.06
3941 C 77.74539657638542 22.4518671703336 63.2770898756487 C 0.0 **** -0.24
3942 H 78.78634321599458 22.153964600694252 63.151413161520395 H 0.0 **** 0.06
3943 H 77.69850463424768 23.362881883090438 63.87340423002615 H 0.0 **** 0.06
3944 H 77.19954554880246 21.655634221736392 63.78318594349162 H 0.0 **** 0.06
3945 H 77.29975146105664 22.63353279195016 62.2992000514314 H 0.0 **** 0.06
3946 C 80.17675761990449 10.850119293557754 147.27707361288 C 0.0 **** -0.24
3947 H 80.08237126631404 11.931446694207366 147.17685506714548 H 0.0 **** 0.06
3948 H 79.29287951395811 10.368180275683542 146.85850488179454 H 0.0 **** 0.06
3949 H 80.26977034366249 10.588760885753281 148.33106407324578 H 0.0 **** 0.06
3950 H 81.06351557973841 10.512880560650267 146.74010820213635 H 0.0 **** 0.06
3951 C 133.4375128021985 42.35000918884485 62.2888364478834 C 0.0 **** -0.24
3952 H 134.2402559306985 42.67933498650075 62.94831841133127 H 0.0 **** 0.06
3953 H 133.8387848412408 42.164185258240295 61.292907396004864 H 0.0 **** 0.06
3954 H 132.67194621749445 43.12491279276135 62.234002639049606 H 0.0 **** 0.06
3955 H 132.99800249989102 41.43284272698675 62.68069848024122 H 0.0 **** 0.06
3956 C 140.37651848612597 71.42139367662875 45.919123697428944 C 0.0 **** -0.24
3957 H 139.71640564950135 72.26307368505095 45.711664647252604 H 0.0 **** 0.06
3958 H 140.71228804046265 70.9827420725274 44.97850627960045 H 0.0 **** 0.06
3959 H 139.83930782877377 70.67092004011587 46.499067242620754 H 0.0 **** 0.06
3960 H 141.23990201045842 71.76959734932998 46.48621855914061 H 0.0 **** 0.06
3961 C 26.299677700208065 85.32117089373298 14.060245747886 C 0.0 **** -0.24
3962 H 26.79190456942152 85.25215771489584 13.090496114881546 H 0.0 **** 0.06
3963 H 25.957945243019736 84.33125771418133 14.364811600173653 H 0.0 **** 0.06
3964 H 25.445728853648923 85.99371839246379 13.986974541181809 H 0.0 **** 0.06
3965 H 27.00350298017934 85.70609261512399 14.797381884240508 H 0.0 **** 0.06
3966 C 111.92540361509052 51.69301216253429 35.75916225451185 C 0.0 **** -0.24
3967 H 111.32697453601182 52.60483335630575 35.75969521191569 H 0.0 **** 0.06
3968 H 111.56156198038175 51.02180216849844 34.98168500995323 H 0.0 **** 0.06
3969 H 111.84302785741326 51.205151367981415 36.72979427547357 H 0.0 **** 0.06
3970 H 112.96855508200767 51.944195888013965 35.566011396989005 H 0.0 **** 0.06
3971 C 148.29956648585306 141.50414837660995 65.77013811692105 C 0.0 **** -0.24
3972 H 147.81736859732703 140.68607503883018 66.30523969012201 H 0.0 **** 0.06
3973 H 148.27572136882463 141.30050194404137 64.69856352526787 H 0.0 **** 0.06
3974 H 149.33425386210106 141.59421438299628 66.10067196656998 H 0.0 **** 0.06
3975 H 147.76934163597707 142.43408822624795 65.97532575206026 H 0.0 **** 0.06
3976 C 73.5885041456317 76.80312315175343 105.04281124964486 C 0.0 **** -0.24
3977 H 73.70298372997604 77.72543527221973 105.61218217906266 H 0.0 **** 0.06
3978 H 73.2862878001147 75.99811844618648 105.71329109108966 H 0.0 **** 0.06
3979 H 74.53717810090546 76.54793285871403 104.57093402775477 H 0.0 **** 0.06
3980 H 72.82740280146936 76.94290678649884 104.27543797185037 H 0.0 **** 0.06
3981 C 45.90969455077149 104.19615926946557 111.84310546310883 C 0.0 **** -0.24
3982 H 45.17819821545338 104.43220963634332 111.06963092907489 H 0.0 **** 0.06
3983 H 45.87615790072584 104.959549924957 112.62020678981804 H 0.0 **** 0.06
3984 H 46.90614627122635 104.1684005012745 111.40241634861371 H 0.0 **** 0.06
3985 H 45.67659700913201 103.22424392036157 112.27731687666324 H 0.0 **** 0.06
3986 C 115.7966176019869 72.52734857049357 10.79595268710441 C 0.0 **** -0.24
3987 H 116.6228321323295 73.13396825657686 10.427008870188622 H 0.0 **** 0.06
3988 H 115.54790339148587 72.83322032535712 11.813340657503666 H 0.0 **** 0.06
3989 H 116.08860915898236 71.47724214092885 10.794575514496252 H 0.0 **** 0.06
3990 H 114.92762389482482 72.66452737829026 10.152135625593083 H 0.0 **** 0.06
3991 C 121.70961280718852 146.36371483756577 66.43902607093425 C 0.0 **** -0.24
3992 H 121.88797893585026 145.69249764151843 67.27915373131044 H 0.0 **** 0.06
3993 H 121.7719631180325 145.80327236992756 65.50672454849105 H 0.0 **** 0.06
3994 H 122.46196446392928 147.15331386643973 66.43997109026516 H 0.0 **** 0.06
3995 H 120.71803220900073 146.80610663652035 66.53283909811472 H 0.0 **** 0.06
3996 C 111.81873912314612 143.46864123238672 83.21932222865874 C 0.0 **** -0.24
3997 H 111.23470658391446 142.5718379342109 83.01099473428974 H 0.0 **** 0.06
3998 H 112.49823146980484 143.6604876485868 82.38899664087026 H 0.0 **** 0.06
3999 H 112.39311594895915 143.3242831509255 84.13396175388223 H 0.0 **** 0.06
4000 H 111.14670076405432 144.31892755651262 83.34287853151608 H 0.0 **** 0.06
4001 C 0.08746528751322558 36.773698941808625 86.37143343372625 C 0.0 **** -0.24
4002 H 1.1078889527157116 37.15430466162548 86.41286172934535 H 0.0 **** 0.06
4003 H -0.20772808361874695 36.63781552350747 85.33119786473519 H 0.0 **** 0.06
4004 H -0.5854920888005495 37.48584921817428 86.85059091600816 H 0.0 **** 0.06
4005 H 0.035470310152390994 35.81771236274073 86.89214991523085 H 0.0 **** 0.06
4006 C 110.43449467248529 137.99994906279932 43.28857724430027 C 0.0 **** -0.24
4007 H 110.26474203146587 136.9303707881868 43.16432007322608 H 0.0 **** 0.06
4008 H 110.16022556680586 138.29600656685864 44.3020618105366 H 0.0 **** 0.06
4009 H 109.82442341486025 138.54952139905382 42.57233722928545 H 0.0 **** 0.06
4010 H 111.48695607633438 138.2233436373554 43.11733093821253 H 0.0 **** 0.06
4011 C 142.7027345034185 22.966771717616012 142.58940628331354 C 0.0 **** -0.24
4012 H 142.67316716150216 24.055928692079306 142.60629758504814 H 0.0 **** 0.06
4013 H 143.09995634882065 22.598712799995212 143.53499440522037 H 0.0 **** 0.06
4014 H 143.34242976293095 22.63393621590822 141.77180980564285 H 0.0 **** 0.06
4015 H 141.69448442567895 22.579140196400402 142.44257618235056 H 0.0 **** 0.06
4016 C 112.66603830880346 18.634032291812417 77.927828636605 C 0.0 **** -0.24
4017 H 113.52773142494338 17.968153859755205 77.97009394287878 H 0.0 **** 0.06
4018 H 112.72059849842255 19.349500569145818 78.74888761544142 H 0.0 **** 0.06
4019 H 111.75090383078783 18.048224150349483 78.01649772337672 H 0.0 **** 0.06
4020 H 112.66517080732667 19.167909951916243 76.97874366123003 H 0.0 **** 0.06
4021 C 137.34678884216893 137.84632361011305 71.1808219570047 C 0.0 **** -0.24
4022 H 137.1033735313854 137.25131335766244 72.0603611686447 H 0.0 **** 0.06
4023 H 136.81957046591378 137.4475883158752 70.31410433618174 H 0.0 **** 0.06
4024 H 138.42189805717595 137.80730436493369 71.00207575977342 H 0.0 **** 0.06
4025 H 137.04391741041675 138.88052308744614 71.34735379973807 H 0.0 **** 0.06
4026 C 131.44920335243182 77.02294144564476 84.56776453103923 C 0.0 **** -0.24
4027 H 130.5753987935288 76.89286259093276 85.20624441985284 H 0.0 **** 0.06
4028 H 131.84106569414433 76.04595031066279 84.28480921289008 H 0.0 **** 0.06
4029 H 132.21439340034652 77.57923801327357 85.10946446158063 H 0.0 **** 0.06
4030 H 131.16457703507893 77.57564206969309 83.67208468511309 H 0.0 **** 0.06
4031 C 127.97698869415805 137.8510942822235 50.05216167079597 C 0.0 **** -0.24
4032 H 128.61403980718384 138.25828920759966 50.838034877752236 H 0.0 **** 0.06
4033 H 127.00169855458446 137.59947287807177 50.470795588349986 H 0.0 **** 0.06
4034 H 128.43802976065982 136.9544094166662 49.63887019336434 H 0.0 **** 0.06
4035 H 127.85291165582882 138.59367890080458 49.26414044925929 H 0.0 **** 0.06
4036 C 127.39156024238669 3.0926931280462213 64.45455463323617 C 0.0 **** -0.24
4037 H 128.01854446553398 3.191842637766001 65.34061594049294 H 0.0 **** 0.06
4038 H 127.92299770565783 2.516892735998681 63.69619281274066 H 0.0 **** 0.06
4039 H 127.15885939450254 4.083406332340132 64.0625722481575 H 0.0 **** 0.06
4040 H 126.46639853946964 2.5809890872838537 64.71919263256737 H 0.0 **** 0.06
4041 C 15.309331846506296 19.21839649410569 36.288386340463106 C 0.0 **** -0.24
4042 H 14.493226758452728 18.778526678295577 36.86219862566217 H 0.0 **** 0.06
4043 H 15.54607016528066 18.573857766218225 35.44099898334553 H 0.0 **** 0.06
4044 H 16.187217321293694 19.319266834975224 36.925237728342786 H 0.0 **** 0.06
4045 H 15.00860611016207 20.20095695377421 35.92552626098116 H 0.0 **** 0.06
4046 C 36.122910007540355 44.10248475695923 11.239258913262212 C 0.0 **** -0.24
4047 H 35.76469290271669 45.12733732269166 11.329009437451667 H 0.0 **** 0.06
4048 H 35.66981052725123 43.63484931532423 10.364767369054512 H 0.0 **** 0.06
4049 H 35.84844142570705 43.54174924137661 12.134121613305837 H 0.0 **** 0.06
4050 H 37.207066995844656 44.10415631210404 11.131359536647608 H 0.0 **** 0.06
4051 C 84.02968914763042 44.88127088079338 53.973343347101135 C 0.0 **** -0.24
4052 H 83.87766328548636 44.019251012476644 54.62312975732054 H 0.0 **** 0.06
4053 H 83.63619204302717 44.6627792477108 52.981196747122866 H 0.0 **** 0.06
4054 H 85.09625803177457 45.09713986669371 53.90170589989299 H 0.0 **** 0.06
4055 H 83.51106968715635 45.7450331348502 54.3891679522131 H 0.0 **** 0.06
4056 C 30.318833948011545 101.70552922138845 87.04273832400037 C 0.0 **** -0.24
4057 H 29.267153729113858 101.9709850390472 86.93575045571134 H 0.0 **** 0.06
4058 H 30.840677321273063 101.90383226035149 86.10603243774204 H 0.0 **** 0.06
4059 H 30.403604651461762 100.64742048422974 87.28933372765192 H 0.0 **** 0.06
4060 H 30.76538661498637 102.30121715625708 87.83983564491751 H 0.0 **** 0.06
4061 C 63.815844040322105 106.58655128933852 17.013100420254318 C 0.0 **** -0.24
4062 H 64.88163574645353 106.45970528439692 16.821941768849854 H 0.0 **** 0.06
4063 H 63.54037769740347 107.63010690316467 16.857898968938855 H 0.0 **** 0.06
4064 H 63.59555355049781 106.30158690167427 18.042723140337273 H 0.0 **** 0.06
4065 H 63.246724150070236 105.95430591944772 16.33246705182802 H 0.0 **** 0.06
4066 C 47.53022108593632 51.06777735337059 84.16423962505331 C 0.0 **** -0.24
4067 H 46.95376682689937 50.14604879118417 84.238787625376 H 0.0 **** 0.06
4068 H 48.594408576781376 50.83613950088355 84.22268127887452 H 0.0 **** 0.06
4069 H 47.25761995405327 51.733517957453714 84.98290105750044 H 0.0 **** 0.06
4070 H 47.31597584296932 51.55396410425193 83.21221077968755 H 0.0 **** 0.06
4071 C 15.472950747143443 37.057495175222954 126.26468890899989 C 0.0 **** -0.24
4072 H 16.052518879582863 36.9402752990963 127.18076302765854 H 0.0 **** 0.06
4073 H 14.583955505282177 36.42870011859134 126.31453590741891 H 0.0 **** 0.06
4074 H 16.081226495134217 36.760618197573734 125.40997247695174 H 0.0 **** 0.06
4075 H 15.17556553079163 38.100514033094015 126.15440204179413 H 0.0 **** 0.06
4076 C 65.4318599982782 144.51681960088786 20.98562083931273 C 0.0 **** -0.24
4077 H 65.37209659772498 143.57560465396125 21.532608282916357 H 0.0 **** 0.06
4078 H 65.85217767197034 144.3363889158062 19.996214296781545 H 0.0 **** 0.06
4079 H 66.07062806805997 145.21205290551958 21.53066533426582 H 0.0 **** 0.06
4080 H 64.43345297499252 144.94286062777894 20.88441826995151 H 0.0 **** 0.06
4081 C 85.63586795010366 68.22974594972393 28.215375741332025 C 0.0 **** -0.24
4082 H 85.86012693798943 68.01222185305855 29.259330066729007 H 0.0 **** 0.06
4083 H 86.22936398199138 69.0817624655553 27.88513981282287 H 0.0 **** 0.06
4084 H 84.57600827627601 68.46340498334163 28.11266535159666 H 0.0 **** 0.06
4085 H 85.8768666044015 67.35956237815091 27.603563074395453 H 0.0 **** 0.06
4086 C 147.75864992352072 54.607024169529694 87.07526470943422 C 0.0 **** -0.24
4087 H 147.48051032525026 53.80868443574258 87.76335883084143 H 0.0 **** 0.06
4088 H 148.67412621045796 55.08543218860976 87.42400162577177 H 0.0 **** 0.06
4089 H 146.95667990378527 55.343942827467885 87.0311346227463 H 0.0 **** 0.06
4090 H 147.92392691465326 54.188242549370756 86.08195962027321 H 0.0 **** 0.06
4091 C 17.7740319246168 141.8549054706775 130.32560748757263 C 0.0 **** -0.24
4092 H 17.991612764907877 141.59811213769473 129.28825976750812 H 0.0 **** 0.06
4093 H 17.539505664115822 140.9469743638242 130.88241182351092 H 0.0 **** 0.06
4094 H 16.921308646011155 142.5330932645727 130.35982466599683 H 0.0 **** 0.06
4095 H 18.642730042772953 142.33951868504855 130.76961879582862 H 0.0 **** 0.06
4096 C 137.85768385864193 79.15627007033815 124.08201408703913 C 0.0 **** -0.24
4097 H 138.16713389312181 79.74508368201374 124.94464067776995 H 0.0 **** 0.06
4098 H 138.73659327350202 78.7185883591262 123.60700198014133 H 0.0 **** 0.06
4099 H 137.3415668651456 79.79914312894734 123.36940624244754 H 0.0 **** 0.06
4100 H 137.18581146174597 78.36143762200727 124.40658512741693 H 0.0 **** 0.06
4101 C 42.235135769599 133.2617332198749 101.60087434708015 C 0.0 **** -0.24
4102 H 42.51998569388007 133.59647166249258 102.59868555442183 H 0.0 **** 0.06
4103 H 41.27323592613038 133.6994019317286 101.33276560999047 H 0.0 **** 0.06
4104 H 42.154753611707164 132.17510702907308 101.59156388834474 H 0.0 **** 0.06
4105 H 42.991113672939306 133.5770685638134 100.88176273357341 H 0.0 **** 0.06
4106 C 20.02671411873642 131.77631002762016 127.25136127411355 C 0.0 **** -0.24
4107 H 19.634942716398236 132.78481099644804 127.38188877832894 H 0.0 **** 0.06
4108 H 19.990322699356966 131.5068261393333 126.1952710198903 H 0.0 **** 0.06
4109 H 19.421395012476225 131.0749267859521 127.82619415111807 H 0.0 **** 0.06
4110 H 21.05792335503582 131.7383070835372 127.6012551725467 H 0.0 **** 0.06
4111 C 2.567125056615339 28.89232989417728 19.986119239611583 C 0.0 **** -0.24
4112 H 3.047050721498067 27.92256599529908 19.85406309916857 H 0.0 **** 0.06
4113 H 2.5125271168464565 29.128626085620148 21.04850082618043 H 0.0 **** 0.06
4114 H 1.5611098026952277 28.859039985418406 19.56793558053613 H 0.0 **** 0.06
4115 H 3.148954140390231 29.657915621639567 19.47215433746419 H 0.0 **** 0.06
4116 C 68.88680682596907 61.66159444451402 41.72864292427738 C 0.0 **** -0.24
4117 H 69.27826557239942 61.80924760401872 40.72142292328476 H 0.0 **** 0.06
4118 H 68.8715899939372 62.615695227730924 42.2557251156295 H 0.0 **** 0.06
4119 H 69.52334820521341 60.95933941975447 42.26560603679985 H 0.0 **** 0.06
4120 H 67.87379690458961 61.26296860899343 41.66977151535656 H 0.0 **** 0.06
4121 C 70.20298864310841 141.8050391865319 82.46748654402512 C 0.0 **** -0.24
4122 H 70.48352907521237 142.10915349417039 81.45970085717681 H 0.0 **** 0.06
4123 H 69.1225414285664 141.6604369857982 82.51561756271971 H 0.0 **** 0.06
4124 H 70.49766278656827 142.57995194895457 83.17583312529041 H 0.0 **** 0.06
4125 H 70.7058092391725 140.872008161153 82.7192840600018 H 0.0 **** 0.06
4126 C 33.95920399762633 58.100957843474234 16.18347697276665 C 0.0 **** -0.24
4127 H 34.8518624648342 57.6126990198144 15.7936544072194 H 0.0 **** 0.06
4128 H 33.52948544318076 57.49136466461505 16.97844590856709 H 0.0 **** 0.06
4129 H 33.2305878221801 58.22042305136898 15.382333430226218 H 0.0 **** 0.06
4130 H 34.225445030930246 59.08029667941213 16.580806346722632 H 0.0 **** 0.06
4131 C 79.5006748006698 79.46737952515333 147.74867255633217 C 0.0 **** -0.24
4132 H 79.18807861665738 79.24457780717644 146.72838558068034 H 0.0 **** 0.06
4133 H 80.58085173392533 79.34561310960873 147.83256079455478 H 0.0 **** 0.06
4134 H 79.00277405730674 78.78513862588181 148.4375932222622 H 0.0 **** 0.06
4135 H 79.23091338373774 80.49481061151563 147.9948831520729 H 0.0 **** 0.06
4136 C 83.79656497435633 67.93718663911945 20.479503154697 C 0.0 **** -0.24
4137 H 84.65661278038067 68.60087133437474 20.56953585040401 H 0.0 **** 0.06
4138 H 82.87963504189906 68.51279291451074 20.606901765798682 H 0.0 **** 0.06
4139 H 83.85166126157571 67.16544088569455 21.247012346873703 H 0.0 **** 0.06
4140 H 83.79945413781729 67.47120032912501 19.493968828915115 H 0.0 **** 0.06
4141 C 48.642367543539535 93.25749096250297 35.08841267199836 C 0.0 **** -0.24
4142 H 48.69581532127226 92.16987682203745 35.037684881794675 H 0.0 **** 0.06
4143 H 49.64230414671678 93.66357510986421 35.24136672112088 H 0.0 **** 0.06
4144 H 47.9992032166344 93.551236543848 35.91856789989462 H 0.0 **** 0.06
4145 H 48.230889917074975 93.64462843659095 34.156038692469885 H 0.0 **** 0.06
4146 C 109.36163903419016 93.83983682863844 46.22394272922779 C 0.0 **** -0.24
4147 H 110.00950551927143 93.29419374779648 46.909266079021776 H 0.0 **** 0.06
4148 H 109.8085686490988 94.80920871559826 45.99662212394729 H 0.0 **** 0.06
4149 H 108.38630127786415 93.9887248566573 46.687328208754565 H 0.0 **** 0.06
4150 H 109.24436898017943 93.26901150913292 45.302600943576664 H 0.0 **** 0.06
4151 C 24.374226605305367 82.30051582268646 102.45411022088021 C 0.0 **** -0.24
4152 H 24.58564985546272 83.03574652533142 103.23070890530295 H 0.0 **** 0.06
4153 H 23.34368018357891 82.41532959483398 102.11612145893167 H 0.0 **** 0.06
4154 H 24.51611226681439 81.29748077611922 102.85641810875353 H 0.0 **** 0.06
4155 H 25.051645033824258 82.45418530326165 101.61390401994345 H 0.0 **** 0.06
4156 C 65.31009042001955 60.34083742019979 3.358337013122 C 0.0 **** -0.24
4157 H 65.57553016055886 60.64629139962463 2.34588497942741 H 0.0 **** 0.06
4158 H 65.83694627361912 60.968419940923255 4.07716075677633 H 0.0 **** 0.06
4159 H 65.59303179245755 59.29877955104634 3.5082005232318423 H 0.0 **** 0.06
4160 H 64.23444075264077 60.4485504766987 3.499082124355347 H 0.0 **** 0.06
4161 C 60.91080034689254 142.2805162995956 76.8494056534841 C 0.0 **** -0.24
4162 H 60.31060969667895 141.68225498041596 76.16531210078142 H 0.0 **** 0.06
4163 H 60.3437404156619 142.4676354273846 77.7618019403696 H 0.0 **** 0.06
4164 H 61.16249512356295 143.23020383068604 76.37700875696935 H 0.0 **** 0.06
4165 H 61.826163415259515 141.74268974641257 77.09470242623584 H 0.0 **** 0.06
4166 C 122.61323422156019 64.88880531860963 126.7321549386641 C 0.0 **** -0.24
4167 H 122.02516431749675 65.77080829330102 126.98580435012452 H 0.0 **** 0.06
4168 H 122.15094217575475 64.37302386203181 125.89050593956902 H 0.0 **** 0.06
4169 H 122.65229136450452 64.21924901192634 127.59209587871037 H 0.0 **** 0.06
4170 H 123.62503416099284 65.19244842151619 126.46212668125052 H 0.0 **** 0.06
4171 C 8.594739461329283 139.10521470908316 38.71717914964931 C 0.0 **** -0.24
4172 H 8.610274587836358 138.1972123528081 38.115102051810624 H 0.0 **** 0.06
4173 H 7.571644363571664 139.473539931855 38.791175272002334 H 0.0 **** 0.06
4174 H 9.22067265815943 139.86342487197362 38.247029756877055 H 0.0 **** 0.06
4175 H 8.97524625664795 138.88611870112004 39.71475470867108 H 0.0 **** 0.06
4176 C 38.01477565219807 29.669855625936236 148.6092714158504 C 0.0 **** -0.24
4177 H 38.807675892472474 28.921233269662423 148.60872567595212 H 0.0 **** 0.06
4178 H 37.45483512585625 29.6054298603147 149.5421210305747 H 0.0 **** 0.06
4179 H 37.34464972457528 29.487853385876235 147.7689078513811 H 0.0 **** 0.06
4180 H 38.454364463895246 30.6629995213122 148.51546111087188 H 0.0 **** 0.06
4181 C 143.64707087954562 3.8405509983894888 5.833233565563859 C 0.0 **** -0.24
4182 H 144.1027148433453 3.3989439794836755 4.946354575888563 H 0.0 **** 0.06
4183 H 144.36221590526975 4.5094284597600165 6.313977868664466 H 0.0 **** 0.06
4184 H 143.3639196456944 3.0501314219816607 6.528154961535392 H 0.0 **** 0.06
4185 H 142.76010111504138 4.40380750479099 5.542852375450337 H 0.0 **** 0.06
4186 C 70.88532356279597 122.02788150334062 113.48718034258299 C 0.0 **** -0.24
4187 H 71.05215248998257 121.93700134897513 114.56022012210558 H 0.0 **** 0.06
4188 H 70.2604305493376 121.2028047500953 113.1447835399709 H 0.0 **** 0.06
4189 H 71.84264445135906 121.99941916360963 112.96686880956933 H 0.0 **** 0.06
4190 H 70.38598796397656 122.97346518119845 113.27605017102154 H 0.0 **** 0.06
4191 C 131.36317884122633 133.31436734780726 89.48864610712494 C 0.0 **** -0.24
4192 H 130.34637908536996 133.36531381250978 89.87852712987333 H 0.0 **** 0.06
4193 H 131.54005783492582 132.3269191236919 89.06278545485783 H 0.0 **** 0.06
4194 H 132.07122153390617 133.49316327340185 90.29856282401637 H 0.0 **** 0.06
4195 H 131.4950750928755 134.0733759421148 88.71775908321413 H 0.0 **** 0.06
4196 C 28.620727255792247 116.30645869317424 78.67658784502905 C 0.0 **** -0.24
4197 H 28.310708537937444 116.34303131552143 79.72054200676749 H 0.0 **** 0.06
4198 H 29.608212425303748 115.84702156098446 78.60721816800543 H 0.0 **** 0.06
4199 H 28.66177791816574 117.31820297287071 78.27288889039264 H 0.0 **** 0.06
4200 H 27.904888000389747 115.71545071653132 78.10515436582759 H 0.0 **** 0.06
4201 C 132.1609934873662 39.96318147733997 114.09386107826016 C 0.0 **** -0.24
4202 H 131.6455960977154 40.46369335638332 114.91366524870152 H 0.0 **** 0.06
4203 H 132.60911565103254 39.03835012060654 114.45824274757736 H 0.0 **** 0.06
4204 H 132.94066351518654 40.615872590755004 113.70173173026755 H 0.0 **** 0.06
4205 H 131.44666975736362 39.733903169862856 113.30301181558023 H 0.0 **** 0.06
4206 C 92.04836338525044 14.103135371223772 22.296750457462338 C 0.0 **** -0.24
4207 H 91.06070512761121 14.457863612131291 22.592628053894373 H 0.0 **** 0.06
4208 H 92.79688882347338 14.50387556920461 22.981648635328952 H 0.0 **** 0.06
4209 H 92.26622736850805 14.437897935030634 21.283577856557486 H 0.0 **** 0.06
4210 H 92.06905160912399 13.014203008190435 22.332608055198193 H 0.0 **** 0.06
4211 C 48.442432598386574 90.45096027744684 32.25498579303533 C 0.0 **** -0.24
4212 H 47.97282149070409 89.58205240013714 31.793632346931616 H 0.0 **** 0.06
4213 H 49.5116096336391 90.27172222032168 32.36152975348301 H 0.0 **** 0.06
4214 H 48.00257246430175 90.62214400618936 33.2380212527747 H 0.0 **** 0.06
4215 H 48.27973015599926 91.32692727083764 31.626933063978896 H 0.0 **** 0.06
4216 C 120.82785644953478 71.63845059399127 120.18901325950043 C 0.0 **** -0.24
4217 H 121.72246291181054 71.08775077896716 120.47923638876244 H 0.0 **** 0.06
4218 H 120.16477508897478 71.7321219803199 121.04881454466494 H 0.0 **** 0.06
4219 H 120.31471460580977 71.10177815781152 119.39005601075263 H 0.0 **** 0.06
4220 H 121.11053452445171 72.63064807550343 119.83716279482138 H 0.0 **** 0.06
4221 C 83.85766271639447 80.05606643087233 116.56881869169 C 0.0 **** -0.24
4222 H 83.96659444454914 79.57170749378906 115.59787233747191 H 0.0 **** 0.06
4223 H 83.43846788533831 79.34695975809356 117.28296217908117 H 0.0 **** 0.06
4224 H 83.19247305111905 80.91434160976561 116.47445817511165 H 0.0 **** 0.06
4225 H 84.83534769340352 80.38998412356847 116.9184336208907 H 0.0 **** 0.06
4226 C 148.40290600237424 138.7415653768102 15.236808548550925 C 0.0 **** -0.24
4227 H 148.3122592550559 139.16971688860295 16.235168172801423 H 0.0 **** 0.06
4228 H 149.32424563004167 138.1619455980727 15.172250676137367 H 0.0 **** 0.06
4229 H 148.42451144952716 139.54391463533804 14.49889705034525 H 0.0 **** 0.06
4230 H 147.54966107991382 138.0919837005041 15.042108204242766 H 0.0 **** 0.06
4231 C 2.756798577247565 140.96139638601085 82.38505059250164 C 0.0 **** -0.24
4232 H 2.5764953948078926 141.96281701225848 82.77593545652377 H 0.0 **** 0.06
4233 H 3.719857416388976 140.93923755158664 81.87377064093212 H 0.0 **** 0.06
4234 H 1.9662314173016568 140.6986296686208 81.68129797563003 H 0.0 **** 0.06
4235 H 2.7644847423962347 140.2466392505197 83.20747664707298 H 0.0 **** 0.06
4236 C 38.22307673182564 94.19415775422449 119.42860107770974 C 0.0 **** -0.24
4237 H 38.44711697107769 94.98948506697792 118.71731144518259 H 0.0 **** 0.06
4238 H 38.92782679714318 94.23987495946258 120.25847681698048 H 0.0 **** 0.06
4239 H 38.30740854323122 93.22771131182279 118.93204102232067 H 0.0 **** 0.06
4240 H 37.207942143817235 94.32093339117486 119.80682620313752 H 0.0 **** 0.06
4241 C 142.71526328624813 37.56395688764468 101.70038530965162 C 0.0 **** -0.24
4242 H 141.87047194837308 37.0431176874398 102.15106879634081 H 0.0 **** 0.06
4243 H 143.3383736696338 37.99247551227279 102.48533544814748 H 0.0 **** 0.06
4244 H 142.34706707808792 38.36049244776814 101.0533735957638 H 0.0 **** 0.06
4245 H 143.30335013979897 36.86107958293269 101.11168863878935 H 0.0 **** 0.06
4246 C 117.59102405393214 40.11364985923842 133.96007291671444 C 0.0 **** -0.24
4247 H 117.7953169866099 40.606468249027955 133.00990719902362 H 0.0 **** 0.06
4248 H 117.07538723416566 39.17048237902486 133.7767472695568 H 0.0 **** 0.06
4249 H 116.96339570968006 40.75886933375199 134.57548497882138 H 0.0 **** 0.06
4250 H 118.53037036823333 39.92010555728888 134.47847103178074 H 0.0 **** 0.06
4251 C 11.937679381912446 116.9858903781427 6.959521650625192 C 0.0 **** -0.24
4252 H 11.43354852865395 116.17472499851834 7.4848066131783355 H 0.0 **** 0.06
4253 H 12.605987150273506 117.50418411554386 7.647631987896034 H 0.0 **** 0.06
4254 H 11.194576180361828 117.6863995660961 6.576832430245815 H 0.0 **** 0.06
4255 H 12.514459774467014 116.57882066137859 6.129085557598557 H 0.0 **** 0.06
4256 C 34.71488242336642 93.0862864917725 2.7351918790706975 C 0.0 **** -0.24
4257 H 34.602868228329214 92.53979098126742 3.6713846715341845 H 0.0 **** 0.06
4258 H 33.95037132047537 93.86047013531312 2.672806546884914 H 0.0 **** 0.06
4259 H 34.60468299272594 92.39746055178301 1.8966363020660424 H 0.0 **** 0.06
4260 H 35.70246427032805 93.54695847085803 2.698916069208849 H 0.0 **** 0.06
4261 C 56.98792355363534 86.051481312518 147.12901180365648 C 0.0 **** -0.24
4262 H 56.023380116894174 86.20028398181756 146.643173123204 H 0.0 **** 0.06
4263 H 56.85556165748605 86.06376810911124 148.21058603770078 H 0.0 **** 0.06
4264 H 57.66930444873074 86.85020585559249 146.83671803329773 H 0.0 **** 0.06
4265 H 57.40359041892191 85.09073174921744 146.8245190562469 H 0.0 **** 0.06
4266 C 23.13331285195116 108.65022051558297 44.81102438980622 C 0.0 **** -0.24
4267 H 23.082238886505166 107.57215820208363 44.96409165474512 H 0.0 **** 0.06
4268 H 24.044235320678837 109.0394797632308 45.267684045778736 H 0.0 **** 0.06
4269 H 22.26579053818449 109.12400246991733 45.27143747936269 H 0.0 **** 0.06
4270 H 23.14110422115172 108.86629191505214 43.743094197152175 H 0.0 **** 0.06
4271 C 130.54093331184256 55.61017129446607 50.51222423456801 C 0.0 **** -0.24
4272 H 131.42683597397763 56.19968495937883 50.274349002044346 H 0.0 **** 0.06
4273 H 129.94157962837096 55.47586118440282 49.61128057836629 H 0.0 **** 0.06
4274 H 129.95180035717408 56.1280590850656 51.268355864750674 H 0.0 **** 0.06
4275 H 130.84611365093528 54.63562828284611 50.89452175800574 H 0.0 **** 0.06
4276 C 36.00895782518623 45.55779434912961 129.89633431323657 C 0.0 **** -0.24
4277 H 35.30986073491488 44.83951507951957 130.32450090317968 H 0.0 **** 0.06
4278 H 35.82100339551009 46.54447918380109 130.31964938724195 H 0.0 **** 0.06
4279 H 35.874585970029564 45.594011106024084 128.81505264286727 H 0.0 **** 0.06
4280 H 37.0302015319574 45.25205624918385 130.12528412440406 H 0.0 **** 0.06
4281 C 112.3588005970144 71.25702735138884 105.8556277478118 C 0.0 **** -0.24
4282 H 112.01260135566774 71.2468399282877 106.88951740055687 H 0.0 **** 0.06
4283 H 111.49846631933717 71.2643375998858 105.18531436771364 H 0.0 **** 0.06
4284 H 112.96028193656288 70.36752487796892 105.66546447526589 H 0.0 **** 0.06
4285 H 112.9627847115812 72.14745266400715 105.68323456635922 H 0.0 **** 0.06
4286 C 121.23776168018071 46.69570635263838 150.208773479221 C 0.0 **** -0.24
4287 H 122.30468030685051 46.60524083572538 150.00124716380196 H 0.0 **** 0.06
4288 H 120.80193425130199 47.44490235467423 149.5485665038976 H 0.0 **** 0.06
4289 H 121.09521199793176 46.99796356079966 151.24676080492208 H 0.0 **** 0.06
4290 H 120.75343974862051 45.73484425825988 150.03960573674004 H 0.0 **** 0.06
4291 C 78.11879772690833 7.305154952191856 15.70582299707985 C 0.0 **** -0.24
4292 H 78.27771763303178 6.228329094823607 15.749594787486672 H 0.0 **** 0.06
4293 H 77.32530923935911 7.526244755481571 14.992529387789034 H 0.0 **** 0.06
4294 H 79.0394856631259 7.795728428576467 15.390393350581633 H 0.0 **** 0.06
4295 H 77.83227276978346 7.670043609036156 16.69295635089145 H 0.0 **** 0.06
4296 C 37.57682571619861 30.551661128686376 112.86276073548622 C 0.0 **** -0.24
4297 H 38.04820633649308 30.76584086530336 113.82172310154552 H 0.0 **** 0.06
4298 H 38.34605687807547 30.389935614634886 112.1076436847356 H 0.0 **** 0.06
4299 H 36.95137253758091 31.39428435363361 112.56908935129427 H 0.0 **** 0.06
4300 H 36.96065632433417 29.655650981360232 112.95225748499509 H 0.0 **** 0.06
4301 C 84.88256256121633 55.44906803158884 142.0487751098525 C 0.0 **** -0.24
4302 H 84.85959987296624 55.88721359413377 143.04624472872848 H 0.0 **** 0.06
4303 H 84.05686086974313 54.74543407585428 141.94251853657698 H 0.0 **** 0.06
4304 H 85.8275720778567 54.92567865037586 141.90298739575832 H 0.0 **** 0.06
4305 H 84.7859793007674 56.23955538559312 141.3039436305927 H 0.0 **** 0.06
4306 C 38.50965744888575 43.367102658945655 57.325051457635794 C 0.0 **** -0.24
4307 H 38.78029029817034 44.220569468246055 56.70377476178933 H 0.0 **** 0.06
4308 H 39.30135148468929 42.61953985732865 57.27830870991855 H 0.0 **** 0.06
4309 H 37.57768284140504 42.93390439099322 56.960325371642085 H 0.0 **** 0.06
4310 H 38.37916858580279 43.694725790801044 58.356428315907436 H 0.0 **** 0.06
4311 C 98.6274601491877 69.8735828294275 79.34716535212266 C 0.0 **** -0.24
4312 H 99.12160137603489 68.98177649777631 79.73301429713676 H 0.0 **** 0.06
4313 H 97.77524273228417 69.57963246972332 78.73338754892104 H 0.0 **** 0.06
4314 H 99.3307882081099 70.44594687957976 78.74231204767236 H 0.0 **** 0.06
4315 H 98.2814612279864 70.48652986852193 80.17883242518099 H 0.0 **** 0.06
4316 C 44.31535484807341 105.8484132167148 140.26005828459134 C 0.0 **** -0.24
4317 H 45.16469128734009 105.6644172519946 140.91655010652968 H 0.0 **** 0.06
4318 H 44.661151195961395 105.91755215281479 139.22826072284042 H 0.0 **** 0.06
4319 H 43.83113937027535 106.78256726145575 140.5454844445637 H 0.0 **** 0.06
4320 H 43.60245495740776 105.02775033955699 140.35038954416657 H 0.0 **** 0.06
4321 C 91.79369222842499 106.5949866650454 73.90848048942061 C 0.0 **** -0.24
4322 H 92.13306773462595 106.88432847266519 72.91446890709696 H 0.0 **** 0.06
4323 H 90.70667473263667 106.50637421577967 73.9109966900032 H 0.0 **** 0.06
4324 H 92.09810937967168 107.35308416560598 74.63065767774796 H 0.0 **** 0.06
4325 H 92.23694960986013 105.63663519071237 74.17998343303762 H 0.0 **** 0.06
4326 C 78.8086579307368 101.99502689888592 123.62525621645922 C 0.0 **** -0.24
4327 H 79.21656916623421 101.13950252475169 123.08683170270696 H 0.0 **** 0.06
4328 H 78.73575352178064 101.75539735636758 124.68672885526824 H 0.0 **** 0.06
4329 H 77.81829838818058 102.23036197363425 123.23631555313675 H 0.0 **** 0.06
4330 H 79.46506544116076 102.85576569948691 123.49135162895384 H 0.0 **** 0.06
4331 C 135.23807449189076 141.93095561911468 45.452765369672036 C 0.0 **** -0.24
4332 H 135.9847303495206 142.52967076510618 45.974404791549574 H 0.0 **** 0.06
4333 H 134.4863840124247 141.58615122286778 46.1631855652213 H 0.0 **** 0.06
4334 H 135.72179624764928 141.07038724143717 44.98840463635594 H 0.0 **** 0.06
4335 H 134.7602860905176 142.53717840157995 44.68306564268195 H 0.0 **** 0.06
4336 C 96.75982529457445 11.96784140080149 46.77374243532759 C 0.0 **** -0.24
4337 H 97.39836038108967 12.048236037998493 45.89401683636174 H 0.0 **** 0.06
4338 H 96.29637038974053 12.933852415946546 46.9754966778101 H 0.0 **** 0.06
4339 H 97.35944669698813 11.66448377065035 47.63095229450076 H 0.0 **** 0.06
4340 H 95.98424943755629 11.223588111440733 46.59154025578067 H 0.0 **** 0.06
4341 C 136.95838679756255 143.37871211555236 26.57397242876405 C 0.0 **** -0.24
4342 H 137.6894042215922 142.59003148074297 26.395636034335183 H 0.0 **** 0.06
4343 H 136.07863750102703 143.2037297604739 25.953827386888065 H 0.0 **** 0.06
4344 H 137.3960203184919 144.34437262452752 26.32040946946759 H 0.0 **** 0.06
4345 H 136.66896807278167 143.37474031536738 27.62510302504893 H 0.0 **** 0.06
4346 C 59.42366201994054 147.35250125540517 115.16705617343408 C 0.0 **** -0.24
4347 H 59.645346453308505 146.62326181774358 115.9462976892996 H 0.0 **** 0.06
4348 H 58.34533670485031 147.50153956443833 115.10549639727057 H 0.0 **** 0.06
4349 H 59.79601220173339 146.98642518631831 114.21062890903264 H 0.0 **** 0.06
4350 H 59.908245654661656 148.2987579655463 115.40750870699927 H 0.0 **** 0.06
4351 C 93.84983207055625 65.83644500994947 7.5605509341490915 C 0.0 **** -0.24
4352 H 94.6959103053691 65.64228984724966 6.901122478888567 H 0.0 **** 0.06
4353 H 94.16956269888588 65.74453973642042 8.598004638551942 H 0.0 **** 0.06
4354 H 93.05829395091797 65.11440287007386 7.3576714839377075 H 0.0 **** 0.06
4355 H 93.47645435405353 66.84528142246307 7.382296375094711 H 0.0 **** 0.06
4356 C 91.83987258584746 75.00389243786539 79.07856487177665 C 0.0 **** -0.24
4357 H 90.87163125107229 75.42947164812297 78.81480638401209 H 0.0 **** 0.06
4358 H 92.58213820498939 75.30755483309896 78.33976624114128 H 0.0 **** 0.06
4359 H 91.76703634487022 73.91675342868068 79.09518162874325 H 0.0 **** 0.06
4360 H 92.13794178315663 75.36366269740323 80.06353523186452 H 0.0 **** 0.06
4361 C 6.361651664022279 34.27514234173802 86.4629074813017 C 0.0 **** -0.24
4362 H 6.179557470078887 33.20239153975115 86.40132102178731 H 0.0 **** 0.06
4363 H 7.377394958111566 34.489576198865876 86.12771017035911 H 0.0 **** 0.06
4364 H 6.241040255976255 34.60567121334714 87.49451449638624 H 0.0 **** 0.06
4365 H 5.650462081281223 34.801332312530775 85.82634329160379 H 0.0 **** 0.06
4366 C 35.74310850132863 69.80483734224941 30.205873941025033 C 0.0 **** -0.24
4367 H 36.47743381115421 69.18632153166246 30.721987317631317 H 0.0 **** 0.06
4368 H 34.879853476259285 69.19710698728133 29.937143570663892 H 0.0 **** 0.06
4369 H 36.18967710098736 70.22197817845054 29.303489057188557 H 0.0 **** 0.06
4370 H 35.42635047829055 70.61604772658151 30.862823421290926 H 0.0 **** 0.06
4371 C 107.15211308566575 147.93411691896748 132.32481672774236 C 0.0 **** -0.24
4372 H 107.21311981086694 148.02946102370953 133.40936326877764 H 0.0 **** 0.06
4373 H 106.46629791156164 147.12649719596453 132.06833588316766 H 0.0 **** 0.06
4374 H 108.14118064314505 147.71263314548185 131.9242474126629 H 0.0 **** 0.06
4375 H 106.78856839943234 148.86955869904818 131.89860850520694 H 0.0 **** 0.06
4376 C 32.66302675436293 70.84418804723114 50.02909739495186 C 0.0 **** -0.24
4377 H 31.89259253190778 71.57404087136317 50.2779556893106 H 0.0 **** 0.06
4378 H 33.64237435684945 71.24585814316339 50.29229684586963 H 0.0 **** 0.06
4379 H 32.631706755587494 70.63322165040466 48.95976968476157 H 0.0 **** 0.06
4380 H 32.48539432019766 69.92503616020588 50.5865271884673 H 0.0 **** 0.06
4381 C 83.43898731623062 57.704353666741184 63.69915334375989 C 0.0 **** -0.24
4382 H 82.44207954544822 58.104890927044806 63.512032190311245 H 0.0 **** 0.06
4383 H 83.62357269691739 57.679996981227674 64.77363950581069 H 0.0 **** 0.06
4384 H 84.18146271243455 58.34067983846052 63.21735485837151 H 0.0 **** 0.06
4385 H 83.50674538612947 56.69475179331994 63.294681636193445 H 0.0 **** 0.06
4386 C 73.62914119136377 137.60057808235078 119.37145378028576 C 0.0 **** -0.24
4387 H 72.77805342271944 136.93194270058 119.24691552425567 H 0.0 **** 0.06
4388 H 73.3389164460981 138.44445024890308 119.9981721260567 H 0.0 **** 0.06
4389 H 73.94949658952612 137.96628587599335 118.39535811390421 H 0.0 **** 0.06
4390 H 74.44936692818743 137.06172186095372 119.84431860985835 H 0.0 **** 0.06
4391 C 116.5406881656303 115.07683809613792 100.71267441139148 C 0.0 **** -0.24
4392 H 116.73224447837966 115.6814804677814 101.59884947676292 H 0.0 **** 0.06
4393 H 117.31696672623944 115.26332187705793 99.97025613536503 H 0.0 **** 0.06
4394 H 115.56838841877952 115.34061006071107 100.2961494435199 H 0.0 **** 0.06
4395 H 116.54418773887208 114.02127496494961 100.98671776109856 H 0.0 **** 0.06
4396 C 57.698758092459286 7.059776646907949 55.45382668114969 C 0.0 **** -0.24
4397 H 57.18877267457188 6.45304970161834 54.70515599697114 H 0.0 **** 0.06
4398 H 57.039275486149364 7.8662408617960295 55.77747420089048 H 0.0 **** 0.06
4399 H 58.60539100042632 7.483329697607871 55.021803459236224 H 0.0 **** 0.06
4400 H 57.959870194525365 6.437851128257876 56.3097919762678 H 0.0 **** 0.06
4401 C 79.0425071717818 34.56701178247949 20.75205004870252 C 0.0 **** -0.24
4402 H 78.85229320545662 33.50502218202082 20.593134154282197 H 0.0 **** 0.06
4403 H 78.09855620749786 35.11237492179628 20.729441666466393 H 0.0 **** 0.06
4404 H 79.6974452445219 34.939807152672905 19.964729780183035 H 0.0 **** 0.06
4405 H 79.5210507004646 34.70901173176657 21.720470179173027 H 0.0 **** 0.06
4406 C 130.52574931394454 80.3196019937021 111.93512433153721 C 0.0 **** -0.24
4407 H 130.06298423357399 79.9354579178449 112.84460787810046 H 0.0 **** 0.06
4408 H 130.0903897359454 79.82172211372614 111.06868613527952 H 0.0 **** 0.06
4409 H 131.59847628135716 80.12655257783028 111.96386954004923 H 0.0 **** 0.06
4410 H 130.3510592198441 81.39293509837951 111.86431556234017 H 0.0 **** 0.06
4411 C 30.646550774805775 25.93671581556172 50.612643055591434 C 0.0 **** -0.24
4412 H 31.023347778173132 25.08434924302515 51.17711864642689 H 0.0 **** 0.06
4413 H 29.695044100340198 26.25990724654794 51.034186421841696 H 0.0 **** 0.06
4414 H 30.50407378009544 25.64831085162387 49.570673571492705 H 0.0 **** 0.06
4415 H 31.365144306258173 26.755085689905805 50.6670453005832 H 0.0 **** 0.06
4416 C 125.95543365215721 54.69487874415202 103.30336751014595 C 0.0 **** -0.24
4417 H 126.37231689329134 55.70236504446052 103.27639985298428 H 0.0 **** 0.06
4418 H 126.27269260699777 54.14754910593962 102.41546294065787 H 0.0 **** 0.06
4419 H 124.8680334464231 54.75272743438933 103.32744533655828 H 0.0 **** 0.06
4420 H 126.31253136253709 54.178738638144125 104.1950440955688 H 0.0 **** 0.06
4421 C 120.31146175220869 59.83337747378579 67.14852158422478 C 0.0 **** -0.24
4422 H 119.39730754304833 60.40972593202292 67.00210073911406 H 0.0 **** 0.06
4423 H 120.86233196167831 60.23737310548478 67.99847161896707 H 0.0 **** 0.06
4424 H 120.92832212950879 59.896512401767964 66.25295043536248 H 0.0 **** 0.06
4425 H 120.05591063997952 58.79118819033884 67.34241754927578 H 0.0 **** 0.06
4426 C 47.702122002063305 42.607548183814984 146.99225791851342 C 0.0 **** -0.24
4427 H 47.18016646734928 41.65883363204955 147.11752805033808 H 0.0 **** 0.06
4428 H 47.43235912285661 43.279893132265514 147.80777358865546 H 0.0 **** 0.06
4429 H 47.4151374414884 43.056927885120956 146.04088508009212 H 0.0 **** 0.06
4430 H 48.7778984958573 42.435008639876315 147.00238168507775 H 0.0 **** 0.06
4431 C 115.42902157018248 139.25787357257312 87.68416166145846 C 0.0 **** -0.24
4432 H 115.98605579825404 140.18533499682115 87.55150172850696 H 0.0 **** 0.06
4433 H 116.09691881801417 138.48518660650385 88.06388995123963 H 0.0 **** 0.06
4434 H 115.01569693997557 138.94316910349576 86.72670029084392 H 0.0 **** 0.06
4435 H 114.61812209792187 139.41992040786295 88.39469200813079 H 0.0 **** 0.06
4436 C 65.72579478169376 22.976555151071963 87.40926723756809 C 0.0 **** -0.24
4437 H 66.76008126095824 22.87900484949519 87.73863160737645 H 0.0 **** 0.06
4438 H 65.65476474422324 23.769347653055696 86.66401070582162 H 0.0 **** 0.06
4439 H 65.09474922159023 23.222918096500223 88.26404459872131 H 0.0 **** 0.06
4440 H 65.3932413330191 22.035301418431416 86.9723209305701 H 0.0 **** 0.06
4441 C 20.430203206802503 40.21032282962227 40.36131870203687 C 0.0 **** -0.24
4442 H 21.30507815600322 40.457709887623594 40.963127621298185 H 0.0 **** 0.06
4443 H 20.73932803496308 39.62072933397826 39.49816064089126 H 0.0 **** 0.06
4444 H 19.950532103096805 41.12883111411361 40.02343019933829 H 0.0 **** 0.06
4445 H 19.727673768703823 39.63282193920094 40.96263610028953 H 0.0 **** 0.06
4446 C 2.8185133754503724 120.11042151205322 65.5943216378225 C 0.0 **** -0.24
4447 H 1.9344113192290173 120.69448781839577 65.84708543044037 H 0.0 **** 0.06
4448 H 2.907255268161631 120.0355839202885 64.51049752995877 H 0.0 **** 0.06
4449 H 2.7274348052859736 119.1112512465989 66.02113305294075 H 0.0 **** 0.06
4450 H 3.7050058296801005 120.59936967021656 65.99867213332494 H 0.0 **** 0.06
4451 C 93.64811824118871 24.81551879527558 98.87382777318695 C 0.0 **** -0.24
4452 H 94.45141687351534 25.477264572683964 99.1988221473654 H 0.0 **** 0.06
4453 H 92.69270853148166 25.205363967525216 99.22559833419712 H 0.0 **** 0.06
4454 H 93.80955004477022 23.819385204313676 99.28714504193212 H 0.0 **** 0.06
4455 H 93.64142350455616 24.760613183500936 97.78569496832151 H 0.0 **** 0.06
4456 C 35.369894482316454 15.928835919319653 89.44161790791854 C 0.0 **** -0.24
4457 H 35.475022210431405 15.348826138011958 88.52500387720578 H 0.0 **** 0.06
4458 H 34.70215510408613 16.772271639622545 89.26238387350101 H 0.0 **** 0.06
4459 H 36.347516512193096 16.29867871447803 89.75110936981342 H 0.0 **** 0.06
4460 H 34.95491761071557 15.296022374628166 90.22630364624071 H 0.0 **** 0.06
4461 C 16.848955991093305 117.15843526299297 30.603474986729857 C 0.0 **** -0.24
4462 H 17.106366618306936 117.63921332644152 29.660390335530337 H 0.0 **** 0.06
4463 H 16.8991271781847 117.88969751273088 31.41068244765976 H 0.0 **** 0.06
4464 H 17.551466063800035 116.3486724348654 30.802847191259865 H 0.0 **** 0.06
4465 H 15.83851011925421 116.75384293081832 30.541566311140286 H 0.0 **** 0.06
4466 C 4.998429474386683 104.25948180526579 144.61731162873969 C 0.0 **** -0.24
4467 H 4.068610642220847 104.74262620577586 144.92036108764805 H 0.0 **** 0.06
4468 H 4.847211163454119 103.7468818138927 143.667360181322 H 0.0 **** 0.06
4469 H 5.298039674903748 103.53819647568677 145.3763449701216 H 0.0 **** 0.06
4470 H 5.777889613358013 105.01322597740337 144.50412544165226 H 0.0 **** 0.06
4471 C 104.01550026129641 10.254139857480823 12.899443026704361 C 0.0 **** -0.24
4472 H 104.55019932709749 9.725851476124035 12.11011560657024 H 0.0 **** 0.06
4473 H 102.96361366364394 9.967853837745366 12.880670467441384 H 0.0 **** 0.06
4474 H 104.102695196989 11.328948347555155 12.740470588735711 H 0.0 **** 0.06
4475 H 104.44609435678669 9.994632663018962 13.866846894686184 H 0.0 **** 0.06
4476 C 79.69737728075353 77.7104253513685 115.16792619680002 C 0.0 **** -0.24
4477 H 80.67892599444872 77.27620681329242 114.97763728262565 H 0.0 **** 0.06
4478 H 79.68819630953031 78.7476771917655 114.83212590452099 H 0.0 **** 0.06
4479 H 79.48416767997982 77.67162463975863 116.23553361766638 H 0.0 **** 0.06
4480 H 78.9394833300857 77.14522752097672 114.62483625836587 H 0.0 **** 0.06
4481 C 62.75889056284444 50.26579968007144 105.26368631873736 C 0.0 **** -0.24
4482 H 61.783444618722015 50.54674270488056 104.86722737718635 H 0.0 **** 0.06
4483 H 62.7574686066163 49.20426126948985 105.51316918664061 H 0.0 **** 0.06
4484 H 62.968308677137045 50.8497488650967 106.16031607055528 H 0.0 **** 0.06
4485 H 63.52613014474666 50.46219534785091 104.51497767180796 H 0.0 **** 0.06
4486 C 41.72158253737916 116.71213709427526 39.314969043222874 C 0.0 **** -0.24
4487 H 42.46804507996504 117.48881087554848 39.48307619696769 H 0.0 **** 0.06
4488 H 40.861360431167924 117.14094630172472 38.79989418065864 H 0.0 **** 0.06
4489 H 41.40381804903609 116.30042389612272 40.27329022314544 H 0.0 **** 0.06
4490 H 42.1536490908959 115.91958912360901 38.70471691584183 H 0.0 **** 0.06
4491 C 100.63828398528321 52.64477739812895 40.27068466078512 C 0.0 **** -0.24
4492 H 99.61932843244595 52.32586093202141 40.05094081298543 H 0.0 **** 0.06
4493 H 100.88373248153493 52.38704407519967 41.301929601676704 H 0.0 **** 0.06
4494 H 100.71813611700422 53.72269558456364 40.1361727989686 H 0.0 **** 0.06
4495 H 101.32932613501295 52.14138336265796 39.595325024946106 H 0.0 **** 0.06
4496 C 109.99245808819425 78.99438299255633 28.926334098028 C 0.0 **** -0.24
4497 H 109.36986256511484 79.77957682686375 28.497190824974872 H 0.0 **** 0.06
4498 H 110.51879980309413 78.47118651153508 28.12761678403033 H 0.0 **** 0.06
4499 H 109.36296233102273 78.28978213797782 29.470365561181936 H 0.0 **** 0.06
4500 H 110.71694081866566 79.43747479293363 29.60976728431291 H 0.0 **** 0.06
4501 C 84.03548832523488 39.68362774760914 26.34476638068935 C 0.0 **** -0.24
4502 H 83.71669009998521 40.527066467213615 26.958087944914894 H 0.0 **** 0.06
4503 H 83.68917893278294 39.82749458563171 25.321625824741034 H 0.0 **** 0.06
4504 H 83.61121275008985 38.7632667753864 26.746505617300215 H 0.0 **** 0.06
4505 H 85.12300991154586 39.6175996558398 26.35523251936843 H 0.0 **** 0.06
4506 C 109.7702500120367 84.27501912931098 87.94764982244911 C 0.0 **** -0.24
4507 H 108.92509204040765 83.94666562232254 88.55189019567123 H 0.0 **** 0.06
4508 H 109.8458650000879 85.36211373978034 87.98947334276062 H 0.0 **** 0.06
4509 H 109.6233809171621 83.95972557967269 86.91535728855239 H 0.0 **** 0.06
4510 H 110.68749880568215 83.83211621587822 88.3358793270035 H 0.0 **** 0.06
4511 C 4.831005796866833 10.671346490065275 92.05809879720161 C 0.0 **** -0.24
4512 H 4.0468748004336135 10.108231278855499 92.56321787874487 H 0.0 **** 0.06
4513 H 5.804557950452676 10.266782594514694 92.33568258266124 H 0.0 **** 0.06
4514 H 4.774789428562713 11.719208615935827 92.35518837570575 H 0.0 **** 0.06
4515 H 4.697681215193285 10.592346860694846 90.97907140829702 H 0.0 **** 0.06
4516 C 52.777024911179865 118.75360610631455 56.73007306925258 C 0.0 **** -0.24
4517 H 51.86902796088458 118.53782975148638 56.166979305942434 H 0.0 **** 0.06
4518 H 53.18868777567107 119.70782708031962 56.40368611332782 H 0.0 **** 0.06
4519 H 53.508112635848704 117.96327433259077 56.55657969578287 H 0.0 **** 0.06
4520 H 52.5419818568501 118.80306455126149 57.79291364052517 H 0.0 **** 0.06
4521 C 46.2019415809129 109.486777415605 25.639690238197893 C 0.0 **** -0.24
4522 H 45.733185324124776 110.37690855556208 25.219779986316865 H 0.0 **** 0.06
4523 H 47.12549147369002 109.2737517567759 25.100991655292816 H 0.0 **** 0.06
4524 H 45.5220857170501 108.64036684604376 25.546407833472713 H 0.0 **** 0.06
4525 H 46.42665330796979 109.65809762425015 26.69292931275612 H 0.0 **** 0.06
4526 C 93.45489218158667 114.64778446368554 139.2096557509683 C 0.0 **** -0.24
4527 H 93.62848935524897 115.65667660107572 138.83522529870874 H 0.0 **** 0.06
4528 H 93.0845622168502 114.6990102399832 140.23340137881885 H 0.0 **** 0.06
4529 H 94.38878947252078 114.08724842711378 139.18826326314326 H 0.0 **** 0.06
4530 H 92.7173075236679 114.14899649383243 138.58064070260988 H 0.0 **** 0.06
4531 C 39.227800245768776 59.87865187322787 58.6085327227909 C 0.0 **** -0.24
4532 H 39.865434629741685 60.5105793391471 59.226330047882044 H 0.0 **** 0.06
4533 H 38.60332716342509 59.2557932660514 59.24910279231315 H 0.0 **** 0.06
4534 H 39.84754562161959 59.24340519688087 57.9764878063248 H 0.0 **** 0.06
4535 H 38.59369884635487 60.506384052693576 57.981134706774384 H 0.0 **** 0.06
4536 C 123.96823438816756 3.4280078597876766 26.35542094342128 C 0.0 **** -0.24
4537 H 123.9203495394002 2.9088517117251627 25.397616965973263 H 0.0 **** 0.06
4538 H 124.64330192778658 2.8931473578547475 27.024692639515038 H 0.0 **** 0.06
4539 H 122.97287958467774 3.468045368890312 26.797279831944408 H 0.0 **** 0.06
4540 H 124.3381341308426 4.441891237801727 26.199856833910054 H 0.0 **** 0.06
4541 C 34.278073075405075 48.34292604311341 113.63376143164771 C 0.0 **** -0.24
4542 H 34.02528884830792 48.13506721147297 114.67355003049772 H 0.0 **** 0.06
4543 H 34.55375781612196 47.414073326443685 113.13472733736455 H 0.0 **** 0.06
4544 H 35.11598087939251 49.03891826040217 113.59589557876234 H 0.0 **** 0.06
4545 H 33.4167809197308 48.78366911496062 113.13174763635328 H 0.0 **** 0.06
4546 C 137.08200247740484 21.808680235365472 57.02695221663802 C 0.0 **** -0.24
4547 H 137.81108937059724 21.798421289837023 57.83758195036076 H 0.0 **** 0.06
4548 H 136.86379177162445 22.839095505192034 56.74781620410894 H 0.0 **** 0.06
4549 H 136.16574960310078 21.319142126681328 57.356627185384 H 0.0 **** 0.06
4550 H 137.48876431659244 21.27668350689794 56.16687037463386 H 0.0 **** 0.06
4551 C 102.7476035752463 13.720324600318776 59.648369699074834 C 0.0 **** -0.24
4552 H 102.92668433886261 13.440857861380294 58.6104111812858 H 0.0 **** 0.06
4553 H 101.90250835872388 13.150493946785986 60.03677624560791 H 0.0 **** 0.06
4554 H 102.52321886516172 14.7858783858795 59.70420108594726 H 0.0 **** 0.06
4555 H 103.63580762158183 13.50378540130663 60.24240913559353 H 0.0 **** 0.06
4556 C 21.716899221558776 94.14945727384003 108.60916769332236 C 0.0 **** -0.24
4557 H 22.00838509517098 95.18038562950673 108.81193905128758 H 0.0 **** 0.06
4558 H 22.274794826970663 93.77763475210324 107.74979700126137 H 0.0 **** 0.06
4559 H 20.64906806273251 94.11004102197549 108.39601416209565 H 0.0 **** 0.06
4560 H 21.936642905303586 93.53278262510693 109.48071951478916 H 0.0 **** 0.06
4561 C 95.34548729690965 79.57763335129663 137.78812616540063 C 0.0 **** -0.24
4562 H 94.81864213870585 80.27278628692069 137.13396939380158 H 0.0 **** 0.06
4563 H 96.33218965711299 79.36770560476691 137.37472406844273 H 0.0 **** 0.06
4564 H 94.77806637013845 78.6500117569535 137.864370241122 H 0.0 **** 0.06
4565 H 95.45305929995794 80.0216640443429 138.777914780701 H 0.0 **** 0.06
4566 C 124.37156531929297 33.939585108604675 27.658464306825714 C 0.0 **** -0.24
4567 H 124.46791912896147 33.81954139212449 28.73713705666094 H 0.0 **** 0.06
4568 H 124.98746322930423 33.19350250379955 27.154774866388713 H 0.0 **** 0.06
4569 H 124.70244482940824 34.93774210992392 27.37264126383014 H 0.0 **** 0.06
4570 H 123.32922350059214 33.805673542190746 27.370220162441505 H 0.0 **** 0.06
4571 C 89.54086317366473 22.67331806717229 6.404316804954831 C 0.0 **** -0.24
4572 H 89.64301359285908 23.614211645070185 6.944669500665761 H 0.0 **** 0.06
4573 H 88.62939590239213 22.69643710586891 5.805783213497506 H 0.0 **** 0.06
4574 H 89.4874580342632 21.84980753082283 7.115875476675228 H 0.0 **** 0.06
4575 H 90.40259762695561 22.53503190492205 5.7506003619319905 H 0.0 **** 0.06
4576 C 73.21814899018248 82.46127112120655 88.28091513422928 C 0.0 **** -0.24
4577 H 73.14032112079292 83.48734545799618 88.63943673325682 H 0.0 **** 0.06
4578 H 74.10240630536829 81.99123092501748 88.71157126842809 H 0.0 **** 0.06
4579 H 73.30021964683395 82.4623091340469 87.19405690534379 H 0.0 **** 0.06
4580 H 72.32961300831042 81.90482942686845 88.57733020221886 H 0.0 **** 0.06
4581 C 75.22208804572644 135.701567817863 102.91747121460742 C 0.0 **** -0.24
4582 H 76.16322977141645 135.35568885321106 103.34363484181313 H 0.0 **** 0.06
4583 H 75.42412739919517 136.28517800062298 102.01828224338792 H 0.0 **** 0.06
4584 H 74.70074712467336 136.32416937764623 103.6447974396005 H 0.0 **** 0.06
4585 H 74.60117237009405 134.84246312508128 102.66189076904496 H 0.0 **** 0.06
4586 C 21.50285919653271 40.2902842449426 18.68806309872909 C 0.0 **** -0.24
4587 H 21.57232605251437 39.92272744948406 17.664647829913832 H 0.0 **** 0.06
4588 H 22.495713410089593 40.29708723702595 19.138696810231494 H 0.0 **** 0.06
4589 H 20.84601132520072 39.63816431676338 19.264826484457757 H 0.0 **** 0.06
4590 H 21.09875473546259 41.301718349202986 18.68431403265322 H 0.0 **** 0.06
4591 C 89.42334085699535 137.09930765483736 19.103788792540442 C 0.0 **** -0.24
4592 H 89.19949621008249 138.15415176148568 18.943970216435837 H 0.0 **** 0.06
4593 H 89.82759348237587 136.96232206335708 20.106158087441457 H 0.0 **** 0.06
4594 H 90.15610860526465 136.76883816481907 18.366925260782168 H 0.0 **** 0.06
4595 H 88.50995762266982 136.5139727460841 18.99592493928182 H 0.0 **** 0.06
4596 C 137.40800910620072 123.70327704578449 104.22942951050752 C 0.0 **** -0.24
4597 H 137.2159019095687 122.63124111323782 104.188756943556 H 0.0 **** 0.06
4598 H 137.32602117497458 124.12543857397134 103.2279840066619 H 0.0 **** 0.06
4599 H 138.41186388006741 123.87796192199858 104.61642985580383 H 0.0 **** 0.06
4600 H 136.6782692240946 124.17771059334126 104.88520155958108 H 0.0 **** 0.06
4601 C 106.70072162405448 53.11316437800181 74.32260681499434 C 0.0 **** -0.24
4602 H 105.81397149279896 52.653839183402624 74.75961031660813 H 0.0 **** 0.06
4603 H 106.94864815609283 54.02009883086819 74.87460757456685 H 0.0 **** 0.06
4604 H 106.50314244878858 53.36486984402626 73.28060330548168 H 0.0 **** 0.06
4605 H 107.53529703132658 52.41547375852946 74.37575848450003 H 0.0 **** 0.06
4606 C 1.6742437698446793 80.69446496774474 18.090230574082625 C 0.0 **** -0.24
4607 H 1.2764468621443257 80.67104550368643 19.105181145478554 H 0.0 **** 0.06
4608 H 1.127818443537791 81.43120735274688 17.502027822342455 H 0.0 **** 0.06
4609 H 1.5640169602789058 79.71031210871934 17.635149621561027 H 0.0 **** 0.06
4610 H 2.7303705015506807 80.9640354850814 18.1213204552364 H 0.0 **** 0.06
4611 C 125.51841101498762 43.36446229946512 90.20248264236551 C 0.0 **** -0.24
4612 H 124.89465918730083 42.64887087804283 90.7380170040907 H 0.0 **** 0.06
4613 H 125.49143399509695 43.1420410893611 89.13517829280607 H 0.0 **** 0.06
4614 H 126.5446065478551 43.29191185776145 90.56356389090092 H 0.0 **** 0.06
4615 H 125.143358586134 44.372656405373874 90.37363679012913 H 0.0 **** 0.06
4616 C 138.59414627238584 80.25602864101045 16.38751893920744 C 0.0 **** -0.24
4617 H 139.29704862453931 80.87454837327233 16.94539535842756 H 0.0 **** 0.06
4618 H 137.68255889841816 80.12725500800758 16.972048952756552 H 0.0 **** 0.06
4619 H 139.04291569256338 79.2828459193077 16.19341893907557 H 0.0 **** 0.06
4620 H 138.35426501092306 80.74131177577024 15.44156823513481 H 0.0 **** 0.06
4621 C 4.506988047208267 104.43891748754044 9.953551688147535 C 0.0 **** -0.24
4622 H 5.202566922379219 104.06742750724987 9.2012075530276 H 0.0 **** 0.06
4623 H 3.501033049589836 104.47280822178209 9.533025218447769 H 0.0 **** 0.06
4624 H 4.806616626005791 105.4404809497313 10.262729378356113 H 0.0 **** 0.06
4625 H 4.517718603902978 103.77353913537797 10.817242612639902 H 0.0 **** 0.06
4626 C 97.99074331103165 44.953033713744375 132.4860770183012 C 0.0 **** -0.24
4627 H 97.86002957615605 44.04957130353114 131.89037400518635 H 0.0 **** 0.06
4628 H 98.07322044243513 45.81581775169316 131.82319407070221 H 0.0 **** 0.06
4629 H 98.89759011301904 44.86682250964435 133.08451747779355 H 0.0 **** 0.06
4630 H 97.13100202508443 45.081091349990174 133.144687442867 H 0.0 **** 0.06
4631 C 43.46955672457534 132.39360626866312 62.96293430975686 C 0.0 **** -0.24
4632 H 42.575815605367325 132.94091843429823 62.66070633936971 H 0.0 **** 0.06
4633 H 43.22515793101964 131.73164944741904 63.79379945270915 H 0.0 **** 0.06
4634 H 44.23962057582723 133.0991257508506 63.27375319903285 H 0.0 **** 0.06
4635 H 43.834762123382404 131.803546136477 62.12316857375146 H 0.0 **** 0.06
4636 C 66.53628964712892 53.56592990312714 132.58885313383857 C 0.0 **** -0.24
4637 H 66.24164423791193 54.416114166577756 131.97361717403217 H 0.0 **** 0.06
4638 H 67.33764550182256 53.019168458891954 132.0927340252916 H 0.0 **** 0.06
4639 H 65.68045875844307 52.90682955230426 132.73188345397344 H 0.0 **** 0.06
4640 H 66.88470014205312 53.923114608452266 133.55765170757238 H 0.0 **** 0.06
4641 C 99.43648386384666 83.68605729326595 38.79825736157312 C 0.0 **** -0.24
4642 H 100.12228619649535 84.17827826276691 39.488998428080265 H 0.0 **** 0.06
4643 H 99.45182976745916 84.20594536198817 37.84036363986172 H 0.0 **** 0.06
4644 H 98.42795983608389 83.71128253022623 39.20969559216877 H 0.0 **** 0.06
4645 H 99.74577470911545 82.65083195875927 38.65639778096687 H 0.0 **** 0.06
4646 C 38.07113295809722 141.26718570588363 75.2204574654875 C 0.0 **** -0.24
4647 H 37.57327962536908 141.7096516360003 74.35752151744447 H 0.0 **** 0.06
4648 H 37.50394770490658 141.49338808270895 76.12313561524073 H 0.0 **** 0.06
4649 H 39.07701256323986 141.67948373264267 75.30953102998544 H 0.0 **** 0.06
4650 H 38.132332308051275 140.1867293813433 75.08950228027393 H 0.0 **** 0.06
4651 C 7.326953760946452 7.6334271638065445 41.64219797977509 C 0.0 **** -0.24
4652 H 6.762868498849286 6.701370132582554 41.68556867243075 H 0.0 **** 0.06
4653 H 8.1449983657036 7.529393079799178 40.928461006753736 H 0.0 **** 0.06
4654 H 7.732003311469725 7.858317348870457 42.629327548384396 H 0.0 **** 0.06
4655 H 6.669383428920156 8.44184673148834 41.32587620090558 H 0.0 **** 0.06
4656 C 111.40169960427109 67.22543945606287 141.54069692924284 C 0.0 **** -0.24
4657 H 110.60564790855845 67.6846010221796 142.12653037311466 H 0.0 **** 0.06
4658 H 112.23514402505289 67.92291214784092 141.4505871839632 H 0.0 **** 0.06
4659 H 111.02527710514859 66.97781293269638 140.54731444817668 H 0.0 **** 0.06
4660 H 111.74081348154529 66.31592717053606 142.0370372170681 H 0.0 **** 0.06
4661 C 109.28560157517582 84.00772614328895 55.2758548748354 C 0.0 **** -0.24
4662 H 109.15429579359538 84.0012325010149 56.357489783496874 H 0.0 **** 0.06
4663 H 108.87389993959779 83.08972696354277 54.854598645698616 H 0.0 **** 0.06
4664 H 110.34715462818549 84.07212070404756 55.03937464684191 H 0.0 **** 0.06
4665 H 108.7653669986416 84.86649438340959 54.85257181434896 H 0.0 **** 0.06
4666 C 138.02544204429407 101.38644894331796 12.285404381559005 C 0.0 **** -0.24
4667 H 139.10817540613743 101.49618784857097 12.343947628561693 H 0.0 **** 0.06
4668 H 137.62595207784975 101.1851983522557 13.280081464983368 H 0.0 **** 0.06
4669 H 137.77960642373628 100.55788979025854 11.621076851188747 H 0.0 **** 0.06
4670 H 137.58739050559421 102.3062630800765 11.89774436101277 H 0.0 **** 0.06
4671 C 106.98207886976431 12.742852134316564 144.15926022308332 C 0.0 **** -0.24
4672 H 107.53961386888224 12.49947300136418 143.25570405594783 H 0.0 **** 0.06
4673 H 107.5826029951381 13.396682705275794 144.79177097109275 H 0.0 **** 0.06
4674 H 106.74891913598893 11.825882617084915 144.70027585972858 H 0.0 **** 0.06
4675 H 106.0551258380435 13.250058358873645 143.88873395014485 H 0.0 **** 0.06
4676 C 125.0681160883692 135.32823548529493 150.1795975640871 C 0.0 **** -0.24
4677 H 124.69934529577928 134.4393721931926 149.66914719405472 H 0.0 **** 0.06
4678 H 124.22532371394452 135.90169890030901 150.56522588304298 H 0.0 **** 0.06
4679 H 125.63473462719564 135.94129826353125 149.47905568171905 H 0.0 **** 0.06
4680 H 125.71445150709589 135.0309315446667 151.00592946386632 H 0.0 **** 0.06
4681 C 49.13855428463704 41.34254350701977 68.14715910595041 C 0.0 **** -0.24
4682 H 48.53574199323789 41.287758274176866 67.24064633438374 H 0.0 **** 0.06
4683 H 48.848961757451264 42.2219738749873 68.72377937976896 H 0.0 **** 0.06
4684 H 50.192330353237026 41.41396345354639 67.87856339298315 H 0.0 **** 0.06
4685 H 48.976051930365855 40.44581015111359 68.74512378454341 H 0.0 **** 0.06
4686 C 15.14678515258828 40.82964926517545 128.00977804075146 C 0.0 **** -0.24
4687 H 14.516334939358615 41.70546484853571 128.16181770405882 H 0.0 **** 0.06
4688 H 14.53654599624167 40.00155711669778 127.64770886175899 H 0.0 **** 0.06
4689 H 15.614697723276436 40.550685752541696 128.95472022215006 H 0.0 **** 0.06
4690 H 15.91936670587279 41.06029395239939 127.27701190066749 H 0.0 **** 0.06
4691 C 49.38707632510054 58.15914857508706 61.1119914835141 C 0.0 **** -0.24
4692 H 49.96499820571546 57.84586453946265 61.981627561299405 H 0.0 **** 0.06
4693 H 48.487193761708355 58.678220488309165 61.44235070342346 H 0.0 **** 0.06
4694 H 49.10837569093873 57.28376652452441 60.52635280375179 H 0.0 **** 0.06
4695 H 49.98918155637443 58.83020096587994 60.49852306328731 H 0.0 **** 0.06
4696 C 131.02185192556598 82.95272542272923 62.901817411692235 C 0.0 **** -0.24
4697 H 131.5734961722388 83.83413192983627 63.22965837733176 H 0.0 **** 0.06
4698 H 130.06894555761178 83.26113691558353 62.47079732069898 H 0.0 **** 0.06
4699 H 130.84166840810965 82.29943731132167 63.75478926351917 H 0.0 **** 0.06
4700 H 131.60512149348475 82.41876710137254 62.15099476915401 H 0.0 **** 0.06
4701 C 21.514131222031637 8.156218342163044 112.2230943816524 C 0.0 **** -0.24
4702 H 21.154491055399888 9.1848672101261 112.24949405311662 H 0.0 **** 0.06
4703 H 20.738679138041846 7.512074933083198 111.80787054083686 H 0.0 **** 0.06
4704 H 21.75516357950002 7.82888929871271 113.23488913128949 H 0.0 **** 0.06
4705 H 22.40655771178652 8.099537123827503 111.59982904218441 H 0.0 **** 0.06
4706 C 122.87180683360695 128.7833733073836 128.34355627738208 C 0.0 **** -0.24
4707 H 122.014896740363 128.5775380124817 127.70232122082663 H 0.0 **** 0.06
4708 H 122.60540135902097 128.57995743689924 129.38110898368902 H 0.0 **** 0.06
4709 H 123.15973914374173 129.82964648677776 128.23964808204553 H 0.0 **** 0.06
4710 H 123.70603359211059 128.14612081467297 128.05036614224582 H 0.0 **** 0.06
4711 C 4.359448471037183 32.3285078456817 48.00018035391875 C 0.0 **** -0.24
4712 H 3.5174368559426625 32.821961456370886 47.51535622390047 H 0.0 **** 0.06
4713 H 4.768683018252091 32.98058894390391 48.77138381997766 H 0.0 **** 0.06
4714 H 5.129847737784473 32.113750703618166 47.259222295979754 H 0.0 **** 0.06
4715 H 4.022022699524996 31.39576386232892 48.45331171890716 H 0.0 **** 0.06
4716 C 19.244017955412765 72.34592963852332 130.77405110608265 C 0.0 **** -0.24
4717 H 19.71153460070449 72.81066756183414 131.6418070122057 H 0.0 **** 0.06
4718 H 18.747355342256952 73.11027070372403 130.17558932532955 H 0.0 **** 0.06
4719 H 18.510691591498244 71.610831402069 131.10738660137827 H 0.0 **** 0.06
4720 H 20.0057856448145 71.85165332648377 130.17206659007414 H 0.0 **** 0.06
4721 C 136.21546020207228 128.39045088079195 42.36407778429525 C 0.0 **** -0.24
4722 H 136.36659722514216 129.463061340264 42.48208564589832 H 0.0 **** 0.06
4723 H 135.24592189355 128.20913813860378 41.89837648296786 H 0.0 **** 0.06
4724 H 136.24549129951072 127.90966807840749 43.34117678914504 H 0.0 **** 0.06
4725 H 137.0037832415711 127.97987446386105 41.732223910749624 H 0.0 **** 0.06
4726 C 39.79616257289504 148.3306063384928 30.341029821269785 C 0.0 **** -0.24
4727 H 39.31880477556783 147.5806971279217 30.97092834707442 H 0.0 **** 0.06
4728 H 39.49262798543268 149.32542125448876 30.667844048219763 H 0.0 **** 0.06
4729 H 39.4930199686485 148.18111657242883 29.304514084047298 H 0.0 **** 0.06
4730 H 40.879201169135996 148.23611969741782 30.420453755220052 H 0.0 **** 0.06
4731 C 70.59953126181539 88.87005790403572 130.14938033195656 C 0.0 **** -0.24
4732 H 70.92051585393533 88.96956376264586 131.1859457827237 H 0.0 **** 0.06
4733 H 69.80397944356052 88.12770232372168 130.08521662826786 H 0.0 **** 0.06
4734 H 71.44375888806266 88.55351751473609 129.53690390087496 H 0.0 **** 0.06
4735 H 70.22988469758074 89.83102899314684 129.7901624243242 H 0.0 **** 0.06
4736 C 45.721097290919914 40.55168177002065 23.350271646316997 C 0.0 **** -0.24
4737 H 45.64309243627932 40.38665107036638 22.275569081907975 H 0.0 **** 0.06
4738 H 45.69689143230727 41.62272927501971 23.556018757600427 H 0.0 **** 0.06
4739 H 46.6588608332527 40.13244509829036 23.71481743719599 H 0.0 **** 0.06
4740 H 44.88517863299586 40.06570750781685 23.853578215762354 H 0.0 **** 0.06
4741 C 3.535725378867795 103.30269764621734 71.57104114583043 C 0.0 **** -0.24
4742 H 3.374693928494594 103.59022077477975 70.53256256286296 H 0.0 **** 0.06
4743 H 4.337282808019012 103.90728772945421 71.99567982925956 H 0.0 **** 0.06
4744 H 3.8110892879803373 102.24949352550748 71.61827727431316 H 0.0 **** 0.06
4745 H 2.619433763218666 103.4648263736102 72.1395844350245 H 0.0 **** 0.06
4746 C 11.38090600592588 6.846819470497394 67.36295053596805 C 0.0 **** -0.24
4747 H 11.315183783675394 7.892890132908946 67.06287510930042 H 0.0 **** 0.06
4748 H 10.386238606352066 6.475891280132487 67.61070552374028 H 0.0 **** 0.06
4749 H 12.029460456548662 6.759250616196304 68.23504074388555 H 0.0 **** 0.06
4750 H 11.7949524450774 6.259455050452928 66.54343905627425 H 0.0 **** 0.06
4751 C 131.47567418654467 2.9505759919618697 54.21335345396372 C 0.0 **** -0.24
4752 H 131.84717125908287 3.961463738594034 54.37817255082197 H 0.0 **** 0.06
4753 H 132.25778916221137 2.2320414647555253 54.45723202761221 H 0.0 **** 0.06
4754 H 131.18892246774197 2.8344153580736418 53.167262772916246 H 0.0 **** 0.06
4755 H 130.60781134836895 2.7747142058620113 54.849047731360656 H 0.0 **** 0.06
4756 C 83.65201160278531 121.44409838370284 100.43560142568168 C 0.0 **** -0.24
4757 H 82.65569126429924 121.00013623739993 100.42343814420155 H 0.0 **** 0.06
4758 H 84.32221455900628 120.81736061460039 101.02290390805825 H 0.0 **** 0.06
4759 H 83.59992476317137 122.43889994033741 100.87959394576762 H 0.0 **** 0.06
4760 H 84.02721157699963 121.52158856774024 99.41526926140699 H 0.0 **** 0.06
4761 C 134.35915972919105 105.82838974826477 136.21776285215748 C 0.0 **** -0.24
4762 H 135.40045407791052 105.61985455915037 136.4621081310908 H 0.0 **** 0.06
4763 H 134.00093956887713 105.09383101367273 135.49636887285354 H 0.0 **** 0.06
4764 H 134.27991050149862 106.82723459098465 135.78843427076217 H 0.0 **** 0.06
4765 H 133.75603922050445 105.77315588912033 137.1230281673612 H 0.0 **** 0.06
4766 C 40.034004649722135 5.986659405133437 2.4990913903542946 C 0.0 **** -0.24
4767 H 39.503449559361684 6.698237300931993 3.1328111444062756 H 0.0 **** 0.06
4768 H 39.3844557935725 5.672386792702696 1.6828417656311387 H 0.0 **** 0.06
4769 H 40.32132016615088 5.118216527894116 3.0916293530556516 H 0.0 **** 0.06
4770 H 40.927364011648706 6.459417547799099 2.0913301074477317 H 0.0 **** 0.06
4771 C 20.164993584486126 108.74923724862965 92.87467583680875 C 0.0 **** -0.24
4772 H 20.417841162138075 109.68627698230198 92.37938088020081 H 0.0 **** 0.06
4773 H 19.49276385839056 108.17317372502798 92.23834061352493 H 0.0 **** 0.06
4774 H 19.674936827849592 108.96120905326991 93.82424298244436 H 0.0 **** 0.06
4775 H 21.074892829500698 108.17729603690641 93.05455377278534 H 0.0 **** 0.06
4776 C 9.940518524984043 54.69516231886088 62.057675305113435 C 0.0 **** -0.24
4777 H 10.382437090503487 55.473420491603534 62.67997401674357 H 0.0 **** 0.06
4778 H 9.735559199299587 53.81425572590429 62.66759071113158 H 0.0 **** 0.06
4779 H 10.633729170088202 54.43023727509379 61.25915027975218 H 0.0 **** 0.06
4780 H 9.00939902195526 55.06129792303095 61.623810444658716 H 0.0 **** 0.06
4781 C 8.252355583196646 34.19171948512917 129.29037142835662 C 0.0 **** -0.24
4782 H 8.21304524347218 34.226604631729174 128.20090216945036 H 0.0 **** 0.06
4783 H 8.635528282619958 33.22213917493647 129.60795161638143 H 0.0 **** 0.06
4784 H 7.250813151846614 34.33784835184967 129.69396350935514 H 0.0 **** 0.06
4785 H 8.910940929863415 34.98047547637191 129.65452774776227 H 0.0 **** 0.06
4786 C 19.622204610364975 93.69530095955376 89.3539174107679 C 0.0 **** -0.24
4787 H 20.025872990112703 94.68437985123686 89.57310297496387 H 0.0 **** 0.06
4788 H 19.909384384952943 93.40198209011568 88.3434203267247 H 0.0 **** 0.06
4789 H 18.534842224702345 93.72219573413884 89.42907870392035 H 0.0 **** 0.06
4790 H 20.018646672475654 92.97442609131976 90.06915835631862 H 0.0 **** 0.06
4791 C 14.441968709950864 140.64047851024358 150.35229949596865 C 0.0 **** -0.24
4792 H 14.512710747928637 141.6542529314411 149.95679284659678 H 0.0 **** 0.06
4793 H 13.418384418657936 140.4479606668463 150.6762773078108 H 0.0 **** 0.06
4794 H 15.11762054525024 140.53359562313204 151.20107752276886 H 0.0 **** 0.06
4795 H 14.717634294129333 139.9272664312445 149.575620996153 H 0.0 **** 0.06
4796 C 15.906832122482378 99.71310292306407 86.07968618758142 C 0.0 **** -0.24
4797 H 16.277415807593798 98.89750260930356 86.70037639442366 H 0.0 **** 0.06
4798 H 15.146042853401951 100.27020080476358 86.6275759276745 H 0.0 **** 0.06
4799 H 15.472845972059481 99.30665011817909 85.16709835141249 H 0.0 **** 0.06
4800 H 16.731204620594035 100.37902397901392 85.82570273336422 H 0.0 **** 0.06
4801 C 119.08763385133476 141.06086245760045 104.6977673119041 C 0.0 **** -0.24
4802 H 118.25444477424678 141.3156290793126 105.35209015478694 H 0.0 **** 0.06
4803 H 119.5839637752165 141.97426852730575 104.36891405032424 H 0.0 **** 0.06
4804 H 118.71500031323019 140.5171671788802 103.82941877126262 H 0.0 **** 0.06
4805 H 119.79722137301975 140.43602652290238 105.23971755935185 H 0.0 **** 0.06
4806 C 39.82812119575891 105.43388880874527 79.69955994449234 C 0.0 **** -0.24
4807 H 39.35507965308892 104.53330846837117 80.09302695584554 H 0.0 **** 0.06
4808 H 40.60341916717239 105.76774713571551 80.38997083480683 H 0.0 **** 0.06
4809 H 39.07850432953353 106.21717450759 79.58762001630213 H 0.0 **** 0.06
4810 H 40.27330708238128 105.21519761284189 78.72955730137483 H 0.0 **** 0.06
4811 C 18.623285458688997 96.4154664665402 106.02061017089801 C 0.0 **** -0.24
4812 H 19.471288228133005 96.466902073092 106.70270556382064 H 0.0 **** 0.06
4813 H 18.40071865726935 97.41259045084408 105.64043617040545 H 0.0 **** 0.06
4814 H 17.75398202994259 96.02642783995093 106.55015144004591 H 0.0 **** 0.06
4815 H 18.866124051904933 95.75558481139036 105.18780161053377 H 0.0 **** 0.06
4816 C 131.37002787277854 20.301048926520053 64.28084856240898 C 0.0 **** -0.24
4817 H 131.1468296728191 19.75384928730753 63.364438372131474 H 0.0 **** 0.06
4818 H 131.76835719111986 21.284125613603663 64.02841343853655 H 0.0 **** 0.06
4819 H 132.10811012789952 19.748582822060968 64.86297337658536 H 0.0 **** 0.06
4820 H 130.45797672678108 20.417109677865227 64.86573322366431 H 0.0 **** 0.06
4821 C 140.1498140495676 84.53038393425726 48.3786104443181 C 0.0 **** -0.24
4822 H 140.5574843960923 83.85447731389849 47.62640525924847 H 0.0 **** 0.06
4823 H 140.27339749716634 84.09015432224413 49.368776367361534 H 0.0 **** 0.06
4824 H 139.0898617235126 84.69327333138762 48.18334499266793 H 0.0 **** 0.06
4825 H 140.67775032324948 85.48366685522188 48.33526886333917 H 0.0 **** 0.06
4826 C 35.4800599898243 58.67629321866556 63.90515709312851 C 0.0 **** -0.24
4827 H 35.16139643461918 59.464692802922144 63.2228029763414 H 0.0 **** 0.06
4828 H 36.53230658295098 58.817656737448345 64.15575241654398 H 0.0 **** 0.06
4829 H 35.346805126945355 57.7059372403543 63.42742821482089 H 0.0 **** 0.06
4830 H 34.881072314320164 58.718931695840496 64.81478185399781 H 0.0 **** 0.06
4831 C 146.00223065017173 111.19458365116711 26.687154830228934 C 0.0 **** -0.24
4832 H 145.7231013843495 110.42421057289889 27.406251952363164 H 0.0 **** 0.06
4833 H 146.22520593703297 110.73032344246266 25.726420751661095 H 0.0 **** 0.06
4834 H 146.8829072725918 111.72599142057996 27.048025938917675 H 0.0 **** 0.06
4835 H 145.1767823013363 111.89672752039573 26.568907195203735 H 0.0 **** 0.06
4836 C 123.5389915573555 55.29539364036587 122.58122316923645 C 0.0 **** -0.24
4837 H 122.89055010811015 56.16595182408123 122.48620426170909 H 0.0 **** 0.06
4838 H 123.2745715381914 54.743940619229846 123.48427917792638 H 0.0 **** 0.06
4839 H 124.57737390717145 55.62106269401252 122.64477043782826 H 0.0 **** 0.06
4840 H 123.41270702290913 54.65113575515839 121.71141373123196 H 0.0 **** 0.06
4841 C 55.10167727460356 113.44057073899803 105.43107894610438 C 0.0 **** -0.24
4842 H 54.32703035021241 112.69324967258417 105.6047535639022 H 0.0 **** 0.06
4843 H 54.7970838192484 114.09525365678103 104.61367963120159 H 0.0 **** 0.06
4844 H 56.03458773696599 112.94196227526793 105.17059266124141 H 0.0 **** 0.06
4845 H 55.24468684104869 114.03139998721191 106.33663214736174 H 0.0 **** 0.06
4846 C 142.05436638869412 100.69971353804345 44.462633268291825 C 0.0 **** -0.24
4847 H 142.70561228610396 100.1414609660128 45.13558077721359 H 0.0 **** 0.06
4848 H 141.31173053705805 100.02713674617216 44.03401932150601 H 0.0 **** 0.06
4849 H 142.65111748745292 101.13975850908815 43.66312525405297 H 0.0 **** 0.06
4850 H 141.55102519037774 101.4911939506669 45.01846768764622 H 0.0 **** 0.06
4851 C 67.33732156918794 49.09030664712442 13.801765153264881 C 0.0 **** -0.24
4852 H 68.11537142574242 49.846312742378345 13.904724691772088 H 0.0 **** 0.06
4853 H 66.61873953585386 49.19584804448776 14.615523973226829 H 0.0 **** 0.06
4854 H 67.7875021480377 48.098027229010754 13.839798157122146 H 0.0 **** 0.06
4855 H 66.82767316711751 49.22103857262074 12.84701379093866 H 0.0 **** 0.06
4856 C 63.95717322274906 121.35963866901943 106.76979358761622 C 0.0 **** -0.24
4857 H 64.51612697247545 122.00665737164587 107.447160587979 H 0.0 **** 0.06
4858 H 63.994995646855756 120.33353126702059 107.1346079546351 H 0.0 **** 0.06
4859 H 64.39861948812876 121.40931012832613 105.77444117597412 H 0.0 **** 0.06
4860 H 62.92030976203674 121.6921852512674 106.72450115631511 H 0.0 **** 0.06
4861 C 114.1196158041139 140.34713827114683 34.66378908487032 C 0.0 **** -0.24
4862 H 114.7250665038256 139.54075388804708 35.078328807161384 H 0.0 **** 0.06
4863 H 113.19032999759337 140.42970326786468 35.22834150194933 H 0.0 **** 0.06
4864 H 113.89379893179735 140.132653229185 33.62032355740301 H 0.0 **** 0.06
4865 H 114.67089229116102 141.285331776677 34.7320802949328 H 0.0 **** 0.06
4866 C 5.728375068555806 3.0077398682360013 24.559199190155653 C 0.0 **** -0.24
4867 H 5.197234720855192 3.259603836510223 23.640803312038088 H 0.0 **** 0.06
4868 H 6.247513418354515 2.0574594219873745 24.42895333746685 H 0.0 **** 0.06
4869 H 5.016784420949847 2.9246088728046686 25.37961152997832 H 0.0 **** 0.06
4870 H 6.454007311024981 3.7897533504454373 24.784326421820424 H 0.0 **** 0.06
4871 C 21.278319071039192 39.84326814127246 133.1400701238185 C 0.0 **** -0.24
4872 H 22.209598031736306 40.11381030319947 133.63744715455877 H 0.0 **** 0.06
4873 H 21.467419761939226 39.0393854737698 132.42805530630667 H 0.0 **** 0.06
4874 H 20.882876647958597 40.710531415250856 132.61137343850672 H 0.0 **** 0.06
4875 H 20.553903314559534 39.508494753606655 133.88240230503308 H 0.0 **** 0.06
4876 C 125.8678092826797 7.608991564563638 96.69764782853058 C 0.0 **** -0.24
4877 H 125.3768134993316 6.698202417028455 96.35611346378101 H 0.0 **** 0.06
4878 H 126.42933892016977 8.050263475286414 95.87352035555524 H 0.0 **** 0.06
4879 H 126.54902384680923 7.370451509901187 97.51472729888282 H 0.0 **** 0.06
4880 H 125.11606086440834 8.317048856038468 97.04623019590326 H 0.0 **** 0.06
4881 C 119.64742621712024 145.85089221067324 3.182570933846371 C 0.0 **** -0.24
4882 H 120.53607965653457 145.50413482628676 2.6556213659763515 H 0.0 **** 0.06
4883 H 119.07177991521623 146.50885358607565 2.5304316075553004 H 0.0 **** 0.06
4884 H 119.94638085187985 146.39731571082606 4.0778580494509065 H 0.0 **** 0.06
4885 H 119.03647128943014 144.99419968087074 3.466037772950397 H 0.0 **** 0.06
4886 C 44.2662763888367 82.62402764150646 19.574451093713947 C 0.0 **** -0.24
4887 H 43.692054485115634 82.05053055376567 20.303035220073582 H 0.0 **** 0.06
4888 H 45.24342024430595 82.86611334683005 19.992242759111548 H 0.0 **** 0.06
4889 H 43.73331734698883 83.5440239348999 19.33654580884496 H 0.0 **** 0.06
4890 H 44.39493154592168 82.03296753184767 18.66738202131586 H 0.0 **** 0.06
4891 C 104.47596471789305 2.981025525141547 84.99974966866161 C 0.0 **** -0.24
4892 H 103.59252848747334 2.9150959457446675 85.63542114801007 H 0.0 **** 0.06
4893 H 105.34106067936145 3.247408488272015 85.6076629911302 H 0.0 **** 0.06
4894 H 104.31786016845936 3.743331026448118 84.23658142144647 H 0.0 **** 0.06
4895 H 104.6504564127504 2.018128062597441 84.52041306209713 H 0.0 **** 0.06
4896 C 31.032930237366827 109.24987319004967 28.2173600515222 C 0.0 **** -0.24
4897 H 31.01349075502992 109.3095362179292 29.305100313365905 H 0.0 **** 0.06
4898 H 30.728225763820518 108.25162379940204 27.90203823787568 H 0.0 **** 0.06
4899 H 32.04379493411099 109.45078155323549 27.860511440424474 H 0.0 **** 0.06
4900 H 30.347620193576716 109.98710632933987 27.80011324808511 H 0.0 **** 0.06
4901 C 132.53455367454885 19.318547398459117 134.58052504850457 C 0.0 **** -0.24
4902 H 132.03394338246264 19.103765275392675 133.6356168448503 H 0.0 **** 0.06
4903 H 133.40347374817404 19.950396644238992 134.39557929144388 H 0.0 **** 0.06
4904 H 132.85590925421334 18.38478334375813 135.04143691401106 H 0.0 **** 0.06
4905 H 131.8439432646626 19.8346446855426 135.24753129971612 H 0.0 **** 0.06
4906 C 22.612263153977466 61.612112196298 135.44333162906295 C 0.0 **** -0.24
4907 H 21.699845503089733 61.7311883316502 136.02778299068922 H 0.0 **** 0.06
4908 H 23.45552147042264 61.45253685006227 136.11642943731215 H 0.0 **** 0.06
4909 H 22.784558834839174 62.51128673977692 134.851530282007 H 0.0 **** 0.06
4910 H 22.510255486182288 60.75370516252363 134.77974119353115 H 0.0 **** 0.06
4911 C 98.67935006663015 50.68216917331668 11.327950779550605 C 0.0 **** -0.24
4912 H 98.03945170350494 49.97975607534511 11.862574412931593 H 0.0 **** 0.06
4913 H 99.37769174520719 51.14160450260803 12.027464582906582 H 0.0 **** 0.06
4914 H 98.06464526780525 51.45489661572 10.866476200204005 H 0.0 **** 0.06
4915 H 99.23551963894079 50.15101123447576 10.555379655007798 H 0.0 **** 0.06
4916 C 145.6756168922928 141.27849388440902 46.22622543747548 C 0.0 **** -0.24
4917 H 144.93878945442842 140.47500763496043 46.2404970747499 H 0.0 **** 0.06
4918 H 146.30240238516862 141.21216567647141 47.11515342930329 H 0.0 **** 0.06
4919 H 145.16266556312132 142.24097751996223 46.21293159392212 H 0.0 **** 0.06
4920 H 146.29664600989582 141.18653906968626 45.335042156919485 H 0.0 **** 0.06
4921 C 103.97540724105404 107.96876855446014 149.20538775246942 C 0.0 **** -0.24
4922 H 103.13501328675703 107.29176795765035 149.05142449616014 H 0.0 **** 0.06
4923 H 104.69721899455438 107.50491484816526 149.87836327261405 H 0.0 **** 0.06
4924 H 103.61603175511691 108.90009730493837 149.6428125958674 H 0.0 **** 0.06
4925 H 104.45286146563238 108.17770914402819 148.24831473590345 H 0.0 **** 0.06
4926 C 69.88896543670671 26.312477199842306 3.8794360726558956 C 0.0 **** -0.24
4927 H 69.37760354369524 27.25707590187136 3.6932297295886443 H 0.0 **** 0.06
4928 H 69.19175448683902 25.487021170343098 3.729290180980705 H 0.0 **** 0.06
4929 H 70.25751745128952 26.29485165919391 4.904433237256107 H 0.0 **** 0.06
4930 H 70.726687245259 26.211334033207947 3.190032935824995 H 0.0 **** 0.06
4931 C 77.59257372757362 102.88525050859515 66.05660176567976 C 0.0 **** -0.24
4932 H 78.55503171983585 102.85847187334387 66.56624375082475 H 0.0 **** 0.06
4933 H 77.41680667770947 103.8876874217032 65.66435347809512 H 0.0 **** 0.06
4934 H 76.80150099650963 102.62617020494592 66.76006022361709 H 0.0 **** 0.06
4935 H 77.59652456633182 102.16868885872097 65.23484736171639 H 0.0 **** 0.06
4936 C 97.29806924853342 130.5535325026862 27.465998822970896 C 0.0 **** -0.24
4937 H 98.15060436540472 131.22274873257157 27.345753102485574 H 0.0 **** 0.06
4938 H 96.37961488596464 131.13847936238358 27.50253922003497 H 0.0 **** 0.06
4939 H 97.40780187896966 129.9899004232385 28.392581857010548 H 0.0 **** 0.06
4940 H 97.2573211490647 129.86317333980307 26.623879308067394 H 0.0 **** 0.06
4941 C 4.8921060279223525 40.5886414947953 2.6220501559602383 C 0.0 **** -0.24
4942 H 4.709961752758687 40.11590849828856 1.6568841265922458 H 0.0 **** 0.06
4943 H 5.343842815305351 39.86409248661346 3.3009317065938717 H 0.0 **** 0.06
4944 H 3.947319190534131 40.937973530655796 3.0396438324059147 H 0.0 **** 0.06
4945 H 5.566730408728546 41.4344298132567 2.4906898297936095 H 0.0 **** 0.06
4946 C 65.72771482114419 140.6259947498817 15.666446542961822 C 0.0 **** -0.24
4947 H 65.78597443769974 141.29857251849427 14.809808638041808 H 0.0 **** 0.06
4948 H 66.41756335028089 139.79417765695445 15.522384641806312 H 0.0 **** 0.06
4949 H 64.7110971102818 140.24321109893262 15.758068604653502 H 0.0 **** 0.06
4950 H 65.9960992920447 141.16805316548613 16.57252705114992 H 0.0 **** 0.06
4951 C 17.769236956036643 105.24774503883238 15.648561777328325 C 0.0 **** -0.24
4952 H 17.165167395079642 104.95274673075441 16.506697812852508 H 0.0 **** 0.06
4953 H 18.72981866226585 105.62810249846014 15.994820989938773 H 0.0 **** 0.06
4954 H 17.25030841341728 106.02725613564904 15.090228434502023 H 0.0 **** 0.06
4955 H 17.929734062166965 104.38412068838373 15.003374102656835 H 0.0 **** 0.06
4956 C 104.65566285975733 139.13688589011073 13.057460819292345 C 0.0 **** -0.24
4957 H 103.6895312034613 138.64823792712005 12.930960709232494 H 0.0 **** 0.06
4958 H 105.39359455394789 138.6539137997876 12.416146314157913 H 0.0 **** 0.06
4959 H 104.97006942510636 139.05628553369954 14.09729038353558 H 0.0 **** 0.06
4960 H 104.56853987462561 140.1885247059549 12.783765947865305 H 0.0 **** 0.06
4961 C 57.501979444094204 33.947679109449496 132.02354399989554 C 0.0 **** -0.24
4962 H 58.44820427967389 33.43207535236232 132.1893023495274 H 0.0 **** 0.06
4963 H 56.819292450928785 33.725854305501315 132.84394433969 H 0.0 **** 0.06
4964 H 57.06413187807679 33.61037143286907 131.08469924140903 H 0.0 **** 0.06
4965 H 57.677439446423605 35.02210454319132 131.9774871964772 H 0.0 **** 0.06
4966 C 34.9569858904927 93.70904183453152 104.42034900593016 C 0.0 **** -0.24
4967 H 35.54023328675236 93.2989357521503 103.59604326762637 H 0.0 **** 0.06
4968 H 34.278764801971384 94.47309936088337 104.03975374300323 H 0.0 **** 0.06
4969 H 35.6282007999421 94.15163240942846 105.15590225914939 H 0.0 **** 0.06
4970 H 34.380365046084876 92.91056730506156 104.88863775963175 H 0.0 **** 0.06
4971 C 124.2500604572867 98.19715306326995 18.108541860919274 C 0.0 **** -0.24
4972 H 123.23201124438289 98.47684541995797 17.840936924236246 H 0.0 **** 0.06
4973 H 124.36747906730132 97.11687661915843 18.01488711627968 H 0.0 **** 0.06
4974 H 124.4506865689814 98.49625277173493 19.137932970910356 H 0.0 **** 0.06
4975 H 124.95196476346017 98.69804988574388 17.441433009106333 H 0.0 **** 0.06
4976 C 30.237882868300346 57.589736150947715 133.97231020401438 C 0.0 **** -0.24
4977 H 30.298144303316178 58.55178615638167 133.46222601868664 H 0.0 **** 0.06
4978 H 29.905131300726453 56.826493846998915 133.26959118059102 H 0.0 **** 0.06
4979 H 29.5276996693064 57.660792208331856 134.79706677432347 H 0.0 **** 0.06
4980 H 31.220426548495595 57.323301292578066 134.36146423023757 H 0.0 **** 0.06
4981 C 35.11538176351172 23.781764094354116 146.70231396740704 C 0.0 **** -0.24
4982 H 34.24992542874446 23.203921195382236 147.02574460797274 H 0.0 **** 0.06
4983 H 35.986585361897994 23.128183598954195 146.6439841857238 H 0.0 **** 0.06
4984 H 35.30670128447582 24.580392573720076 147.41889115716899 H 0.0 **** 0.06
4985 H 34.91804235034135 24.213188984746978 145.72085677938307 H 0.0 **** 0.06
4986 C 96.82164293188208 22.168980304646254 133.31175636560155 C 0.0 **** -0.24
4987 H 97.51756938905848 22.051844563712024 132.48080144300326 H 0.0 **** 0.06
4988 H 95.91860108180136 22.669783789538513 132.96088627903018 H 0.0 **** 0.06
4989 H 97.28858635638667 22.766325474233838 134.09528179262261 H 0.0 **** 0.06
4990 H 96.562246711528 21.18804947994363 133.70838056413098 H 0.0 **** 0.06
4991 C 6.173657795886129 88.03479884082844 23.749549727275735 C 0.0 **** -0.24
4992 H 5.288285055555548 88.18919643018016 23.13300616067685 H 0.0 **** 0.06
4993 H 5.870586487433229 87.73706764100505 24.753737671408487 H 0.0 **** 0.06
4994 H 6.745716861997835 88.96164944578585 23.802046390872974 H 0.0 **** 0.06
4995 H 6.791362537674104 87.2516748071328 23.308358006605303 H 0.0 **** 0.06
4996 C 144.92289583006513 47.43442222924554 13.010471216020875 C 0.0 **** -0.24
4997 H 144.03550321354643 47.82157069535559 13.510809979137527 H 0.0 **** 0.06
4998 H 144.65395871334098 46.55988403021561 12.417478573283894 H 0.0 **** 0.06
4999 H 145.66654982889682 47.152717355114504 13.755456820749593 H 0.0 **** 0.06
5000 H 145.33557156447642 48.203516836296586 12.3581394909124 H 0.0 **** 0.06
5001 C 78.43982894071357 49.13267679904888 38.8320789959142 C 0.0 **** -0.24
5002 H 78.86716009031008 48.13019823761299 38.798191994451855 H 0.0 **** 0.06
5003 H 77.44780840945381 49.08887308197414 39.28315109035984 H 0.0 **** 0.06
5004 H 78.3620898702612 49.529266408888134 37.819466619810385 H 0.0 **** 0.06
5005 H 79.08153817957756 49.781435922551964 39.42828813510806 H 0.0 **** 0.06
5006 C 85.89990770469603 82.07957323795169 56.377606183133764 C 0.0 **** -0.24
5007 H 85.42391645960876 81.4776398679929 55.60389434067649 H 0.0 **** 0.06
5008 H 86.98319297952592 81.9920406658127 56.289517727152344 H 0.0 **** 0.06
5009 H 85.58447149662774 81.72438314448641 57.3593788311328 H 0.0 **** 0.06
5010 H 85.60807669002294 83.12323039112687 56.25767322850015 H 0.0 **** 0.06
5011 C 58.322800934051344 0.03240530990848356 145.13972255416138 C 0.0 **** -0.24
5012 H 57.77623959300985 -0.44388285320655996 145.95484821296841 H 0.0 **** 0.06
5013 H 58.05560814471178 1.0878422121331823 145.09184327679478 H 0.0 **** 0.06
5014 H 58.0654014535601 -0.45200171692610525 144.1985383143093 H 0.0 **** 0.06
5015 H 59.39336026899643 -0.06378048119071877 145.31747644384703 H 0.0 **** 0.06
5016 C 141.4978461183059 146.39531676067605 147.16052816917613 C 0.0 **** -0.24
5017 H 142.58563094990782 146.35405830618953 147.22160521841602 H 0.0 **** 0.06
5018 H 141.0958480022678 145.3818120661037 147.15459023315586 H 0.0 **** 0.06
5019 H 141.20551836171157 146.90782212226816 146.24406964992923 H 0.0 **** 0.06
5020 H 141.1066529233291 146.93689269444243 148.02121384918624 H 0.0 **** 0.06
5021 C 118.99653094258422 30.364469480273186 90.30974114371382 C 0.0 **** -0.24
5022 H 118.73402222247061 31.371215800950353 89.98157262593256 H 0.0 **** 0.06
5023 H 118.59776275972074 30.193406106222398 91.30970051567084 H 0.0 **** 0.06
5024 H 120.0810697772876 30.259010105210308 90.32666162606728 H 0.0 **** 0.06
5025 H 118.57071829578938 29.636248336233052 89.61916308571087 H 0.0 **** 0.06
5026 C 33.81752603433256 40.244911097419816 9.77674378779622 C 0.0 **** -0.24
5027 H 33.243211014996405 39.93040712507033 8.904746636870044 H 0.0 **** 0.06
5028 H 34.18227646123148 41.26055769751318 9.623131951553546 H 0.0 **** 0.06
5029 H 34.663333622903906 39.57167269452498 9.916289694502979 H 0.0 **** 0.06
5030 H 33.1798752793286 40.216400601778105 10.659700247924548 H 0.0 **** 0.06
5031 C 118.26347001869999 137.36203106168148 86.2406304391556 C 0.0 **** -0.24
5032 H 118.58969565022858 137.7723356146569 87.19582437791857 H 0.0 **** 0.06
5033 H 117.55264327054897 136.55476334451245 86.41525468352863 H 0.0 **** 0.06
5034 H 119.12675731735465 136.9747812552403 85.69787619130176 H 0.0 **** 0.06
5035 H 117.78644913769415 138.1458954185914 85.6518042721728 H 0.0 **** 0.06
5036 C 89.27690003121565 47.636323993215626 24.103822902026465 C 0.0 **** -0.24
5037 H 88.95774576119156 46.76584011319703 23.530967913504355 H 0.0 **** 0.06
5038 H 88.92769961052078 47.5432840760335 25.13271170272691 H 0.0 **** 0.06
5039 H 88.85764712673904 48.5382324545926 23.657469201965796 H 0.0 **** 0.06
5040 H 90.36559944871257 47.69769888169009 24.093276659240075 H 0.0 **** 0.06
5041 C 34.27543223764266 22.69089536980848 44.554472568666114 C 0.0 **** -0.24
5042 H 33.93033064511627 21.928862495337114 45.252506403006265 H 0.0 **** 0.06
5043 H 34.61546731646348 22.214097684716464 43.635764478228424 H 0.0 **** 0.06
5044 H 35.09834682151234 23.24739848165082 45.0017636548761 H 0.0 **** 0.06
5045 H 33.456078704681914 23.373712440579183 44.32855856202991 H 0.0 **** 0.06
5046 C 41.93349432322938 123.35067765761538 122.20432038434393 C 0.0 **** -0.24
5047 H 42.56332129813673 122.82313715190962 121.48832425099346 H 0.0 **** 0.06
5048 H 42.49339267286466 123.52028776244244 123.12492224988074 H 0.0 **** 0.06
5049 H 41.04941288601145 122.7503667605625 122.4219171847696 H 0.0 **** 0.06
5050 H 41.62845913037317 124.30841457384078 121.7836590201008 H 0.0 **** 0.06
5051 C 91.04990736378988 111.07218958024701 70.00181337644227 C 0.0 **** -0.24
5052 H 90.24191282864463 110.66546635550252 69.3932005645739 H 0.0 **** 0.06
5053 H 91.53932099769979 110.2636270363089 70.54451990964873 H 0.0 **** 0.06
5054 H 90.64130978528887 111.7925544457617 70.71162745212123 H 0.0 **** 0.06
5055 H 91.77444299770897 111.56952063430977 69.35745059101006 H 0.0 **** 0.06
5056 C 35.41223311045149 98.27675885524411 66.46060977827302 C 0.0 **** -0.24
5057 H 36.08687207676275 97.45619517264461 66.21735893149045 H 0.0 **** 0.06
5058 H 34.60952626519751 98.31757376589005 65.72394610440975 H 0.0 **** 0.06
5059 H 35.96453659814548 99.2172003784365 66.44894197468422 H 0.0 **** 0.06
5060 H 34.98788329695711 98.11745172910472 67.45193311686663 H 0.0 **** 0.06
5061 C 84.92161209263861 20.953007937336317 55.56074104242322 C 0.0 **** -0.24
5062 H 84.0791165734181 21.64349049520534 55.57309298044524 H 0.0 **** 0.06
5063 H 85.04671165853173 20.513621669130842 56.55142482905205 H 0.0 **** 0.06
5064 H 85.8294722679841 21.490609205227415 55.28404748623038 H 0.0 **** 0.06
5065 H 84.73205860579046 20.162126444185667 54.83376546543417 H 0.0 **** 0.06
5066 C 78.19006602216027 52.00674774395188 84.4875118149481 C 0.0 **** -0.24
5067 H 77.81221179592185 51.0079266087524 84.27034140218399 H 0.0 **** 0.06
5068 H 77.8304697623955 52.70421878497481 83.72973663061876 H 0.0 **** 0.06
5069 H 79.27958744868188 51.992483418211194 84.48118374250595 H 0.0 **** 0.06
5070 H 77.83568607505481 52.32317880785112 85.46874304874274 H 0.0 **** 0.06
5071 C 138.5577656851212 77.35034370435147 76.27403038054682 C 0.0 **** -0.24
5072 H 137.88083698861698 76.70602866326539 76.83462304406434 H 0.0 **** 0.06
5073 H 138.1457488527904 78.3592834472368 76.2296765002428 H 0.0 **** 0.06
5074 H 138.67709487918034 76.96088499245815 75.26296958067951 H 0.0 **** 0.06
5075 H 139.52897815889884 77.37649143828236 76.76970483662473 H 0.0 **** 0.06
5076 C 91.1123528334769 59.466560797518554 38.35015508250319 C 0.0 **** -0.24
5077 H 91.87378605946955 59.84103453015473 37.6654877366862 H 0.0 **** 0.06
5078 H 90.36581067679882 60.242502357825884 38.52134798391103 H 0.0 **** 0.06
5079 H 91.57815004314233 59.195671315033394 39.29740917431644 H 0.0 **** 0.06
5080 H 90.63286077473305 58.58991966302557 37.91587737111928 H 0.0 **** 0.06
5081 C 1.9959317906798901 130.06902676802002 22.96035557329739 C 0.0 **** -0.24
5082 H 2.165977474793692 129.10103456211198 23.432298428431096 H 0.0 **** 0.06
5083 H 2.7375144859639136 130.22565395598616 22.176450256298267 H 0.0 **** 0.06
5084 H 2.08344494082354 130.8580461374409 23.70742877934552 H 0.0 **** 0.06
5085 H 0.9963901565054698 130.0894202284788 22.525415194765287 H 0.0 **** 0.06
5086 C 90.02296919210256 143.09649061288155 17.804798678122665 C 0.0 **** -0.24
5087 H 90.30146751104968 142.94204094356053 18.84718846397908 H 0.0 **** 0.06
5088 H 89.52556620323202 144.06103035275328 17.700828215101552 H 0.0 **** 0.06
5089 H 89.34616552782026 142.30261553351977 17.489147547916474 H 0.0 **** 0.06
5090 H 90.9180121816794 143.07988052200915 17.182663927965933 H 0.0 **** 0.06
5091 C 25.609452617478382 18.685328621590806 81.75292286897377 C 0.0 **** -0.24
5092 H 25.8806797972328 19.437796678605544 82.4942414027976 H 0.0 **** 0.06
5093 H 26.020755335274885 18.967025095029747 80.78271839685355 H 0.0 **** 0.06
5094 H 24.523191918577083 18.620587953375967 81.68148152332137 H 0.0 **** 0.06
5095 H 26.012932592970856 17.71855940177697 82.05230662084111 H 0.0 **** 0.06
5096 C 42.77874164043634 19.500751321410682 99.26826822521512 C 0.0 **** -0.24
5097 H 42.6308033471763 18.456253749265585 98.99142238692613 H 0.0 **** 0.06
5098 H 42.14012395139443 20.133716844843562 98.65284110110305 H 0.0 **** 0.06
5099 H 43.822566906544424 19.773312423819924 99.11032592958686 H 0.0 **** 0.06
5100 H 42.52328014314824 19.637573140140645 100.31882030869642 H 0.0 **** 0.06
5101 C 140.34089505516508 87.6180369306967 84.27082371053028 C 0.0 **** -0.24
5102 H 141.36668795494293 87.95170884777866 84.430953356312 H 0.0 **** 0.06
5103 H 140.15682140719994 87.51011974589561 83.2022638247577 H 0.0 **** 0.06
5104 H 139.65180120143484 88.35179860521056 84.6875201290081 H 0.0 **** 0.06
5105 H 140.1913695275931 86.6581518217382 84.764620387816 H 0.0 **** 0.06
5106 C 56.5966483143753 36.59278214162214 148.4960045705335 C 0.0 **** -0.24
5107 H 56.24204537651748 37.586573816442865 148.22244223607208 H 0.0 **** 0.06
5108 H 55.75301602253893 35.90371181216415 148.53303312272672 H 0.0 **** 0.06
5109 H 57.075969220286964 36.63452642062356 149.47427160078485 H 0.0 **** 0.06
5110 H 57.31568780421216 36.246807813004864 147.75295108198537 H 0.0 **** 0.06
5111 C 2.8904417049760696 78.49699320317768 36.89146011564423 C 0.0 **** -0.24
5112 H 2.415754787196761 79.07649832332038 37.68335002887174 H 0.0 **** 0.06
5113 H 2.7992846501824715 77.43340813237353 37.11537690661259 H 0.0 **** 0.06
5114 H 3.945120725442564 78.76554596058338 36.827827740550305 H 0.0 **** 0.06
5115 H 2.40206596096192 78.71190844422745 35.941612753247654 H 0.0 **** 0.06
5116 C 125.7587282001837 127.11365592000604 19.878278497258975 C 0.0 **** -0.24
5117 H 125.20626777823557 126.17992326224055 19.99056539472258 H 0.0 **** 0.06
5118 H 125.96959187211334 127.284249917012 18.82247042244643 H 0.0 **** 0.06
5119 H 126.69573429462432 127.04922844352609 20.4308743176004 H 0.0 **** 0.06
5120 H 125.16199932561054 127.93735678334389 20.268055308814553 H 0.0 **** 0.06
5121 C 14.297112056819344 13.164781474843466 136.53540944847313 C 0.0 **** -0.24
5122 H 14.658439009103347 12.152139242552437 136.3528606292777 H 0.0 **** 0.06
5123 H 13.37596199070839 13.32726767770805 135.9746373733859 H 0.0 **** 0.06
5124 H 15.050957009993681 13.882708783825507 136.2134488575197 H 0.0 **** 0.06
5125 H 14.102886092455151 13.29398637078097 137.59978805811716 H 0.0 **** 0.06
5126 C 126.61404481082985 56.79073352979559 76.04376346542409 C 0.0 **** -0.24
5127 H 127.13458877156424 57.28675962551662 75.22454152840203 H 0.0 **** 0.06
5128 H 126.48555529899201 57.49124180579753 76.86937542748055 H 0.0 **** 0.06
5129 H 127.19820083844078 55.93462933382803 76.3802405046372 H 0.0 **** 0.06
5130 H 125.6368855724329 56.451155381394415 75.69972421942153 H 0.0 **** 0.06
5131 C 77.7112502000682 123.25195514867835 12.85013441491597 C 0.0 **** -0.24
5132 H 76.78067928153388 122.73275787869392 12.620740766720843 H 0.0 **** 0.06
5133 H 77.54132722614838 123.95932193044894 13.66190033342005 H 0.0 **** 0.06
5134 H 78.05446198727651 123.78815963294215 11.965592222573036 H 0.0 **** 0.06
5135 H 78.46701912248449 122.5256656189074 13.152507383474756 H 0.0 **** 0.06
5136 C 118.5976528523159 125.7220814300004 82.13705159188149 C 0.0 **** -0.24
5137 H 119.27063394225421 125.72515926419419 82.99424203050211 H 0.0 **** 0.06
5138 H 119.07271317047939 126.2359157360574 81.30109316018181 H 0.0 **** 0.06
5139 H 117.67262317604148 126.23535692099045 82.40047874981282 H 0.0 **** 0.06
5140 H 118.37593651877383 124.69337645689257 81.8534525454874 H 0.0 **** 0.06
5141 C 84.9379540845297 141.35897052840903 148.76882564425486 C 0.0 **** -0.24
5142 H 83.93279135706472 141.14274425560905 149.12913319476402 H 0.0 **** 0.06
5143 H 85.19754557431497 142.388733684228 149.01228723748898 H 0.0 **** 0.06
5144 H 84.97411440485452 141.21970069233993 147.68793440938543 H 0.0 **** 0.06
5145 H 85.64823346618721 140.6826482598189 149.2457993548949 H 0.0 **** 0.06
5146 C 56.41140366045511 123.88303754534174 17.39493100886333 C 0.0 **** -0.24
5147 H 56.603964747928785 123.702532386861 18.452643451153577 H 0.0 **** 0.06
5148 H 57.32016432506771 124.25204876318658 16.918849839347963 H 0.0 **** 0.06
5149 H 55.61881456352421 124.623871003128 17.29090800278123 H 0.0 **** 0.06
5150 H 56.10364491113796 122.95195458903542 16.91721286164347 H 0.0 **** 0.06
5151 C 140.7429040607029 110.24803329538408 107.32492340861069 C 0.0 **** -0.24
5152 H 141.44727406882308 111.04831215233101 107.55306622764317 H 0.0 **** 0.06
5153 H 139.95111507691857 110.63335471201195 106.68157347379827 H 0.0 **** 0.06
5154 H 140.3078254085556 109.87142709291543 108.25024648235524 H 0.0 **** 0.06
5155 H 141.26512269763182 109.43877956203472 106.81344553552071 H 0.0 **** 0.06
5156 C 81.34955891632893 14.390114567858262 42.58027276109435 C 0.0 **** -0.24
5157 H 80.33340134538003 14.608853523721365 42.253077832831195 H 0.0 **** 0.06
5158 H 81.85764788886463 13.799094180026628 41.81809365427246 H 0.0 **** 0.06
5159 H 81.31748103143208 13.827422862435498 43.514541793942485 H 0.0 **** 0.06
5160 H 81.88899966208659 15.324015553981837 42.737464062871425 H 0.0 **** 0.06
5161 C 123.29339920634762 71.92839413507701 29.14377645857516 C 0.0 **** -0.24
5162 H 122.9750149510112 71.67307793084933 30.154444842346834 H 0.0 **** 0.06
5163 H 124.13268420933427 72.62252127508867 29.191866960752265 H 0.0 **** 0.06
5164 H 122.46508598224385 72.39604601129594 28.610001723119893 H 0.0 **** 0.06
5165 H 123.5982761457477 71.02346298635842 28.61926705942537 H 0.0 **** 0.06
5166 C 72.25317172605217 52.17556223671484 144.77177784727746 C 0.0 **** -0.24
5167 H 71.29765928714883 51.74391026861002 144.47338707862696 H 0.0 **** 0.06
5168 H 73.06533807309665 51.53608412155779 144.4243255608112 H 0.0 **** 0.06
5169 H 72.29228057652585 52.256185588219 145.8582970018291 H 0.0 **** 0.06
5170 H 72.35649932928659 53.167052320337774 144.33064826052697 H 0.0 **** 0.06
5171 C 55.73289825368815 136.8038625588925 65.01596961886084 C 0.0 **** -0.24
5172 H 56.644709417304995 137.25020528531616 64.61822336488218 H 0.0 **** 0.06
5173 H 55.96320707631983 135.8254813829649 65.43746765951936 H 0.0 **** 0.06
5174 H 55.00318801400667 136.69175443158798 64.21480036444773 H 0.0 **** 0.06
5175 H 55.32320574707123 137.44794125343452 65.7941695773975 H 0.0 **** 0.06
5176 C 32.109306769720064 64.5273209083081 120.51886534097049 C 0.0 **** -0.24
5177 H 33.17917323785815 64.73589749089035 120.5113796291778 H 0.0 **** 0.06
5178 H 31.556826384722115 65.46721406854401 120.52980970276995 H 0.0 **** 0.06
5179 H 31.858577199282564 63.94717062786782 121.40649859300895 H 0.0 **** 0.06
5180 H 31.843725018688048 63.95958086563408 119.62705983304004 H 0.0 **** 0.06
5181 C 105.84569984769769 132.64105533562793 44.371816584672786 C 0.0 **** -0.24
5182 H 105.1792039423687 133.50292413786136 44.38818210725768 H 0.0 **** 0.06
5183 H 105.99371460869327 132.27679978247542 45.38829727608157 H 0.0 **** 0.06
5184 H 106.80672140776 132.93241406036594 43.94631430545208 H 0.0 **** 0.06
5185 H 105.40389857080311 131.8514843379911 43.76342626686734 H 0.0 **** 0.06
5186 C 67.19985003102519 134.50158667211636 131.67111855361844 C 0.0 **** -0.24
5187 H 68.02028126887768 135.1791840756355 131.4335667752585 H 0.0 **** 0.06
5188 H 66.25290720449195 134.9717753148802 131.40715760303547 H 0.0 **** 0.06
5189 H 67.2100048335466 134.2776713458497 132.73778030267553 H 0.0 **** 0.06
5190 H 67.31745217857409 133.57702181293203 131.10498599111773 H 0.0 **** 0.06
5191 C 113.87762002375908 110.0664150903859 102.54564678312602 C 0.0 **** -0.24
5192 H 114.06927176913993 111.11253912727815 102.78502640385733 H 0.0 **** 0.06
5193 H 114.45867158333456 109.42997171824223 103.21253611275574 H 0.0 **** 0.06
5194 H 114.16707149474647 109.87119545494951 101.51322215523948 H 0.0 **** 0.06
5195 H 112.81556497435716 109.85503553062696 102.67250599886245 H 0.0 **** 0.06
5196 C 105.86056701274453 83.34824268922632 43.38770588264374 C 0.0 **** -0.24
5197 H 105.48288379163279 83.80676417942078 42.473682951126804 H 0.0 **** 0.06
5198 H 105.65579808270576 82.27796712634142 43.369094698442396 H 0.0 **** 0.06
5199 H 105.36825712513763 83.79850371642974 44.25014051479663 H 0.0 **** 0.06
5200 H 106.93629443259232 83.5118570391466 43.45865924050598 H 0.0 **** 0.06
5201 C 109.63842507995787 106.23411767251555 97.0536020942493 C 0.0 **** -0.24
5202 H 110.72745172836562 106.19171676843773 97.04692408562818 H 0.0 **** 0.06
5203 H 109.31457138460951 107.16739560587162 97.51352006692997 H 0.0 **** 0.06
5204 H 109.24613253761612 105.39188380106849 97.62336971600172 H 0.0 **** 0.06
5205 H 109.26722445145975 106.1848160549436 96.02927354459683 H 0.0 **** 0.06
5206 C 69.32892759127563 31.146157799076548 130.4988965587599 C 0.0 **** -0.24
5207 H 69.14326043961401 32.15417918070301 130.86859110239877 H 0.0 **** 0.06
5208 H 69.07481330843123 31.096669959569624 129.43936155468023 H 0.0 **** 0.06
5209 H 68.7143580783164 30.436456541184896 131.05317080484969 H 0.0 **** 0.06
5210 H 70.38122413693807 30.897406149000517 130.6316746966101 H 0.0 **** 0.06
5211 C 87.48236363686745 94.13057160097524 6.110556564034329 C 0.0 **** -0.24
5212 H 88.4841026277928 93.71192657551752 6.015237046321193 H 0.0 **** 0.06
5213 H 86.98651898809757 94.10802629360953 5.139569789287396 H 0.0 **** 0.06
5214 H 87.55153331144538 95.16001924652733 6.460445894266844 H 0.0 **** 0.06
5215 H 86.90935923697025 93.54046710836198 6.825813252859646 H 0.0 **** 0.06
5216 C 120.73720515036658 133.06071058588537 55.73598698436541 C 0.0 **** -0.24
5217 H 120.46315963397015 132.04103971522352 55.46658054643912 H 0.0 **** 0.06
5218 H 121.752468588342 133.07285875320358 56.13084393349504 H 0.0 **** 0.06
5219 H 120.04779692426703 133.43300715085442 56.493855742607195 H 0.0 **** 0.06
5220 H 120.68183057325413 133.69695033555192 54.85215320204195 H 0.0 **** 0.06
5221 C 51.44354278441038 17.271222909473096 132.17329393444962 C 0.0 **** -0.24
5222 H 51.19670849024112 17.247401681802103 131.11216724954906 H 0.0 **** 0.06
5223 H 51.22585917053354 16.300371079162637 132.61812878143704 H 0.0 **** 0.06
5224 H 50.84767881551838 18.03944929563682 132.66796443140439 H 0.0 **** 0.06
5225 H 52.502716804199565 17.49878948655026 132.2954510021287 H 0.0 **** 0.06
5226 C 3.238133694655744 74.62517188183546 48.16657040971435 C 0.0 **** -0.24
5227 H 2.549430864734461 73.81712703969868 48.41280692350179 H 0.0 **** 0.06
5228 H 2.701988347005397 75.40605845587044 47.62494517068839 H 0.0 **** 0.06
5229 H 4.044311409598436 74.23852282044464 47.54272948682964 H 0.0 **** 0.06
5230 H 3.655251516171006 75.03984499684387 49.083600054697 H 0.0 **** 0.06
5231 C 24.236976526130462 3.777745383254711 49.229858655662795 C 0.0 **** -0.24
5232 H 24.73614252033613 4.738661813130051 49.10304214540429 H 0.0 **** 0.06
5233 H 23.471600495181264 3.86536530529807 50.00169206031475 H 0.0 **** 0.06
5234 H 24.967869818703463 3.0254212304205907 49.52770572575753 H 0.0 **** 0.06
5235 H 23.77250205015531 3.4821293093276893 48.28913973867334 H 0.0 **** 0.06
5236 C 137.1027131270082 67.62423508146996 147.5672888537153 C 0.0 **** -0.24
5237 H 136.51046766893808 67.18142805340119 146.76498665035356 H 0.0 **** 0.06
5238 H 136.7661195591503 67.23041035948279 148.52673263645838 H 0.0 **** 0.06
5239 H 136.9785216852 68.7065099471501 147.5548775503086 H 0.0 **** 0.06
5240 H 138.15424878508065 67.37716654642733 147.42038278984717 H 0.0 **** 0.06
5241 C 30.42323768758365 136.8993002849459 51.75890863766173 C 0.0 **** -0.24
5242 H 30.383814959664377 135.81075654891427 51.79144855766447 H 0.0 **** 0.06
5243 H 30.590571924104296 137.2865026104337 52.76456471151002 H 0.0 **** 0.06
5244 H 29.479127156136713 137.2850372134458 51.37291013015886 H 0.0 **** 0.06
5245 H 31.23718243225227 137.21426450276945 51.10742425104891 H 0.0 **** 0.06
5246 C 118.14879590605072 3.9845275763588504 77.08688301371595 C 0.0 **** -0.24
5247 H 117.44436853736325 3.2170458324850664 76.76435645439032 H 0.0 **** 0.06
5248 H 118.69129679683893 3.6336593026526884 77.96464022007304 H 0.0 **** 0.06
5249 H 117.60457750393964 4.894772420444067 77.33521761786078 H 0.0 **** 0.06
5250 H 118.85447463016833 4.1902805601565625 76.28151492263534 H 0.0 **** 0.06
5251 C 130.89775270357413 51.00411314879675 149.67508926553575 C 0.0 **** -0.24
5252 H 130.48267640186955 51.70555779466541 148.95114412433014 H 0.0 **** 0.06
5253 H 131.18962433936176 51.54283868871981 150.57634350760557 H 0.0 **** 0.06
5254 H 131.77071777147293 50.51398791033314 149.24454227808596 H 0.0 **** 0.06
5255 H 130.14677265152346 50.255339343020594 149.92570093452343 H 0.0 **** 0.06
5256 C 15.120175765481207 141.53790171253337 16.191953984232043 C 0.0 **** -0.24
5257 H 15.64641470028127 140.63348243812445 15.886459552396474 H 0.0 **** 0.06
5258 H 14.049566774587504 141.3380892240433 16.233904358737192 H 0.0 **** 0.06
5259 H 15.314079515573667 142.33190866940322 15.470556184860499 H 0.0 **** 0.06
5260 H 15.471498748254334 141.84761212447376 17.176856595161695 H 0.0 **** 0.06
5261 C 84.97427984570811 39.49344662152231 30.588406347077353 C 0.0 **** -0.24
5262 H 84.21356398363304 39.21593670495514 29.85873237337904 H 0.0 **** 0.06
5263 H 84.70773257625734 40.44629772149864 31.046577545502785 H 0.0 **** 0.06
5264 H 85.93909782384657 39.58730715646544 30.090175531126377 H 0.0 **** 0.06
5265 H 85.0367249990955 38.72424490317002 31.358139938301136 H 0.0 **** 0.06
5266 C 0.5143670887155203 91.77946450327067 140.47997092481722 C 0.0 **** -0.24
5267 H -0.07338677145155259 92.64314080731958 140.79090841743374 H 0.0 **** 0.06
5268 H -0.14480078093304982 91.03333454244361 140.03692322654058 H 0.0 **** 0.06
5269 H 1.0168617248364313 91.3520993478387 141.3477333635941 H 0.0 **** 0.06
5270 H 1.2578043019432634 92.09151861580335 139.74632466655967 H 0.0 **** 0.06
5271 C 64.03472020204967 104.24921945401586 8.679256249694248 C 0.0 **** -0.24
5272 H 64.78493315308148 103.48350143335135 8.87842690670324 H 0.0 **** 0.06
5273 H 63.28070030677375 104.23203375209361 9.466910472384917 H 0.0 **** 0.06
5274 H 63.56162966750853 104.0531806672784 7.717526771219688 H 0.0 **** 0.06
5275 H 64.51384183820116 105.22810857744393 8.656408211359874 H 0.0 **** 0.06
5276 C 12.191419576640584 27.64334946276216 111.10182665792627 C 0.0 **** -0.24
5277 H 11.8138735296871 26.81506607101587 111.70056370511338 H 0.0 **** 0.06
5278 H 12.151779290058109 27.3758425579651 110.04525757012755 H 0.0 **** 0.06
5279 H 13.222809189009283 27.85515490924945 111.3839496954676 H 0.0 **** 0.06
5280 H 11.578092773723014 28.5263794503035 111.27601244927428 H 0.0 **** 0.06
5281 C 145.78306747128929 10.749946998535492 67.44669952090973 C 0.0 **** -0.24
5282 H 144.81742944219224 11.02859740783024 67.8679377070138 H 0.0 **** 0.06
5283 H 146.05761824888864 11.460079437981044 66.66553926998361 H 0.0 **** 0.06
5284 H 145.71951247837868 9.7482118308955 67.02121166332302 H 0.0 **** 0.06
5285 H 146.5389284401662 10.763616664083294 68.23212350238916 H 0.0 **** 0.06
5286 C 147.6105656696657 133.77768527728006 74.96746968147193 C 0.0 **** -0.24
5287 H 147.55690386694909 132.84954439574543 74.39872423098748 H 0.0 **** 0.06
5288 H 147.26585123838774 133.6000494530601 75.98599309624328 H 0.0 **** 0.06
5289 H 146.97734629162176 134.52877190333942 74.49482224687787 H 0.0 **** 0.06
5290 H 148.64072643134648 134.1314087923007 74.98788817511976 H 0.0 **** 0.06
5291 C 57.10902880405868 39.457948212800034 69.78244325075373 C 0.0 **** -0.24
5292 H 56.10871235709837 39.68137026324844 69.41420147469339 H 0.0 **** 0.06
5293 H 57.7791122838598 40.2823346386223 69.53750110716342 H 0.0 **** 0.06
5294 H 57.47229833992918 38.542765367046286 69.31451686697312 H 0.0 **** 0.06
5295 H 57.07666738795413 39.32423344692411 70.8641519071982 H 0.0 **** 0.06
5296 C 58.47567826527688 127.00567198402855 3.240939552470479 C 0.0 **** -0.24
5297 H 58.70538599962438 127.27155175082564 2.2091300789871866 H 0.0 **** 0.06
5298 H 59.299711618317986 126.42659970147605 3.6582449836348587 H 0.0 **** 0.06
5299 H 57.56330249533133 126.41001318267008 3.2671411553860707 H 0.0 **** 0.06
5300 H 58.33409452986322 127.91284122850914 3.8277849029095705 H 0.0 **** 0.06
5301 C 144.7551505556768 82.44997502068901 3.3991935035675738 C 0.0 **** -0.24
5302 H 144.18825954397076 83.11730890866426 2.749339997232198 H 0.0 **** 0.06
5303 H 145.49708824221204 83.0262553394412 3.9528106838887993 H 0.0 **** 0.06
5304 H 145.25878880583915 81.69524441264292 2.7938450377909305 H 0.0 **** 0.06
5305 H 144.07702252039172 81.96091019550215 4.098399797846611 H 0.0 **** 0.06
5306 C 145.92226658005706 35.417130180573814 31.619497825474753 C 0.0 **** -0.24
5307 H 144.8843013698983 35.33908799976768 31.941929367656257 H 0.0 **** 0.06
5308 H 145.97496758365446 35.31094738901216 30.53614410289279 H 0.0 **** 0.06
5309 H 146.50827355203415 34.626642413136295 32.09085065286021 H 0.0 **** 0.06
5310 H 146.3214248523306 36.387572949399974 31.911005827377807 H 0.0 **** 0.06
5311 C 109.86580262962954 136.37370655425494 135.96737649385216 C 0.0 **** -0.24
5312 H 110.12953588512173 136.78558549352653 136.94182609069117 H 0.0 **** 0.06
5313 H 110.32869394953266 136.97336717923753 135.18313082202616 H 0.0 **** 0.06
5314 H 108.78249887973371 136.3898994665244 135.84691792549918 H 0.0 **** 0.06
5315 H 110.22335865861166 135.3461397004031 135.89911565905177 H 0.0 **** 0.06
5316 C 17.150447695382553 133.1492181196086 28.03302034334388 C 0.0 **** -0.24
5317 H 17.348072005691648 132.86551953451857 26.99897331647486 H 0.0 **** 0.06
5318 H 16.075962220288687 133.12103619652382 28.2177587414223 H 0.0 **** 0.06
5319 H 17.523567800378373 134.158029842504 28.210595092393135 H 0.0 **** 0.06
5320 H 17.652521896395285 132.45205268826027 28.70367400514732 H 0.0 **** 0.06
5321 C 120.4376111127779 148.8862917143776 59.361784992602196 C 0.0 **** -0.24
5322 H 120.4652599474749 148.8180213043297 60.449996476016295 H 0.0 **** 0.06
5323 H 119.45593887330587 148.57407369143982 59.00311513550483 H 0.0 **** 0.06
5324 H 121.20293971397403 148.23678270574595 58.937389364780515 H 0.0 **** 0.06
5325 H 120.62422360970324 149.91543978698394 59.057609968301804 H 0.0 **** 0.06
5326 C 26.748583987567805 73.08126265026954 123.68725961830542 C 0.0 **** -0.24
5327 H 27.484792478513718 73.73336012203798 124.1580955332533 H 0.0 **** 0.06
5328 H 26.897489012092826 72.05799107659016 124.03109103192084 H 0.0 **** 0.06
5329 H 26.867895323231238 73.12176821503331 122.60451283707211 H 0.0 **** 0.06
5330 H 25.745615062743916 73.41344204505205 123.95456591459576 H 0.0 **** 0.06
5331 C 134.3117484629049 111.93335103603276 109.44063670246915 C 0.0 **** -0.24
5332 H 133.94352733163615 112.3952835125978 108.52446145822388 H 0.0 **** 0.06
5333 H 133.46706577014248 111.66796754855456 110.07809361559403 H 0.0 **** 0.06
5334 H 134.95824186905028 112.63561968931533 109.96712839888163 H 0.0 **** 0.06
5335 H 134.87606448411364 111.03413758996895 109.1935393734173 H 0.0 **** 0.06
5336 C 81.58966928678356 82.50135756379143 65.75454655012066 C 0.0 **** -0.24
5337 H 81.17570161736839 82.29433607106964 64.76707837417649 H 0.0 **** 0.06
5338 H 82.22769357565194 83.38416946887244 65.7028487027003 H 0.0 **** 0.06
5339 H 82.17767845351068 81.64666059380065 66.08831260124816 H 0.0 **** 0.06
5340 H 80.77693970612799 82.68095734514176 66.45850467369286 H 0.0 **** 0.06
5341 C 83.52125971822387 89.54150059008285 87.07088297061955 C 0.0 **** -0.24
5342 H 83.72797946723922 90.57545927746581 86.79305947573448 H 0.0 **** 0.06
5343 H 82.46388525245855 89.32761491220997 86.91190915294828 H 0.0 **** 0.06
5344 H 83.76906156094807 89.39104489099903 88.12114711656824 H 0.0 **** 0.06
5345 H 84.12406489818672 88.87309160696549 86.45553521899569 H 0.0 **** 0.06
5346 C 106.96567053244891 105.76939351781567 118.52455396016578 C 0.0 **** -0.24
5347 H 106.1357095118428 106.424907604505 118.78880285722832 H 0.0 **** 0.06
5348 H 106.63335735852232 105.04301889941303 117.78300804384517 H 0.0 **** 0.06
5349 H 107.31362620184964 105.24693051503687 119.4149683029033 H 0.0 **** 0.06
5350 H 107.78019613113085 106.36494252006219 118.11136883681533 H 0.0 **** 0.06
5351 C 46.057989222847254 24.724864640198234 31.197827453666775 C 0.0 **** -0.24
5352 H 46.77516806905362 24.36349094740666 31.933827444564777 H 0.0 **** 0.06
5353 H 45.04440586710109 24.558693577370775 31.56639839876022 H 0.0 **** 0.06
5354 H 46.19673914746312 24.18752709491234 30.259867277685153 H 0.0 **** 0.06
5355 H 46.21420585237746 25.791535394392213 31.03207339589403 H 0.0 **** 0.06
5356 C 50.68024348025308 126.90559211862892 29.79983638892989 C 0.0 **** -0.24
5357 H 49.97483124358297 127.11333523434979 28.99535093056346 H 0.0 **** 0.06
5358 H 50.37913246275936 125.99794364379976 30.321807501832097 H 0.0 **** 0.06
5359 H 50.68975118645149 127.74155202725194 30.499151134373108 H 0.0 **** 0.06
5360 H 51.6782251009153 126.77043956149676 29.380973627952073 H 0.0 **** 0.06
5361 C 61.75410299094932 120.97743407494865 131.61892134300157 C 0.0 **** -0.24
5362 H 61.505429814227966 119.96949454709262 131.95361987200315 H 0.0 **** 0.06
5363 H 60.85050012093144 121.58715605131196 131.6013013083532 H 0.0 **** 0.06
5364 H 62.18269387690276 120.93183561061507 130.61836746070145 H 0.0 **** 0.06
5365 H 62.47778493184026 121.41859390464812 132.30503210137786 H 0.0 **** 0.06
5366 C 91.2869900457961 134.7466386548743 106.66063752254705 C 0.0 **** -0.24
5367 H 91.52626367635385 134.38328219047077 107.66037584687298 H 0.0 **** 0.06
5368 H 91.81617390230585 134.14602212396431 105.92056676489229 H 0.0 **** 0.06
5369 H 91.59341405201388 135.78844095059208 106.57047787430098 H 0.0 **** 0.06
5370 H 90.21244523599063 134.6680222903786 106.49400493084356 H 0.0 **** 0.06
5371 C 92.85100512096665 61.241395057386896 150.0387685654185 C 0.0 **** -0.24
5372 H 93.68740945526594 60.7629220143548 149.52865794701685 H 0.0 **** 0.06
5373 H 93.1649052452644 61.55329765488314 151.0353090788303 H 0.0 **** 0.06
5374 H 92.02407232016114 60.536695315787654 150.12115101525578 H 0.0 **** 0.06
5375 H 92.52936519727979 62.11344548215067 149.46877617428518 H 0.0 **** 0.06
5376 C 26.76455246796334 39.106066748355715 133.3566510099117 C 0.0 **** -0.24
5377 H 27.22140012418643 40.056295347564856 133.63545265714123 H 0.0 **** 0.06
5378 H 25.855623617729236 39.29417935755413 132.7860824881899 H 0.0 **** 0.06
5379 H 26.519669377263227 38.543239143637834 134.25787122363386 H 0.0 **** 0.06
5380 H 27.46373793266281 38.532423959517644 132.74879979859742 H 0.0 **** 0.06
5381 C 48.00629309645382 26.52197218102384 141.17631900985825 C 0.0 **** -0.24
5382 H 47.511400911629806 25.99756644420586 140.35807095359016 H 0.0 **** 0.06
5383 H 49.04856987051842 26.208742371710628 141.23053773859928 H 0.0 **** 0.06
5384 H 47.50504316193525 26.284652704873054 142.1149816081673 H 0.0 **** 0.06
5385 H 47.95740940337694 27.596796628087418 141.00049155833577 H 0.0 **** 0.06
5386 C 83.70550238872798 100.83182838311876 65.81862200157445 C 0.0 **** -0.24
5387 H 84.2216722632126 101.4367222073524 66.56321958174601 H 0.0 **** 0.06
5388 H 84.28758333713465 99.93258372521592 65.6136406640885 H 0.0 **** 0.06
5389 H 83.58889912603729 101.40609478854718 64.90034796642578 H 0.0 **** 0.06
5390 H 82.72349395205389 100.54981299419248 66.19795855691109 H 0.0 **** 0.06
5391 C 48.508045692197555 144.30283920970817 30.29875281555698 C 0.0 **** -0.24
5392 H 49.23256861944486 145.110391566065 30.4062061649131 H 0.0 **** 0.06
5393 H 47.96644043735694 144.17461830630353 31.236546328515814 H 0.0 **** 0.06
5394 H 49.02999266936624 143.3784617950323 30.050488343921756 H 0.0 **** 0.06
5395 H 47.806072946070046 144.54834004369036 29.502966397988615 H 0.0 **** 0.06
5396 C 47.478178289821074 143.38528771217392 135.17356091642728 C 0.0 **** -0.24
5397 H 48.20983662649732 143.45151395898225 134.36816681657848 H 0.0 **** 0.06
5398 H 46.73137165163065 142.63163177024643 134.92404128699903 H 0.0 **** 0.06
5399 H 46.99020318638921 144.3523459141129 135.3002939548782 H 0.0 **** 0.06
5400 H 47.98125053614311 143.1076283392428 136.09907321876386 H 0.0 **** 0.06
5401 C 101.38373618790527 70.03295346804816 59.65329365306792 C 0.0 **** -0.24
5402 H 100.77296637188266 70.48911932990387 60.43209106288435 H 0.0 **** 0.06
5403 H 101.98764224262621 70.8011522544328 59.16931677282594 H 0.0 **** 0.06
5404 H 100.73691797089168 69.55997062765624 58.9153188168047 H 0.0 **** 0.06
5405 H 102.03789545254745 69.28305500152845 60.098337963954634 H 0.0 **** 0.06
5406 C 74.60465724015828 55.72429129020861 134.86440461390578 C 0.0 **** -0.24
5407 H 74.68024265334329 54.77695805282252 134.33094978674183 H 0.0 **** 0.06
5408 H 74.45375850152395 55.5308617895308 135.92676430249057 H 0.0 **** 0.06
5409 H 73.76126195365323 56.293491034119555 134.47435140999775 H 0.0 **** 0.06
5410 H 75.52358421263875 56.294182012073534 134.72594784103086 H 0.0 **** 0.06
5411 C 41.395597523425636 97.62098250837366 27.93900630905034 C 0.0 **** -0.24
5412 H 41.008969915250816 97.59172202890332 26.9200438859811 H 0.0 **** 0.06
5413 H 42.21418218814779 96.90813845755719 28.036781449353185 H 0.0 **** 0.06
5414 H 40.59950934407425 97.35841030371796 28.636750520506325 H 0.0 **** 0.06
5415 H 41.75761584312096 98.62470189406534 28.161662128787384 H 0.0 **** 0.06
5416 C 16.64445706682077 47.38920973923267 0.02352318403274012 C 0.0 **** -0.24
5417 H 15.768759831064209 48.00334490593147 0.23250121283953007 H 0.0 **** 0.06
5418 H 17.49300704184988 48.033511105969595 -0.20771520333227045 H 0.0 **** 0.06
5419 H 16.438045723669035 46.73995163662548 -0.8275236824930445 H 0.0 **** 0.06
5420 H 16.877758405897417 46.78095272354615 0.8971216917247027 H 0.0 **** 0.06
5421 C 71.38543988092994 87.85051915737097 87.17139606432113 C 0.0 **** -0.24
5422 H 72.1679808419832 87.55069141935752 86.47446317580712 H 0.0 **** 0.06
5423 H 71.74234545380578 88.67918749972324 87.78276474579194 H 0.0 **** 0.06
5424 H 71.12804090493748 87.00817684318997 87.81354377184238 H 0.0 **** 0.06
5425 H 70.50309186983858 88.16365836860487 86.61262658450543 H 0.0 **** 0.06
5426 C 10.660356902394824 142.52288242920017 2.8846719189618852 C 0.0 **** -0.24
5427 H 9.704074293447093 142.91319687829767 2.5361727186727308 H 0.0 **** 0.06
5428 H 10.948701001537756 143.03766531531267 3.8018539023282756 H 0.0 **** 0.06
5429 H 11.419969159036498 142.6873243378578 2.1214350577599816 H 0.0 **** 0.06
5430 H 10.567496261957643 141.4552421582097 3.0809538507837715 H 0.0 **** 0.06
5431 C 21.199866077618985 133.54565753408582 46.00681846584473 C 0.0 **** -0.24
5432 H 21.419355954360462 132.48115600107042 45.923883743816305 H 0.0 **** 0.06
5433 H 21.56934818921267 134.06168163960444 45.120200394613505 H 0.0 **** 0.06
5434 H 21.690230014921397 133.949744084922 46.89299327181914 H 0.0 **** 0.06
5435 H 20.123324034855656 133.68910721237336 46.090752055068094 H 0.0 **** 0.06
5436 C 141.74883889816314 4.489283634131304 27.46862995195204 C 0.0 **** -0.24
5437 H 141.8388808715718 5.493122050070362 27.884892365512258 H 0.0 **** 0.06
5438 H 141.84851875539442 3.754515613274201 28.267704024836746 H 0.0 **** 0.06
5439 H 142.53475571157054 4.332168453633518 26.730423316405847 H 0.0 **** 0.06
5440 H 140.7749025523529 4.379043618511872 26.99327790943147 H 0.0 **** 0.06
5441 C 14.000932469435867 127.76950880254361 99.67715807036257 C 0.0 **** -0.24
5442 H 13.46251968460109 127.96671060922897 100.60420909800169 H 0.0 **** 0.06
5443 H 13.390092721145209 127.13816806604225 99.03086695342239 H 0.0 **** 0.06
5444 H 14.938243686738389 127.26071260376952 99.90203712640272 H 0.0 **** 0.06
5445 H 14.210507194786885 128.71181392547726 99.17146848727035 H 0.0 **** 0.06
5446 C 88.97189129178571 117.60903816892623 34.14810493537159 C 0.0 **** -0.24
5447 H 88.86263694483796 117.89424753555319 35.194653359827925 H 0.0 **** 0.06
5448 H 87.99183395914315 117.37109438082264 33.733401548660055 H 0.0 **** 0.06
5449 H 89.61965511432521 116.73551466529982 34.075405581367534 H 0.0 **** 0.06
5450 H 89.41202802465847 118.43575797381025 33.59156611277572 H 0.0 **** 0.06
5451 C 81.95892036201685 2.4054939834707056 23.752435947172188 C 0.0 **** -0.24
5452 H 81.23172074189002 2.7434355400742447 23.013359670476206 H 0.0 **** 0.06
5453 H 82.88210472226605 2.1179252360745977 23.249123575962187 H 0.0 **** 0.06
5454 H 81.55583638112685 1.548323937916905 24.292033307521905 H 0.0 **** 0.06
5455 H 82.16455190525315 3.2140583411554076 24.45437672562366 H 0.0 **** 0.06
5456 C 147.9501765383491 83.01138022983565 32.147092073930594 C 0.0 **** -0.24
5457 H 148.09950309358706 82.03949551233438 32.61570075832594 H 0.0 **** 0.06
5458 H 146.92444156047836 83.08590879366835 31.783627090843083 H 0.0 **** 0.06
5459 H 148.640183975934 83.12126582631026 31.31065476914074 H 0.0 **** 0.06
5460 H 148.1354296458249 83.8000603079725 32.876895838773066 H 0.0 **** 0.06
5461 C 145.63234615840082 23.9207174792952 92.74149030042207 C 0.0 **** -0.24
5462 H 145.477509573556 24.7423872559646 92.04125895098801 H 0.0 **** 0.06
5463 H 144.93852487874608 24.02113652177985 93.5769665612296 H 0.0 **** 0.06
5464 H 146.65560158985295 23.94761039797597 93.11258797078372 H 0.0 **** 0.06
5465 H 145.45345507016384 22.972850199987917 92.2336230999199 H 0.0 **** 0.06
5466 C 112.91046009533243 136.0199629736847 89.62906989364572 C 0.0 **** -0.24
5467 H 112.28269582404381 136.04247135803206 88.73896325315752 H 0.0 **** 0.06
5468 H 113.95514202039827 136.1406776455687 89.34072086414965 H 0.0 **** 0.06
5469 H 112.78190306955564 135.0655302298611 90.13994827997651 H 0.0 **** 0.06
5470 H 112.62155753727696 136.83207639103293 90.29759039389393 H 0.0 **** 0.06
5471 C 137.01859827137525 74.63998486095828 88.6561718241702 C 0.0 **** -0.24
5472 H 137.40056967096308 74.80241771590669 87.64904579141813 H 0.0 **** 0.06
5473 H 136.57289480689485 75.5630026554659 89.02818672928294 H 0.0 **** 0.06
5474 H 137.83766844503128 74.34290369540176 89.31129648666388 H 0.0 **** 0.06
5475 H 136.26474281571797 73.85310436790323 88.63692303047043 H 0.0 **** 0.06
5476 C 145.60010800635254 55.7912386894032 62.03830882346165 C 0.0 **** -0.24
5477 H 145.92420683720582 56.82013418428663 61.88272127974297 H 0.0 **** 0.06
5478 H 145.22643596689193 55.67813685895105 63.05631996828285 H 0.0 **** 0.06
5479 H 146.44422912665488 55.118107565539574 61.88418044974732 H 0.0 **** 0.06
5480 H 144.80796918523467 55.54832659573158 61.33037996398048 H 0.0 **** 0.06
5481 C 97.15084772753667 59.60017915880181 35.12642152272147 C 0.0 **** -0.24
5482 H 97.77245968043155 60.35048232918578 34.637806934165525 H 0.0 **** 0.06
5483 H 96.14207361067739 59.99215567103633 35.25447878669456 H 0.0 **** 0.06
5484 H 97.57336569760182 59.35612043674931 36.101547371067255 H 0.0 **** 0.06
5485 H 97.11518912134946 58.70066828128847 34.51035480912438 H 0.0 **** 0.06
5486 C 124.20607671041053 15.211830313891383 141.4985276618306 C 0.0 **** -0.24
5487 H 124.23704625049434 14.43356454368913 140.73565166813557 H 0.0 **** 0.06
5488 H 124.63360670886654 16.13053851924294 141.09730352745717 H 0.0 **** 0.06
5489 H 124.7807730743297 14.890276267818017 142.3668706547997 H 0.0 **** 0.06
5490 H 123.17184168028255 15.389983701079558 141.79320334946337 H 0.0 **** 0.06
5491 C 97.73781577839748 45.317243200488974 149.04236532508438 C 0.0 **** -0.24
5492 H 97.45230664141772 44.352938022425406 149.4632103736322 H 0.0 **** 0.06
5493 H 98.10827520427279 45.96405503956598 149.83853037888002 H 0.0 **** 0.06
5494 H 96.87021919522411 45.77941481013903 148.57334294807964 H 0.0 **** 0.06
5495 H 98.52043500180696 45.171780186591434 148.2980360089129 H 0.0 **** 0.06
5496 C 138.86305779240902 28.107317312270936 41.25155933391137 C 0.0 **** -0.24
5497 H 138.3738984393352 29.051955161821866 41.492092064258685 H 0.0 **** 0.06
5498 H 139.91074494785667 28.15504470478936 41.548584931735704 H 0.0 **** 0.06
5499 H 138.7970260687077 27.92736133286573 40.178294613368635 H 0.0 **** 0.06
5500 H 138.36941678912822 27.29679310849508 41.78689710231045 H 0.0 **** 0.06
5501 C 114.7352631581978 19.356384739134512 120.9978225367744 C 0.0 **** -0.24
5502 H 114.02664333771392 20.17978988134172 120.90575503850864 H 0.0 **** 0.06
5503 H 115.66035350859349 19.614363688089497 120.481476508878 H 0.0 **** 0.06
5504 H 114.3075326403347 18.458619452369135 120.55088115442602 H 0.0 **** 0.06
5505 H 114.94440766866708 19.174122731351133 122.05153909630569 H 0.0 **** 0.06
5506 C 147.6255000862663 108.62898695945388 126.7380369410093 C 0.0 **** -0.24
5507 H 147.7867910577893 109.54282803658081 127.31085386950248 H 0.0 **** 0.06
5508 H 148.43760059392335 108.49920216013918 126.02391293920947 H 0.0 **** 0.06
5509 H 146.67816026952497 108.69929638172765 126.20371837239824 H 0.0 **** 0.06
5510 H 147.59763200261224 107.775686364323 127.41675558758484 H 0.0 **** 0.06
5511 C 60.92015006688162 135.18748196784503 106.50190604668013 C 0.0 **** -0.24
5512 H 59.93567698127774 135.4583280746046 106.11857242614475 H 0.0 **** 0.06
5513 H 60.92802693660225 135.28758577692625 107.58689481899442 H 0.0 **** 0.06
5514 H 61.671617028307296 135.84853942469158 106.06944801298353 H 0.0 **** 0.06
5515 H 61.144259570208774 134.15546579691778 106.22988751766938 H 0.0 **** 0.06
5516 C 143.2217827548793 10.077892164266594 105.08597060419352 C 0.0 **** -0.24
5517 H 142.65369288693265 10.625129439983262 104.33357459362252 H 0.0 **** 0.06
5518 H 142.91212217710924 10.401380275003184 106.08024787426278 H 0.0 **** 0.06
5519 H 144.28500624497357 10.276749575762075 104.95383431182246 H 0.0 **** 0.06
5520 H 143.0342895842106 9.010515035268675 104.97645896870337 H 0.0 **** 0.06
5521 C 65.52876074431656 107.48121901209778 37.74009387252596 C 0.0 **** -0.24
5522 H 65.15760654933224 108.15011857050537 36.96268890686554 H 0.0 **** 0.06
5523 H 65.5255886123078 108.00245910373455 38.69757818146695 H 0.0 **** 0.06
5524 H 66.54529796790166 107.1718523322899 37.49691324525776 H 0.0 **** 0.06
5525 H 64.88537055305476 106.60390031382975 37.80127737355912 H 0.0 **** 0.06
5526 C 83.76017298195754 105.8157300469 137.36764653092277 C 0.0 **** -0.24
5527 H 84.73751808542738 105.8166773685781 136.88589129706222 H 0.0 **** 0.06
5528 H 83.61117118885528 106.76122746609627 137.88905863018775 H 0.0 **** 0.06
5529 H 83.70870849349308 104.99406624946505 138.08239439831576 H 0.0 **** 0.06
5530 H 82.98295805088333 105.68970668439579 136.61382788574153 H 0.0 **** 0.06
5531 C 1.5891393989852176 32.15837634625271 137.54997101143857 C 0.0 **** -0.24
5532 H 2.3483059776808197 32.69317925401414 136.98036290781232 H 0.0 **** 0.06
5533 H 1.6166320250152388 31.10061852432844 137.2896289227898 H 0.0 **** 0.06
5534 H 0.6053506900198329 32.56465098772714 137.31520054406252 H 0.0 **** 0.06
5535 H 1.7851276488459078 32.27606128088851 138.61661219508522 H 0.0 **** 0.06
5536 C 147.9591843832832 97.11658667733823 145.9384375698428 C 0.0 **** -0.24
5537 H 147.67974595557504 96.2029908994075 146.46365126091982 H 0.0 **** 0.06
5538 H 148.59349736878912 97.7255556191792 146.58355104380283 H 0.0 **** 0.06
5539 H 147.06119775734172 97.67559781484775 145.67808588742162 H 0.0 **** 0.06
5540 H 148.5045639850193 96.86010588520989 145.02967180650114 H 0.0 **** 0.06
5541 C 45.60092858490833 105.44785832010875 91.24463288345027 C 0.0 **** -0.24
5542 H 46.04063325088788 105.31212476680624 92.23331116017181 H 0.0 **** 0.06
5543 H 46.36915665828613 105.30854409008204 90.48373363080486 H 0.0 **** 0.06
5544 H 45.189578380103455 106.45419175714407 91.16630342323313 H 0.0 **** 0.06
5545 H 44.80599266485757 104.71800459884177 91.09768104511252 H 0.0 **** 0.06
5546 C 133.09270978634606 106.64593988875585 21.00780370091914 C 0.0 **** -0.24
5547 H 132.76437451833814 107.47207326745406 21.63924658010575 H 0.0 **** 0.06
5548 H 133.14453191374466 105.73378730063403 21.602488168617185 H 0.0 **** 0.06
5549 H 134.07781012148928 106.8707950550437 20.599452192923337 H 0.0 **** 0.06
5550 H 132.38345879645243 106.50873730008381 20.191728363036134 H 0.0 **** 0.06
5551 C 56.11562970440491 73.14106864669556 103.75247550404303 C 0.0 **** -0.24
5552 H 56.80053654045189 72.30662766063304 103.90187877061008 H 0.0 **** 0.06
5553 H 55.701520449847365 73.09492723511035 102.74502426633528 H 0.0 **** 0.06
5554 H 56.65468399824856 74.0799329963691 103.88256284620282 H 0.0 **** 0.06
5555 H 55.30695666251391 73.08201445762721 104.48031749547762 H 0.0 **** 0.06
5556 C 14.669079404305819 48.4293707693315 97.37497860688777 C 0.0 **** -0.24
5557 H 13.995239116888541 49.27143297799837 97.21553267890178 H 0.0 **** 0.06
5558 H 14.098613389741473 47.4996444846918 97.3544329511873 H 0.0 **** 0.06
5559 H 15.158551353777511 48.533966407858514 98.34341108109308 H 0.0 **** 0.06
5560 H 15.421838331532257 48.411647233003606 96.58756999881018 H 0.0 **** 0.06
5561 C 107.20441772115959 28.239636467643635 67.77009929316405 C 0.0 **** -0.24
5562 H 106.15946876567898 27.932975840274537 67.72225131412463 H 0.0 **** 0.06
5563 H 107.28749231036011 29.15875688649936 68.35122647303022 H 0.0 **** 0.06
5564 H 107.57819518685818 28.41207111543423 66.76063498215069 H 0.0 **** 0.06
5565 H 107.79208169487708 27.453505667234566 68.24575143179099 H 0.0 **** 0.06
5566 C 105.23491912003577 80.68104043874183 34.391838823635965 C 0.0 **** -0.24
5567 H 105.83585754311677 79.77209172716103 34.42992765847768 H 0.0 **** 0.06
5568 H 104.23601435710701 80.44018293292692 34.028915416472046 H 0.0 **** 0.06
5569 H 105.7045575078731 81.39699798161713 33.71692987757315 H 0.0 **** 0.06
5570 H 105.16507976589837 81.1129963551971 35.39014741012136 H 0.0 **** 0.06
5571 C 72.4190991916266 37.973418566766156 99.08211786427117 C 0.0 **** -0.24
5572 H 72.18545653008081 38.67701545800446 98.28396565251015 H 0.0 **** 0.06
5573 H 71.52727481748629 37.39963175614935 99.33334574990722 H 0.0 **** 0.06
5574 H 72.75900714057646 38.52101390345666 99.96161285954132 H 0.0 **** 0.06
5575 H 73.20596607859537 37.29623300167984 98.75003851656024 H 0.0 **** 0.06
5576 C 122.61464588533327 121.45657377982133 108.46852778606409 C 0.0 **** -0.24
5577 H 122.57811058984238 122.54437515357017 108.51164122590323 H 0.0 **** 0.06
5578 H 121.79041369164109 121.0416877710582 109.0480339081527 H 0.0 **** 0.06
5579 H 123.56118813504527 121.1087836853606 108.88153781078744 H 0.0 **** 0.06
5580 H 122.53012693126321 121.13156662451456 107.43105180239822 H 0.0 **** 0.06
5581 C 126.05796473654621 60.14465301693963 39.383532610321254 C 0.0 **** -0.24
5582 H 125.85703256709112 60.11066969089718 38.31306315441118 H 0.0 **** 0.06
5583 H 127.09571909355529 60.43541289167506 39.548802385507614 H 0.0 **** 0.06
5584 H 125.88209602384703 59.16012526651171 39.817805352262695 H 0.0 **** 0.06
5585 H 125.39701126169157 60.872404218674404 39.854459549103424 H 0.0 **** 0.06
5586 C 112.77859303049904 119.95332588499082 113.57752419052383 C 0.0 **** -0.24
5587 H 113.59682875981447 119.4343049779012 113.07686749584218 H 0.0 **** 0.06
5588 H 113.05066028812492 120.14354302076208 114.61552482427277 H 0.0 **** 0.06
5589 H 111.88233861861424 119.33444381093472 113.54307904194792 H 0.0 **** 0.06
5590 H 112.58665027072361 120.90027952249056 113.07261797804517 H 0.0 **** 0.06
5591 C 74.50243168658491 47.947048854564656 97.55301643514953 C 0.0 **** -0.24
5592 H 74.64613933183553 49.02602310359019 97.61111265150771 H 0.0 **** 0.06
5593 H 73.82595370153042 47.62819535342514 98.3456723791827 H 0.0 **** 0.06
5594 H 75.46306786119906 47.446580905982714 97.67014634658786 H 0.0 **** 0.06
5595 H 74.07459312362931 47.690562505189874 96.58414782710906 H 0.0 **** 0.06
5596 C 30.563524824392488 45.971349249389846 138.1877185274291 C 0.0 **** -0.24
5597 H 31.02499952068362 45.00373866971739 137.99082172542606 H 0.0 **** 0.06
5598 H 30.87824052196507 46.68525792148273 137.42646303440426 H 0.0 **** 0.06
5599 H 30.871426292073863 46.326816598489245 139.17063058015043 H 0.0 **** 0.06
5600 H 29.478273094694487 45.86702654520877 138.16261905462645 H 0.0 **** 0.06
5601 C 41.654583436981596 116.00483106309476 88.34280000623502 C 0.0 **** -0.24
5602 H 42.212293642128685 116.23778492061139 89.24932759785136 H 0.0 **** 0.06
5603 H 40.902772616280274 116.77559536267047 88.17025319096032 H 0.0 **** 0.06
5604 H 41.16386429575047 115.03824414914023 88.45662857937833 H 0.0 **** 0.06
5605 H 42.33823009771898 115.96700114819517 87.49462217794067 H 0.0 **** 0.06
5606 C 130.03462474764444 62.86988447660703 1.5544046360328743 C 0.0 **** -0.24
5607 H 130.4005339403036 63.837330481443416 1.2109804633275765 H 0.0 **** 0.06
5608 H 129.002370628341 62.97165366203318 1.8923144205330757 H 0.0 **** 0.06
5609 H 130.65396547280935 62.51854970340551 2.3800616168047455 H 0.0 **** 0.06
5610 H 130.08057994611605 62.15227480995604 0.7356134859203003 H 0.0 **** 0.06
5611 C 142.08405835665343 116.65837551876183 42.06418358448299 C 0.0 **** -0.24
5612 H 142.69443447608512 117.09510244477212 41.27368179982568 H 0.0 **** 0.06
5613 H 142.7313885325629 116.29581092099517 42.86328312406327 H 0.0 **** 0.06
5614 H 141.50541664590156 115.82859472047022 41.65998310055433 H 0.0 **** 0.06
5615 H 141.40710660770446 117.41586265939503 42.45957586491038 H 0.0 **** 0.06
5616 C 18.601506754499113 76.60478111429083 45.25313373674578 C 0.0 **** -0.24
5617 H 18.053416713462973 77.54748764099443 45.22737998282362 H 0.0 **** 0.06
5618 H 18.222128229027177 75.98711418752254 46.067089497601074 H 0.0 **** 0.06
5619 H 19.661305994357292 76.80443143976069 45.410927260831286 H 0.0 **** 0.06
5620 H 18.467253432241996 76.08225177289478 44.306340943331634 H 0.0 **** 0.06
5621 C 100.1825724864754 85.40406726568214 93.7500658552531 C 0.0 **** -0.24
5622 H 101.01156159260042 86.07953571934677 93.95746126222578 H 0.0 **** 0.06
5623 H 100.37400692091926 84.870430101435 92.81903539241544 H 0.0 **** 0.06
5624 H 99.26089024614272 85.97805203462961 93.6570669392657 H 0.0 **** 0.06
5625 H 100.08429256725327 84.68841882992523 94.56582858269556 H 0.0 **** 0.06
5626 C 3.9472827373370194 58.197468976182265 39.53886153856631 C 0.0 **** -0.24
5627 H 2.86026362529077 58.24818361760626 39.48646959377601 H 0.0 **** 0.06
5628 H 4.263708867461133 57.15402539311199 39.53381109897457 H 0.0 **** 0.06
5629 H 4.289724383469434 58.67594868866179 40.4564798536577 H 0.0 **** 0.06
5630 H 4.376668834672529 58.71130791214061 38.679239770838734 H 0.0 **** 0.06
5631 C 108.49815150220265 12.32357663913453 4.341515655486859 C 0.0 **** -0.24
5632 H 108.41890136961324 12.965583485622943 5.218747155757708 H 0.0 **** 0.06
5633 H 107.67210027060791 11.611855722070402 4.336802593154417 H 0.0 **** 0.06
5634 H 109.443820146373 11.783162744622274 4.372629840952438 H 0.0 **** 0.06
5635 H 108.45820975695007 12.934302535459864 3.4399952776718727 H 0.0 **** 0.06
5636 C 83.63611534515786 9.353190086888347 63.283036262189626 C 0.0 **** -0.24
5637 H 83.36375282050363 10.231328702880631 63.86819666414476 H 0.0 **** 0.06
5638 H 83.61348238429679 8.469326850684425 63.92210987852201 H 0.0 **** 0.06
5639 H 84.6391290752336 9.483242550006231 62.877393222522244 H 0.0 **** 0.06
5640 H 82.92656876907864 9.228104270860847 62.464744932225756 H 0.0 **** 0.06
5641 C 33.53138229527693 44.06399077270484 25.970272954317714 C 0.0 **** -0.24
5642 H 33.953318588400435 43.10273799047654 25.67713078398257 H 0.0 **** 0.06
5643 H 32.54067081439891 43.90977253848976 26.398085985229187 H 0.0 **** 0.06
5644 H 33.45324976827001 44.70796689889161 25.09452954017054 H 0.0 **** 0.06
5645 H 34.17819649814197 44.53341838250691 26.710498282977113 H 0.0 **** 0.06
5646 C 71.64928650785555 132.69539190727994 102.60172674145319 C 0.0 **** -0.24
5647 H 72.73568566774131 132.7631081821103 102.66821657473005 H 0.0 **** 0.06
5648 H 71.19855121202228 133.3518920989408 103.34558805414092 H 0.0 **** 0.06
5649 H 71.33781521850045 131.66740412527156 102.78665979669414 H 0.0 **** 0.06
5650 H 71.3277879659052 132.9986968105834 101.60520764081384 H 0.0 **** 0.06
5651 C 44.258260874433375 17.221972907695232 42.618267386009705 C 0.0 **** -0.24
5652 H 43.66032681591477 17.355872812688375 43.51993593592283 H 0.0 **** 0.06
5653 H 44.37135978282771 16.15784763289406 42.412166675425226 H 0.0 **** 0.06
5654 H 45.240252851545876 17.67056154778126 42.763585725105514 H 0.0 **** 0.06
5655 H 43.759699423855835 17.70459473543616 41.77714303901659 H 0.0 **** 0.06
5656 C 58.856545592112326 40.07717178057378 57.23679336278899 C 0.0 **** -0.24
5657 H 59.4602477506278 40.46972870795676 58.05391892138624 H 0.0 **** 0.06
5658 H 58.572891817329065 40.89124159115973 56.57044185647496 H 0.0 **** 0.06
5659 H 57.95847468267593 39.60938665514696 57.641280981012784 H 0.0 **** 0.06
5660 H 59.43333165761169 39.33656499688955 56.682695976012155 H 0.0 **** 0.06
5661 C 78.50455592458897 119.38808457990488 135.22174448992357 C 0.0 **** -0.24
5662 H 78.52436190047868 118.57425791857612 135.9478866532438 H 0.0 **** 0.06
5663 H 77.91937266260513 120.21639292209004 135.62221715253656 H 0.0 **** 0.06
5664 H 78.0504411104101 119.0368063823414 134.29535858957968 H 0.0 **** 0.06
5665 H 79.52198811613599 119.7227953661472 135.02384086364378 H 0.0 **** 0.06
5666 C 86.66356010144483 2.4014749221995544 144.29209725014616 C 0.0 **** -0.24
5667 H 85.71438782497296 2.461267687065032 143.7592020330766 H 0.0 **** 0.06
5668 H 87.43241577798432 2.924464069517626 143.7237903200266 H 0.0 **** 0.06
5669 H 86.94744589699104 1.3555666566639957 144.4110647229309 H 0.0 **** 0.06
5670 H 86.55903794652073 2.8634155987796817 145.27350358346885 H 0.0 **** 0.06
5671 C 48.395008333567716 144.8767514225872 20.794800707312973 C 0.0 **** -0.24
5672 H 48.89857650647801 145.28411505543576 19.917496034270634 H 0.0 **** 0.06
5673 H 49.129529748825064 144.68877336450097 21.57906602642958 H 0.0 **** 0.06
5674 H 47.89994288287997 143.94297534538353 20.529049123378584 H 0.0 **** 0.06
5675 H 47.65557557149381 145.59208105467783 21.153121995726828 H 0.0 **** 0.06
5676 C 36.4929985884537 3.779214983679651 139.04380692885366 C 0.0 **** -0.24
5677 H 36.99681058888811 3.4629759734775405 138.13025788724303 H 0.0 **** 0.06
5678 H 36.35028237268776 4.8599208069166195 139.0241725163601 H 0.0 **** 0.06
5679 H 37.102847480741445 3.508748016741066 139.9058622843307 H 0.0 **** 0.06
5680 H 35.52414342030434 3.285129222011477 139.11365957028258 H 0.0 **** 0.06
5681 C 26.625402499163613 51.25277395519937 95.31590732772315 C 0.0 **** -0.24
5682 H 26.485636125849425 51.48734810941508 94.25990881022753 H 0.0 **** 0.06
5683 H 26.223554823998143 50.260636022895696 95.5225405005059 H 0.0 **** 0.06
5684 H 26.10271019371072 51.991649318933966 95.92403352007115 H 0.0 **** 0.06
5685 H 27.688510772215523 51.27256869880131 95.55443705140225 H 0.0 **** 0.06
5686 C 80.38083755718708 78.20976319401589 32.97421070756494 C 0.0 **** -0.24
5687 H 79.29205423330444 78.21004862402745 32.925299908094374 H 0.0 **** 0.06
5688 H 80.70028589370241 78.5263818513769 33.9670968391784 H 0.0 **** 0.06
5689 H 80.77900438165386 78.89672308309918 32.22714056943393 H 0.0 **** 0.06
5690 H 80.75227876357138 77.20311401341198 32.77689517477419 H 0.0 **** 0.06
5691 C 21.232900761424332 68.64358497028837 101.83261419572257 C 0.0 **** -0.24
5692 H 21.356415129692607 68.91439035875422 100.78370898008426 H 0.0 **** 0.06
5693 H 22.140422635440814 68.15738987028391 102.19047988933752 H 0.0 **** 0.06
5694 H 20.38965720925046 67.96055813854318 101.93386207367891 H 0.0 **** 0.06
5695 H 21.045689186155585 69.54186022607092 102.4200304318276 H 0.0 **** 0.06
5696 C 5.00046814805475 55.44534116028265 29.42950774387492 C 0.0 **** -0.24
5697 H 5.01804945444286 55.38998835429666 28.341075639156628 H 0.0 **** 0.06
5698 H 6.020818159495207 55.50874625716558 29.806020807918856 H 0.0 **** 0.06
5699 H 4.518937716517598 54.55381178413323 29.830642734207487 H 0.0 **** 0.06
5700 H 4.443309257224428 56.329681325542424 29.73837327785671 H 0.0 **** 0.06
5701 C 9.013358014191112 13.045625715130853 139.3268119830151 C 0.0 **** -0.24
5702 H 7.965937630651069 13.268603842203248 139.12317803442775 H 0.0 **** 0.06
5703 H 9.388084272855906 13.728433701972364 140.0907995805294 H 0.0 **** 0.06
5704 H 9.594502547058369 13.16765497550037 138.4134657571292 H 0.0 **** 0.06
5705 H 9.10322654600958 12.018582708468273 139.6814100830979 H 0.0 **** 0.06
5706 C 55.21943397620876 133.6196070872838 150.10726926409524 C 0.0 **** -0.24
5707 H 54.20713504510255 133.62411611478677 150.51030151290135 H 0.0 **** 0.06
5708 H 55.17627111953692 133.63507718726908 149.01723751827762 H 0.0 **** 0.06
5709 H 55.738646234508366 132.72003993932242 150.4374132473359 H 0.0 **** 0.06
5710 H 55.75620423604644 134.49983293363803 150.4618177803276 H 0.0 **** 0.06
5711 C 141.00100051427356 48.20060023838019 95.45357185395811 C 0.0 **** -0.24
5712 H 140.25532759223256 48.8098848288212 94.94269156422074 H 0.0 **** 0.06
5713 H 141.89599686084895 48.12905354835226 94.83504851839558 H 0.0 **** 0.06
5714 H 140.5973746541018 47.20188107597468 95.62582386028494 H 0.0 **** 0.06
5715 H 141.2545768612163 48.660204965971445 96.40815865760533 H 0.0 **** 0.06
5716 C 53.73258826957242 8.007704855279826 37.78215106809421 C 0.0 **** -0.24
5717 H 53.35584480941732 7.009856917701683 38.00482416947098 H 0.0 **** 0.06
5718 H 54.69085672272864 8.153225014856702 38.28178891170745 H 0.0 **** 0.06
5719 H 53.02031356904142 8.752228792786042 38.138244249725204 H 0.0 **** 0.06
5720 H 53.86354643248015 8.114140194177338 36.705503054435624 H 0.0 **** 0.06
5721 C 34.85004650423477 137.66617138090663 30.754758258042187 C 0.0 **** -0.24
5722 H 35.747186370834385 137.75762258271217 30.142229701518204 H 0.0 **** 0.06
5723 H 35.00319166013489 138.1822286523111 31.7029396561301 H 0.0 **** 0.06
5724 H 34.64551217703203 136.61252032568575 30.943585244218326 H 0.0 **** 0.06
5725 H 34.00526938256479 138.11211094459836 30.23017367079271 H 0.0 **** 0.06
5726 C 125.737429327416 101.71772697932893 61.96963768677668 C 0.0 **** -0.24
5727 H 124.71598516749562 101.35043660800527 62.07365273560812 H 0.0 **** 0.06
5728 H 126.4159307023807 100.87307056406641 61.84709408440497 H 0.0 **** 0.06
5729 H 126.01302049506333 102.27893908252054 62.86300211434025 H 0.0 **** 0.06
5730 H 125.80202407125789 102.36696143805271 61.09747568575693 H 0.0 **** 0.06
5731 C 84.73697790872566 11.750481576980512 82.11054607848342 C 0.0 **** -0.24
5732 H 83.86689940800514 12.389180399784024 81.96060716989456 H 0.0 **** 0.06
5733 H 84.52637008462565 11.030468984522251 82.90133220338365 H 0.0 **** 0.06
5734 H 85.59284948852624 12.363000028192957 82.39487420834064 H 0.0 **** 0.06
5735 H 84.96178587846697 11.2200912643981 81.1859510717572 H 0.0 **** 0.06
5736 C 131.59412000440815 68.88189320871257 83.98492802255385 C 0.0 **** -0.24
5737 H 132.0270681834737 68.69091457286339 84.96632268330735 H 0.0 **** 0.06
5738 H 132.3674035947253 69.25532027692961 83.31269425243711 H 0.0 **** 0.06
5739 H 130.80196780547251 69.62491933660007 84.07631480993881 H 0.0 **** 0.06
5740 H 131.18004043396078 67.95641864845746 83.58438034453228 H 0.0 **** 0.06
5741 C 101.97743992187613 37.290051270777255 47.3845134830278 C 0.0 **** -0.24
5742 H 101.4489190866869 38.09428023089543 47.89703569289637 H 0.0 **** 0.06
5743 H 101.51720266326018 37.1150525151349 46.411862158395394 H 0.0 **** 0.06
5744 H 101.92186398349367 36.38096565835489 47.98255872748395 H 0.0 **** 0.06
5745 H 103.02144640389257 37.57267924829061 47.248082592336075 H 0.0 **** 0.06
5746 C 120.99762918342377 135.8764612124588 76.81782674956368 C 0.0 **** -0.24
5747 H 121.31194502940421 134.89342102174075 77.16976147318577 H 0.0 **** 0.06
5748 H 119.97854193119322 135.81535692062462 76.43346235043859 H 0.0 **** 0.06
5749 H 121.66627384941548 136.20793076119278 76.02285205604156 H 0.0 **** 0.06
5750 H 121.03398056999417 136.58640688271086 77.64336000741415 H 0.0 **** 0.06
5751 C 75.36647475805282 114.56895460522253 62.6007310819341 C 0.0 **** -0.24
5752 H 76.0410178115658 113.76637996718165 62.90028763929797 H 0.0 **** 0.06
5753 H 75.2188003124604 115.25030422065379 63.43943156075645 H 0.0 **** 0.06
5754 H 74.4072141303594 114.14586310766236 62.30271579237831 H 0.0 **** 0.06
5755 H 75.80038308149894 115.11331830913053 61.762132131659996 H 0.0 **** 0.06
5756 C 118.35345227526207 49.658855980708665 72.55478380071557 C 0.0 **** -0.24
5757 H 118.2490745172374 50.676166896022565 72.93179476004191 H 0.0 **** 0.06
5758 H 118.07757141603523 48.95164055142112 73.33754532498811 H 0.0 **** 0.06
5759 H 119.38701732648897 49.48592218437646 72.25695729868298 H 0.0 **** 0.06
5760 H 117.69885257342614 49.52153030693984 71.69435462957493 H 0.0 **** 0.06
5761 C 82.43045512225194 148.99898393650548 135.97118288979965 C 0.0 **** -0.24
5762 H 81.8197481453962 149.73181102580403 135.44337236804847 H 0.0 **** 0.06
5763 H 83.48089104430028 149.15814491069474 135.72622643364377 H 0.0 **** 0.06
5764 H 82.13404730610495 147.99510076647996 135.6683620793633 H 0.0 **** 0.06
5765 H 82.28562383970663 149.11224237327187 137.04584280417623 H 0.0 **** 0.06
5766 C 27.484812449825043 105.44687442081457 91.39396013922052 C 0.0 **** -0.24
5767 H 28.472250682569012 105.00423804310438 91.52298044466909 H 0.0 **** 0.06
5768 H 26.88792734102853 104.81672786131347 90.73436558510878 H 0.0 **** 0.06
5769 H 27.58626461701678 106.43969044821452 90.95432583736718 H 0.0 **** 0.06
5770 H 26.993069247872796 105.52712910599487 92.36280906927652 H 0.0 **** 0.06
5771 C 1.5845489020927914 92.06804929065524 32.992496261408334 C 0.0 **** -0.24
5772 H 1.902293880014298 92.87998054371027 32.3378411786738 H 0.0 **** 0.06
5773 H 1.102990382546892 91.29044030304486 32.39929633605757 H 0.0 **** 0.06
5774 H 0.8799441223468705 92.4511439229862 33.72988357433341 H 0.0 **** 0.06
5775 H 2.4535063202166327 91.6505578762455 33.50212499377942 H 0.0 **** 0.06
5776 C 45.347425874517114 11.123818162352904 80.3195285328984 C 0.0 **** -0.24
5777 H 46.06960238884801 10.337353736313844 80.53988345436017 H 0.0 **** 0.06
5778 H 44.59808118153347 10.744351596816614 79.62461188170508 H 0.0 **** 0.06
5779 H 45.86226148690514 11.974180354165583 79.87141029982006 H 0.0 **** 0.06
5780 H 44.860613856413124 11.43893982059484 81.2424699630275 H 0.0 **** 0.06
5781 C 5.770077698871578 21.966354501407523 146.41697335299315 C 0.0 **** -0.24
5782 H 5.709500502539061 21.028866144989507 145.8646270380338 H 0.0 **** 0.06
5783 H 6.593486911983252 22.56469869988979 146.02669271012152 H 0.0 **** 0.06
5784 H 5.943057231086236 21.75458688816329 147.47192834174194 H 0.0 **** 0.06
5785 H 4.835721660196516 22.5153552160329 146.30416618518498 H 0.0 **** 0.06
5786 C 80.3894381583311 14.780000441202134 85.54842412036037 C 0.0 **** -0.24
5787 H 79.77494616037993 15.649944807955109 85.31872685748921 H 0.0 **** 0.06
5788 H 80.85063834236612 14.40862559610946 84.63320305201948 H 0.0 **** 0.06
5789 H 79.76527717233202 13.999473372145559 85.98358506069073 H 0.0 **** 0.06
5790 H 81.16697254036663 15.06157066690102 86.25909985913962 H 0.0 **** 0.06
5791 C 97.99889480105807 111.18337113196685 10.713660955289896 C 0.0 **** -0.24
5792 H 98.54328918364669 112.03548347606738 10.307060683165531 H 0.0 **** 0.06
5793 H 97.34347294895005 111.52084793467861 11.515880406343314 H 0.0 **** 0.06
5794 H 98.70816640872957 110.45343140022749 11.105995405175207 H 0.0 **** 0.06
5795 H 97.40356702993225 110.72359172038375 9.925015782057926 H 0.0 **** 0.06
5796 C 21.225916698198603 139.25127410531536 73.82477648826872 C 0.0 **** -0.24
5797 H 22.189169177787676 138.78392973703643 73.61940025242237 H 0.0 **** 0.06
5798 H 21.153764914405315 139.4844535978512 74.88744574782541 H 0.0 **** 0.06
5799 H 20.42495501444415 138.5667597005008 73.54647292321593 H 0.0 **** 0.06
5800 H 21.137559231586863 140.16985425444355 73.24410878992452 H 0.0 **** 0.06
5801 C 75.81346300727512 27.71738654093975 143.16438626393085 C 0.0 **** -0.24
5802 H 76.03193569628445 26.657859294791407 143.29510029278222 H 0.0 **** 0.06
5803 H 76.73262232292458 28.29373222661102 143.27581487728588 H 0.0 **** 0.06
5804 H 75.09109742258963 28.03526543028653 143.91560622112246 H 0.0 **** 0.06
5805 H 75.39993791059669 27.881825332535698 142.1687385311144 H 0.0 **** 0.06
5806 C 50.46382435494186 147.68158031347556 143.24241510528785 C 0.0 **** -0.24
5807 H 49.378790662825764 147.59557301747256 143.17178810219139 H 0.0 **** 0.06
5808 H 50.72525023415395 148.2366962451022 144.14338142028924 H 0.0 **** 0.06
5809 H 50.84268179046026 148.20940906702603 142.36674772297863 H 0.0 **** 0.06
5810 H 50.904654493176054 146.68620010658 143.28595217681996 H 0.0 **** 0.06
5811 C 21.944817376221323 50.772109580625425 39.39291132178299 C 0.0 **** -0.24
5812 H 22.764836717143197 50.06390644452195 39.51383319999634 H 0.0 **** 0.06
5813 H 21.826473818206324 51.35132064996165 40.308664466923844 H 0.0 **** 0.06
5814 H 21.02360626654169 50.22747516883693 39.185171234322354 H 0.0 **** 0.06
5815 H 22.165616968735947 51.44338755085208 38.56303487987947 H 0.0 **** 0.06
5816 C 37.02887354124377 1.8386419975087733 53.479859864657385 C 0.0 **** -0.24
5817 H 36.391584319917726 2.247164099329865 52.69503717365353 H 0.0 **** 0.06
5818 H 36.71370267609221 2.235589701146523 54.445586731955984 H 0.0 **** 0.06
5819 H 38.06418853612331 2.1219557620158014 53.2908290533062 H 0.0 **** 0.06
5820 H 36.94457983079365 0.7518391924230912 53.487905021123936 H 0.0 **** 0.06
5821 C 38.00058755301245 28.61422794768528 2.865541943384983 C 0.0 **** -0.24
5822 H 37.640086636928736 28.94629628584748 3.8390896767641607 H 0.0 **** 0.06
5823 H 38.17918095304227 27.539064906980343 2.8915675727659504 H 0.0 **** 0.06
5824 H 38.92990966275083 29.131455374415538 2.627719162283938 H 0.0 **** 0.06
5825 H 37.2530601857508 28.84144043249887 2.1052671128114184 H 0.0 **** 0.06
5826 C 94.24454157776333 48.79846978505827 99.8144299041075 C 0.0 **** -0.24
5827 H 93.66119719372847 49.46595971423511 99.18080542629913 H 0.0 **** 0.06
5828 H 94.81430428693733 49.38749455080534 100.5350913140944 H 0.0 **** 0.06
5829 H 94.92992489868382 48.218079463477864 99.19651544935779 H 0.0 **** 0.06
5830 H 93.57401407233809 48.12347647539485 100.345619468979 H 0.0 **** 0.06
5831 C 81.63711641874211 40.19439806824546 16.431004909080087 C 0.0 **** -0.24
5832 H 82.49829659948293 40.83477518032328 16.622753046464226 H 0.0 **** 0.06
5833 H 81.40805115483921 39.61661133699094 17.327641491491903 H 0.0 **** 0.06
5834 H 81.86498865013947 39.51503141796144 15.60979380638932 H 0.0 **** 0.06
5835 H 80.77862155836372 40.80978975386839 16.16603500111043 H 0.0 **** 0.06
5836 C 54.57474903557954 10.366775891238206 21.967747260410952 C 0.0 **** -0.24
5837 H 54.644906354641876 10.228790851572285 20.888853587066755 H 0.0 **** 0.06
5838 H 55.55857831257771 10.223191000776694 22.41736700143081 H 0.0 **** 0.06
5839 H 53.8763575362164 9.639797105953107 22.382698649336128 H 0.0 **** 0.06
5840 H 54.220676640311865 11.374845114850586 22.18274179917603 H 0.0 **** 0.06
5841 C 117.83008982116625 31.5412240944637 57.429431983590675 C 0.0 **** -0.24
5842 H 116.85588489098662 31.199589541736827 57.777993370079244 H 0.0 **** 0.06
5843 H 118.61497462687485 30.96877229160333 57.924784682266676 H 0.0 **** 0.06
5844 H 117.94975862649697 32.59905376864265 57.66461757136142 H 0.0 **** 0.06
5845 H 117.90207559667327 31.399276081975927 56.35090460329903 H 0.0 **** 0.06
5846 C 99.08230851890549 139.88916424730954 46.338141810518266 C 0.0 **** -0.24
5847 H 100.08837798112168 139.8373770703199 46.75691965991848 H 0.0 **** 0.06
5848 H 98.44767537919748 140.48693969780015 46.99202464113935 H 0.0 **** 0.06
5849 H 98.67257209856828 138.882736836172 46.253664542297855 H 0.0 **** 0.06
5850 H 99.12389109364396 140.34825682769966 45.35060074187342 H 0.0 **** 0.06
5851 C 15.60698840060553 70.15894167896363 111.43021837274284 C 0.0 **** -0.24
5852 H 14.605746501527562 70.14751764401461 110.99969354220639 H 0.0 **** 0.06
5853 H 15.778287261402852 69.23057864853848 111.97691055291602 H 0.0 **** 0.06
5854 H 15.699493302832593 71.00406166232028 112.11204204833939 H 0.0 **** 0.06
5855 H 16.34397937646753 70.25230077297772 110.63252615906805 H 0.0 **** 0.06
5856 C 134.66367048300043 97.53736517308096 55.60824991219786 C 0.0 **** -0.24
5857 H 134.9313332540692 97.56414877439374 54.551338462884104 H 0.0 **** 0.06
5858 H 134.4379482718436 98.54691758656713 55.95110976222074 H 0.0 **** 0.06
5859 H 135.49641381114859 97.13443442434775 56.183942376233176 H 0.0 **** 0.06
5860 H 133.78693400221843 96.90279644559621 55.74388256685515 H 0.0 **** 0.06
5861 C 95.86285513050933 8.280622616410596 123.65856874907135 C 0.0 **** -0.24
5862 H 95.7786015199232 8.689026048756986 124.66543737687331 H 0.0 **** 0.06
5863 H 96.35686888212729 7.309975258042556 123.70055205163303 H 0.0 **** 0.06
5864 H 96.44877719133154 8.959995361905705 123.03868687990305 H 0.0 **** 0.06
5865 H 94.86727326522077 8.164476788524034 123.22944475050517 H 0.0 **** 0.06
5866 C 100.95268969167117 119.20823000860847 121.95098946162328 C 0.0 **** -0.24
5867 H 101.70611750640828 118.8787209043833 122.6662542741655 H 0.0 **** 0.06
5868 H 100.27972323253294 118.38103107421378 121.72455942198418 H 0.0 **** 0.06
5869 H 101.44172637013833 119.54144956792382 121.03549432554352 H 0.0 **** 0.06
5870 H 100.3824677403542 120.03331528514613 122.37936049777058 H 0.0 **** 0.06
5871 C 149.85748596216948 102.31567671154205 141.15813817495547 C 0.0 **** -0.24
5872 H 149.03895648665508 101.75907793154394 140.70207045181277 H 0.0 **** 0.06
5873 H 150.6628548828052 102.43589820499642 140.43361890388982 H 0.0 **** 0.06
5874 H 150.22779047304292 101.77050583873402 142.02681348989017 H 0.0 **** 0.06
5875 H 149.49857615685005 103.2967922562212 141.4708833811397 H 0.0 **** 0.06
5876 C 20.1579813804247 139.6049330347395 45.24919453688106 C 0.0 **** -0.24
5877 H 20.269780273578448 139.99941260866714 44.239091884386724 H 0.0 **** 0.06
5878 H 19.968981659393734 138.5322593242856 45.20124956812734 H 0.0 **** 0.06
5879 H 19.3219019333915 140.10038829719414 45.7428955902344 H 0.0 **** 0.06
5880 H 21.072652056429803 139.78757088227118 45.81330308873606 H 0.0 **** 0.06
5881 C 85.61759825601341 75.80359860219055 99.76205162766529 C 0.0 **** -0.24
5882 H 84.8466599082051 75.06690389944319 99.53576979323816 H 0.0 **** 0.06
5883 H 86.02274104146508 75.61158913698786 100.7566375965387 H 0.0 **** 0.06
5884 H 85.18415413578259 76.80333037222417 99.73296435758502 H 0.0 **** 0.06
5885 H 86.41652937984145 75.73259092953542 99.0237857790249 H 0.0 **** 0.06
5886 C 30.220570543069897 35.787660171308715 47.79372594813307 C 0.0 **** -0.24
5887 H 29.474273147043334 36.478346863689325 47.40053948895256 H 0.0 **** 0.06
5888 H 31.197753646246213 36.032862728208755 47.37675184695645 H 0.0 **** 0.06
5889 H 29.952803896717768 34.767858382112166 47.517613993802144 H 0.0 **** 0.06
5890 H 30.256890067606804 35.87227296084839 48.87955744055563 H 0.0 **** 0.06
5891 C 101.43270256212989 145.45787315451622 96.97344108158198 C 0.0 **** -0.24
5892 H 100.62014534060395 144.81801372643906 96.62919093926607 H 0.0 **** 0.06
5893 H 101.57426819067868 146.27665720498862 96.26749111081824 H 0.0 **** 0.06
5894 H 102.35008899011372 144.87424995182215 97.04266205073078 H 0.0 **** 0.06
5895 H 101.18439113963342 145.86301217583983 97.9547847121382 H 0.0 **** 0.06
5896 C 22.104402966882077 74.88321410012423 124.26775294814247 C 0.0 **** -0.24
5897 H 23.032642149082278 75.32178407735478 124.63492307817985 H 0.0 **** 0.06
5898 H 21.380600749325424 75.67504882993617 124.07357361779454 H 0.0 **** 0.06
5899 H 21.704559568993716 74.20094538628797 125.01837347036361 H 0.0 **** 0.06
5900 H 22.30023620041237 74.33526484238399 123.346546452834 H 0.0 **** 0.06
5901 C 97.74502703994843 8.232476216858629 48.18527093333415 C 0.0 **** -0.24
5902 H 98.40689585140497 7.546216576635686 48.713977735656584 H 0.0 **** 0.06
5903 H 96.85210233965499 8.410995613000978 48.78521245173644 H 0.0 **** 0.06
5904 H 97.45935930127857 7.795951084717615 47.228200801480654 H 0.0 **** 0.06
5905 H 98.26295717039945 9.176132724102558 48.01327596824578 H 0.0 **** 0.06
5906 C 11.089680024136982 61.62358167602446 16.036808544827807 C 0.0 **** -0.24
5907 H 11.50165842452256 62.60660465659332 15.808018002907659 H 0.0 **** 0.06
5908 H 10.00205592179887 61.68515886173827 16.074339156122903 H 0.0 **** 0.06
5909 H 11.468935554566514 61.285603120278765 17.001292981827646 H 0.0 **** 0.06
5910 H 11.387131424760668 60.91637681404089 15.261454759197022 H 0.0 **** 0.06
5911 C 78.62228269332255 87.60120769471388 4.837656256571428 C 0.0 **** -0.24
5912 H 78.3924638601143 87.72231238616594 3.7796593779777083 H 0.0 **** 0.06
5913 H 78.85665277953335 86.55586325122022 5.041281350115938 H 0.0 **** 0.06
5914 H 77.76200563004122 87.90411630550683 5.433081455795232 H 0.0 **** 0.06
5915 H 79.48007073648479 88.22293259366081 5.095833210398727 H 0.0 **** 0.06
5916 C 134.74317147699134 126.77572053023366 149.76643451170938 C 0.0 **** -0.24
5917 H 134.39561563837208 126.32686864575933 148.8350492699718 H 0.0 **** 0.06
5918 H 134.71218240767806 127.86128357992871 149.68010386272394 H 0.0 **** 0.06
5919 H 135.76621775269464 126.45521915846571 149.96326863386403 H 0.0 **** 0.06
5920 H 134.09812516037752 126.45618415409642 150.58569227571704 H 0.0 **** 0.06
5921 C 112.63942222816377 89.75711476733656 31.60347735274783 C 0.0 **** -0.24
5922 H 112.84604874500525 89.85818682394442 30.538145763029796 H 0.0 **** 0.06
5923 H 113.55333697180436 89.47089217106337 32.12558654741136 H 0.0 **** 0.06
5924 H 111.87920531821021 88.99062825072568 31.756026280399176 H 0.0 **** 0.06
5925 H 112.27955946783521 90.70844716302229 31.995792229975997 H 0.0 **** 0.06
5926 C 118.89917087705372 78.5321360491541 28.644508129644542 C 0.0 **** -0.24
5927 H 118.10979728388797 78.7568867589753 27.92713449067827 H 0.0 **** 0.06
5928 H 119.79671168304866 78.21874732719718 28.110510446998703 H 0.0 **** 0.06
5929 H 118.57011120537716 77.73112804009841 29.30576931187099 H 0.0 **** 0.06
5930 H 119.11784129589766 79.42259846079898 29.233988773633797 H 0.0 **** 0.06
5931 C 117.25073346666716 7.261882188902888 72.30112160387972 C 0.0 **** -0.24
5932 H 116.76890707141382 7.510211858351539 71.35598026645248 H 0.0 **** 0.06
5933 H 118.31763157656826 7.477123755950885 72.23349014793602 H 0.0 **** 0.06
5934 H 117.1069173528341 6.202409379396386 72.51437683784226 H 0.0 **** 0.06
5935 H 116.81009070047139 7.857011643635616 73.100470926263 H 0.0 **** 0.06
5936 C 53.782414076259585 136.21580491732357 122.86373956021214 C 0.0 **** -0.24
5937 H 54.55007652403479 135.72586551781322 122.26512263794507 H 0.0 **** 0.06
5938 H 53.03521546866152 135.48148356923875 123.16709403190873 H 0.0 **** 0.06
5939 H 53.30464261495527 136.99672701248613 122.27185476751845 H 0.0 **** 0.06
5940 H 54.238492792051744 136.657891514384 123.74950032158824 H 0.0 **** 0.06
5941 C 102.0845926027335 147.38323035280092 136.19894149621734 C 0.0 **** -0.24
5942 H 102.8266556348667 147.44815446439372 135.40429645909543 H 0.0 **** 0.06
5943 H 101.98726083568478 148.3534761157383 136.68539205660352 H 0.0 **** 0.06
5944 H 102.4000590647459 146.63922956260663 136.93004764434582 H 0.0 **** 0.06
5945 H 101.1227780785351 147.0912554197541 135.77517150006716 H 0.0 **** 0.06
5946 C 59.288976178375876 109.26406045748594 14.169090928456285 C 0.0 **** -0.24
5947 H 59.1854784461663 108.90859866926446 15.193812639096016 H 0.0 **** 0.06
5948 H 60.27802774046934 109.70244456740231 14.0348602499148 H 0.0 **** 0.06
5949 H 58.52612104409059 110.01779604745106 13.967588367368855 H 0.0 **** 0.06
5950 H 59.16481624943238 108.42832331751019 13.479971742410669 H 0.0 **** 0.06
5951 C 18.547272212187522 4.371981876073136 33.19609616528069 C 0.0 **** -0.24
5952 H 18.59040753936486 4.3372773390077555 32.1071533522142 H 0.0 **** 0.06
5953 H 19.328344201919123 3.7352489689334902 33.61108197389427 H 0.0 **** 0.06
5954 H 17.572951128135713 4.019378778646825 33.53285561291466 H 0.0 **** 0.06
5955 H 18.698420267175038 5.398412162063551 33.53180385634815 H 0.0 **** 0.06
5956 C 13.057283612824477 18.52796791813492 92.13288982915944 C 0.0 **** -0.24
5957 H 13.521608656543151 19.396434013325354 91.66540037576108 H 0.0 **** 0.06
5958 H 13.638179450618765 18.23135266742012 93.00616235223093 H 0.0 **** 0.06
5959 H 13.026496094624775 17.704000064637462 91.41974636439497 H 0.0 **** 0.06
5960 H 12.042105148913407 18.780527740215575 92.43913272038266 H 0.0 **** 0.06
5961 C 51.6931324935219 132.07482771307366 149.3678558526127 C 0.0 **** -0.24
5962 H 52.72569289540422 132.13101382051056 149.02207897273263 H 0.0 **** 0.06
5963 H 51.02658265597985 132.42264582927697 148.57869975063977 H 0.0 **** 0.06
5964 H 51.57011634046903 132.70199016351842 150.25005691860042 H 0.0 **** 0.06
5965 H 51.4507095606626 131.04230490913363 149.61890416899348 H 0.0 **** 0.06
5966 C 49.184229524383866 50.526081288325656 21.831447637864756 C 0.0 **** -0.24
5967 H 48.96484377573758 51.59365636538706 21.85614267335029 H 0.0 **** 0.06
5968 H 48.28824110694231 49.96546540185966 22.09878840161332 H 0.0 **** 0.06
5969 H 49.98009206912958 50.30190069125854 22.541671794285833 H 0.0 **** 0.06
5970 H 49.50291182773651 50.24439047595928 20.827155642982632 H 0.0 **** 0.06
5971 C 117.79654368904016 138.43270983049632 26.227334484147036 C 0.0 **** -0.24
5972 H 118.0140252501435 138.6654967289512 25.18581182637459 H 0.0 **** 0.06
5973 H 117.2827835237232 139.27693747508422 26.688843657798458 H 0.0 **** 0.06
5974 H 118.7280435513793 138.2391831465446 26.758352258764035 H 0.0 **** 0.06
5975 H 117.16029630618982 137.54907930289374 26.277292891394723 H 0.0 **** 0.06
5976 C 73.80066950368837 116.30733227944869 144.0554176227765 C 0.0 **** -0.24
5977 H 73.9966297164857 115.35035178585319 143.57225988751986 H 0.0 **** 0.06
5978 H 74.73762471338374 116.72629884304912 144.4239817007566 H 0.0 **** 0.06
5979 H 73.11472777987531 116.16049785258143 144.88887610168248 H 0.0 **** 0.06
5980 H 73.3549378954617 116.9926917788243 143.33476502945018 H 0.0 **** 0.06
5981 C 50.316863347522116 45.15678129520154 107.8378870530555 C 0.0 **** -0.24
5982 H 49.29043608015681 45.46844072884409 108.02948799263429 H 0.0 **** 0.06
5983 H 50.999711089228555 45.78029380782435 108.41628453444493 H 0.0 **** 0.06
5984 H 50.53721102032151 45.26357953840832 106.77645007079248 H 0.0 **** 0.06
5985 H 50.44093868807485 44.113620836555626 108.13102030335058 H 0.0 **** 0.06
5986 C 12.5675247042889 8.286140171673416 52.2788558133731 C 0.0 **** -0.24
5987 H 11.610549472367666 7.7654947413470765 52.276811252903286 H 0.0 **** 0.06
5988 H 12.622319714040628 8.939718077966056 53.15074054958998 H 0.0 **** 0.06
5989 H 12.659892963928542 8.882534626465038 51.370762057173266 H 0.0 **** 0.06
5990 H 13.377548567851903 7.558120742874394 52.31980120845293 H 0.0 **** 0.06
5991 C 130.6179139734546 141.41775133330856 13.34470849629161 C 0.0 **** -0.24
5992 H 131.70427821043066 141.5111747647015 13.36496523693539 H 0.0 **** 0.06
5993 H 130.23699982942273 141.82121156752586 12.406670263279914 H 0.0 **** 0.06
5994 H 130.19045638710904 141.97291263859253 14.179447022064494 H 0.0 **** 0.06
5995 H 130.34260375131575 140.36651879771424 13.427369897996932 H 0.0 **** 0.06
5996 C 27.48682225321742 99.80324933463166 77.07714576256207 C 0.0 **** -0.24
5997 H 28.162562366060897 99.40046933903213 76.3216504848659 H 0.0 **** 0.06
5998 H 26.747781118933887 99.04720976217742 77.34203601272243 H 0.0 **** 0.06
5999 H 26.98082475897364 100.68321502424209 76.67998659441915 H 0.0 **** 0.06
6000 H 28.057824651997237 100.08063807120409 77.96292237903516 H 0.0 **** 0.06
6001 C 20.362521902110245 111.38899655354457 70.83819903110597 C 0.0 **** -0.24
6002 H 20.245411865812002 112.47221730315296 70.79527397088444 H 0.0 **** 0.06
6003 H 20.455915827475906 111.07456031211213 71.87834371305333 H 0.0 **** 0.06
6004 H 21.257753139085423 111.09868964207281 70.2882277443766 H 0.0 **** 0.06
6005 H 19.490299320292763 110.9117420012201 70.39101186777755 H 0.0 **** 0.06
6006 C 66.51949166327944 76.72426534738888 30.987831899616225 C 0.0 **** -0.24
6007 H 66.2576590624823 77.46184586888724 30.229123687296777 H 0.0 **** 0.06
6008 H 66.54942078461934 77.20525896110131 31.965790945364063 H 0.0 **** 0.06
6009 H 67.49788855053131 76.30101986752787 30.76055172737813 H 0.0 **** 0.06
6010 H 65.77263602012536 75.93041788582988 30.996682798100892 H 0.0 **** 0.06
6011 C 85.07759513646542 128.90728825717693 2.7467685590604276 C 0.0 **** -0.24
6012 H 85.74582634564578 129.6468791422162 3.1881820471364506 H 0.0 **** 0.06
6013 H 84.51302189136285 129.36643324535808 1.9347510440375686 H 0.0 **** 0.06
6014 H 84.38760300689034 128.54203457389255 3.5070060667950713 H 0.0 **** 0.06
6015 H 85.66285357914077 128.07513806208217 2.3573972231842504 H 0.0 **** 0.06
6016 C 14.211063564286889 112.07758281259687 138.52277413885105 C 0.0 **** -0.24
6017 H 14.696343781083414 112.89931617861951 139.0497683355273 H 0.0 **** 0.06
6018 H 13.160380651570847 112.31790499115878 138.36349415600017 H 0.0 **** 0.06
6019 H 14.289742148692113 111.16831014975055 139.11880550796545 H 0.0 **** 0.06
6020 H 14.699937699433406 111.92521509082859 137.5601263993353 H 0.0 **** 0.06
6021 C 68.46491445197968 66.94715396330713 62.94896410716096 C 0.0 **** -0.24
6022 H 68.95577964694809 67.15945659346337 61.9985781437467 H 0.0 **** 0.06
6023 H 69.2113604588379 66.63903639662115 63.68199647828982 H 0.0 **** 0.06
6024 H 67.73867728968229 66.1468258119194 62.81131283169208 H 0.0 **** 0.06
6025 H 67.95616016389761 67.8433820580955 63.30318683256371 H 0.0 **** 0.06
6026 C 140.2921932341097 10.39440340053946 50.68502312115476 C 0.0 **** -0.24
6027 H 140.23437048895366 11.382967486415424 50.2296704486958 H 0.0 **** 0.06
6028 H 139.39755526896593 10.215599261424842 51.28129190859306 H 0.0 **** 0.06
6029 H 141.17324596529514 10.340320132152812 51.32423713586576 H 0.0 **** 0.06
6030 H 140.36455358735267 9.63917253361413 49.90208326459572 H 0.0 **** 0.06
6031 C 132.632844946928 41.85492424507102 66.23889367463391 C 0.0 **** -0.24
6032 H 132.16137135947028 42.539883470813976 65.53382841784509 H 0.0 **** 0.06
6033 H 132.7781248460912 42.36005379982909 67.19386769126623 H 0.0 **** 0.06
6034 H 133.59859215945136 41.53729138391611 65.8437693543205 H 0.0 **** 0.06
6035 H 131.99460648921738 40.98367010376391 66.38169538775941 H 0.0 **** 0.06
6036 C 17.925058981471295 27.935300574728274 149.8411487063799 C 0.0 **** -0.24
6037 H 18.405338205738815 28.303977321901584 150.74771189731123 H 0.0 **** 0.06
6038 H 17.64229607749047 28.777639503112056 149.2109751597484 H 0.0 **** 0.06
6039 H 17.034324407954784 27.365304251600463 150.10801505269046 H 0.0 **** 0.06
6040 H 18.618155330625143 27.291965124299963 149.29868078242797 H 0.0 **** 0.06
6041 C 103.13334891276398 115.56587069176274 131.66872051968798 C 0.0 **** -0.24
6042 H 102.10536069169049 115.92681655878019 131.62848617448682 H 0.0 **** 0.06
6043 H 103.71307022054734 116.19526130208513 132.34512661691483 H 0.0 **** 0.06
6044 H 103.57102508044451 115.6031795159681 130.67146374004076 H 0.0 **** 0.06
6045 H 103.14231505356864 114.53771032743103 132.0308522162908 H 0.0 **** 0.06
6046 C 49.707190563495914 62.5531656295729 21.16669232405434 C 0.0 **** -0.24
6047 H 49.01721379863534 63.064775022702236 21.838094137011126 H 0.0 **** 0.06
6048 H 49.42341128307012 62.754245005374656 20.133670597207185 H 0.0 **** 0.06
6049 H 49.66668143031686 61.480109023917976 21.353124632374545 H 0.0 **** 0.06
6050 H 50.720360080753466 62.914874532895794 21.341845626606982 H 0.0 **** 0.06
6051 C 48.964764741082604 12.484582428043296 99.85203569775788 C 0.0 **** -0.24
6052 H 49.467940320896076 12.156061289870038 98.94199628950571 H 0.0 **** 0.06
6053 H 47.9292767302603 12.143845516061738 99.83685554724835 H 0.0 **** 0.06
6054 H 48.98896864972744 13.572207520641989 99.90774259228431 H 0.0 **** 0.06
6055 H 49.4737130231989 12.064871286902871 100.71920560825919 H 0.0 **** 0.06
6056 C 68.39869511057893 29.01049201423814 71.83347173655662 C 0.0 **** -0.24
6057 H 67.49203077396632 28.902604914902582 71.23946198869123 H 0.0 **** 0.06
6058 H 68.53262042400169 30.057257840886507 72.1066434859822 H 0.0 **** 0.06
6059 H 69.25636109033567 28.673337260048584 71.25145092997437 H 0.0 **** 0.06
6060 H 68.3143904998021 28.406577521737333 72.73723305483487 H 0.0 **** 0.06
6061 C 81.46392522348594 116.96563485489885 100.32011220244203 C 0.0 **** -0.24
6062 H 82.43485724967053 117.44478488476297 100.44862585533508 H 0.0 **** 0.06
6063 H 81.53643777708527 116.20027241080261 99.54783005269167 H 0.0 **** 0.06
6064 H 80.72756863865803 117.71322531723281 100.02456190642266 H 0.0 **** 0.06
6065 H 81.15774393303275 116.50691844129462 101.26047690074063 H 0.0 **** 0.06
6066 C 144.68353533634422 82.28571700173848 133.4445692846995 C 0.0 **** -0.24
6067 H 145.2129219544285 82.14129434300497 132.50204053822725 H 0.0 **** 0.06
6068 H 143.73423617911422 81.75022593364025 133.41255459151304 H 0.0 **** 0.06
6069 H 144.49673156107053 83.34843208403578 133.59767863260848 H 0.0 **** 0.06
6070 H 145.29069057542475 81.90120757655029 134.2633784556941 H 0.0 **** 0.06
6071 C 82.01020891862461 23.303471296522503 95.21032275479016 C 0.0 **** -0.24
6072 H 82.54468948012016 23.702068678782382 96.07294385382579 H 0.0 **** 0.06
6073 H 82.70230020158502 23.1870183556714 94.37683980898777 H 0.0 **** 0.06
6074 H 81.21299247466871 23.991409085110547 94.9289884002389 H 0.0 **** 0.06
6075 H 81.58069067890509 22.334458921209603 95.46580975138468 H 0.0 **** 0.06
6076 C 147.43998676304042 99.11263299653798 101.26412782471007 C 0.0 **** -0.24
6077 H 146.37125934865486 98.89969430509335 101.25478475033819 H 0.0 **** 0.06
6078 H 147.81541246258922 99.03980978900614 102.28516300154732 H 0.0 **** 0.06
6079 H 147.6129396879758 100.11905448722942 100.88361825378664 H 0.0 **** 0.06
6080 H 147.9597876028444 98.39115590949386 100.63312274366339 H 0.0 **** 0.06
6081 C 85.92078949381016 9.333648508977717 139.51117822058265 C 0.0 **** -0.24
6082 H 86.99133053976018 9.463868801300833 139.3511062126768 H 0.0 **** 0.06
6083 H 85.44933055789797 10.30999862831976 139.62448934000744 H 0.0 **** 0.06
6084 H 85.75863861989019 8.743473863671653 140.41333202102547 H 0.0 **** 0.06
6085 H 85.48608034316452 8.81730826518131 138.6555415128001 H 0.0 **** 0.06
6086 C 3.82501202315116 26.474550956470807 127.63712457090674 C 0.0 **** -0.24
6087 H 4.572358664740353 27.186045040243187 127.98848571492448 H 0.0 **** 0.06
6088 H 3.8264446621545893 25.59696309950988 128.28245311512416 H 0.0 **** 0.06
6089 H 4.059739823853807 26.17648198618764 126.61579592944642 H 0.0 **** 0.06
6090 H 2.8398623152070854 26.942068903958784 127.66197541115707 H 0.0 **** 0.06
6091 C 111.21969620809087 17.30117831724354 81.33934429376585 C 0.0 **** -0.24
6092 H 111.11229401580461 16.49428047510787 82.0657059135267 H 0.0 **** 0.06
6093 H 111.4419108903869 16.878913065209503 80.35847466050942 H 0.0 **** 0.06
6094 H 112.03340347711658 17.957665097116916 81.64529693814332 H 0.0 **** 0.06
6095 H 110.29152390181689 17.870076965969105 81.28951494664295 H 0.0 **** 0.06
6096 C 19.756557797704765 12.817828127298462 118.71861599496542 C 0.0 **** -0.24
6097 H 18.91503312542381 12.926688181350514 118.03418468988819 H 0.0 **** 0.06
6098 H 20.494338970594384 13.592789700985065 118.51096730042478 H 0.0 **** 0.06
6099 H 20.21064338656955 11.836537527935242 118.58088248044156 H 0.0 **** 0.06
6100 H 19.404432636286977 12.914829147075245 119.7451734089985 H 0.0 **** 0.06
6101 C 112.28818885683012 83.50581648596261 118.18163193538835 C 0.0 **** -0.24
6102 H 111.31084169395047 83.98749262810554 118.16544310387611 H 0.0 **** 0.06
6103 H 112.86139520993675 83.81814334664455 117.3083307748921 H 0.0 **** 0.06
6104 H 112.16016192744587 82.42332930469877 118.16396543270893 H 0.0 **** 0.06
6105 H 112.8201294181772 83.79400149990346 119.08742499175831 H 0.0 **** 0.06
6106 C 65.09550307400762 34.56042621737004 33.961277862070034 C 0.0 **** -0.24
6107 H 65.27697026720077 35.57967358460876 34.30119832043022 H 0.0 **** 0.06
6108 H 65.63723194308884 33.86252855364808 34.599797377861336 H 0.0 **** 0.06
6109 H 65.43931418311351 34.45449066494709 32.931868273690355 H 0.0 **** 0.06
6110 H 64.02791688853308 34.345330197023955 34.01149676190079 H 0.0 **** 0.06
6111 C 137.48822537811108 77.47816877984735 27.834403771936216 C 0.0 **** -0.24
6112 H 137.06721445322574 78.29699945462784 27.250719248812253 H 0.0 **** 0.06
6113 H 137.372357137762 77.69304524584902 28.896821367423946 H 0.0 **** 0.06
6114 H 138.54787252598484 77.3713646933549 27.598250509708457 H 0.0 **** 0.06
6115 H 136.96741362023147 76.55272637979078 27.59162422821619 H 0.0 **** 0.06
6116 C 139.52625711830885 113.78602309895564 145.11658697300444 C 0.0 **** -0.24
6117 H 140.38339887876202 113.26775254328305 144.6847210452017 H 0.0 **** 0.06
6118 H 139.8048091473652 114.81200066214433 145.3550408537974 H 0.0 **** 0.06
6119 H 139.21334654468743 113.27304736858054 146.0258736977292 H 0.0 **** 0.06
6120 H 138.70563336762658 113.78827632268246 144.40021834446418 H 0.0 **** 0.06
6121 C 103.3332891240835 74.87062355331497 47.5342475659744 C 0.0 **** -0.24
6122 H 102.37357087900438 74.94188276475637 47.023382160413774 H 0.0 **** 0.06
6123 H 103.30499663157102 74.04366616060099 48.24480054920275 H 0.0 **** 0.06
6124 H 103.53046778299287 75.80068159935661 48.06776523836143 H 0.0 **** 0.06
6125 H 104.12286023600231 74.69606590244905 46.803935620170364 H 0.0 **** 0.06
6126 C 122.57420869683229 38.212879755001495 116.47446036882225 C 0.0 **** -0.24
6127 H 121.66771499712893 38.63636756990866 116.90604315193626 H 0.0 **** 0.06
6128 H 122.86795461661397 37.32879827798257 117.04119998812943 H 0.0 **** 0.06
6129 H 123.3752215717842 38.95172670276796 116.51422319126219 H 0.0 **** 0.06
6130 H 122.38749057202365 37.93456963120741 115.43715216542914 H 0.0 **** 0.06
6131 C 59.87774438656703 27.5303130365304 115.81398138637046 C 0.0 **** -0.24
6132 H 60.178648508020984 27.304824047522033 116.83683567293521 H 0.0 **** 0.06
6133 H 58.83441976707077 27.24682426926853 115.67175839910713 H 0.0 **** 0.06
6134 H 60.50418056925379 26.97048242631709 115.11957813330021 H 0.0 **** 0.06
6135 H 59.99332104693515 28.598229523052936 115.62755737037831 H 0.0 **** 0.06
6136 C 83.34268752028308 72.58485470534816 107.27176689357465 C 0.0 **** -0.24
6137 H 84.13745492213948 71.99351801527129 107.72667917752246 H 0.0 **** 0.06
6138 H 83.76653062129245 73.49142683902241 106.8389014356862 H 0.0 **** 0.06
6139 H 82.60904302329456 72.85358921364741 108.03179649799652 H 0.0 **** 0.06
6140 H 82.85820295523021 72.00022163347887 106.48911729362887 H 0.0 **** 0.06
6141 C 68.0109027117693 8.89047657105823 122.29316643041709 C 0.0 **** -0.24
6142 H 69.046663446843 9.034474978358645 121.9844891422389 H 0.0 **** 0.06
6143 H 67.57538523907404 9.852219231888995 122.56300164790333 H 0.0 **** 0.06
6144 H 67.97825212689023 8.221733343064443 123.15344134421458 H 0.0 **** 0.06
6145 H 67.4452147484528 8.452500800342591 121.47108868525022 H 0.0 **** 0.06
6146 C 86.42565288828803 143.5483451772918 138.13356034883873 C 0.0 **** -0.24
6147 H 87.27157022232137 144.0691317506081 137.68524162171536 H 0.0 **** 0.06
6148 H 86.76935414914357 142.96451430087902 138.9878790610692 H 0.0 **** 0.06
6149 H 85.97672095426563 142.88284964421572 137.39594234981953 H 0.0 **** 0.06
6150 H 85.6847856620638 144.27560709325383 138.46460009872104 H 0.0 **** 0.06
6151 C 63.57969583509308 86.4572705872882 121.21231623222894 C 0.0 **** -0.24
6152 H 62.72159328071993 86.31448484876114 121.8683464801448 H 0.0 **** 0.06
6153 H 63.24099901053242 86.49756975641967 120.17702114175239 H 0.0 **** 0.06
6154 H 64.2742877202808 85.62690339329478 121.33634402080997 H 0.0 **** 0.06
6155 H 64.0800003581285 87.3912790499073 121.467339849648 H 0.0 **** 0.06
6156 C 6.41321275456346 48.13945369980402 117.87319120986534 C 0.0 **** -0.24
6157 H 6.926844310616701 47.23996517077538 117.53441329065647 H 0.0 **** 0.06
6158 H 6.851947903282166 49.0126647580322 117.38913186993851 H 0.0 **** 0.06
6159 H 6.5169113827301715 48.23144368572814 118.95437571001803 H 0.0 **** 0.06
6160 H 5.356527664262103 48.07284354778713 117.61394384551237 H 0.0 **** 0.06
6161 C 111.37982911610838 54.40799093467692 91.92356487078776 C 0.0 **** -0.24
6162 H 112.3430957557426 54.72787490686008 92.32154618582453 H 0.0 **** 0.06
6163 H 111.3932922160054 53.33030332892881 91.76370049660049 H 0.0 **** 0.06
6164 H 111.19207787006953 54.91469626408221 90.97651065264469 H 0.0 **** 0.06
6165 H 110.59231578581019 54.661494702500164 92.63276163638808 H 0.0 **** 0.06
6166 C 59.81075119660207 137.6263410255449 88.95926311860222 C 0.0 **** -0.24
6167 H 60.28350114153355 137.34244340156684 89.89928551132361 H 0.0 **** 0.06
6168 H 60.422307421543536 138.37746405856757 88.45744569521472 H 0.0 **** 0.06
6169 H 58.821749657531115 138.03670838615568 89.15932563870304 H 0.0 **** 0.06
6170 H 59.71741298548821 136.74858281937819 88.31994396031527 H 0.0 **** 0.06
6171 C 74.31159988905472 48.048018025489625 71.85533744479568 C 0.0 **** -0.24
6172 H 74.69926563364042 47.49481846997955 72.71034795858108 H 0.0 **** 0.06
6173 H 73.56137147175082 48.761741849860414 72.19416493705528 H 0.0 **** 0.06
6174 H 73.85949148341935 47.3515732685854 71.14791872944392 H 0.0 **** 0.06
6175 H 75.12786594780553 48.581241081931125 71.3674415568339 H 0.0 **** 0.06
6176 C 112.3694043689705 10.12409250081177 83.15733496007061 C 0.0 **** -0.24
6177 H 112.53963892459079 11.082854866154015 83.64792994102523 H 0.0 **** 0.06
6178 H 112.27044216569253 9.342442916130622 83.91055398067701 H 0.0 **** 0.06
6179 H 113.21210770763913 9.896477817390988 82.5049408282049 H 0.0 **** 0.06
6180 H 111.45534389636991 10.177384859088676 82.56481668266642 H 0.0 **** 0.06
6181 C 86.42990324161319 128.2653589081086 111.76620966377031 C 0.0 **** -0.24
6182 H 86.13682029472696 129.253957354008 111.41274540127388 H 0.0 **** 0.06
6183 H 86.60454593918314 127.61132083843127 110.91069362587784 H 0.0 **** 0.06
6184 H 85.63484312135256 127.85048641356475 112.3845118915324 H 0.0 **** 0.06
6185 H 87.34361360034352 128.346058119095 112.35469542099422 H 0.0 **** 0.06
6186 C 14.212561662838795 118.65834105340889 121.15151398008999 C 0.0 **** -0.24
6187 H 14.277451289126219 118.68590564356873 120.0635419980843 H 0.0 **** 0.06
6188 H 14.637964510011187 119.57356237281323 121.56424375681962 H 0.0 **** 0.06
6189 H 14.766696978457276 117.79774561309364 121.52645668239006 H 0.0 **** 0.06
6190 H 13.16732276198141 118.57623973932556 121.45028565492123 H 0.0 **** 0.06
6191 C 71.70142097858792 95.91114504860039 39.374867706446665 C 0.0 **** -0.24
6192 H 70.69486430625508 96.11147054407259 39.74292458891169 H 0.0 **** 0.06
6193 H 72.0981655536358 96.80842976251536 38.899782058593615 H 0.0 **** 0.06
6194 H 71.66725394568556 95.09945344691826 38.64825444153905 H 0.0 **** 0.06
6195 H 72.34263415880974 95.6263193483778 40.20890394915813 H 0.0 **** 0.06
6196 C 83.45350640229002 58.89183500310125 18.45534535209594 C 0.0 **** -0.24
6197 H 83.07741401334741 58.32866117421227 17.602185239221072 H 0.0 **** 0.06
6198 H 84.03252602871264 59.7451142291371 18.100458945033026 H 0.0 **** 0.06
6199 H 84.09030183304003 58.24897246608211 19.063456229342364 H 0.0 **** 0.06
6200 H 82.61544744894562 59.24448089940287 19.055749809728518 H 0.0 **** 0.06
6201 C 21.432948803195032 5.116806826586462 3.6504622322076763 C 0.0 **** -0.24
6202 H 20.421354159987345 5.033106912129323 3.255247065378395 H 0.0 **** 0.06
6203 H 21.579703995196056 4.372914591637905 4.433603818721117 H 0.0 **** 0.06
6204 H 21.57840847060318 6.114514120224168 4.064958475172112 H 0.0 **** 0.06
6205 H 22.151550521886094 4.947627402499339 2.8487600664015638 H 0.0 **** 0.06
6206 C 76.52107905926314 36.186495274419826 3.0662421738683747 C 0.0 **** -0.24
6207 H 76.724601462646 35.11631274798657 3.0305564505469533 H 0.0 **** 0.06
6208 H 77.44228745827792 36.73780326247726 2.875069193172152 H 0.0 **** 0.06
6209 H 76.13648141234458 36.449990914310604 4.05186898314588 H 0.0 **** 0.06
6210 H 75.78034528776962 36.44060110727213 2.307337549381799 H 0.0 **** 0.06
6211 C 36.9787057384825 52.93680890643506 92.14690653885305 C 0.0 **** -0.24
6212 H 37.350140433586006 53.01928804162014 91.12498189407401 H 0.0 **** 0.06
6213 H 36.1604971750271 53.642000502890795 92.29367864107196 H 0.0 **** 0.06
6214 H 37.7849784192328 53.165109158903704 92.8448749397056 H 0.0 **** 0.06
6215 H 36.62151393952618 51.92293891737194 92.32296644241858 H 0.0 **** 0.06
6216 C 135.62008544737165 18.787303811821403 89.17623020469881 C 0.0 **** -0.24
6217 H 135.3063837252885 18.762297974666637 90.21932722038837 H 0.0 **** 0.06
6218 H 136.62816627317625 19.197492198432656 89.11022227513185 H 0.0 **** 0.06
6219 H 134.93479318166092 19.412783664469146 88.60505780421968 H 0.0 **** 0.06
6220 H 135.6123830770168 17.77540065555749 88.77105103165033 H 0.0 **** 0.06
6221 C 76.70043681982102 115.965106704659 8.062730018166349 C 0.0 **** -0.24
6222 H 76.79835697341505 115.42914787368206 9.006217282876378 H 0.0 **** 0.06
6223 H 77.17580022687625 115.39101849853775 7.267894929905424 H 0.0 **** 0.06
6224 H 77.18398214767961 116.93863208808226 8.146990021188344 H 0.0 **** 0.06
6225 H 75.64433693052806 116.10352810692324 7.830745037943643 H 0.0 **** 0.06
6226 C 142.86037511341496 105.88809002864657 132.08248124709962 C 0.0 **** -0.24
6227 H 142.93457051723473 106.72913174511787 131.39359785218264 H 0.0 **** 0.06
6228 H 143.73204089318702 105.876182186479 132.73651369330233 H 0.0 **** 0.06
6229 H 142.81771458614725 104.95761464353662 131.51659688539743 H 0.0 **** 0.06
6230 H 141.9559053780888 105.99005460486164 132.68325262943898 H 0.0 **** 0.06
6231 C 58.69371789208262 34.51943115691364 50.878135159749405 C 0.0 **** -0.24
6232 H 57.986856200898075 34.84435982439794 50.11486431415483 H 0.0 **** 0.06
6233 H 59.55368280410396 34.05084593365004 50.40058967722115 H 0.0 **** 0.06
6234 H 58.20894981512102 33.80104898830716 51.54012496256931 H 0.0 **** 0.06
6235 H 59.02416885959667 35.38204258421959 51.45740728465583 H 0.0 **** 0.06
6236 C 107.60529839057999 116.7291308894324 16.81566180569746 C 0.0 **** -0.24
6237 H 108.42444164918642 116.9339833682224 17.504542960973794 H 0.0 **** 0.06
6238 H 107.22311699867676 117.66946073034124 16.41665966498786 H 0.0 **** 0.06
6239 H 106.80760812477304 116.20698722894737 17.34476836438168 H 0.0 **** 0.06
6240 H 107.96602678968362 116.10609223021875 15.996676232446589 H 0.0 **** 0.06
6241 C 62.31780697500119 51.59583660815784 133.06470526594396 C 0.0 **** -0.24
6242 H 62.63574977006054 52.636117047044166 133.1253635635583 H 0.0 **** 0.06
6243 H 63.15127176868407 50.98059517025317 132.72640085069503 H 0.0 **** 0.06
6244 H 61.49100598749391 51.50969073763153 132.35866521652412 H 0.0 **** 0.06
6245 H 61.99136492903136 51.25815469599337 134.04879674260755 H 0.0 **** 0.06
6246 C 101.44435310573473 89.94941672491575 120.15388770997295 C 0.0 **** -0.24
6247 H 102.26983326842753 90.65827356206641 120.08502561081322 H 0.0 **** 0.06
6248 H 101.45423180348192 89.29393947678054 119.28318600234074 H 0.0 **** 0.06
6249 H 100.50012338638112 90.49308033294018 120.18967337375001 H 0.0 **** 0.06
6250 H 101.55398520423867 89.35269061242899 121.05974435116578 H 0.0 **** 0.06
6251 C 120.28611507279318 138.9410754409759 29.757419759456866 C 0.0 **** -0.24
6252 H 121.11600026083873 138.88925488046016 30.46281306802942 H 0.0 **** 0.06
6253 H 120.59358408585992 139.50382089517535 28.87635573159926 H 0.0 **** 0.06
6254 H 119.43936611840259 139.43849802972574 30.230527004479796 H 0.0 **** 0.06
6255 H 119.99644821304982 137.93257841733902 29.462999428890726 H 0.0 **** 0.06
6256 C 126.41104693031967 134.4641015804168 105.8441465397184 C 0.0 **** -0.24
6257 H 126.44347840629493 134.73815967199823 106.89801882707764 H 0.0 **** 0.06
6258 H 126.2026479960879 135.34960809995363 105.24381282729473 H 0.0 **** 0.06
6259 H 125.62785475051373 133.72389026472166 105.68456692800044 H 0.0 **** 0.06
6260 H 127.37355977620186 134.0442436030093 105.54896210956099 H 0.0 **** 0.06
6261 C 131.9351399538226 145.61403562440088 54.23285393989208 C 0.0 **** -0.24
6262 H 131.44052341206452 145.2413565880028 55.12960322548355 H 0.0 **** 0.06
6263 H 132.26357212887046 144.77269476095347 53.62246525333207 H 0.0 **** 0.06
6264 H 132.79921091789078 146.2153279086172 54.518926503152 H 0.0 **** 0.06
6265 H 131.23826332724815 146.22782374429218 53.66238432269327 H 0.0 **** 0.06
6266 C 111.66836415739901 131.92612392259832 25.115790278407303 C 0.0 **** -0.24
6267 H 111.21578700260876 132.86237681329274 24.78820983125712 H 0.0 **** 0.06
6268 H 112.5408960429482 132.14155059384063 25.73332811307813 H 0.0 **** 0.06
6269 H 111.97247720660722 131.34629732642424 24.244271569500086 H 0.0 **** 0.06
6270 H 110.94312557002702 131.35611794220347 25.696884654320456 H 0.0 **** 0.06
6271 C 77.70756034882564 42.56177736739082 83.388807090829 C 0.0 **** -0.24
6272 H 77.22816805075445 43.17809475397968 84.14906978961406 H 0.0 **** 0.06
6273 H 76.97919113244191 42.299304233620575 82.6209720469241 H 0.0 **** 0.06
6274 H 78.09534091075648 41.65341353437984 83.84840998056488 H 0.0 **** 0.06
6275 H 78.52813021520758 43.117984378025795 82.93543269280897 H 0.0 **** 0.06
6276 C 133.81683573644403 37.553578141304115 10.626100412425473 C 0.0 **** -0.24
6277 H 134.85806069737237 37.675178641551156 10.924804923432418 H 0.0 **** 0.06
6278 H 133.35730830791937 36.76762347566262 11.224931162479749 H 0.0 **** 0.06
6279 H 133.7716649160306 37.27977360154944 9.571584320547458 H 0.0 **** 0.06
6280 H 133.28229458205357 38.489575062668905 10.781904545365393 H 0.0 **** 0.06
6281 C 35.03686118990379 139.94004370470662 132.15548951746788 C 0.0 **** -0.24
6282 H 35.82548854115231 139.19309556830336 132.2461088593734 H 0.0 **** 0.06
6283 H 35.39203812263207 140.89289910750628 132.55003922527828 H 0.0 **** 0.06
6284 H 34.16287179005815 139.61591597824562 132.7201134768084 H 0.0 **** 0.06
6285 H 34.76902196473321 140.0592638695492 131.10538418641303 H 0.0 **** 0.06
6286 C 81.93984467693787 18.10748350098197 27.66250504134021 C 0.0 **** -0.24
6287 H 81.72216344686632 18.90155428724961 26.947704383545528 H 0.0 **** 0.06
6288 H 81.5060608798762 17.17161807848288 27.309658010583462 H 0.0 **** 0.06
6289 H 81.51256717528503 18.364970001717438 28.63152522355506 H 0.0 **** 0.06
6290 H 83.01983327624384 17.993519591172856 27.759923539638777 H 0.0 **** 0.06
6291 C 118.09538558178279 69.0473867889919 92.35648537717799 C 0.0 **** -0.24
6292 H 117.22319780413493 68.99504110581537 91.70493884114484 H 0.0 **** 0.06
6293 H 117.7792487993354 69.31956752372932 93.36434832852689 H 0.0 **** 0.06
6294 H 118.78637905353615 69.79943554915673 91.97677478202746 H 0.0 **** 0.06
6295 H 118.59108747277723 68.0772920357876 92.38026061503024 H 0.0 **** 0.06
6296 C 0.9788372278506188 115.34894396517919 99.3923430009968 C 0.0 **** -0.24
6297 H 1.9086495567901522 114.88898376005781 99.72647338531176 H 0.0 **** 0.06
6298 H 1.191160625944434 116.05256238537643 98.58771429269433 H 0.0 **** 0.06
6299 H 0.516018092711704 115.87797262034618 100.22541479447318 H 0.0 **** 0.06
6300 H 0.29981542008502515 114.57584438358131 99.03108970000353 H 0.0 **** 0.06
6301 C 8.07216002181297 24.096677148049025 36.59603222629059 C 0.0 **** -0.24
6302 H 8.565326689331322 24.232452137859127 35.63442720909245 H 0.0 **** 0.06
6303 H 7.595991495594326 23.116620529040688 36.62537574497898 H 0.0 **** 0.06
6304 H 7.317534144466926 24.872621296490593 36.73090256160208 H 0.0 **** 0.06
6305 H 8.810424795168913 24.16572671195547 37.39567890288001 H 0.0 **** 0.06
6306 C 32.77350301007152 11.421378639990223 145.64672585099262 C 0.0 **** -0.24
6307 H 31.8369372603494 11.249976312488968 145.11469072347504 H 0.0 **** 0.06
6308 H 32.58616307751376 11.416817223841292 146.7203926608599 H 0.0 **** 0.06
6309 H 33.18636570922166 12.385573097617481 145.3528434521757 H 0.0 **** 0.06
6310 H 33.48254289540594 10.63130006131604 145.397722245058 H 0.0 **** 0.06
6311 C 81.62437796403877 104.45857266850703 146.92193701860046 C 0.0 **** -0.24
6312 H 81.80698138492211 103.38399197194047 146.91246057651716 H 0.0 **** 0.06
6313 H 82.51375073822486 104.9735416741583 147.28432969733132 H 0.0 **** 0.06
6314 H 80.78323897407573 104.67765038636372 147.57945403521165 H 0.0 **** 0.06
6315 H 81.39379603418276 104.79596585380614 145.9117695712922 H 0.0 **** 0.06
6316 C 80.79949888477066 120.48663821662115 39.5816018713182 C 0.0 **** -0.24
6317 H 81.34432321677971 120.39187821547927 38.64222363103124 H 0.0 **** 0.06
6318 H 80.02172988196821 121.24363985597512 39.47635732391352 H 0.0 **** 0.06
6319 H 81.48946642199462 120.78242859017877 40.373129134220534 H 0.0 **** 0.06
6320 H 80.34428411622434 119.52946858521449 39.83569100828164 H 0.0 **** 0.06
6321 C 117.91681131292401 19.540736887583563 129.19812076876892 C 0.0 **** -0.24
6322 H 118.25014164535466 18.53917152709556 128.9264238782002 H 0.0 **** 0.06
6323 H 117.15881824726031 19.471622496930763 129.97881419328954 H 0.0 **** 0.06
6324 H 117.4927573260841 20.03182243680274 128.32176598013135 H 0.0 **** 0.06
6325 H 118.76573811469947 20.118601593594263 129.56407727719514 H 0.0 **** 0.06
6326 C 47.604615385766124 67.3958701432901 107.28452835195755 C 0.0 **** -0.24
6327 H 47.58406583161272 66.50530211497637 107.913109934926 H 0.0 **** 0.06
6328 H 46.5834181449294 67.69570580649119 107.04595695565443 H 0.0 **** 0.06
6329 H 48.1438232547122 67.17667825519149 106.36265076033477 H 0.0 **** 0.06
6330 H 48.106639983635546 68.20387853908495 107.81536370076715 H 0.0 **** 0.06
6331 C 134.65085225774456 32.91319090402607 114.47995704665914 C 0.0 **** -0.24
6332 H 135.65027016034702 32.72508324182911 114.87100923235408 H 0.0 **** 0.06
6333 H 133.92445587393058 32.3276799779577 115.04302250583606 H 0.0 **** 0.06
6334 H 134.61249155713816 32.62666989323873 113.42901573119002 H 0.0 **** 0.06
6335 H 134.41707562694478 33.97342462677938 114.57632312573298 H 0.0 **** 0.06
6336 C 43.493117025752525 4.337907025057287 119.10953166819525 C 0.0 **** -0.24
6337 H 43.87375292005444 4.385101128337894 118.08874052710922 H 0.0 **** 0.06
6338 H 43.766956645710906 3.381044288691463 119.5538716806791 H 0.0 **** 0.06
6339 H 42.40711671976189 4.435664992992461 119.09687324059456 H 0.0 **** 0.06
6340 H 43.92452646632219 5.148737538874215 119.69506065466447 H 0.0 **** 0.06
6341 C 144.73675874640327 73.20509627284926 75.67278169044991 C 0.0 **** -0.24
6342 H 144.93886110549238 72.14677834450998 75.50756884154205 H 0.0 **** 0.06
6343 H 144.24194952921903 73.62113860486235 74.7943893228696 H 0.0 **** 0.06
6344 H 145.67526285404864 73.73141881582481 75.84453463852999 H 0.0 **** 0.06
6345 H 144.0901143639084 73.3197511213337 76.54273731721993 H 0.0 **** 0.06
6346 C 81.12607770414388 68.05676361800306 34.684028548177125 C 0.0 **** -0.24
6347 H 80.13877150042288 68.50781462217557 34.58035132235493 H 0.0 **** 0.06
6348 H 81.59872327882806 67.98897975800381 33.70405048636062 H 0.0 **** 0.06
6349 H 81.02627760109078 67.05883383381936 35.11039523429141 H 0.0 **** 0.06
6350 H 81.73878436471432 68.67358701372231 35.34182178885448 H 0.0 **** 0.06
6351 C 145.0977703247252 112.14267553823744 124.42710734713104 C 0.0 **** -0.24
6352 H 145.14029159292343 113.16841203224023 124.79341469229395 H 0.0 **** 0.06
6353 H 144.06413652162823 111.8809887880732 124.19858223652405 H 0.0 **** 0.06
6354 H 145.48440333977837 111.46807073584493 125.19119292281627 H 0.0 **** 0.06
6355 H 145.7028638337944 112.05509141836926 123.52483890402799 H 0.0 **** 0.06
6356 C 77.53044731984647 7.935038418277145 77.58808825929566 C 0.0 **** -0.24
6357 H 77.20714176444477 7.472224978509615 78.52070111341811 H 0.0 **** 0.06
6358 H 78.61871271359257 7.915383156143889 77.53111825240948 H 0.0 **** 0.06
6359 H 77.18231857562085 8.96799054538181 77.5556875549495 H 0.0 **** 0.06
6360 H 77.11151588510367 7.3836270121363725 76.74569913472159 H 0.0 **** 0.06
6361 C 46.03468632458407 83.11285289831658 5.371013530112634 C 0.0 **** -0.24
6362 H 46.120736424706124 84.19686059870679 5.291438437698673 H 0.0 **** 0.06
6363 H 45.02407580618288 82.80924487930066 5.097647402676415 H 0.0 **** 0.06
6364 H 46.241709747573196 82.8067033742281 6.396151195324904 H 0.0 **** 0.06
6365 H 46.7509977369253 82.64134103746233 4.698814170457695 H 0.0 **** 0.06
6366 C 39.413142491242695 65.9201420958328 24.52145363468489 C 0.0 **** -0.24
6367 H 39.096537567549035 65.08676431621538 23.893267094699553 H 0.0 **** 0.06
6368 H 39.19567506241853 66.85954940787718 24.01315322664044 H 0.0 **** 0.06
6369 H 40.4840465314976 65.84677332223967 24.71026845082119 H 0.0 **** 0.06
6370 H 38.873784318950726 65.88588669176667 25.46885316470312 H 0.0 **** 0.06
6371 C 53.05406744834261 34.20144341096501 13.54793505204674 C 0.0 **** -0.24
6372 H 52.64482258966217 34.928993888967334 14.24824955293036 H 0.0 **** 0.06
6373 H 53.793951493113866 33.58313521784199 14.056851631901509 H 0.0 **** 0.06
6374 H 53.526886332045194 34.724311324373296 12.715896607297964 H 0.0 **** 0.06
6375 H 52.25061294688379 33.56948645355095 13.169754215115006 H 0.0 **** 0.06
6376 C 107.034413615519 48.73882565716282 59.51341393636832 C 0.0 **** -0.24
6377 H 106.81483856488028 47.835211695046226 60.08289977711593 H 0.0 **** 0.06
6378 H 106.18802043165739 48.97365512932767 58.86801237160395 H 0.0 **** 0.06
6379 H 107.92286793264661 48.57722153941775 58.90458436465934 H 0.0 **** 0.06
6380 H 107.20939679669662 49.56760794871599 60.1998957694435 H 0.0 **** 0.06
6381 C 18.51704129359132 134.2231167297202 124.22964970611872 C 0.0 **** -0.24
6382 H 19.049702786128847 133.4189250068772 124.73719269852563 H 0.0 **** 0.06
6383 H 19.130140719972424 135.12459704885697 124.23520209847561 H 0.0 **** 0.06
6384 H 17.577914863092452 134.42030643577306 124.74686364658072 H 0.0 **** 0.06
6385 H 18.310831130151406 133.92949267441423 123.20038454730985 H 0.0 **** 0.06
6386 C 84.15938196204792 133.55984114783757 61.32078757471723 C 0.0 **** -0.24
6387 H 84.77062850258957 134.23697038876622 60.72490326666647 H 0.0 **** 0.06
6388 H 84.13491564156624 132.5789757720977 60.845007128852956 H 0.0 **** 0.06
6389 H 83.14571878787629 133.95437139504074 61.39285245178141 H 0.0 **** 0.06
6390 H 84.58560220164398 133.46978657452706 62.32026943454221 H 0.0 **** 0.06
6391 C 120.62922529854256 76.2256225827289 84.23093822516631 C 0.0 **** -0.24
6392 H 119.72898934169189 76.77747922164548 83.9618918937167 H 0.0 **** 0.06
6393 H 120.86113309794695 76.39944408251085 85.28291799491505 H 0.0 **** 0.06
6394 H 121.4617107138709 76.56510116495485 83.61450427473488 H 0.0 **** 0.06
6395 H 120.46587398985486 75.16075505510636 84.06594436770888 H 0.0 **** 0.06
6396 C 123.17610771453892 80.95693668041423 101.71836601690298 C 0.0 **** -0.24
6397 H 124.11977194235672 80.95332388766258 101.17328782150308 H 0.0 **** 0.06
6398 H 123.1589787679313 80.12360359154542 102.42043441019423 H 0.0 **** 0.06
6399 H 122.34987742143792 80.8558730702502 101.01456907406859 H 0.0 **** 0.06
6400 H 123.07513538995633 81.89488309871439 102.2644306564845 H 0.0 **** 0.06
6401 C 31.98537683579304 67.61078497686152 79.5387182186193 C 0.0 **** -0.24
6402 H 32.47030761560366 66.77145117903126 79.03978093228936 H 0.0 **** 0.06
6403 H 31.365067972614725 68.14982929259428 78.82221235912492 H 0.0 **** 0.06
6404 H 32.74397083583762 68.28207577575932 79.94187117886662 H 0.0 **** 0.06
6405 H 31.361847268031212 67.2381485309968 80.35148598742562 H 0.0 **** 0.06
6406 C 16.22612518160436 143.0801941681998 47.56399598970056 C 0.0 **** -0.24
6407 H 17.2145939446742 143.07441203898284 48.02357684549892 H 0.0 **** 0.06
6408 H 15.601464415468456 143.82495740286075 48.05792327396725 H 0.0 **** 0.06
6409 H 15.771232421378649 142.0960844421767 47.66849021078073 H 0.0 **** 0.06
6410 H 16.31882910680926 143.32798370805287 46.50653969569697 H 0.0 **** 0.06
6411 C 21.094007388295182 119.17436129241838 103.38828735342504 C 0.0 **** -0.24
6412 H 21.35760094518369 118.16988570870484 103.7202538312308 H 0.0 **** 0.06
6413 H 21.997302009788342 119.70788906204189 103.09218359515062 H 0.0 **** 0.06
6414 H 20.606619797673915 119.70969570215641 104.20390916302087 H 0.0 **** 0.06
6415 H 20.413728682590943 119.10913704469226 102.53957648629361 H 0.0 **** 0.06
6416 C 50.94818481852562 54.02750527835792 115.73695809974271 C 0.0 **** -0.24
6417 H 50.17291665345172 53.825315192063385 114.99773422645455 H 0.0 **** 0.06
6418 H 50.50544324267841 54.52414049995019 116.60061014436673 H 0.0 **** 0.06
6419 H 51.710092541449086 54.6715023138276 115.29808008196409 H 0.0 **** 0.06
6420 H 51.40374036119576 53.08784168994282 116.05095015054582 H 0.0 **** 0.06
6421 C 113.55852246593241 31.635095600679648 40.19895964521649 C 0.0 **** -0.24
6422 H 113.09968947789918 32.56521923207501 40.53465565673045 H 0.0 **** 0.06
6423 H 112.91208142252373 31.155340213748673 39.464157477610314 H 0.0 **** 0.06
6424 H 113.69539452396265 30.969140261638188 41.051551603850754 H 0.0 **** 0.06
6425 H 114.52694070037705 31.849952119530656 39.74733560020181 H 0.0 **** 0.06
6426 C 60.49955467750446 32.04339656151277 106.91404625662716 C 0.0 **** -0.24
6427 H 60.386061971357094 32.52535668589859 107.88480797168563 H 0.0 **** 0.06
6428 H 59.71797433323674 31.292808783343162 106.78727592259719 H 0.0 **** 0.06
6429 H 61.476516976408675 31.563563167881412 106.85981483111476 H 0.0 **** 0.06
6430 H 60.416936554353484 32.79109456886532 106.12522788742723 H 0.0 **** 0.06
6431 C 108.83605574088976 60.408717558320404 2.027558115114175 C 0.0 **** -0.24
6432 H 108.95177029284999 59.85098813597699 2.9560663067140354 H 0.0 **** 0.06
6433 H 108.10455580705097 59.907849845589226 1.3922810752704322 H 0.0 **** 0.06
6434 H 109.79435099419139 60.45698436558064 1.5109257632767026 H 0.0 **** 0.06
6435 H 108.4915275184144 61.418776478541986 2.249598133153512 H 0.0 **** 0.06
6436 C 123.33246226368126 78.57082264564386 87.82122228535633 C 0.0 **** -0.24
6437 H 123.00682185894195 79.32619880424298 87.1073290140935 H 0.0 **** 0.06
6438 H 123.86314499855038 77.77756701923585 87.29416360690672 H 0.0 **** 0.06
6439 H 122.46320611206195 78.15135676820142 88.32844080906969 H 0.0 **** 0.06
6440 H 123.9962791114788 79.02648654491955 88.55507924726405 H 0.0 **** 0.06
6441 C 129.92264697510853 107.70601739918091 132.91799721599205 C 0.0 **** -0.24
6442 H 129.81415040744596 106.64550867700173 133.14611833041448 H 0.0 **** 0.06
6443 H 130.52205151922382 107.82220497326578 132.01392410050224 H 0.0 **** 0.06
6444 H 130.41699640185874 108.20798507700714 133.74997113034124 H 0.0 **** 0.06
6445 H 128.93793816295167 108.14559506300382 132.76056310143144 H 0.0 **** 0.06
6446 C 18.096206413271773 136.91821742582815 81.49328449762055 C 0.0 **** -0.24
6447 H 17.748675192687102 137.38403196561083 82.4151192595867 H 0.0 **** 0.06
6448 H 18.446328005431297 135.90780607829606 81.70623587954685 H 0.0 **** 0.06
6449 H 18.914677278828833 137.50611187954306 81.07543510993912 H 0.0 **** 0.06
6450 H 17.27752830801589 136.8754527057597 80.77615566836585 H 0.0 **** 0.06
6451 C 117.36548490342383 47.75102637119575 30.45785555953151 C 0.0 **** -0.24
6452 H 116.86019257552388 47.68074523306716 31.420849168490065 H 0.0 **** 0.06
6453 H 116.7807851065651 47.22725476730615 29.702010392442304 H 0.0 **** 0.06
6454 H 118.35384342878965 47.29831130531571 30.532340126180486 H 0.0 **** 0.06
6455 H 117.4664977957585 48.80014916967029 30.176485156681764 H 0.0 **** 0.06
6456 C 0.24644724404686258 69.16732858460813 106.44824494135337 C 0.0 **** -0.24
6457 H 1.0816325905387885 68.56119860774997 106.0980487788995 H 0.0 **** 0.06
6458 H 0.06987277076092369 69.98231816440678 105.74607976448361 H 0.0 **** 0.06
6459 H 0.4827220357322517 69.57663819449267 107.4307282079783 H 0.0 **** 0.06
6460 H -0.6474662558442787 68.5470623194391 106.51893386933044 H 0.0 **** 0.06
6461 C 119.02012644210338 14.915154256412052 120.60928223345424 C 0.0 **** -0.24
6462 H 119.21073768617374 15.843007036646782 121.14866526830274 H 0.0 **** 0.06
6463 H 118.72622460880443 14.138780170311492 121.31542489781437 H 0.0 **** 0.06
6464 H 119.92437887308195 14.606161657860355 120.08594624240267 H 0.0 **** 0.06
6465 H 118.21848232815644 15.073227954318128 119.88756281510139 H 0.0 **** 0.06
6466 C 100.3332175910231 146.1399395940217 30.020605691515073 C 0.0 **** -0.24
6467 H 100.37665339456683 145.13457778240408 29.602082775353892 H 0.0 **** 0.06
6468 H 99.47575568421982 146.669619814534 29.603877391632068 H 0.0 **** 0.06
6469 H 101.24811425724201 146.67618389924291 29.771922041040682 H 0.0 **** 0.06
6470 H 100.23059634598494 146.07775266340465 31.10399534924798 H 0.0 **** 0.06
6471 C 57.94106688884676 118.98940757398161 107.10200794157471 C 0.0 **** -0.24
6472 H 57.97545508689669 119.2683321516855 108.1555937469207 H 0.0 **** 0.06
6473 H 58.613581208406146 119.63291256678433 106.53390290281091 H 0.0 **** 0.06
6474 H 56.92406255943635 119.10675371336127 106.72903002335322 H 0.0 **** 0.06
6475 H 58.25172995552305 117.95043042374392 106.99175176075848 H 0.0 **** 0.06
6476 C 32.76862138155326 52.81248085579651 76.61793560575867 C 0.0 **** -0.24
6477 H 33.12245251586344 52.194768269790956 75.79235933313231 H 0.0 **** 0.06
6478 H 33.537599210356035 52.864214134404534 77.38879049139285 H 0.0 **** 0.06
6479 H 31.862488523428937 52.37337545661646 77.03609849178343 H 0.0 **** 0.06
6480 H 32.55089852477778 53.81700868904616 76.25323144580733 H 0.0 **** 0.06
6481 C 45.8696020651535 125.60245708486232 134.19422977861154 C 0.0 **** -0.24
6482 H 45.29209410048013 124.74376997408453 134.53754814843094 H 0.0 **** 0.06
6483 H 45.364361867833466 126.52137651400423 134.49110163459304 H 0.0 **** 0.06
6484 H 45.95868802425181 125.56960343668342 133.1088359438539 H 0.0 **** 0.06
6485 H 46.86386486056709 125.57319514634506 134.64169013709386 H 0.0 **** 0.06
6486 C 35.626694657697215 109.10640287471648 124.60896932567523 C 0.0 **** -0.24
6487 H 34.62671041043342 109.36544469270098 124.95672401200734 H 0.0 **** 0.06
6488 H 36.186764376195356 108.64667830807082 125.42484420036322 H 0.0 **** 0.06
6489 H 36.14150233985117 110.00725376041385 124.27646191239687 H 0.0 **** 0.06
6490 H 35.55169161326978 108.40282586919204 123.77938602555359 H 0.0 **** 0.06
6491 C 0.8647324903079721 123.73079888929605 100.65458851942962 C 0.0 **** -0.24
6492 H 0.5880988141879584 122.75191551866648 100.26329242892032 H 0.0 **** 0.06
6493 H 1.9421845593570595 123.87000017479268 100.55484082491441 H 0.0 **** 0.06
6494 H 0.5863655116539519 123.79395616269538 101.70666288766914 H 0.0 **** 0.06
6495 H 0.3442206447297451 124.50649724858972 100.09281279687347 H 0.0 **** 0.06
6496 C 38.12229558980539 51.042983303953235 10.885702877630337 C 0.0 **** -0.24
6497 H 37.902726480959586 50.70161981244004 9.874903294866726 H 0.0 **** 0.06
6498 H 38.994118504440735 51.696960144489466 10.867686756227926 H 0.0 **** 0.06
6499 H 38.32678165740862 50.18307228066675 11.523310870843858 H 0.0 **** 0.06
6500 H 37.26543769812105 51.5898158899861 11.278240941100762 H 0.0 **** 0.06
6501 C 31.81161329349581 60.76527067035195 118.81674420132424 C 0.0 **** -0.24
6502 H 31.20063175142554 61.39596395471662 119.46201390923972 H 0.0 **** 0.06
6503 H 32.04744175230957 59.83542289031746 119.33472928190344 H 0.0 **** 0.06
6504 H 32.73638597227213 61.28735375764947 118.56975179039773 H 0.0 **** 0.06
6505 H 31.263802381250535 60.54392702847332 117.90094746171644 H 0.0 **** 0.06
6506 C 56.846104066561566 8.097674097675338 81.00293741960985 C 0.0 **** -0.24
6507 H 55.98645666349097 8.418230682900742 81.59206077501918 H 0.0 **** 0.06
6508 H 56.534387797976336 7.3254511927297585 80.29841538269298 H 0.0 **** 0.06
6509 H 57.61228548118109 7.6977459103310935 81.66590039728791 H 0.0 **** 0.06
6510 H 57.24766352124112 8.949550750097387 80.45448081772369 H 0.0 **** 0.06
6511 C 74.73642905374783 112.14708262181979 50.91402055211455 C 0.0 **** -0.24
6512 H 74.76107869193947 111.1352158504816 51.320132068686746 H 0.0 **** 0.06
6513 H 75.42941032589917 112.21851118883167 50.07597975183313 H 0.0 **** 0.06
6514 H 75.02684190470401 112.85621930049906 51.688652077499285 H 0.0 **** 0.06
6515 H 73.72708445979796 112.37535346075985 50.5716692735499 H 0.0 **** 0.06
6516 C 134.03276310357413 24.373479469414946 55.60725889459138 C 0.0 **** -0.24
6517 H 134.30818163500516 24.18690739138063 56.64487440476216 H 0.0 **** 0.06
6518 H 132.94706411151492 24.449422995997097 55.52859595488644 H 0.0 **** 0.06
6519 H 134.38562629889742 23.55273184850951 54.98415510752824 H 0.0 **** 0.06
6520 H 134.48756469224134 25.30589511871213 55.272448404416195 H 0.0 **** 0.06
6521 C 49.358988533465435 87.4111323711946 54.49277532084194 C 0.0 **** -0.24
6522 H 48.945816308697204 86.41477457004406 54.33896930132521 H 0.0 **** 0.06
6523 H 50.05837439148797 87.64120748721857 53.68890881908524 H 0.0 **** 0.06
6524 H 49.88138328689416 87.44368623863178 55.448987357021906 H 0.0 **** 0.06
6525 H 48.55204464784515 88.14309530497025 54.49390217467433 H 0.0 **** 0.06
6526 C 37.93965846279464 117.50035969490735 77.07013188021654 C 0.0 **** -0.24
6527 H 36.85168711324215 117.56165848276858 77.11257391721867 H 0.0 **** 0.06
6528 H 38.23552591770281 116.89975244670246 76.20953098814701 H 0.0 **** 0.06
6529 H 38.31224132764396 117.03615827030275 77.98323621618923 H 0.0 **** 0.06
6530 H 38.35579624459117 118.5033355001322 76.97466791012383 H 0.0 **** 0.06
6531 C 15.289069098471288 121.91270388704525 7.7469007962191085 C 0.0 **** -0.24
6532 H 14.957439865189059 122.8914468939105 8.093999733827388 H 0.0 **** 0.06
6533 H 15.266985774919817 121.20643454279393 8.577799997243346 H 0.0 **** 0.06
6534 H 16.306354525279858 121.99017726446745 7.36259136772054 H 0.0 **** 0.06
6535 H 14.626167182749839 121.56499653219551 6.955564538691306 H 0.0 **** 0.06
6536 C 53.312517040404 54.83231766579533 121.06451774930822 C 0.0 **** -0.24
6537 H 53.19006444539093 54.23754706086797 120.15791427071797 H 0.0 **** 0.06
6538 H 53.60596525660338 54.18185118952164 121.88829501367145 H 0.0 **** 0.06
6539 H 52.369880550154875 55.32386593019602 121.30573600002991 H 0.0 **** 0.06
6540 H 54.08382461414888 55.58471969015447 120.9026280576203 H 0.0 **** 0.06
6541 C 147.85836505142183 17.425314686944887 119.8345761616459 C 0.0 **** -0.24
6542 H 148.36032621139148 18.258675012328922 119.34235764437302 H 0.0 **** 0.06
6543 H 148.25748420557727 16.485480147989733 119.45337750429827 H 0.0 **** 0.06
6544 H 146.78813849248763 17.475125252742174 119.63114915821517 H 0.0 **** 0.06
6545 H 148.02795143175405 17.48330595946146 120.90967566887797 H 0.0 **** 0.06
6546 C 77.11853852614303 84.15241446036993 7.264367612713642 C 0.0 **** -0.24
6547 H 76.04888307461616 84.00818947171072 7.111126417372333 H 0.0 **** 0.06
6548 H 77.66844843757733 83.36736369996342 6.745311857143491 H 0.0 **** 0.06
6549 H 77.34119809230515 84.10907138548976 8.330853715039638 H 0.0 **** 0.06
6550 H 77.41344306466306 85.12544714817713 6.870443488199413 H 0.0 **** 0.06
6551 C 49.04487114468792 64.78714216024532 126.36491769877838 C 0.0 **** -0.24
6552 H 49.7347302133208 64.8707723502594 125.52597020918611 H 0.0 **** 0.06
6553 H 49.04397236820864 65.7197748656806 126.93015300934442 H 0.0 **** 0.06
6554 H 49.36019070879415 63.969998686282466 127.01359912529338 H 0.0 **** 0.06
6555 H 48.0399773397734 64.58784710005592 125.99209144011351 H 0.0 **** 0.06
6556 C 73.98627648637898 56.752531978335085 116.78720373883415 C 0.0 **** -0.24
6557 H 73.05094369509351 56.63774679112301 117.33647095353525 H 0.0 **** 0.06
6558 H 73.92113488726005 57.626278974357774 116.137976288785 H 0.0 **** 0.06
6559 H 74.16470425640995 55.86255583691897 116.1837010606787 H 0.0 **** 0.06
6560 H 74.80705189958996 56.88432440905417 117.49307058421725 H 0.0 **** 0.06
6561 C 9.2755600482826 124.5126191732485 147.16314253911682 C 0.0 **** -0.24
6562 H 10.182316938311367 124.04710141653543 146.77559940482496 H 0.0 **** 0.06
6563 H 9.252722914323186 125.56168285055529 146.87025637744722 H 0.0 **** 0.06
6564 H 9.267720097098668 124.43881309152862 148.2505351429635 H 0.0 **** 0.06
6565 H 8.402996325239023 124.0012400212156 146.75757581386767 H 0.0 **** 0.06
6566 C 47.008968533937974 147.52088251560698 150.17404109516642 C 0.0 **** -0.24
6567 H 46.12201824014252 148.1491163926613 150.26307422972272 H 0.0 **** 0.06
6568 H 46.91075325614099 146.65875229926203 150.83342316818263 H 0.0 **** 0.06
6569 H 47.890619534777784 148.09552033534584 150.45715124449418 H 0.0 **** 0.06
6570 H 47.111220060512125 147.18102911186793 149.1433006898341 H 0.0 **** 0.06
6571 C 21.89965930949188 105.60186093545902 92.86733718398929 C 0.0 **** -0.24
6572 H 21.44043214964887 105.00410959410259 92.07938270013958 H 0.0 **** 0.06
6573 H 22.427182033799255 106.44568752315637 92.4220541648261 H 0.0 **** 0.06
6574 H 22.602814180148584 104.98626934032926 93.42709842657064 H 0.0 **** 0.06
6575 H 21.12478818951851 105.97123546515583 93.53851574454988 H 0.0 **** 0.06
6576 C 117.96469926432668 85.14555543461137 56.24712899697053 C 0.0 **** -0.24
6577 H 118.54296083858507 84.81805757351896 57.110660211255066 H 0.0 **** 0.06
6578 H 117.93159178174484 86.23468013824483 56.22540928913793 H 0.0 **** 0.06
6579 H 116.95094493342943 84.7519455010833 56.31950891016399 H 0.0 **** 0.06
6580 H 118.43380712228974 84.77663687598893 55.33515784100254 H 0.0 **** 0.06
6581 C 1.8764874761198271 127.35297152634419 149.54722045911288 C 0.0 **** -0.24
6582 H 2.419532095437525 128.27940565156607 149.73451659474 H 0.0 **** 0.06
6583 H 1.449295359808744 126.98709832066444 150.48121895966693 H 0.0 **** 0.06
6584 H 2.5596286969358992 126.6073939481985 149.14120493481195 H 0.0 **** 0.06
6585 H 1.0760663066722351 127.53983340326354 148.83005510818072 H 0.0 **** 0.06
6586 C 65.82463197405849 109.2822068789908 107.18928433519154 C 0.0 **** -0.24
6587 H 65.32832843977366 108.40066091138301 106.78417574178717 H 0.0 **** 0.06
6588 H 65.76920618411594 109.26160009642238 108.27863501431516 H 0.0 **** 0.06
6589 H 65.33210753682255 110.1805178182491 106.81713165609598 H 0.0 **** 0.06
6590 H 66.86981610900256 109.28592150346746 106.87825242655676 H 0.0 **** 0.06
6591 C 22.372837201934715 5.5673327554833065 142.50307682900328 C 0.0 **** -0.24
6592 H 22.20131076723726 4.545534730552873 142.16325188286115 H 0.0 **** 0.06
6593 H 22.700188030647396 6.1793031810593675 141.66207614659075 H 0.0 **** 0.06
6594 H 23.142905761613633 5.569069521123964 143.27412602303292 H 0.0 **** 0.06
6595 H 21.44835311252166 5.975197916960553 142.9111315328633 H 0.0 **** 0.06
6596 C 75.34684443983805 111.36453347961708 141.23025064418906 C 0.0 **** -0.24
6597 H 75.93231238933066 111.26716045130246 140.31617830271082 H 0.0 **** 0.06
6598 H 75.89525187973378 111.97254875107376 141.94976172417648 H 0.0 **** 0.06
6599 H 75.16687218216441 110.37486353309328 141.65171466057214 H 0.0 **** 0.06
6600 H 74.39316487645623 111.84098981742221 141.00181869811306 H 0.0 **** 0.06
6601 C 10.147077493240744 134.9832086488844 27.314501284970326 C 0.0 **** -0.24
6602 H 10.138356536129237 135.1885051272964 28.3847768430754 H 0.0 **** 0.06
6603 H 10.733152107480265 134.08426671067906 27.12238560081078 H 0.0 **** 0.06
6604 H 10.591553403368664 135.82739836066867 26.78660602235248 H 0.0 **** 0.06
6605 H 9.126180565842589 134.83289256017164 26.965275036592153 H 0.0 **** 0.06
6606 C 39.602481427731846 63.01945950678984 115.14649483544632 C 0.0 **** -0.24
6607 H 39.49782851312102 63.931148815497366 114.5586480521976 H 0.0 **** 0.06
6608 H 40.17022036660282 62.28287319357803 114.5780816233313 H 0.0 **** 0.06
6609 H 38.614030266879666 62.619849520244884 115.37378464005313 H 0.0 **** 0.06
6610 H 40.1257459735715 63.24463921084647 116.07583266556874 H 0.0 **** 0.06
6611 C 101.42544359539971 9.782704014383796 136.54418454947893 C 0.0 **** -0.24
6612 H 100.78939682994007 9.609279442757213 135.6758637951121 H 0.0 **** 0.06
6613 H 101.23624089024567 10.781227314928003 136.9391719747291 H 0.0 **** 0.06
6614 H 102.47135028216272 9.70023563148203 136.25055108809806 H 0.0 **** 0.06
6615 H 101.20360317704822 9.040806317593365 137.3108996837371 H 0.0 **** 0.06
6616 C 37.288579250735154 55.467994094444805 80.17168903496983 C 0.0 **** -0.24
6617 H 38.10043247520571 55.83621415326182 79.54453689189485 H 0.0 **** 0.06
6618 H 37.70015195476509 55.049568513376954 81.09017497693398 H 0.0 **** 0.06
6619 H 36.736704229852364 54.69617706474449 79.63516604525911 H 0.0 **** 0.06
6620 H 36.61750651815868 56.29165259087499 80.41656977143003 H 0.0 **** 0.06
6621 C 118.15728354667891 17.4295893609939 42.55426101064745 C 0.0 **** -0.24
6622 H 117.65494913288637 18.395195586166523 42.6243773070091 H 0.0 **** 0.06
6623 H 117.44899355210464 16.676362672899387 42.21002518678536 H 0.0 **** 0.06
6624 H 118.53947759074902 17.148420859629283 43.53575654469273 H 0.0 **** 0.06
6625 H 118.98466179541055 17.50134631312457 41.848906046754934 H 0.0 **** 0.06
6626 C 112.313874983735 89.95688872343376 107.12061335312924 C 0.0 **** -0.24
6627 H 112.3287502773312 89.54785651849448 108.13108100817598 H 0.0 **** 0.06
6628 H 111.56320986232727 89.43307167727674 106.5277886690611 H 0.0 **** 0.06
6629 H 113.29410761336617 89.828359142761 106.66212714453653 H 0.0 **** 0.06
6630 H 112.06880453639674 91.01787754218786 107.16213037672705 H 0.0 **** 0.06
6631 C 60.642754745000786 92.45264176329381 76.6131269422135 C 0.0 **** -0.24
6632 H 60.78083791517432 91.47313868249525 76.15711468833878 H 0.0 **** 0.06
6633 H 60.31535850129811 93.16436689378442 75.85429127111365 H 0.0 **** 0.06
6634 H 61.585556259910504 92.78820583821765 77.04485316347325 H 0.0 **** 0.06
6635 H 59.88832669326834 92.38485581562423 77.39659094544051 H 0.0 **** 0.06
6636 C 87.91624639047659 123.08015707467577 18.370332132052177 C 0.0 **** -0.24
6637 H 87.77759688893207 123.96912288812025 17.756207936031103 H 0.0 **** 0.06
6638 H 88.80963375645764 123.19877935198598 18.984442300300074 H 0.0 **** 0.06
6639 H 88.02948746949673 122.20778036055499 17.727650432820255 H 0.0 **** 0.06
6640 H 87.04746829754106 122.94522672763786 19.01483963412022 H 0.0 **** 0.06
6641 C 91.60513231798143 71.76053738771645 136.26582409189012 C 0.0 **** -0.24
6642 H 91.70417809954984 71.52326317023268 135.20604184799686 H 0.0 **** 0.06
6643 H 90.56402463648564 71.99277664364571 136.4903596411137 H 0.0 **** 0.06
6644 H 92.2308328908415 72.62034189307181 136.50559793329597 H 0.0 **** 0.06
6645 H 91.92306919546184 70.90358161054534 136.85997847863848 H 0.0 **** 0.06
6646 C 28.771442924995767 113.12794157638906 84.72172271532551 C 0.0 **** -0.24
6647 H 28.748503453737214 112.92969476895324 83.65047977294641 H 0.0 **** 0.06
6648 H 29.616933169133574 112.60641726359079 85.16992256816611 H 0.0 **** 0.06
6649 H 27.844704740115276 112.77469181238 85.17617238214608 H 0.0 **** 0.06
6650 H 28.8729938214791 114.19953208503658 84.89037218254104 H 0.0 **** 0.06
6651 C 74.27223934336988 47.53722334380336 110.12401596789243 C 0.0 **** -0.24
6652 H 75.05342020339833 47.40799549432482 110.87295995890901 H 0.0 **** 0.06
6653 H 74.13123864386512 46.60179862185716 109.5810896990888 H 0.0 **** 0.06
6654 H 74.56484783809891 48.32193823496593 109.42610314676688 H 0.0 **** 0.06
6655 H 73.3397784488246 47.816855417981 110.61501707886316 H 0.0 **** 0.06
6656 C 71.52662338268185 124.60385946658565 98.46223243958129 C 0.0 **** -0.24
6657 H 70.50264479807768 124.92278192759196 98.26749978155775 H 0.0 **** 0.06
6658 H 72.1192881596089 125.46164817584244 98.78089761556133 H 0.0 **** 0.06
6659 H 71.9547733308879 124.18352535181751 97.55276044880625 H 0.0 **** 0.06
6660 H 71.5275656652903 123.84773669058174 99.24776090380833 H 0.0 **** 0.06
6661 C 14.69761016332285 97.84193193240232 135.0731965779201 C 0.0 **** -0.24
6662 H 14.805182097991064 97.05805739356832 134.32378584055397 H 0.0 **** 0.06
6663 H 15.644057233692024 98.37188283427004 135.18126357149487 H 0.0 **** 0.06
6664 H 14.419651702062822 97.39577724058482 136.0286182684061 H 0.0 **** 0.06
6665 H 13.922477812677442 98.54105956157221 134.75960309067187 H 0.0 **** 0.06
6666 C 98.6412833207302 54.642647843007296 74.66720817510954 C 0.0 **** -0.24
6667 H 98.29143324131613 53.690924083390115 75.06522857129141 H 0.0 **** 0.06
6668 H 97.84660698540335 55.105677761269504 74.08240026355087 H 0.0 **** 0.06
6669 H 99.51029716123074 54.47266729235275 74.0311869023725 H 0.0 **** 0.06
6670 H 98.91711484689966 55.300586051218716 75.49155202442196 H 0.0 **** 0.06
6671 C 84.4219676077127 145.54318854855666 120.78093077086494 C 0.0 **** -0.24
6672 H 84.0936065996022 146.01925008705868 119.85695623300903 H 0.0 **** 0.06
6673 H 85.25615700899084 144.87503848803883 120.56862910753345 H 0.0 **** 0.06
6674 H 83.59754731362148 144.97095849298896 121.20652498036351 H 0.0 **** 0.06
6675 H 84.73884322166987 146.3081484635986 121.4899869504746 H 0.0 **** 0.06
6676 C 105.89716003727945 116.28273211684909 84.84375601883183 C 0.0 **** -0.24
6677 H 105.39232531546291 115.31907168880856 84.90704065269547 H 0.0 **** 0.06
6678 H 105.57473425928016 116.91701383225227 85.66937445376942 H 0.0 **** 0.06
6679 H 105.64677851255756 116.76145884187979 83.897274490386 H 0.0 **** 0.06
6680 H 106.97502918733078 116.13229482442084 84.9000070777047 H 0.0 **** 0.06
6681 C 43.31570471177184 52.838615779337516 139.58923432390543 C 0.0 **** -0.24
6682 H 42.496153748886 52.48582949647344 140.21494633795808 H 0.0 **** 0.06
6683 H 43.7104972037297 52.00770216020153 139.00363124157226 H 0.0 **** 0.06
6684 H 44.10510748293777 53.24575714945216 140.2218548190673 H 0.0 **** 0.06
6685 H 42.95165696849587 53.61640735871991 138.91827235187924 H 0.0 **** 0.06
6686 C 65.93379537181505 113.64133115351567 97.26357490461831 C 0.0 **** -0.24
6687 H 64.99177941836277 113.86515993238325 96.76332287631831 H 0.0 **** 0.06
6688 H 65.7381323961792 113.3746419994799 98.30247403414123 H 0.0 **** 0.06
6689 H 66.58040741724145 114.51776051653914 97.22873392110651 H 0.0 **** 0.06
6690 H 66.42387272537623 112.80777111333114 96.7599129629096 H 0.0 **** 0.06
6691 C 135.88486234521162 41.91761006912242 96.42669239327232 C 0.0 **** -0.24
6692 H 135.08365450968358 41.196258638566235 96.58452638310523 H 0.0 **** 0.06
6693 H 136.81823413486927 41.518004207571494 96.823520756787 H 0.0 **** 0.06
6694 H 135.64115148960315 42.849074677609224 96.93955909827119 H 0.0 **** 0.06
6695 H 135.9959071166836 42.11005380169439 95.35936209343906 H 0.0 **** 0.06
6696 C 37.40749431903359 127.5065905511313 53.95099539275756 C 0.0 **** -0.24
6697 H 38.03066678352786 126.91554963907126 53.27895503108931 H 0.0 **** 0.06
6698 H 37.9796882528868 127.76387969102649 54.84255127877876 H 0.0 **** 0.06
6699 H 36.529628410307936 126.92727659723747 54.235937928662736 H 0.0 **** 0.06
6700 H 37.09307162922907 128.41989191559264 53.44532406194645 H 0.0 **** 0.06
6701 C 23.226059651122114 36.176315765296664 92.32622280611412 C 0.0 **** -0.24
6702 H 22.867183526144174 37.203305837470225 92.38944289886257 H 0.0 **** 0.06
6703 H 22.446528930852878 35.49718180870835 92.67151458042503 H 0.0 **** 0.06
6704 H 24.111081129037245 36.06178400973121 92.95221957110476 H 0.0 **** 0.06
6705 H 23.480115511462827 35.94350741026361 91.29224729185563 H 0.0 **** 0.06
6706 C 90.3445828513468 97.0993344593108 48.35751732770959 C 0.0 **** -0.24
6707 H 89.51064498417851 96.66917726585905 48.91318984697236 H 0.0 **** 0.06
6708 H 90.54543009629171 98.10542589830771 48.726038553647385 H 0.0 **** 0.06
6709 H 90.08953363384683 97.1433693432972 47.298203234937404 H 0.0 **** 0.06
6710 H 91.22960726582026 96.47834998134527 48.49315109097685 H 0.0 **** 0.06
6711 C 110.06675970003276 50.283630234117624 5.470626129279395 C 0.0 **** -0.24
6712 H 109.8499187032531 51.21358396395195 4.943119163264242 H 0.0 **** 0.06
6713 H 111.04544091277752 49.91325409467183 5.165658788224874 H 0.0 **** 0.06
6714 H 109.30525616335412 49.542937147847425 5.226768394512305 H 0.0 **** 0.06
6715 H 110.0645577294779 50.466693719657684 6.54436461425675 H 0.0 **** 0.06
6716 C 63.84196783922249 90.10782701801884 113.66291269370132 C 0.0 **** -0.24
6717 H 63.67731364980824 90.52144927859263 114.6579594839811 H 0.0 **** 0.06
6718 H 62.90011842965532 89.72211343318554 113.27037317822308 H 0.0 **** 0.06
6719 H 64.56987122867758 89.29959526376535 113.72217073534759 H 0.0 **** 0.06
6720 H 64.21796586219114 90.88866960437144 113.00254704368828 H 0.0 **** 0.06
6721 C 63.794510451416485 116.85758759514135 128.78415829836956 C 0.0 **** -0.24
6722 H 63.49760841832081 116.18963865476366 129.5928893343981 H 0.0 **** 0.06
6723 H 64.77067692218523 117.28807165585232 129.00874680837796 H 0.0 **** 0.06
6724 H 63.059432206978144 117.65608718368497 128.68549295617083 H 0.0 **** 0.06
6725 H 63.84967035626305 116.29645658845328 127.85164028787824 H 0.0 **** 0.06
6726 C 146.64743869521925 31.84816965696848 3.729114674537758 C 0.0 **** -0.24
6727 H 146.0808739493284 30.94128552952631 3.9407111197894267 H 0.0 **** 0.06
6728 H 147.6096782770167 31.581560545790055 3.29042560302198 H 0.0 **** 0.06
6729 H 146.80988615283545 32.39945843412923 4.655290679234707 H 0.0 **** 0.06
6730 H 146.0890099961866 32.46972040640961 3.029339333056324 H 0.0 **** 0.06
6731 C 92.26355000156514 95.51310352934003 44.858662904447684 C 0.0 **** -0.24
6732 H 92.52198430137389 94.63342614928561 44.269004604018505 H 0.0 **** 0.06
6733 H 91.47721188236974 96.0720453890231 44.352156424883205 H 0.0 **** 0.06
6734 H 93.1443519270401 96.1442232946559 44.97243572965269 H 0.0 **** 0.06
6735 H 91.91220268029934 95.2002372378716 45.84261528036326 H 0.0 **** 0.06
6736 C 111.75283378710458 122.53358299565997 123.94684545093428 C 0.0 **** -0.24
6737 H 112.4234859147769 121.68089220970694 124.04794734694347 H 0.0 **** 0.06
6738 H 112.10291877723938 123.17686559857304 123.13921899299534 H 0.0 **** 0.06
6739 H 111.7391170238837 123.09748574286641 124.88037267728645 H 0.0 **** 0.06
6740 H 110.74648789728985 122.1804192157727 123.72150840756062 H 0.0 **** 0.06
6741 C 57.25376288471374 95.56985115442932 77.91900522887121 C 0.0 **** -0.24
6742 H 57.72102479431898 94.59481767931803 77.779099789181 H 0.0 **** 0.06
6743 H 56.50356258835676 95.72821180845598 77.14333522493902 H 0.0 **** 0.06
6744 H 58.01325985138109 96.34943863030905 77.85547391360208 H 0.0 **** 0.06
6745 H 56.77659382736668 95.60624985572161 78.89850679663195 H 0.0 **** 0.06
6746 C 19.147668152360666 120.92732038041383 84.96494541420043 C 0.0 **** -0.24
6747 H 19.04597000366499 119.98205877854936 84.43203785642356 H 0.0 **** 0.06
6748 H 20.20468033168919 121.1668628388531 85.08112694851525 H 0.0 **** 0.06
6749 H 18.684154133466734 120.84247150440781 85.94741112670465 H 0.0 **** 0.06
6750 H 18.655836365865298 121.71815515215634 84.39781723433339 H 0.0 **** 0.06
6751 C 3.7368329418062025 97.94327345701493 53.519828230454195 C 0.0 **** -0.24
6752 H 4.006079166631313 96.89835341408593 53.3629267016895 H 0.0 **** 0.06
6753 H 3.354346126706293 98.07023407438047 54.533009039907014 H 0.0 **** 0.06
6754 H 2.969193987487184 98.23246742571993 52.802263768574164 H 0.0 **** 0.06
6755 H 4.617612003811768 98.56979544719636 53.38310265520141 H 0.0 **** 0.06
6756 C 55.02708454818787 143.90803772982645 86.57340854408581 C 0.0 **** -0.24
6757 H 55.200763897831905 143.9466559752035 85.49803484268458 H 0.0 **** 0.06
6758 H 53.97029870434744 143.721328809175 86.76369236943592 H 0.0 **** 0.06
6759 H 55.31493609921324 144.85898379467235 87.02173381869092 H 0.0 **** 0.06
6760 H 55.62252701227112 143.10573062991978 87.00888307283927 H 0.0 **** 0.06
6761 C 95.89026633149575 47.537387140565784 48.8453910429611 C 0.0 **** -0.24
6762 H 95.57389268016004 46.7176857405571 48.201041931217645 H 0.0 **** 0.06
6763 H 95.81736002430313 47.22837211974655 49.88894982609335 H 0.0 **** 0.06
6764 H 95.24707616115302 48.40092538370243 48.676436655421384 H 0.0 **** 0.06
6765 H 96.92276232292744 47.802517063671814 48.61613427762617 H 0.0 **** 0.06
6766 C 70.61453511811905 133.06258784722888 76.51844934395 C 0.0 **** -0.24
6767 H 70.43687949738342 132.23284798129754 77.20408758178935 H 0.0 **** 0.06
6768 H 71.45908171273021 132.82404645485485 75.8718454907132 H 0.0 **** 0.06
6769 H 70.8360551356352 133.96468684647175 77.08888756726957 H 0.0 **** 0.06
6770 H 69.72557072854369 133.2267956169474 75.90986854614479 H 0.0 **** 0.06
6771 C 112.147621228515 17.62603705197455 122.94253844932494 C 0.0 **** -0.24
6772 H 112.8243543002646 16.777806525130813 122.83480803588223 H 0.0 **** 0.06
6773 H 112.14519679705658 18.208329267173497 122.02119954542901 H 0.0 **** 0.06
6774 H 112.48129346064086 18.253466129979472 123.76939883611114 H 0.0 **** 0.06
6775 H 111.14012947619845 17.262432893651976 123.14588516524547 H 0.0 **** 0.06
6776 C 115.40106843188545 135.93842645083893 3.8977474239115217 C 0.0 **** -0.24
6777 H 116.33972962908479 135.91097151646576 4.451887204725239 H 0.0 **** 0.06
6778 H 115.54652166873569 135.48847157808714 2.91520964611842 H 0.0 **** 0.06
6779 H 115.08021558020056 136.97375875385407 3.7797729423594113 H 0.0 **** 0.06
6780 H 114.64090573577943 135.38168356319184 4.444043541758894 H 0.0 **** 0.06
6781 C 43.83189044379314 83.74918807834092 104.59491938550092 C 0.0 **** -0.24
6782 H 44.913483325709464 83.61486745891011 104.61958326572481 H 0.0 **** 0.06
6783 H 43.43444012185806 83.32395325634025 103.67280816268645 H 0.0 **** 0.06
6784 H 43.597646409272116 84.81347001419203 104.63555456502654 H 0.0 **** 0.06
6785 H 43.384112921592376 83.24505231865544 105.45134095843515 H 0.0 **** 0.06
6786 C 139.30374262275183 30.389350778302102 113.43684748671403 C 0.0 **** -0.24
6787 H 140.18351399358505 30.63965852201681 114.02979002773286 H 0.0 **** 0.06
6788 H 138.6831682296988 29.682235018317556 113.98797109914413 H 0.0 **** 0.06
6789 H 139.61676462481765 29.941616424389593 112.49349990102293 H 0.0 **** 0.06
6790 H 138.731637044968 31.29530097960189 113.23620120116892 H 0.0 **** 0.06
6791 C 41.58079052051647 91.75503759273147 103.04401846552108 C 0.0 **** -0.24
6792 H 41.01248424323927 90.98747420255427 102.51753679907802 H 0.0 **** 0.06
6793 H 42.35741798939904 92.14646734200869 102.38568035260312 H 0.0 **** 0.06
6794 H 42.040914302866156 91.32089283102721 103.9317661331676 H 0.0 **** 0.06
6795 H 40.911317085677354 92.56301779857188 103.33893165100895 H 0.0 **** 0.06
6796 C 52.37608886186234 45.45403615265427 14.82486538579974 C 0.0 **** -0.24
6797 H 52.77670927350351 44.94035407145773 13.951346946821843 H 0.0 **** 0.06
6798 H 51.847480097639846 44.738942289432885 15.455345386895516 H 0.0 **** 0.06
6799 H 51.68674728732816 46.23377138067957 14.50205952287817 H 0.0 **** 0.06
6800 H 53.19337277519719 45.90160896040335 15.388749241105387 H 0.0 **** 0.06
6801 C 77.58400249010612 53.373691390371235 115.22902451768852 C 0.0 **** -0.24
6802 H 76.82155328415689 53.11489764055504 114.49362970949585 H 0.0 **** 0.06
6803 H 77.12120471131342 53.90827661517372 116.05844559876869 H 0.0 **** 0.06
6804 H 78.33709873027757 54.00911518945459 114.7621067920025 H 0.0 **** 0.06
6805 H 78.05554876697833 52.464031113588675 115.59942259292922 H 0.0 **** 0.06
6806 C 128.14540959429428 96.0116793402168 58.76510036188675 C 0.0 **** -0.24
6807 H 129.11067896742878 95.50587628730207 58.8009168459852 H 0.0 **** 0.06
6808 H 127.42014738579147 95.372612670046 58.260083477877174 H 0.0 **** 0.06
6809 H 128.24724918691305 96.94915790637342 58.218854902903175 H 0.0 **** 0.06
6810 H 127.80493806602735 96.21651613111548 59.77978183290084 H 0.0 **** 0.06
6811 C 103.89789104734469 77.20304579256526 150.06365034332703 C 0.0 **** -0.24
6812 H 103.55240625477585 76.25871729409448 150.48319580372862 H 0.0 **** 0.06
6813 H 103.12413908766705 77.61687703898758 149.41582695401306 H 0.0 **** 0.06
6814 H 104.8051095265558 77.03311589703253 149.48384438867015 H 0.0 **** 0.06
6815 H 104.10801121040235 77.90388589730958 150.87125800079707 H 0.0 **** 0.06
6816 C 88.36066434642649 137.0153226747087 117.3146380501857 C 0.0 **** -0.24
6817 H 89.41334172778915 136.87030697505094 117.55593089078481 H 0.0 **** 0.06
6818 H 88.20000687307072 138.0450117963173 116.99447560694087 H 0.0 **** 0.06
6819 H 87.7545313570208 136.81030416341574 118.19690256979017 H 0.0 **** 0.06
6820 H 88.07477742782558 136.3356677640511 116.51124313322698 H 0.0 **** 0.06
6821 C 8.13736841378281 120.69843315907534 73.82289500178062 C 0.0 **** -0.24
6822 H 8.865198692599023 120.2222755420851 74.48072669232468 H 0.0 **** 0.06
6823 H 8.238791430385426 121.7815237443472 73.89277092792763 H 0.0 **** 0.06
6824 H 7.130886559064912 120.40730860112464 74.12524792616509 H 0.0 **** 0.06
6825 H 8.313229075290998 120.3808456015067 72.79527656908681 H 0.0 **** 0.06
6826 C 129.71434532134083 120.53543885226216 134.9138581347908 C 0.0 **** -0.24
6827 H 129.93162649120603 119.82747936711061 135.71386923251842 H 0.0 **** 0.06
6828 H 129.8064451885965 121.55304390562569 135.295521744357 H 0.0 **** 0.06
6829 H 128.69854107141356 120.37364176237296 134.55129922668698 H 0.0 **** 0.06
6830 H 130.41966109575543 120.3873592896692 134.09667115992457 H 0.0 **** 0.06
6831 C 110.38349594281985 24.45151338636424 124.50761022469015 C 0.0 **** -0.24
6832 H 109.92533754996802 24.637991836363994 125.47875704557464 H 0.0 **** 0.06
6833 H 110.34073409625492 25.35999210041564 123.90566223228194 H 0.0 **** 0.06
6834 H 109.8439010450276 23.65213943796016 123.99879281588863 H 0.0 **** 0.06
6835 H 111.42303858028029 24.155749500457148 124.64708170267909 H 0.0 **** 0.06
6836 C 102.22855089328897 124.33638216865819 6.909671648893465 C 0.0 **** -0.24
6837 H 102.52058157621893 125.05907876814422 6.147825086507254 H 0.0 **** 0.06
6838 H 102.45927605698127 123.3292220003326 6.562011194643588 H 0.0 **** 0.06
6839 H 101.15796531652431 124.42000918093282 7.097707666847185 H 0.0 **** 0.06
6840 H 102.7757751777115 124.53786830076615 7.8306827305235345 H 0.0 **** 0.06
6841 C 0.16135644523516746 15.530148336027281 113.06057751420715 C 0.0 **** -0.24
6842 H -0.8863645740896224 15.229995411759973 113.07466183204386 H 0.0 **** 0.06
6843 H 0.6322567234844918 15.2477931943383 114.00261308406695 H 0.0 **** 0.06
6844 H 0.2292340246011051 16.609421608155287 112.92903181033759 H 0.0 **** 0.06
6845 H 0.67043855154391 15.031026335398622 112.23665634943913 H 0.0 **** 0.06
6846 C 106.32652768525475 69.86111569059608 112.9906136371078 C 0.0 **** -0.24
6847 H 106.9602117324203 70.03583255132203 112.12105453345896 H 0.0 **** 0.06
6848 H 106.94622084994893 69.81025887566942 113.88646601797984 H 0.0 **** 0.06
6849 H 105.7897337046557 68.9207197156078 112.86487134641493 H 0.0 **** 0.06
6850 H 105.61181192417655 70.67769007669885 113.08883331775633 H 0.0 **** 0.06
6851 C 135.70584344485707 50.46648245464067 17.471755215786004 C 0.0 **** -0.24
6852 H 136.58724803463048 50.83776632451473 16.948447717139004 H 0.0 **** 0.06
6853 H 134.80791018928784 50.82178636334319 16.967192585068915 H 0.0 **** 0.06
6854 H 135.71414849742746 50.82968446012649 18.49936448393811 H 0.0 **** 0.06
6855 H 135.71680884271728 49.37641436144406 17.472652829577157 H 0.0 **** 0.06
6856 C 141.09337509313906 2.8805193890656255 36.42168109355589 C 0.0 **** -0.24
6857 H 142.13485813891026 2.586836023689557 36.287395347109396 H 0.0 **** 0.06
6858 H 141.00974925897253 3.5374846805436846 37.28726690650237 H 0.0 **** 0.06
6859 H 140.48254036348465 1.9910175321801944 36.579243468471645 H 0.0 **** 0.06
6860 H 140.74720427072407 3.404872935309072 35.5306296765371 H 0.0 **** 0.06
6861 C 146.68984422636294 26.646136221010714 21.576251627257335 C 0.0 **** -0.24
6862 H 147.46870241133468 27.369098031464546 21.33164854177471 H 0.0 **** 0.06
6863 H 145.76566559092586 27.17514263963887 21.809600194074648 H 0.0 **** 0.06
6864 H 146.99975350143586 26.055969955247484 22.437725622335904 H 0.0 **** 0.06
6865 H 146.52605123695227 25.987190635350814 20.72374998840067 H 0.0 **** 0.06
6866 C 47.50696140679855 72.31299805093342 19.62198472812463 C 0.0 **** -0.24
6867 H 47.760377169779815 72.68697851560727 20.614319133780327 H 0.0 **** 0.06
6868 H 47.7829858581851 73.05672286746017 18.872961053222866 H 0.0 **** 0.06
6869 H 46.4356120177473 72.12168830345699 19.567574037697227 H 0.0 **** 0.06
6870 H 48.05163798255211 71.38774518823442 19.43289462556811 H 0.0 **** 0.06
6871 C 94.91029121460465 14.32174465778175 15.377153225298798 C 0.0 **** -0.24
6872 H 95.9145739936712 14.713875739661432 15.535777865228908 H 0.0 **** 0.06
6873 H 94.36136245703365 14.338637195890186 16.319435240535483 H 0.0 **** 0.06
6874 H 94.97364147753697 13.29731795591232 15.010933153114195 H 0.0 **** 0.06
6875 H 94.39163677215873 14.93934228175931 14.64355371194091 H 0.0 **** 0.06
6876 C 96.18989324696585 96.86732447366201 134.37351724349162 C 0.0 **** -0.24
6877 H 96.5961295576906 96.60684707490908 133.39660730069824 H 0.0 **** 0.06
6878 H 96.70568322516354 97.74683075092608 134.75806095525135 H 0.0 **** 0.06
6879 H 96.33100125343341 96.03318671415991 135.0598729559523 H 0.0 **** 0.06
6880 H 95.12533888806135 97.082954093489 134.27868374756167 H 0.0 **** 0.06
6881 C 48.32803684913088 30.448711680835174 71.03980862471604 C 0.0 **** -0.24
6882 H 48.316862770325116 31.485050980830366 70.70448427021341 H 0.0 **** 0.06
6883 H 47.965312656908026 30.39450270624978 72.06609173320629 H 0.0 **** 0.06
6884 H 49.34765489552862 30.063740306704148 70.99397598417391 H 0.0 **** 0.06
6885 H 47.684961429488595 29.850597493940256 70.39437396546572 H 0.0 **** 0.06
6886 C 68.98611680603716 2.764226817637905 25.548572638113683 C 0.0 **** -0.24
6887 H 69.28385075096452 3.69536993347873 26.030194338570425 H 0.0 **** 0.06
6888 H 69.00305581888728 1.9551632933980159 26.278832707567005 H 0.0 **** 0.06
6889 H 69.67954301253798 2.5374289470725557 24.73761309984002 H 0.0 **** 0.06
6890 H 67.97940077250593 2.8695489958190024 25.145258221727488 H 0.0 **** 0.06
6891 C 102.71357162024805 33.489277893208595 88.63512032188046 C 0.0 **** -0.24
6892 H 102.34593684774151 32.478114428386476 88.80977886164345 H 0.0 **** 0.06
6893 H 103.35808954227427 33.49410611467982 87.75639920517605 H 0.0 **** 0.06
6894 H 103.28132342245725 33.82377775269188 89.50376308119493 H 0.0 **** 0.06
6895 H 101.86980026231744 34.16002419410188 88.47255714809202 H 0.0 **** 0.06
6896 C 77.45029954320506 136.68834438207833 83.89235072217218 C 0.0 **** -0.24
6897 H 77.24758280522263 136.3624563826529 82.87203340460758 H 0.0 **** 0.06
6898 H 78.35063796277967 136.19688894300202 84.2591172860403 H 0.0 **** 0.06
6899 H 76.60676199418731 136.42529770171348 84.53056332753806 H 0.0 **** 0.06
6900 H 77.5929228399875 137.76910021550577 83.90594940396721 H 0.0 **** 0.06
6901 C 80.40434374622026 131.64517684512103 12.729623810723467 C 0.0 **** -0.24
6902 H 81.23533434379428 131.9106806240234 13.38247817645916 H 0.0 **** 0.06
6903 H 80.31409252589631 132.38706226903108 11.936298397374571 H 0.0 **** 0.06
6904 H 79.48159268326219 131.61851959430487 13.310097227918362 H 0.0 **** 0.06
6905 H 80.5854871064083 130.66369248219357 12.291784796911429 H 0.0 **** 0.06
6906 C 28.068389369480975 7.928285850511912 87.14800171665743 C 0.0 **** -0.24
6907 H 28.418519275313322 6.966032400778232 86.7734541802205 H 0.0 **** 0.06
6908 H 27.387024814147907 8.37367708072469 86.42211017418015 H 0.0 **** 0.06
6909 H 28.920206400364037 8.590861738167717 87.30139801282145 H 0.0 **** 0.06
6910 H 27.54720111864595 7.780879025791251 88.09338126082466 H 0.0 **** 0.06
6911 C 50.12799912424494 53.579412280639986 60.0158742549952 C 0.0 **** -0.24
6912 H 50.668227483995835 52.64106447507555 60.14595208284983 H 0.0 **** 0.06
6913 H 49.83338194056145 53.686910303580106 58.97201153880681 H 0.0 **** 0.06
6914 H 50.77239616219539 54.4108344563403 60.30045128265917 H 0.0 **** 0.06
6915 H 49.23933163755949 53.57647038997007 60.64697640549997 H 0.0 **** 0.06
6916 C 6.181465024153653 133.98011920221376 55.03972253978341 C 0.0 **** -0.24
6917 H 7.252357996101722 133.81574515308716 55.16233545178284 H 0.0 **** 0.06
6918 H 5.915500033476803 134.95700759750588 55.443192688413205 H 0.0 **** 0.06
6919 H 5.6322129661990346 133.20491806676696 55.57370179703173 H 0.0 **** 0.06
6920 H 5.926329286116356 133.94213795618938 53.98078361048323 H 0.0 **** 0.06
6921 C 41.19372325443352 53.44900797011614 103.12026271679953 C 0.0 **** -0.24
6922 H 40.379622069023554 53.605325419715925 102.41285294795016 H 0.0 **** 0.06
6923 H 41.92600987956433 52.76764187592538 102.68696601312399 H 0.0 **** 0.06
6924 H 40.79632046360837 53.01943506108837 104.04095794107114 H 0.0 **** 0.06
6925 H 41.67106001292184 54.40398780299998 103.34258379984918 H 0.0 **** 0.06
6926 C 36.869684969317916 77.57502067481232 20.43387906746733 C 0.0 **** -0.24
6927 H 36.05052379351298 77.47092270991055 21.146628062719856 H 0.0 **** 0.06
6928 H 37.071761471125114 76.60971711024655 19.969898903240875 H 0.0 **** 0.06
6929 H 37.7617630534117 77.92263735763981 20.955196464778027 H 0.0 **** 0.06
6930 H 36.592361459063056 78.29665679825104 19.665389337632206 H 0.0 **** 0.06
6931 C 48.6692381865094 98.4563375826448 130.34796427526464 C 0.0 **** -0.24
6932 H 49.00106477491873 98.8846367927387 131.29445644792781 H 0.0 **** 0.06
6933 H 49.01000351481112 97.42272560103261 130.27797289930638 H 0.0 **** 0.06
6934 H 49.08495244843505 99.0337431619072 129.52243722009638 H 0.0 **** 0.06
6935 H 47.58090761429166 98.48457354432001 130.29941778221678 H 0.0 **** 0.06
6936 C 99.59833817217095 10.207382485662464 150.14294083996225 C 0.0 **** -0.24
6937 H 99.35054623973491 10.613657534319174 149.16234957765482 H 0.0 **** 0.06
6938 H 100.65484892916513 10.380801042218167 150.34982134745087 H 0.0 **** 0.06
6939 H 99.39695365995215 9.136358179908171 150.15297505616536 H 0.0 **** 0.06
6940 H 98.99268538534461 10.699408008932181 150.90350447492824 H 0.0 **** 0.06
6941 C 91.17253524939385 120.09250279073011 3.3813543246265567 C 0.0 **** -0.24
6942 H 91.92371714853739 119.3191064361654 3.224404401728634 H 0.0 **** 0.06
6943 H 90.4375391116378 119.7430865997046 4.107661800824815 H 0.0 **** 0.06
6944 H 90.6736240489476 120.31163177346114 2.436803837145817 H 0.0 **** 0.06
6945 H 91.65306525074895 120.99581956322372 3.756761037008175 H 0.0 **** 0.06
6946 C 3.300276906509705 149.47980661791797 56.89628688720441 C 0.0 **** -0.24
6947 H 3.6784544859842327 150.4900505074832 57.052499826536575 H 0.0 **** 0.06
6948 H 4.098029574176646 148.76078090889123 57.07941294276512 H 0.0 **** 0.06
6949 H 2.948228756874478 149.37886555515064 55.86973514483242 H 0.0 **** 0.06
6950 H 2.474912434618062 149.29143457335712 57.58391614620848 H 0.0 **** 0.06
6951 C 38.522965556122244 92.10102125526505 56.27312797596473 C 0.0 **** -0.24
6952 H 37.62180182949095 92.17764222731827 56.88270873461727 H 0.0 **** 0.06
6953 H 39.30352181456675 92.7302686143391 56.700009866254874 H 0.0 **** 0.06
6954 H 38.30280315240003 92.43143897276688 55.257824008767955 H 0.0 **** 0.06
6955 H 38.86033725677106 91.06455006091382 56.25352450017189 H 0.0 **** 0.06
6956 C 10.500942260354229 44.52045958711102 69.54852502338781 C 0.0 **** -0.24
6957 H 11.571626378481866 44.49735355629139 69.75371310074405 H 0.0 **** 0.06
6958 H 10.03091929818008 43.63279424859249 69.97356054853105 H 0.0 **** 0.06
6959 H 10.338005319469445 44.53698383563693 68.47083722492442 H 0.0 **** 0.06
6960 H 10.064716587850135 45.41277698868677 69.99581379571066 H 0.0 **** 0.06
6961 C 29.01033333200195 131.7390944820769 64.57418509125986 C 0.0 **** -0.24
6962 H 29.15490453960726 130.84655092820353 63.965992169911644 H 0.0 **** 0.06
6963 H 28.036972186745146 131.6910754710514 65.0637132168767 H 0.0 **** 0.06
6964 H 29.05526015303944 132.62358442843163 63.93888312082218 H 0.0 **** 0.06
6965 H 29.794626924898623 131.7944750364121 65.32930763011461 H 0.0 **** 0.06
6966 C 35.010581086974 59.94394832641447 26.529183098650805 C 0.0 **** -0.24
6967 H 35.07541446137782 60.87839087363821 25.97217481645825 H 0.0 **** 0.06
6968 H 35.13891969602834 60.14524558029089 27.593023370640935 H 0.0 **** 0.06
6969 H 35.79275315173611 59.26441799018585 26.1897469611678 H 0.0 **** 0.06
6970 H 34.035656605244135 59.487170906566035 26.360561903810492 H 0.0 **** 0.06
6971 C 118.41074923858312 144.64526971113594 100.35348373380015 C 0.0 **** -0.24
6972 H 117.90616862698076 145.6100625709187 100.2960237415211 H 0.0 **** 0.06
6973 H 118.1324840673307 144.1440186600243 101.28044670832396 H 0.0 **** 0.06
6974 H 119.48973396456839 144.79881705484604 100.33244418535773 H 0.0 **** 0.06
6975 H 118.11402199492116 144.02905978137946 99.5040817142203 H 0.0 **** 0.06
6976 C 107.37672517226211 69.08453859433277 146.8834484066468 C 0.0 **** -0.24
6977 H 107.58299690422241 68.38404992260412 147.69266103347636 H 0.0 **** 0.06
6978 H 108.01374727372927 69.96247130178988 146.9926431920885 H 0.0 **** 0.06
6979 H 106.33053930101686 69.38679251375258 146.92237331075933 H 0.0 **** 0.06
6980 H 107.58157855201354 68.60400261281366 145.9267876798886 H 0.0 **** 0.06
6981 C 73.57583179813899 11.514292350111532 120.73020954634312 C 0.0 **** -0.24
6982 H 73.93074457858245 10.70312459319129 121.36625379556189 H 0.0 **** 0.06
6983 H 73.26137731917437 12.352574644254474 121.35268982352024 H 0.0 **** 0.06
6984 H 72.73046408944825 11.166248435031804 120.13624037924133 H 0.0 **** 0.06
6985 H 74.37876665417792 11.83522996260399 120.06670359776957 H 0.0 **** 0.06
6986 C 50.43632857752563 119.77180661705177 114.20589586820904 C 0.0 **** -0.24
6987 H 50.58872890473398 120.38661263669877 115.09266312212674 H 0.0 **** 0.06
6988 H 51.104548352410646 118.91143428129152 114.24203806809913 H 0.0 **** 0.06
6989 H 50.65068378244803 120.36174645338576 113.31394723051585 H 0.0 **** 0.06
6990 H 49.40220800576512 119.42790157303244 114.17471145805877 H 0.0 **** 0.06
6991 C 10.299358078947535 55.251170566415965 86.91892961894965 C 0.0 **** -0.24
6992 H 10.283410998336848 55.3636989573277 88.00344405944386 H 0.0 **** 0.06
6993 H 10.010319289753284 54.23316575765398 86.65556995453474 H 0.0 **** 0.06
6994 H 11.304167928676321 55.45138216087798 86.5486190446248 H 0.0 **** 0.06
6995 H 9.59918788508378 55.955702944261986 86.47079538993307 H 0.0 **** 0.06
6996 C 111.17088317190401 105.48048435802123 145.77437230999865 C 0.0 **** -0.24
6997 H 110.52593711356609 105.39001046740567 144.8998972858201 H 0.0 **** 0.06
6998 H 112.12844816865488 105.0016754636555 145.56986607528586 H 0.0 **** 0.06
6999 H 110.69574772276879 104.9961053709982 146.62672009149207 H 0.0 **** 0.06
7000 H 111.33154806420085 106.53493192226195 145.99785070385138 H 0.0 **** 0.06
7001 C 125.86774038907419 149.53257481115853 53.85098844236211 C 0.0 **** -0.24
7002 H 126.7353822304355 148.90311907608734 53.65440619429069 H 0.0 **** 0.06
7003 H 125.90193358770125 150.41070737827977 53.20455857096414 H 0.0 **** 0.06
7004 H 125.87591660152816 149.84855720122056 54.89353230958716 H 0.0 **** 0.06
7005 H 124.95729108431891 148.9683744134393 53.64955992452269 H 0.0 **** 0.06
7006 C 71.74531540174017 66.17367245108903 33.30936349502268 C 0.0 **** -0.24
7007 H 70.68258152563776 66.37242869101732 33.438901369702286 H 0.0 **** 0.06
7008 H 72.32475237621794 66.97400994860578 33.77099453114489 H 0.0 **** 0.06
7009 H 71.97942248484223 66.1230030019434 32.24556558256343 H 0.0 **** 0.06
7010 H 71.99777077319763 65.22349036123109 33.78149569680193 H 0.0 **** 0.06
7011 C 43.77434174467081 55.07232064965305 100.61539634925114 C 0.0 **** -0.24
7012 H 44.48288589802135 55.75319771541649 100.14284887223761 H 0.0 **** 0.06
7013 H 43.46041972720809 55.48521308677806 101.5747218055115 H 0.0 **** 0.06
7014 H 44.25026261952878 54.105119336335605 100.77379580087936 H 0.0 **** 0.06
7015 H 42.904814877549185 54.94874571386333 99.97030974756716 H 0.0 **** 0.06
7016 C 79.10765843355392 51.89167484733238 108.05920995779613 C 0.0 **** -0.24
7017 H 78.96429792617897 52.94580466853452 107.8220147532754 H 0.0 **** 0.06
7018 H 78.36993790356973 51.29535342142529 107.52235368443101 H 0.0 **** 0.06
7019 H 78.98652598570487 51.741755541612946 109.1325354698628 H 0.0 **** 0.06
7020 H 80.11030349924397 51.58583302449597 107.76120975907898 H 0.0 **** 0.06
7021 C 57.80338226345508 14.25751974728152 49.21011996799422 C 0.0 **** -0.24
7022 H 56.970056109638605 13.594072956951777 49.441075278195626 H 0.0 **** 0.06
7023 H 58.47309660290796 13.767610041905158 48.502606219381576 H 0.0 **** 0.06
7024 H 58.3478967505707 14.488963858275696 50.12584487168502 H 0.0 **** 0.06
7025 H 57.42250268397639 15.180305408084507 48.77046678701714 H 0.0 **** 0.06
7026 C 46.15969954084201 85.97299474769514 91.45976982544178 C 0.0 **** -0.24
7027 H 46.80089345856115 86.13999285478181 90.59432689121732 H 0.0 **** 0.06
7028 H 46.274656990041706 86.79997383895184 92.16133015420345 H 0.0 **** 0.06
7029 H 46.44261850304551 85.04039002452762 91.9474405720459 H 0.0 **** 0.06
7030 H 45.12067895231655 85.91329468680678 91.13449819539679 H 0.0 **** 0.06
7031 C 53.81363466284641 88.98366281877904 86.69186981045576 C 0.0 **** -0.24
7032 H 53.839125332760446 88.7478100124119 87.75529499742885 H 0.0 **** 0.06
7033 H 53.67599370949097 90.05744751546625 86.56108788529228 H 0.0 **** 0.06
7034 H 52.987462911377975 88.45062344491919 86.22195840933168 H 0.0 **** 0.06
7035 H 54.75214658908726 88.67876987014554 86.23011977342864 H 0.0 **** 0.06
7036 C 105.93986987414253 115.66087094215872 74.29402280089025 C 0.0 **** -0.24
7037 H 105.31254766445623 116.34428551858996 73.7210927243975 H 0.0 **** 0.06
7038 H 106.66899189821261 116.23295129089875 74.86811917447775 H 0.0 **** 0.06
7039 H 106.46051365936889 114.9883734558599 73.6121638205407 H 0.0 **** 0.06
7040 H 105.31774971478411 115.07954761533746 74.97326879197095 H 0.0 **** 0.06
7041 C 140.57616502990524 92.83307713091679 34.87195047393597 C 0.0 **** -0.24
7042 H 141.6363873253235 92.75983730305276 35.115057675577894 H 0.0 **** 0.06
7043 H 140.09401169807563 93.53081915268555 35.55731370144019 H 0.0 **** 0.06
7044 H 140.1132680925591 91.85080306439559 34.96755682151289 H 0.0 **** 0.06
7045 H 140.4610811100612 93.19071106763687 33.84927843354131 H 0.0 **** 0.06
7046 C 15.273852227204827 102.43788048621818 30.803557892095334 C 0.0 **** -0.24
7047 H 14.336804425145381 101.9520862491093 31.076480730290164 H 0.0 **** 0.06
7048 H 15.784367748101516 102.7731269282481 31.706673183272493 H 0.0 **** 0.06
7049 H 15.066139503780619 103.29449075982899 30.16326366016387 H 0.0 **** 0.06
7050 H 15.907647711925982 101.72981442369263 30.269149585413324 H 0.0 **** 0.06
7051 C 5.32955212179877 78.26353237694553 124.65521753706757 C 0.0 **** -0.24
7052 H 5.107926917703338 78.75429328415694 123.70721516079506 H 0.0 **** 0.06
7053 H 5.89136960271864 77.34815385657002 124.46686733053748 H 0.0 **** 0.06
7054 H 4.396592521626047 78.01920100928788 125.16321365264629 H 0.0 **** 0.06
7055 H 5.920481301711391 78.93136709910614 125.28104812643359 H 0.0 **** 0.06
7056 C 38.68222093048287 44.81042811706028 8.338918790028629 C 0.0 **** -0.24
7057 H 38.147260459377506 44.39486972644383 7.4852151021910345 H 0.0 **** 0.06
7058 H 39.38056818417171 45.57256880351578 7.992335190175339 H 0.0 **** 0.06
7059 H 39.23173957121513 44.01581615821817 8.844572443487266 H 0.0 **** 0.06
7060 H 37.96965353559851 45.25775820697797 9.031229375858118 H 0.0 **** 0.06
7061 C 132.0146665535675 101.95478698577352 139.9808944780533 C 0.0 **** -0.24
7062 H 131.68880977149445 100.9137654169113 139.98087135757325 H 0.0 **** 0.06
7063 H 133.06972914027745 102.00400877953501 140.24949012761857 H 0.0 **** 0.06
7064 H 131.42758077825843 102.5178546295138 140.70630649798153 H 0.0 **** 0.06
7065 H 131.8715845133681 102.3799565744676 138.9875290713838 H 0.0 **** 0.06
7066 C 71.14995845036294 140.98061431615346 70.09075482665205 C 0.0 **** -0.24
7067 H 70.29384129024267 141.29734780203088 70.68539736226532 H 0.0 **** 0.06
7068 H 70.81156150352798 140.33266665876351 69.28302047980716 H 0.0 **** 0.06
7069 H 71.84990553016253 140.4364914797481 70.72522541257374 H 0.0 **** 0.06
7070 H 71.64529459396692 141.85699852053466 69.67145260175909 H 0.0 **** 0.06
7071 C 128.59101425637988 79.11841404636013 65.03718073456935 C 0.0 **** -0.24
7072 H 129.24280386097126 79.9929848553356 65.0358564237859 H 0.0 **** 0.06
7073 H 128.35518830834644 78.8426703753822 66.06430729942065 H 0.0 **** 0.06
7074 H 129.09692696377897 78.28808336154069 64.5434522576686 H 0.0 **** 0.06
7075 H 127.66995276212077 79.35214054648108 64.50220954848817 H 0.0 **** 0.06
7076 C 137.4486107554202 87.22317701614631 119.4395370032496 C 0.0 **** -0.24
7077 H 138.45175264266211 87.33095390322514 119.85264110305417 H 0.0 **** 0.06
7078 H 137.39032373760358 86.29895546273474 118.86362497026988 H 0.0 **** 0.06
7079 H 137.23098335901628 88.07044450320184 118.7895357789368 H 0.0 **** 0.06
7080 H 136.72243111776427 87.19244956778516 120.2514011642503 H 0.0 **** 0.06
7081 C 34.179071719018964 5.164933578134715 85.38200098638643 C 0.0 **** -0.24
7082 H 35.063523171279286 5.149556453296729 84.74509309839667 H 0.0 **** 0.06
7083 H 33.40911419143424 5.783090538509416 84.91845818925185 H 0.0 **** 0.06
7084 H 34.438851991509694 5.5784881134969595 86.35600884422533 H 0.0 **** 0.06
7085 H 33.802757621005526 4.149829827178401 85.50691912619715 H 0.0 **** 0.06
7086 C 83.34378428794255 99.90020937555735 45.777251414466036 C 0.0 **** -0.24
7087 H 83.86226690152435 100.72953359635883 46.25699150089196 H 0.0 **** 0.06
7088 H 82.36209007221936 100.23158743057199 45.43851177751549 H 0.0 **** 0.06
7089 H 83.22542852433752 99.08412041317679 46.49060071931166 H 0.0 **** 0.06
7090 H 83.9249267844393 99.55322222346327 44.922472014073605 H 0.0 **** 0.06
7091 C 33.95901722160524 80.39400580731862 136.67528571225614 C 0.0 **** -0.24
7092 H 33.52389731372321 80.75784744116905 137.60621343420826 H 0.0 **** 0.06
7093 H 33.46550251504195 80.87646343983945 135.83060387073354 H 0.0 **** 0.06
7094 H 33.82204632141648 79.31482973675026 136.6082450034655 H 0.0 **** 0.06
7095 H 35.022961399283105 80.62733690238068 136.65626408660253 H 0.0 **** 0.06
7096 C 134.50506900701905 57.67879727104912 118.66083336979648 C 0.0 **** -0.24
7097 H 133.72926641141763 57.017296853269045 118.27672795081344 H 0.0 **** 0.06
7098 H 135.46179056828535 57.15692088115709 118.65610509256823 H 0.0 **** 0.06
7099 H 134.25759668631937 57.97510432711141 119.68060005598431 H 0.0 **** 0.06
7100 H 134.570225424683 58.56594673132483 118.030106014718 H 0.0 **** 0.06
7101 C 144.7178671967182 78.23802752472044 121.40917507949483 C 0.0 **** -0.24
7102 H 144.2869861605752 78.34217478469374 120.41268703865497 H 0.0 **** 0.06
7103 H 144.2637650311052 77.38440535720738 121.91333173849709 H 0.0 **** 0.06
7104 H 144.52690853824632 79.1444792777421 121.98308401959672 H 0.0 **** 0.06
7105 H 145.79292900468593 78.08079900396886 121.32532543250413 H 0.0 **** 0.06
7106 C 35.68095086030986 22.367232493025597 89.82373994710254 C 0.0 **** -0.24
7107 H 35.41957168667028 22.090603716504972 88.80121854630113 H 0.0 **** 0.06
7108 H 36.61333428568159 21.87775182576513 90.10470845028765 H 0.0 **** 0.06
7109 H 34.88586148769335 22.051600585680205 90.49892203822317 H 0.0 **** 0.06
7110 H 35.80443361875061 23.447927355337868 89.8873644196683 H 0.0 **** 0.06
7111 C 9.806798341095949 143.77553711927504 52.56845959530884 C 0.0 **** -0.24
7112 H 10.26089676417002 144.72882180994372 52.838384388395696 H 0.0 **** 0.06
7113 H 9.929752128869232 143.605591019102 51.49850763461065 H 0.0 **** 0.06
7114 H 8.74539465240975 143.79647987798012 52.81474617328743 H 0.0 **** 0.06
7115 H 10.292730148387157 142.9727346999871 53.122761886051535 H 0.0 **** 0.06
7116 C 99.34485733325226 55.832959991760276 138.93604291591538 C 0.0 **** -0.24
7117 H 99.25675887287237 55.825013076236814 137.84918688713313 H 0.0 **** 0.06
7118 H 100.18272023445017 56.46562408378077 139.22803498511865 H 0.0 **** 0.06
7119 H 99.51520075685258 54.81717326179131 139.29293915440365 H 0.0 **** 0.06
7120 H 98.42523068189693 56.22190557983737 139.37194725764365 H 0.0 **** 0.06
7121 C 67.5310962834447 117.26605570832736 48.942357930260755 C 0.0 **** -0.24
7122 H 66.99533568449783 116.97078967420357 49.8443712473146 H 0.0 **** 0.06
7123 H 68.59585819340288 117.07317646211128 49.07286520854376 H 0.0 **** 0.06
7124 H 67.37319404468099 118.32892317112076 48.757953097449786 H 0.0 **** 0.06
7125 H 67.1584057111458 116.6920138047323 48.09430893646038 H 0.0 **** 0.06
7126 C 105.87784598942831 4.562586270681091 104.70460973752112 C 0.0 **** -0.24
7127 H 105.72745238059342 3.9760689193607774 103.79744453955094 H 0.0 **** 0.06
7128 H 106.18330246633907 3.901937590307881 105.51690906657991 H 0.0 **** 0.06
7129 H 104.94667051830889 5.062086879333663 104.97176673719345 H 0.0 **** 0.06
7130 H 106.65351466360492 5.307217107936385 104.5301750749364 H 0.0 **** 0.06
7131 C 114.6186822677331 130.14648740822292 69.07384278332873 C 0.0 **** -0.24
7132 H 113.87582893264533 130.1636540665267 68.27735508467342 H 0.0 **** 0.06
7133 H 114.90834086639757 129.1155017331588 69.2797067150616 H 0.0 **** 0.06
7134 H 114.19562035544283 130.59298692987954 69.97416845190185 H 0.0 **** 0.06
7135 H 115.49564299486582 130.71592906735407 68.76411127721482 H 0.0 **** 0.06
7136 C 140.94377105161627 110.58177870380925 25.262783422246613 C 0.0 **** -0.24
7137 H 140.25100481794104 109.98908477446471 25.859742646863893 H 0.0 **** 0.06
7138 H 141.96791081044188 110.33123016741618 25.53964381270437 H 0.0 **** 0.06
7139 H 140.76621138584017 111.64222726273621 25.447090160702146 H 0.0 **** 0.06
7140 H 140.78963073738163 110.36678162478242 24.205663996348363 H 0.0 **** 0.06
7141 C 87.62966587883554 18.631874614314654 15.929480082263439 C 0.0 **** -0.24
7142 H 87.43371569602274 19.544857111061788 15.365351510021924 H 0.0 **** 0.06
7143 H 86.7153146841301 18.042099398261 15.992698453290643 H 0.0 **** 0.06
7144 H 87.9670131621964 18.890535071155824 16.93265156514559 H 0.0 **** 0.06
7145 H 88.40237298227075 18.052544275582335 15.423827449579676 H 0.0 **** 0.06
7146 C 58.80972621924124 9.960507821502176 57.33638760225736 C 0.0 **** -0.24
7147 H 58.67632367447996 9.57420540317463 56.32626748094802 H 0.0 **** 0.06
7148 H 58.3363098756156 10.938458156232855 57.41652841120603 H 0.0 **** 0.06
7149 H 59.87436310454649 10.052654638306308 57.55139632956639 H 0.0 **** 0.06
7150 H 58.35356107805271 9.275542654094238 58.05041038209626 H 0.0 **** 0.06
7151 C 68.7998419433496 141.5425345039922 141.9451568046499 C 0.0 **** -0.24
7152 H 69.26030969853767 141.78701463066605 142.90285374526763 H 0.0 **** 0.06
7153 H 68.17301432494392 142.3733761955244 141.6219576582644 H 0.0 **** 0.06
7154 H 68.18840751410804 140.64687061266582 142.0545122496467 H 0.0 **** 0.06
7155 H 69.57765964992169 141.36390573147915 141.20352629182617 H 0.0 **** 0.06
7156 C 97.30837409050312 110.80957984848709 128.70767511001802 C 0.0 **** -0.24
7157 H 97.14077283242247 111.76960133312417 129.1970768803995 H 0.0 **** 0.06
7158 H 98.28000707063065 110.4148136214767 129.00543756378357 H 0.0 **** 0.06
7159 H 97.28609849491984 110.94382487978851 127.62707412719573 H 0.0 **** 0.06
7160 H 96.5258353811351 110.11083196313291 129.0040820233806 H 0.0 **** 0.06
7161 C 25.843195227720805 83.59967838553757 141.87746327717633 C 0.0 **** -0.24
7162 H 25.92632145824387 83.36104871414437 140.8175069732176 H 0.0 **** 0.06
7163 H 25.075657473721066 82.97113612134939 142.3310015522279 H 0.0 **** 0.06
7164 H 25.570062977542285 84.64850618451788 141.99362052760102 H 0.0 **** 0.06
7165 H 26.799432703489792 83.41655802956564 142.36733805858836 H 0.0 **** 0.06
7166 C 48.9275384110735 125.3718197246474 131.38556164473295 C 0.0 **** -0.24
7167 H 49.974622098944224 125.67386635809041 131.38930974267495 H 0.0 **** 0.06
7168 H 48.31326604468832 126.1885012681993 131.7671429151432 H 0.0 **** 0.06
7169 H 48.800001610908154 124.49416193550084 132.0196915006771 H 0.0 **** 0.06
7170 H 48.62259327977172 125.13179252711583 130.36744531506386 H 0.0 **** 0.06
7171 C 66.09039368488456 104.23511272641989 81.9365245989681 C 0.0 **** -0.24
7172 H 65.0793003719103 104.14165669235874 81.54123769517145 H 0.0 **** 0.06
7173 H 66.8020240769545 104.25968209902643 81.11071829799243 H 0.0 **** 0.06
7174 H 66.30902612901053 103.3831127243632 82.5791545721321 H 0.0 **** 0.06
7175 H 66.17142048138689 105.15632238314956 82.51362503670083 H 0.0 **** 0.06
7176 C 90.44145873671255 110.50600539683492 2.1659019675411457 C 0.0 **** -0.24
7177 H 90.76772193156506 110.0367506539196 1.2387036428634417 H 0.0 **** 0.06
7178 H 89.49347698593448 111.0184705947801 1.999590405163218 H 0.0 **** 0.06
7179 H 91.19090805209873 111.2265694137129 2.4922724309620037 H 0.0 **** 0.06
7180 H 90.31213457461828 109.7428875632942 2.9344661989193526 H 0.0 **** 0.06
7181 C 28.06846912183957 48.81440880056368 23.76732257318553 C 0.0 **** -0.24
7182 H 27.700967157428543 48.57723637594033 24.765773891431785 H 0.0 **** 0.06
7183 H 27.22499467339842 49.038428868015345 23.114116361040637 H 0.0 **** 0.06
7184 H 28.619518142043965 47.96256534012835 23.370730687083466 H 0.0 **** 0.06
7185 H 28.7272101454325 49.681936884569126 23.82045276507359 H 0.0 **** 0.06
7186 C 62.308451041902515 75.42391617149694 147.17907679832473 C 0.0 **** -0.24
7187 H 62.5350957778399 75.91212458560128 148.12646645470576 H 0.0 **** 0.06
7188 H 61.94075113401874 74.41573317380227 147.36926169194282 H 0.0 **** 0.06
7189 H 63.211122684345526 75.37356715865019 146.5711670001503 H 0.0 **** 0.06
7190 H 61.54585246780721 75.99509022077974 146.64997086281986 H 0.0 **** 0.06
7191 C 72.68227306124274 97.05134049551216 56.39862656397422 C 0.0 **** -0.24
7192 H 72.48387972195863 98.06829702910417 56.73637937060364 H 0.0 **** 0.06
7193 H 72.62201301372411 96.36880255064062 57.24639078090459 H 0.0 **** 0.06
7194 H 73.68032571851742 97.0019304593065 55.96193552066869 H 0.0 **** 0.06
7195 H 71.94319744207004 96.76697784293 55.6485847974251 H 0.0 **** 0.06
7196 C 6.829247958642753 116.65256775058936 88.78849504078991 C 0.0 **** -0.24
7197 H 6.715708897806763 117.5955174843279 88.25377627346239 H 0.0 **** 0.06
7198 H 7.784539379596879 116.6463920364177 89.31506195089165 H 0.0 **** 0.06
7199 H 6.800986953391657 115.82635243779777 88.07751326443665 H 0.0 **** 0.06
7200 H 6.017619911805582 116.54162322974747 89.50701273842012 H 0.0 **** 0.06
7201 C 25.532808224126335 28.723324677127174 22.659030640255367 C 0.0 **** -0.24
7202 H 26.24552922914345 28.073765359946442 23.167563786547333 H 0.0 **** 0.06
7203 H 25.951044922976926 29.0460318905428 21.705666807929987 H 0.0 **** 0.06
7204 H 25.329149433936323 29.59616275543837 23.280418859577765 H 0.0 **** 0.06
7205 H 24.604972777978155 28.177572900801593 22.484385547947113 H 0.0 **** 0.06
7206 C 28.197316713850597 21.09272594609024 16.244988740970648 C 0.0 **** -0.24
7207 H 27.764468630016353 20.09263360443248 16.21709006445397 H 0.0 **** 0.06
7208 H 28.20464669223017 21.512741945286677 15.23902386702732 H 0.0 **** 0.06
7209 H 29.217606837439092 21.036142692405463 16.622903867613758 H 0.0 **** 0.06
7210 H 27.601565928877164 21.728173364677502 16.90018036174675 H 0.0 **** 0.06
7211 C 104.51973110217666 25.92342075664118 134.09347833742845 C 0.0 **** -0.24
7212 H 105.1845177168659 25.440354453107716 134.8089587034899 H 0.0 **** 0.06
7213 H 105.06041244569569 26.1115396808828 133.1655642991218 H 0.0 **** 0.06
7214 H 104.16547488607777 26.868088501998386 134.50642249764803 H 0.0 **** 0.06
7215 H 103.66841859321615 25.272638180590434 133.89203960961993 H 0.0 **** 0.06
7216 C 133.39241311413076 72.17699906341406 111.51893150040776 C 0.0 **** -0.24
7217 H 133.89157676823157 71.56027308364648 110.77169245705618 H 0.0 **** 0.06
7218 H 133.07417145846406 73.11496035728987 111.0626822438504 H 0.0 **** 0.06
7219 H 134.0815222197797 72.38616476131558 112.33692650141144 H 0.0 **** 0.06
7220 H 132.52141818104295 71.64674812171265 111.90420446059026 H 0.0 **** 0.06
7221 C 46.88723964592934 125.14679890601276 122.73853669640842 C 0.0 **** -0.24
7222 H 46.912854686877694 126.02830773554764 122.09654713160826 H 0.0 **** 0.06
7223 H 47.772721003087085 125.1347786931661 123.3739725787511 H 0.0 **** 0.06
7224 H 46.87027373368875 124.24892198158152 122.12172989775648 H 0.0 **** 0.06
7225 H 45.9932662151612 125.17743999262662 123.3609482093102 H 0.0 **** 0.06
7226 C 36.37661827874899 146.4580470872335 131.33975768039988 C 0.0 **** -0.24
7227 H 35.923704711919925 145.72607049762885 130.66984789886453 H 0.0 **** 0.06
7228 H 35.68579300015347 146.68210209652315 132.15342488626874 H 0.0 **** 0.06
7229 H 36.59448381217268 147.37083419923422 130.7850074736808 H 0.0 **** 0.06
7230 H 37.30080501035576 146.05119557688275 131.7489583407691 H 0.0 **** 0.06
7231 C 68.0061761026109 73.93805691744245 99.30201028628088 C 0.0 **** -0.24
7232 H 68.60890317359856 73.5571077985962 100.12610209516487 H 0.0 **** 0.06
7233 H 66.95055231112748 73.75931227321192 99.51174899624851 H 0.0 **** 0.06
7234 H 68.28487758983296 73.42536619554889 98.3816972056191 H 0.0 **** 0.06
7235 H 68.17917989313906 75.00795735492358 99.18913336745806 H 0.0 **** 0.06
7236 C 58.05052552730365 123.42772877400448 144.4546248148276 C 0.0 **** -0.24
7237 H 56.99337773010407 123.68612165334672 144.50711387252895 H 0.0 **** 0.06
7238 H 58.19212484414183 122.40488851974548 144.80371782824503 H 0.0 **** 0.06
7239 H 58.622783610643495 124.10898210272414 145.0853062853906 H 0.0 **** 0.06
7240 H 58.39448728462352 123.5109612134777 143.4239574908964 H 0.0 **** 0.06
7241 C 94.54630441885193 138.59172441311057 75.6788542189125 C 0.0 **** -0.24
7242 H 94.37120903803124 139.6586671943736 75.82319845039925 H 0.0 **** 0.06
7243 H 94.04756686330589 138.03197497113325 76.46915596058753 H 0.0 **** 0.06
7244 H 95.61735206722499 138.39302812253706 75.71112164349668 H 0.0 **** 0.06
7245 H 94.1495692572827 138.28722850185332 74.7102790071406 H 0.0 **** 0.06
7246 C 58.970592362116946 81.5838463814697 147.37169938701845 C 0.0 **** -0.24
7247 H 59.54983594730112 81.33601147157356 148.2609879781579 H 0.0 **** 0.06
7248 H 59.645520719749186 81.72520385495415 146.52722542036372 H 0.0 **** 0.06
7249 H 58.410406950313586 82.50224119790386 147.54693563952242 H 0.0 **** 0.06
7250 H 58.2777395018602 80.7720240187511 147.15080836984558 H 0.0 **** 0.06
7251 C 109.2041022511832 126.15038167817717 1.2429632026351953 C 0.0 **** -0.24
7252 H 108.33522898316352 125.96064931026291 1.8742114932173308 H 0.0 **** 0.06
7253 H 110.00819394744565 126.56831182837246 1.8486680956610826 H 0.0 **** 0.06
7254 H 108.9352558176173 126.8568798724756 0.45731289819036647 H 0.0 **** 0.06
7255 H 109.53618891833605 125.21427735386696 0.7929413593490438 H 0.0 **** 0.06
7256 C 72.46983225101343 51.1415694452993 38.81543815275866 C 0.0 **** -0.24
7257 H 71.39540524670576 51.315987187541594 38.7591572243108 H 0.0 **** 0.06
7258 H 72.89673875051528 51.17891250099635 37.813072036621705 H 0.0 **** 0.06
7259 H 72.65646135174734 50.16061190173244 39.252917723244806 H 0.0 **** 0.06
7260 H 72.93065402984189 51.909633977725974 39.43529667483543 H 0.0 **** 0.06
7261 C 136.16172933306066 55.5326426855562 143.9159989943658 C 0.0 **** -0.24
7262 H 135.92484851012867 56.225231237673995 143.10830656593478 H 0.0 **** 0.06
7263 H 137.0224608054544 55.90351899194337 144.47178901991202 H 0.0 **** 0.06
7264 H 136.3923617886386 54.552765030888 143.499201803548 H 0.0 **** 0.06
7265 H 135.30404731480897 55.450091278545415 144.5855319657762 H 0.0 **** 0.06
7266 C 95.26654653595938 59.64254959053541 15.92532890767147 C 0.0 **** -0.24
7267 H 95.10014300683844 60.7100607252336 15.777445965993763 H 0.0 **** 0.06
7268 H 95.75271142588628 59.22490378287945 15.04351930649625 H 0.0 **** 0.06
7269 H 94.30907438604356 59.14424939322784 16.08261699099848 H 0.0 **** 0.06
7270 H 95.90199828370856 59.491778682807805 16.797217457186967 H 0.0 **** 0.06
7271 C 80.04668125337005 20.003443381568104 96.00803746025585 C 0.0 **** -0.24
7272 H 80.71415307443058 19.222376349912395 95.6433140550203 H 0.0 **** 0.06
7273 H 79.85830934954984 20.7220188110972 95.21083056431293 H 0.0 **** 0.06
7274 H 80.511258918426 20.51191024953158 96.85374756170222 H 0.0 **** 0.06
7275 H 79.10428854432863 19.557114778627636 96.3253641695503 H 0.0 **** 0.06
7276 C 90.51062724474556 125.95221537824071 9.46675616884935 C 0.0 **** -0.24
7277 H 89.97471179848284 126.1042630239711 10.403201362388941 H 0.0 **** 0.06
7278 H 89.83760786124455 126.13361153718861 8.629041534152691 H 0.0 **** 0.06
7279 H 90.8802164055638 124.92750529418804 9.421384361777562 H 0.0 **** 0.06
7280 H 91.35216116200348 126.64364979824867 9.413825763960851 H 0.0 **** 0.06
7281 C 76.63639269270092 109.1838295214937 113.98999324734005 C 0.0 **** -0.24
7282 H 75.62478067697137 108.78278558111579 113.91974790016478 H 0.0 **** 0.06
7283 H 76.71373458563212 109.8218314754828 114.86991892177728 H 0.0 **** 0.06
7284 H 76.85728643989913 109.76785502424387 113.09630836733497 H 0.0 **** 0.06
7285 H 77.34758811692788 108.36193225646052 114.07167209221704 H 0.0 **** 0.06
7286 C 140.18241989719525 42.03130465062999 89.19496392766698 C 0.0 **** -0.24
7287 H 139.7254975719796 43.016007196155826 89.10027843303084 H 0.0 **** 0.06
7288 H 140.59347458802472 41.9160616151799 90.19803549963487 H 0.0 **** 0.06
7289 H 140.98239537557436 41.929351676418364 88.46115037121305 H 0.0 **** 0.06
7290 H 139.42929856053615 41.262652282054006 89.01954643313348 H 0.0 **** 0.06
7291 C 79.32673869339628 9.207215466698756 60.763330620155955 C 0.0 **** -0.24
7292 H 78.38384215147777 9.743694778920798 60.87183205809339 H 0.0 **** 0.06
7293 H 79.14959001989327 8.137017543823148 60.871197416500536 H 0.0 **** 0.06
7294 H 80.02399063109596 9.54069996934976 61.53118624738937 H 0.0 **** 0.06
7295 H 79.74679202993293 9.408503165871572 59.77793073400056 H 0.0 **** 0.06
7296 C 43.72651502156515 64.26520773099179 35.75418428076609 C 0.0 **** -0.24
7297 H 44.11161615115037 63.24517807967027 35.727162714912595 H 0.0 **** 0.06
7298 H 44.36237100922068 64.87625647447129 36.39428431577832 H 0.0 **** 0.06
7299 H 42.71059306379448 64.2591288505077 36.14862577524903 H 0.0 **** 0.06
7300 H 43.722149000913134 64.67748711789818 34.74446838975918 H 0.0 **** 0.06
7301 C 88.36989746555132 66.1497069254915 85.3700181679502 C 0.0 **** -0.24
7302 H 87.84699094998633 65.928798055052 84.43957444298536 H 0.0 **** 0.06
7303 H 89.44250086099326 66.1976169424884 85.18150536291259 H 0.0 **** 0.06
7304 H 88.16333939271034 65.36470096901985 86.09788897810924 H 0.0 **** 0.06
7305 H 88.02595904596467 67.10726689292702 85.7615073373428 H 0.0 **** 0.06
7306 C 127.34654106595703 150.1760834220325 114.650272631875 C 0.0 **** -0.24
7307 H 126.90831105458687 150.41878804115862 115.61769775212849 H 0.0 **** 0.06
7308 H 126.90081985355737 149.25553988333795 114.2709577950892 H 0.0 **** 0.06
7309 H 128.42221180653132 150.04062374359015 114.76172041059817 H 0.0 **** 0.06
7310 H 127.15318290033906 150.98901534486774 113.94962804964973 H 0.0 **** 0.06
7311 C 0.638142936613292 13.466506530815089 87.77835808593585 C 0.0 **** -0.24
7312 H 0.4949728193018075 12.400986270967785 87.59454994555503 H 0.0 **** 0.06
7313 H -0.236252224979836 13.867321936968153 88.29053244567032 H 0.0 **** 0.06
7314 H 0.7715729816146109 13.982812733965176 86.82742915531063 H 0.0 **** 0.06
7315 H 1.522908758998966 13.611859753104248 88.39803490328663 H 0.0 **** 0.06
7316 C 95.89984955946721 41.33708005818346 36.15972783165779 C 0.0 **** -0.24
7317 H 95.78704768057116 40.567078431772416 35.39603565375825 H 0.0 **** 0.06
7318 H 95.18396748432332 42.13884431415505 35.97495644460258 H 0.0 **** 0.06
7319 H 96.91314844142534 41.73764501049868 36.123719583979664 H 0.0 **** 0.06
7320 H 95.7144017189733 40.9037596984183 37.1423773293601 H 0.0 **** 0.06
7321 C 2.697087113773211 82.51563300256947 120.06033038612158 C 0.0 **** -0.24
7322 H 1.7020273338488607 82.11407950208371 120.25305381495049 H 0.0 **** 0.06
7323 H 2.739736903639578 82.908953726643 119.04423131656317 H 0.0 **** 0.06
7324 H 3.4367223177366704 81.7222355687532 120.17450049885308 H 0.0 **** 0.06
7325 H 2.910074702005346 83.31482443815293 120.76962143069439 H 0.0 **** 0.06
7326 C 11.501194591275635 90.1993576831188 34.65382706849377 C 0.0 **** -0.24
7327 H 12.084449032837796 89.46653976913085 34.09776449718393 H 0.0 **** 0.06
7328 H 10.476292311719675 90.2057034020373 34.282423589786134 H 0.0 **** 0.06
7329 H 11.941619134683492 91.18840195268523 34.52455152137372 H 0.0 **** 0.06
7330 H 11.50246543779474 89.93741897361933 35.71183225606896 H 0.0 **** 0.06
7331 C 117.49914133668294 139.17962757343523 119.46157287190933 C 0.0 **** -0.24
7332 H 117.12103901280365 140.08540030864282 118.98576941488061 H 0.0 **** 0.06
7333 H 117.13959509357672 139.13192143347763 120.48901779679083 H 0.0 **** 0.06
7334 H 118.58880286860018 139.196001957079 119.45795454175133 H 0.0 **** 0.06
7335 H 117.14615014457165 138.30678940355423 118.91143446409983 H 0.0 **** 0.06
7336 C 4.281824320930809 94.42081210106683 47.1136163402693 C 0.0 **** -0.24
7337 H 4.114422150866375 94.03247847382782 48.11842179617061 H 0.0 **** 0.06
7338 H 5.331406949074108 94.29505141026526 46.84704917518886 H 0.0 **** 0.06
7339 H 4.022023479447029 95.47841831259935 47.08522512087217 H 0.0 **** 0.06
7340 H 3.6584664767757715 93.87402282105222 46.4052866088968 H 0.0 **** 0.06
7341 C 148.3662600365137 131.13840815956553 97.15479755152676 C 0.0 **** -0.24
7342 H 147.58902588488172 130.87504925157435 96.43766044509893 H 0.0 **** 0.06
7343 H 148.51957660732228 130.30850662539095 97.84602184729398 H 0.0 **** 0.06
7344 H 148.0613474834969 132.02379850985005 97.71251588571495 H 0.0 **** 0.06
7345 H 149.29506339853913 131.34487068194932 96.6231265812618 H 0.0 **** 0.06
7346 C 32.507897062686965 50.07546717039895 107.88674609949457 C 0.0 **** -0.24
7347 H 33.04351053765663 49.36227099680046 108.51290413774153 H 0.0 **** 0.06
7348 H 32.55192435837316 49.751074338202216 106.84632049996755 H 0.0 **** 0.06
7349 H 32.96910692863102 51.059349094079366 107.98096052962144 H 0.0 **** 0.06
7350 H 31.46693183794045 50.13057424666057 108.20696342305719 H 0.0 **** 0.06
7351 C 33.18704366526109 43.8489780544092 58.50479450536764 C 0.0 **** -0.24
7352 H 32.30032443908958 44.38838568014546 58.17263055302385 H 0.0 **** 0.06
7353 H 33.573022433929275 43.2437446955648 57.68423952653367 H 0.0 **** 0.06
7354 H 32.92559988424568 43.20242012257445 59.34314080287382 H 0.0 **** 0.06
7355 H 33.94853189210324 44.56246268335056 58.81971806482477 H 0.0 **** 0.06
7356 C 1.033017346761838 42.00876300925836 48.53267877594121 C 0.0 **** -0.24
7357 H 0.5885332840236579 41.12050749508319 48.98015335112811 H 0.0 **** 0.06
7358 H 0.2458373483768952 42.71279654003882 48.264047246641255 H 0.0 **** 0.06
7359 H 1.5896402231063185 41.72653633024839 47.63909075318517 H 0.0 **** 0.06
7360 H 1.7100632555275794 42.4760803286278 49.24853133414754 H 0.0 **** 0.06
7361 C 92.51901120523597 91.81271482097142 46.40727101854938 C 0.0 **** -0.24
7362 H 92.0482607319811 90.882805602811 46.087888285158385 H 0.0 **** 0.06
7363 H 93.4379569792695 91.5871617268092 46.94874120727219 H 0.0 **** 0.06
7364 H 91.83696319761819 92.36016268694061 47.05756004711513 H 0.0 **** 0.06
7365 H 92.75286302765858 92.41994913492962 45.533052921482195 H 0.0 **** 0.06
7366 C 87.39405404689938 79.29377118849906 76.58351627976928 C 0.0 **** -0.24
7367 H 86.49496017306024 78.87722350753769 76.12900584826757 H 0.0 **** 0.06
7368 H 87.92246766809092 78.51111985991739 77.1269133608973 H 0.0 **** 0.06
7369 H 87.11541235267413 80.09113578064279 77.27296607609273 H 0.0 **** 0.06
7370 H 88.0413752450674 79.69683540737006 75.80448354898913 H 0.0 **** 0.06
7371 C 110.02591772482002 81.36025243107017 84.36031780232398 C 0.0 **** -0.24
7372 H 110.29936306319802 80.68066997703514 85.167501685053 H 0.0 **** 0.06
7373 H 109.3037807588497 80.87297007155342 83.70496400505411 H 0.0 **** 0.06
7374 H 110.91631858408509 81.6221466796321 83.7891372883849 H 0.0 **** 0.06
7375 H 109.58472869064512 82.26322504258357 84.78098648573845 H 0.0 **** 0.06
7376 C 58.672862637444524 27.040098055379552 105.15232274731102 C 0.0 **** -0.24
7377 H 59.246333583585994 27.870511178896948 105.56506798100577 H 0.0 **** 0.06
7378 H 57.66874082310392 27.045870276320528 105.57631277740967 H 0.0 **** 0.06
7379 H 59.16749962892828 26.10018272262345 105.39839370844254 H 0.0 **** 0.06
7380 H 58.6115957174504 27.14460524358328 104.0695632832282 H 0.0 **** 0.06
7381 C 69.29037950030481 95.69354680124856 2.2309124477437194 C 0.0 **** -0.24
7382 H 69.63786455430805 94.66749708380317 2.345736431502985 H 0.0 **** 0.06
7383 H 69.39258023009165 95.99817006994039 1.1895435680572746 H 0.0 **** 0.06
7384 H 69.88833456543888 96.3516577975232 2.8626942160755107 H 0.0 **** 0.06
7385 H 68.24347739416919 95.7572196508568 2.5279835497731256 H 0.0 **** 0.06
7386 C 123.24230219011623 93.2775100035631 36.70077360580471 C 0.0 **** -0.24
7387 H 124.2224160502232 93.55450903716712 37.08900915212105 H 0.0 **** 0.06
7388 H 122.82080415449364 94.1164216125672 36.14568239234073 H 0.0 **** 0.06
7389 H 122.58261522466226 93.02004310613569 37.529360587038724 H 0.0 **** 0.06
7390 H 123.34445759540368 92.41875545446277 36.03711150047728 H 0.0 **** 0.06
7391 C 112.54144078855047 70.57501300594379 56.350850019621134 C 0.0 **** -0.24
7392 H 112.42037668562843 71.11964011640453 55.41389894530704 H 0.0 **** 0.06
7393 H 113.60215356106765 70.40746673650384 56.53846706520409 H 0.0 **** 0.06
7394 H 112.02750069777933 69.61604647340056 56.281234831836144 H 0.0 **** 0.06
7395 H 112.11445368574347 71.1580180056213 57.16695091588022 H 0.0 **** 0.06
7396 C 91.83110054903355 70.15626393740268 126.33709421615261 C 0.0 **** -0.24
7397 H 91.19170302916994 69.6876035257149 127.0845690855777 H 0.0 **** 0.06
7398 H 91.22185882458224 70.49771988020694 125.50046775847079 H 0.0 **** 0.06
7399 H 92.56399764154276 69.43214907278576 125.98109983087193 H 0.0 **** 0.06
7400 H 92.34759395232028 71.00706700016849 126.78265143455808 H 0.0 **** 0.06
7401 C 35.201024817221935 94.69187922109288 23.59791625222897 C 0.0 **** -0.24
7402 H 34.98152853506866 95.14940930891358 24.562314544067334 H 0.0 **** 0.06
7403 H 34.99851995524671 93.6210650169064 23.649947850828866 H 0.0 **** 0.06
7404 H 36.2498490902463 94.85262052700898 23.350365599285 H 0.0 **** 0.06
7405 H 34.572071866741794 95.14421593689201 22.83022932535647 H 0.0 **** 0.06
7406 C 137.4292694657881 46.39002786773449 15.219234609174322 C 0.0 **** -0.24
7407 H 138.36045624683342 46.61207261651673 14.696736915274897 H 0.0 **** 0.06
7408 H 136.97272957148155 45.500889597438956 14.783569634215922 H 0.0 **** 0.06
7409 H 136.74784131368787 47.235006754088715 15.12140398213836 H 0.0 **** 0.06
7410 H 137.63868104932092 46.21213322712917 16.273785105815733 H 0.0 **** 0.06
7411 C 15.271802740873056 85.6188466232291 42.978047119803705 C 0.0 **** -0.24
7412 H 14.676140459228435 86.28056647761827 43.60689270129518 H 0.0 **** 0.06
7413 H 16.215748170251118 85.39545709955513 43.47563896714212 H 0.0 **** 0.06
7414 H 15.469583022059254 86.10621978661294 42.02401368376064 H 0.0 **** 0.06
7415 H 14.724058227747207 84.69211654401482 42.80529639182299 H 0.0 **** 0.06
7416 C 44.4635981049061 12.158858817210415 98.48983636580277 C 0.0 **** -0.24
7417 H 45.08130382594631 13.026255247864896 98.25299965313359 H 0.0 **** 0.06
7418 H 44.40913452871733 12.03621401331867 99.57094986932532 H 0.0 **** 0.06
7419 H 44.90551567781917 11.267099389299858 98.04450223003468 H 0.0 **** 0.06
7420 H 43.46088766575521 12.307373113990309 98.08924086233073 H 0.0 **** 0.06
7421 C 121.71509542070474 46.99147315669295 126.74230584563048 C 0.0 **** -0.24
7422 H 121.72212420255617 47.071600567855754 125.65525033647498 H 0.0 **** 0.06
7423 H 120.8171087669384 47.46791430779551 127.13595707640229 H 0.0 **** 0.06
7424 H 122.59780939878944 47.48715785449264 127.1484477672454 H 0.0 **** 0.06
7425 H 121.72511787497145 45.93982360206053 127.02888088229473 H 0.0 **** 0.06
7426 C 98.01404135596711 135.03720280378786 4.266042902415137 C 0.0 **** -0.24
7427 H 98.47674647495118 134.19844356643756 3.7445877744204097 H 0.0 **** 0.06
7428 H 98.57333975194614 135.25055083259812 5.176930603822711 H 0.0 **** 0.06
7429 H 96.98545278031877 134.78143006951638 4.522385196205079 H 0.0 **** 0.06
7430 H 98.01954431926421 135.9148095826813 3.62008507086054 H 0.0 **** 0.06
7431 C 17.563040573622857 42.79837632768009 134.66126284161442 C 0.0 **** -0.24
7432 H 17.63945805726135 41.83137146668625 135.15956645639125 H 0.0 **** 0.06
7433 H 16.72138847125683 42.78459025820992 133.96902072045788 H 0.0 **** 0.06
7434 H 18.483515687839542 42.99676666684758 134.1111716105254 H 0.0 **** 0.06
7435 H 17.40992277299293 43.5791464586174 135.4066476048969 H 0.0 **** 0.06
7436 C 88.4513283143974 99.82648575372063 119.54550654677202 C 0.0 **** -0.24
7437 H 88.87819532544252 99.56081221479883 120.51287443307261 H 0.0 **** 0.06
7438 H 87.70007947930286 99.08809364164308 119.26628666839055 H 0.0 **** 0.06
7439 H 89.24060382052782 99.84542464509889 118.7934859321277 H 0.0 **** 0.06
7440 H 87.98842877635951 100.81074903034873 119.61118970022723 H 0.0 **** 0.06
7441 C 32.338336271760795 131.27062591840195 122.08904734866995 C 0.0 **** -0.24
7442 H 32.63500768069426 131.1203076289155 123.12718991099011 H 0.0 **** 0.06
7443 H 32.1357120702923 132.3275387002149 121.91867348507726 H 0.0 **** 0.06
7444 H 31.440666457164923 130.6891903903716 121.87954054141689 H 0.0 **** 0.06
7445 H 33.144378899449066 130.94370374079023 121.43059861846378 H 0.0 **** 0.06
7446 C 12.479697594136155 129.04399750617216 106.78345954516068 C 0.0 **** -0.24
7447 H 13.276441721415111 129.47137853563135 107.39075326949525 H 0.0 **** 0.06
7448 H 11.646522789252302 128.75768495041 107.42628720127199 H 0.0 **** 0.06
7449 H 12.854132323506434 128.16381218157358 106.25997703070966 H 0.0 **** 0.06
7450 H 12.140396556962415 129.78212536673107 106.05623772397452 H 0.0 **** 0.06
7451 C 76.70395299306618 112.43137048140285 104.10715696470835 C 0.0 **** -0.24
7452 H 77.02212137246907 113.2250087979955 104.78316331642573 H 0.0 **** 0.06
7453 H 76.56985205990706 111.5069811202443 104.66853626156309 H 0.0 **** 0.06
7454 H 77.46272485282968 112.28363573106351 103.33877998237564 H 0.0 **** 0.06
7455 H 75.76146606875803 112.7121963762391 103.63659908826479 H 0.0 **** 0.06
7456 C 12.686379998271818 81.81653092887123 7.257506258517168 C 0.0 **** -0.24
7457 H 12.214729650869508 82.73221985503721 7.613322508285648 H 0.0 **** 0.06
7458 H 13.745332111553601 81.8275088631971 7.519029595938008 H 0.0 **** 0.06
7459 H 12.581320996617933 81.75170646049219 6.173700951746525 H 0.0 **** 0.06
7460 H 12.205383566419052 80.9561037808308 7.721863890662661 H 0.0 **** 0.06
7461 C 127.13380836202995 72.48557007639168 57.74802603492641 C 0.0 **** -0.24
7462 H 126.0434907633697 72.50343735531126 57.74096792968844 H 0.0 **** 0.06
7463 H 127.48033290575364 71.4617492312955 57.600926856830114 H 0.0 **** 0.06
7464 H 127.49609664868646 72.85761762072235 58.70630642243363 H 0.0 **** 0.06
7465 H 127.51283028008085 73.11708462676297 56.9453578642007 H 0.0 **** 0.06
7466 C 76.44259950071086 145.92858422504824 125.39414258657993 C 0.0 **** -0.24
7467 H 77.26851150828367 145.45296017512294 124.86485002371586 H 0.0 **** 0.06
7468 H 76.26139580950581 145.4022936046578 126.33210524219973 H 0.0 **** 0.06
7469 H 75.54527324208654 145.88897579014971 124.77614156505223 H 0.0 **** 0.06
7470 H 76.69582862351344 146.96711772874738 125.60264339058534 H 0.0 **** 0.06
7471 C 25.444585989331337 21.582230837607682 109.6278973668108 C 0.0 **** -0.24
7472 H 26.156234065914013 21.191376140106144 108.90099497601344 H 0.0 **** 0.06
7473 H 24.453180525584393 21.628809354477482 109.17760621494992 H 0.0 **** 0.06
7474 H 25.752291507801466 22.582116595699205 109.935049273467 H 0.0 **** 0.06
7475 H 25.41765870650714 20.926540550238627 110.4989144142589 H 0.0 **** 0.06
7476 C 91.65375723212867 46.4706975264327 67.37645442014178 C 0.0 **** -0.24
7477 H 91.69210411146577 45.639137671776126 66.67257714408315 H 0.0 **** 0.06
7478 H 90.67021944089532 46.50450341238508 67.84510040547573 H 0.0 **** 0.06
7479 H 91.83587190523045 47.404574650410865 66.84455099760402 H 0.0 **** 0.06
7480 H 92.4175883320338 46.33327770736 68.14226663799832 H 0.0 **** 0.06
7481 C 124.95670378567887 27.573096616756885 7.803250733440592 C 0.0 **** -0.24
7482 H 124.52797059498498 28.00949415612004 6.901430628464112 H 0.0 **** 0.06
7483 H 126.04258925015623 27.653240346640104 7.764030994661795 H 0.0 **** 0.06
7484 H 124.67084737102486 26.522964269056857 7.868974946320378 H 0.0 **** 0.06
7485 H 124.58312612117301 28.106428883129126 8.6777139558844 H 0.0 **** 0.06
7486 C 138.61016137987704 145.7645708407721 3.363066587965477 C 0.0 **** -0.24
7487 H 138.58050649146531 145.7308924933371 4.45259670518368 H 0.0 **** 0.06
7488 H 137.70143860509486 145.31388514624993 2.962287523061775 H 0.0 **** 0.06
7489 H 139.47834354272698 145.21174484426243 3.0062899350085104 H 0.0 **** 0.06
7490 H 138.67766693193784 146.8011887538855 3.0341642356493708 H 0.0 **** 0.06
7491 C 62.51407205683017 94.30092882181404 133.65753633833168 C 0.0 **** -0.24
7492 H 62.57881029038617 95.38651327412461 133.73317265765215 H 0.0 **** 0.06
7493 H 63.41870298819131 93.915317091752 133.18840211431228 H 0.0 **** 0.06
7494 H 61.64744102608253 94.0296169660767 133.05469886763456 H 0.0 **** 0.06
7495 H 62.410967634946445 93.87345879013822 134.65507498240385 H 0.0 **** 0.06
7496 C 39.06590316188661 25.215780488949918 100.04456556698337 C 0.0 **** -0.24
7497 H 39.17764348483571 26.2750180182855 100.27740555854271 H 0.0 **** 0.06
7498 H 38.69635526364698 24.68718392215103 100.92331155235317 H 0.0 **** 0.06
7499 H 40.03183075631992 24.804595057936965 99.75202344776527 H 0.0 **** 0.06
7500 H 38.357524982643675 25.097947825323168 99.22400518820211 H 0.0 **** 0.06
7501 C 138.9665480551368 114.33861463599604 105.83418367906111 C 0.0 **** -0.24
7502 H 138.08502615498062 114.04373598107023 106.40254374471138 H 0.0 **** 0.06
7503 H 139.3018662295316 115.32033238364247 106.16819633973657 H 0.0 **** 0.06
7504 H 138.7182738235718 114.38084171453292 104.77369781792052 H 0.0 **** 0.06
7505 H 139.76166400071426 113.60948703423347 105.99306442959042 H 0.0 **** 0.06
7506 C 102.12209070135079 142.3272533878968 94.0006776740668 C 0.0 **** -0.24
7507 H 101.18328136256636 141.98777627078312 94.43964446081895 H 0.0 **** 0.06
7508 H 102.15613188278827 142.0409084802615 92.9488671753908 H 0.0 **** 0.06
7509 H 102.95689089914599 141.86890600410305 94.52982769806928 H 0.0 **** 0.06
7510 H 102.18984635985127 143.4116833420815 94.08456635693639 H 0.0 **** 0.06
7511 C 49.75525665421361 123.95309390086841 44.63082759949742 C 0.0 **** -0.24
7512 H 49.21115147784191 123.30796314161823 45.31999761564545 H 0.0 **** 0.06
7513 H 50.02294726033615 124.88122045110954 45.13625053670248 H 0.0 **** 0.06
7514 H 49.12613972502959 124.17644729312248 43.76920260323871 H 0.0 **** 0.06
7515 H 50.660708969308985 123.4453661089786 44.29755428810813 H 0.0 **** 0.06
7516 C 62.352709441821304 42.94374121790065 107.50758498382363 C 0.0 **** -0.24
7517 H 62.65724439215232 42.12046801610768 108.1552826398091 H 0.0 **** 0.06
7518 H 63.18855652082456 43.63163972747083 107.37811760108617 H 0.0 **** 0.06
7519 H 61.51455551822785 43.471421112232974 107.96316859622549 H 0.0 **** 0.06
7520 H 62.05104263984862 42.55028705384689 106.53699061113979 H 0.0 **** 0.06
7521 C 115.8983505420848 143.81195629904343 140.59162709598866 C 0.0 **** -0.24
7522 H 116.31430105728795 144.27287235552805 141.4873251633997 H 0.0 **** 0.06
7523 H 115.47632543858138 144.58351909534835 139.9481093214933 H 0.0 **** 0.06
7524 H 115.11564693512206 143.1072219551847 140.8749980645127 H 0.0 **** 0.06
7525 H 116.68653010791779 143.28296060835757 140.05579968201369 H 0.0 **** 0.06
7526 C 48.09636519343546 5.491760380523658 117.334838025365 C 0.0 **** -0.24
7527 H 47.11585529707584 5.3733530647782 116.87282118275982 H 0.0 **** 0.06
7528 H 48.49818237307211 6.473506328539173 117.08610866143687 H 0.0 **** 0.06
7529 H 48.76828540589807 4.717936966522274 116.9650732412523 H 0.0 **** 0.06
7530 H 47.99980963515125 5.402350847599081 118.41705586770837 H 0.0 **** 0.06
7531 C 59.52363418833539 6.063349147580112 36.06788698546325 C 0.0 **** -0.24
7532 H 60.452236259914685 5.661196119603403 35.662923264141455 H 0.0 **** 0.06
7533 H 58.75451041019534 6.049487299329002 35.295013139067805 H 0.0 **** 0.06
7534 H 59.686285915610426 7.089175410080429 36.400023124113545 H 0.0 **** 0.06
7535 H 59.2018646403273 5.454932099838516 36.912200601181326 H 0.0 **** 0.06
7536 C 18.928057670202236 61.22749534522103 132.34009741663286 C 0.0 **** -0.24
7537 H 19.48311307208411 61.955843414023775 131.74974410012393 H 0.0 **** 0.06
7538 H 17.980133880027495 61.008433316770436 131.8476140814258 H 0.0 **** 0.06
7539 H 18.736354711678246 61.63278863726954 133.3328374378971 H 0.0 **** 0.06
7540 H 19.511804447284305 60.31157429162049 132.42745174240045 H 0.0 **** 0.06
7541 C 139.1308700346053 59.786156795838764 146.83319811629454 C 0.0 **** -0.24
7542 H 139.22272800188435 59.85628709597643 147.91741782064918 H 0.0 **** 0.06
7543 H 138.31666750668134 60.426074243795455 146.49496396638253 H 0.0 **** 0.06
7544 H 138.92331069946485 58.753219975794735 146.55338185434607 H 0.0 **** 0.06
7545 H 140.06318712234375 60.10778508679559 146.36939259445217 H 0.0 **** 0.06
7546 C 74.34984418336137 96.85743947979428 136.27407759669947 C 0.0 **** -0.24
7547 H 74.13806167495089 96.23678948474578 137.14536358680198 H 0.0 **** 0.06
7548 H 73.4238073626038 97.31414005879186 135.92172415076615 H 0.0 **** 0.06
7549 H 74.77535619184161 96.24052677679585 135.48255518202512 H 0.0 **** 0.06
7550 H 75.05879713869108 97.6385223311656 136.54831064178302 H 0.0 **** 0.06
7551 C 48.60196953284765 103.23765523121233 84.9787240940338 C 0.0 **** -0.24
7552 H 48.59733965667809 103.85363224635557 85.87700261472773 H 0.0 **** 0.06
7553 H 49.439082452428096 102.54054129524064 85.02030073076227 H 0.0 **** 0.06
7554 H 48.70234283230437 103.87533220021226 84.10066330295344 H 0.0 **** 0.06
7555 H 47.666940960703954 102.67998716728553 84.91683370670091 H 0.0 **** 0.06
7556 C 67.4430699726816 103.02384610928283 5.4071105777038895 C 0.0 **** -0.24
7557 H 66.62222073289439 102.92539678962487 6.117518026258807 H 0.0 **** 0.06
7558 H 67.95190724817047 102.06536193574473 5.306089841074311 H 0.0 **** 0.06
7559 H 68.14736806179275 103.77318825922083 5.767918025125709 H 0.0 **** 0.06
7560 H 67.05011207105929 103.3311311448391 4.438775191584597 H 0.0 **** 0.06
7561 C 93.58066937176164 137.56367888709443 32.18307353174612 C 0.0 **** -0.24
7562 H 94.37406742763159 136.98478414652917 32.654156146587184 H 0.0 **** 0.06
7563 H 93.2452548272089 137.05213863873567 31.279363267036217 H 0.0 **** 0.06
7564 H 93.95750137260484 138.55284754332766 31.922703599265958 H 0.0 **** 0.06
7565 H 92.74438747104529 137.663786535515 32.874843377002605 H 0.0 **** 0.06
7566 C 111.28576370845434 54.27358655493438 135.5514958798298 C 0.0 **** -0.24
7567 H 112.01543356401521 53.66004943660778 136.08085646144778 H 0.0 **** 0.06
7568 H 110.7049452173477 54.85011225670746 136.27159134946507 H 0.0 **** 0.06
7569 H 110.61883810939048 53.63033184602605 134.97840333217576 H 0.0 **** 0.06
7570 H 111.80517732640948 54.952837842479795 134.87621695110582 H 0.0 **** 0.06
7571 C 32.73087304869075 0.880129057694063 34.56209487060265 C 0.0 **** -0.24
7572 H 32.774233341692565 0.19016643085720375 33.71944195378231 H 0.0 **** 0.06
7573 H 33.447525543691086 0.5706766673196455 35.32294236402376 H 0.0 **** 0.06
7574 H 31.726289522646113 0.8742671420706927 34.98371913473018 H 0.0 **** 0.06
7575 H 32.976123623854846 1.8859589910680938 34.21958673541391 H 0.0 **** 0.06
7576 C 31.08052055255974 53.7064016407696 70.87293573253729 C 0.0 **** -0.24
7577 H 31.824137821440203 54.50026447304222 70.9362730161192 H 0.0 **** 0.06
7578 H 31.42796902716212 52.93785478519143 70.1811728840768 H 0.0 **** 0.06
7579 H 30.137867947370665 54.119550231437586 70.51401541838916 H 0.0 **** 0.06
7580 H 30.933136113998614 53.26745909319962 71.85943699035721 H 0.0 **** 0.06
7581 C 1.4786767652815342 12.363706553126065 37.51743402614812 C 0.0 **** -0.24
7582 H 1.457151933036016 11.397114170014447 38.020663920543825 H 0.0 **** 0.06
7583 H 2.2567902549723726 12.358934723104 36.754140432293696 H 0.0 **** 0.06
7584 H 1.6880313045693924 13.14722254764402 38.24619727526226 H 0.0 **** 0.06
7585 H 0.5114869964197624 12.551092397305126 37.05079177749451 H 0.0 **** 0.06
7586 C 69.14767141057433 50.52774032243639 103.44164869890635 C 0.0 **** -0.24
7587 H 69.19693924599744 50.24339233924212 104.49264269508835 H 0.0 **** 0.06
7588 H 68.19006285296561 50.212567820343054 103.025041336815 H 0.0 **** 0.06
7589 H 69.95853353836137 50.04484703507546 102.89636238564172 H 0.0 **** 0.06
7590 H 69.24345897555062 51.609975989100406 103.35287823798025 H 0.0 **** 0.06
7591 C 91.38699633254915 81.74406229258389 120.00251100013581 C 0.0 **** -0.24
7592 H 92.22965219312289 82.4360768304823 119.98508957918527 H 0.0 **** 0.06
7593 H 91.7168444433336 80.7812497227116 120.39344409203959 H 0.0 **** 0.06
7594 H 91.002599785709 81.6144524093624 118.9908005389906 H 0.0 **** 0.06
7595 H 90.60089442380448 82.14513475836355 120.64144222599457 H 0.0 **** 0.06
7596 C 125.35712079664921 60.632176937238256 131.77851508567124 C 0.0 **** -0.24
7597 H 125.00620540777963 61.35977363160406 131.046791832939 H 0.0 **** 0.06
7598 H 125.10547112748598 59.62698496075498 131.4396832183221 H 0.0 **** 0.06
7599 H 124.87923450701315 60.822512388422425 132.73806992678038 H 0.0 **** 0.06
7600 H 126.43811726600248 60.71905574170279 131.88658996029812 H 0.0 **** 0.06
7601 C 92.86965320247381 130.98346482519227 87.70997141948803 C 0.0 **** -0.24
7602 H 91.93228020800953 131.53782889423903 87.65464632105818 H 0.0 **** 0.06
7603 H 92.67083152339302 129.96454310486016 88.04166546321807 H 0.0 **** 0.06
7604 H 93.53818404021001 131.4725497606511 88.41809140166706 H 0.0 **** 0.06
7605 H 93.33617791566365 130.96152644715627 86.72549853800902 H 0.0 **** 0.06
7606 C 27.88203720991588 135.2291033994536 59.76430646631984 C 0.0 **** -0.24
7607 H 27.655593064002915 135.79872036571652 60.66447365567207 H 0.0 **** 0.06
7608 H 27.023691850318123 135.25699601780806 59.09113277092624 H 0.0 **** 0.06
7609 H 28.099175548781226 134.1950184757537 60.03274605374182 H 0.0 **** 0.06
7610 H 28.74873952043737 135.6640131320473 59.26679354843499 H 0.0 **** 0.06
7611 C 74.18681098211889 124.72023613704818 15.488659072122772 C 0.0 **** -0.24
7612 H 73.59025943031904 125.34848148263299 16.149881805958046 H 0.0 **** 0.06
7613 H 75.21698003731746 125.07934537410068 15.478226512427284 H 0.0 **** 0.06
7614 H 73.77641104413587 124.76392434554941 14.479610148538143 H 0.0 **** 0.06
7615 H 74.16404550421973 123.69156945295856 15.846530585499153 H 0.0 **** 0.06
7616 C 139.82069927196477 10.177975016601373 23.439250118348497 C 0.0 **** -0.24
7617 H 140.82277455235413 9.972966756850653 23.06300257152091 H 0.0 **** 0.06
7618 H 139.80096397384617 11.165353696714334 23.90008884094192 H 0.0 **** 0.06
7619 H 139.5498918772132 9.425080162381533 24.179700785182064 H 0.0 **** 0.06
7620 H 139.10861434276535 10.147206506049137 22.614055676200053 H 0.0 **** 0.06
7621 C 83.99331586152158 18.22645497980917 127.83757988719537 C 0.0 **** -0.24
7622 H 83.5285745859712 18.378747010983282 126.86294138798085 H 0.0 **** 0.06
7623 H 83.89953809336505 17.17778452739298 128.12437004238484 H 0.0 **** 0.06
7624 H 83.49730769591142 18.851846958088935 128.5783829496045 H 0.0 **** 0.06
7625 H 85.04848642813741 18.494288078244658 127.78271649857004 H 0.0 **** 0.06
7626 C 99.8313483839047 22.512738973745172 111.29214117596771 C 0.0 **** -0.24
7627 H 99.1758794203363 21.790599241072925 110.8051636259614 H 0.0 **** 0.06
7628 H 99.37967097878294 22.838163480513856 112.2296772683512 H 0.0 **** 0.06
7629 H 99.97321764692455 23.372921968203684 110.63843192453206 H 0.0 **** 0.06
7630 H 100.79647753113412 22.047948557629695 111.49481357034799 H 0.0 **** 0.06
7631 C 77.10437377693023 139.79312827235736 150.16179714758565 C 0.0 **** -0.24
7632 H 77.31206792952963 139.12225650325652 149.3287301278938 H 0.0 **** 0.06
7633 H 77.8801625943023 139.6837092363641 150.91998161700275 H 0.0 **** 0.06
7634 H 76.1349658230908 139.54586608097924 150.59463789951178 H 0.0 **** 0.06
7635 H 77.08933270289577 140.82340209470195 149.8030239808393 H 0.0 **** 0.06
7636 C 31.698565604274563 141.90273263368434 118.89018161314316 C 0.0 **** -0.24
7637 H 31.2636945337391 141.59606972880903 119.84102727240288 H 0.0 **** 0.06
7638 H 31.64459065787149 142.98704606924684 118.79862003195497 H 0.0 **** 0.06
7639 H 31.144776615930283 141.4411069787866 118.07229835913638 H 0.0 **** 0.06
7640 H 32.740145007188204 141.58481134018638 118.84824274956695 H 0.0 **** 0.06
7641 C 100.12201714264683 97.55268433527206 35.555355179295304 C 0.0 **** -0.24
7642 H 100.30344866163637 96.4794515711494 35.50476375261644 H 0.0 **** 0.06
7643 H 99.05065942059147 97.73662167136892 35.641315666753485 H 0.0 **** 0.06
7644 H 100.50111936302886 98.02867945119894 34.65101307554596 H 0.0 **** 0.06
7645 H 100.63361005715245 97.9670798415807 36.424785788323845 H 0.0 **** 0.06
7646 C 125.83508391248853 80.93351856960541 132.42251654720442 C 0.0 **** -0.24
7647 H 125.83159815111748 81.87956930100498 131.8820090886619 H 0.0 **** 0.06
7648 H 126.42350120117152 80.20085095949892 131.86876226150704 H 0.0 **** 0.06
7649 H 124.81205591932024 80.57204244150782 132.52904933994563 H 0.0 **** 0.06
7650 H 126.27314452504697 81.08072237665937 133.40914635742655 H 0.0 **** 0.06
7651 C 120.26346635021532 146.607658324082 9.041555258152613 C 0.0 **** -0.24
7652 H 119.66969397280293 145.9968385406343 8.360895231991407 H 0.0 **** 0.06
7653 H 120.95666113402957 145.9706890967427 9.589830401790493 H 0.0 **** 0.06
7654 H 119.60227909734597 147.1152872347067 9.743239486995066 H 0.0 **** 0.06
7655 H 120.82264456577606 147.3480452432889 8.469754238497302 H 0.0 **** 0.06
7656 C 97.35258616243334 58.84477109882319 93.69141100477003 C 0.0 **** -0.24
7657 H 98.21977805624385 58.324068069858626 94.09834967634043 H 0.0 **** 0.06
7658 H 97.28087394258209 59.836018984755796 94.1406520560883 H 0.0 **** 0.06
7659 H 96.44936902176231 58.27770774730877 93.91685154881105 H 0.0 **** 0.06
7660 H 97.46124469918085 58.941583730743105 92.6115415261192 H 0.0 **** 0.06
7661 C 44.09269277813485 15.33951501642511 12.323814575673907 C 0.0 **** -0.24
7662 H 43.27903104098783 14.82457047076943 12.834432995155026 H 0.0 **** 0.06
7663 H 44.23743171341522 16.323156651707762 12.772711364932633 H 0.0 **** 0.06
7664 H 43.84436930662986 15.453731612319558 11.26843240674961 H 0.0 **** 0.06
7665 H 45.008738570038815 14.757280088004933 12.421441739268971 H 0.0 **** 0.06
7666 C 3.5052569013857635 79.86147703440459 74.44329771720284 C 0.0 **** -0.24
7667 H 3.9078345108534336 80.80180379450263 74.06654933872744 H 0.0 **** 0.06
7668 H 2.5637344756311506 79.64179679717077 73.93912946314498 H 0.0 **** 0.06
7669 H 3.3314540335812524 79.94573527403274 75.51644524993125 H 0.0 **** 0.06
7670 H 4.216377628209102 79.05823416001384 74.25183581478981 H 0.0 **** 0.06
7671 C 31.904739359343296 29.25540568737287 26.58440847320159 C 0.0 **** -0.24
7672 H 32.604248234466354 30.08520262495105 26.47415000258829 H 0.0 **** 0.06
7673 H 32.39340548534352 28.43753452049711 27.113245526379615 H 0.0 **** 0.06
7674 H 31.588240173379006 28.914686089435747 25.598755444739396 H 0.0 **** 0.06
7675 H 31.03439559373777 29.58815548799072 27.1507235921666 H 0.0 **** 0.06
7676 C 124.72389010191645 6.16494073293515 90.23747700832328 C 0.0 **** -0.24
7677 H 125.38939010189657 5.316931810803368 90.39546454022305 H 0.0 **** 0.06
7678 H 123.80159592720534 5.82050785063592 89.7697827441169 H 0.0 **** 0.06
7679 H 125.21093671381104 6.892852929244384 89.5889387286043 H 0.0 **** 0.06
7680 H 124.49363496107591 6.629387367285432 91.19671858677614 H 0.0 **** 0.06
7681 C 82.57066457316722 97.08217914301824 78.27395812055408 C 0.0 **** -0.24
7682 H 83.14709332133695 96.95335769100458 77.35799337970778 H 0.0 **** 0.06
7683 H 82.0668416139199 98.04866082499625 78.25298009827166 H 0.0 **** 0.06
7684 H 83.23954957444496 97.03803268258498 79.13262765905041 H 0.0 **** 0.06
7685 H 81.82857470415641 96.28694584326308 78.34984709482401 H 0.0 **** 0.06
7686 C 115.62769043481251 108.91894473811557 111.11398252362687 C 0.0 **** -0.24
7687 H 114.94746668595258 108.60962388061365 110.3200771369169 H 0.0 **** 0.06
7688 H 115.8534233634291 109.98059613334745 111.00514544544023 H 0.0 **** 0.06
7689 H 116.5498953929432 108.34175361704239 111.04671507316783 H 0.0 **** 0.06
7690 H 115.15920153817848 108.74374568199114 112.08189568553473 H 0.0 **** 0.06
7691 C 27.969523018488275 93.47393909691372 38.25945640864026 C 0.0 **** -0.24
7692 H 27.95873675705255 92.85872634866072 37.3594067232125 H 0.0 **** 0.06
7693 H 28.148923052202974 94.51428973958663 37.986438668086834 H 0.0 **** 0.06
7694 H 28.76219894644771 93.13038570233078 38.92427625719898 H 0.0 **** 0.06
7695 H 27.00927704694493 93.39203039077272 38.76680643724258 H 0.0 **** 0.06
7696 C 103.08216785616735 98.298804306208 16.095798174425916 C 0.0 **** -0.24
7697 H 103.44490201131661 98.18524297560117 15.074296713568785 H 0.0 **** 0.06
7698 H 103.7753368346945 98.92373755681083 16.660100161780463 H 0.0 **** 0.06
7699 H 103.01162496206571 97.31821939726437 16.566924945138346 H 0.0 **** 0.06
7700 H 102.09840364857286 98.76658147797897 16.082496412152345 H 0.0 **** 0.06
7701 C 145.45023875492822 64.41837123729897 124.80856543126758 C 0.0 **** -0.24
7702 H 145.03497458279847 63.46077468126015 124.49610911606392 H 0.0 **** 0.06
7703 H 144.82525729208018 65.22707767559582 124.4293457549539 H 0.0 **** 0.06
7704 H 146.46003648207315 64.52405977871028 124.41132496678672 H 0.0 **** 0.06
7705 H 145.48205716230186 64.4633382546272 125.89755352590747 H 0.0 **** 0.06
7706 C 142.3678121086122 84.66680127128058 44.85101551141241 C 0.0 **** -0.24
7707 H 143.14162969993717 85.07003982942263 45.50296138570479 H 0.0 **** 0.06
7708 H 141.45551644421133 84.50701402986778 45.4260269502 H 0.0 **** 0.06
7709 H 142.7045692605251 83.71913946790272 44.43027304264933 H 0.0 **** 0.06
7710 H 142.16963033912026 85.37225788234161 44.04294651288325 H 0.0 **** 0.06
7711 C 42.19781724184345 124.18751208140422 79.58595135438928 C 0.0 **** -0.24
7712 H 42.58405131356858 124.40660506359653 80.5810372622588 H 0.0 **** 0.06
7713 H 41.40365526457019 123.44468614445044 79.65988956759438 H 0.0 **** 0.06
7714 H 43.00316156518171 123.7979058631186 78.96184554260023 H 0.0 **** 0.06
7715 H 41.80198517053982 125.10035369995242 79.14054070829543 H 0.0 **** 0.06
7716 C 125.23594965793572 22.572894585463473 140.73942943563924 C 0.0 **** -0.24
7717 H 124.53226497756012 21.814521881790427 140.39720703492634 H 0.0 **** 0.06
7718 H 126.25529128675836 22.23092496089771 140.55884172292707 H 0.0 **** 0.06
7719 H 125.09419486230914 22.74399052907455 141.80727787854025 H 0.0 **** 0.06
7720 H 125.06180751759283 23.501520089634084 140.19674846338074 H 0.0 **** 0.06
7721 C 6.426832375415124 85.65010714778487 137.79010577340827 C 0.0 **** -0.24
7722 H 6.088822737734546 85.80067366762924 136.76530937607797 H 0.0 **** 0.06
7723 H 5.5624419375051275 85.57163631636826 138.4501224506195 H 0.0 **** 0.06
7724 H 7.043218231026302 86.49529200261964 138.0965311707881 H 0.0 **** 0.06
7725 H 7.012846595394564 84.73282660452222 137.84846009614748 H 0.0 **** 0.06
7726 C 67.88932206151682 148.43005636340666 44.27598152709213 C 0.0 **** -0.24
7727 H 67.84029169617604 148.71110531547626 45.32770628771016 H 0.0 **** 0.06
7728 H 67.6115627356721 147.38137205209233 44.166855539168594 H 0.0 **** 0.06
7729 H 68.9038140604383 148.57780003559722 43.90704489325246 H 0.0 **** 0.06
7730 H 67.20052365520118 149.05083968692364 43.70225917591863 H 0.0 **** 0.06
7731 C 122.70674648826842 98.41714888509175 4.9402867275377105 C 0.0 **** -0.24
7732 H 121.72765754458162 98.16267742759072 4.536778944039014 H 0.0 **** 0.06
7733 H 123.42429213067844 97.64377383126602 4.665281674144381 H 0.0 **** 0.06
7734 H 122.64577595731102 98.48664750131115 6.026215366491158 H 0.0 **** 0.06
7735 H 123.03077062725647 99.37485370326644 4.532318172936641 H 0.0 **** 0.06
7736 C 18.888725815260216 23.192120742483382 73.28848968522153 C 0.0 **** -0.24
7737 H 19.27130798987173 23.952757948963324 73.96896187349638 H 0.0 **** 0.06
7738 H 17.941634217922797 23.52668047776541 72.86585420085217 H 0.0 **** 0.06
7739 H 18.735421884176674 22.260857176633237 73.8343409300407 H 0.0 **** 0.06
7740 H 19.60821826700527 23.029544762872547 72.48595859647492 H 0.0 **** 0.06
7741 C 150.15109111771 60.03387320791187 82.44087104833051 C 0.0 **** -0.24
7742 H 149.25676233058306 59.45453809972838 82.21075075840473 H 0.0 **** 0.06
7743 H 150.53608804896106 59.73543475329913 83.41718883604709 H 0.0 **** 0.06
7744 H 149.90235136568216 61.09530999293764 82.45772324420706 H 0.0 **** 0.06
7745 H 150.90968491565025 59.84964729604138 81.67966820179707 H 0.0 **** 0.06
7746 C 70.8218136825335 43.59648363349183 110.15020984746323 C 0.0 **** -0.24
7747 H 71.15366192284893 44.57773989723255 109.8093500329866 H 0.0 **** 0.06
7748 H 70.91492158498608 43.537351447616516 111.23451597529098 H 0.0 **** 0.06
7749 H 71.43700737365404 42.824806299363416 109.68924972228493 H 0.0 **** 0.06
7750 H 69.77985937834029 43.44793045800259 109.8662544364964 H 0.0 **** 0.06
7751 C 110.68463231705381 72.15199755627526 15.23238473334169 C 0.0 **** -0.24
7752 H 110.4282439331855 72.34369900816085 14.190394311952787 H 0.0 **** 0.06
7753 H 111.06773630672755 73.06671260683146 15.685741354654397 H 0.0 **** 0.06
7754 H 111.44598539594664 71.37407540297966 15.281375182607917 H 0.0 **** 0.06
7755 H 109.79527807903132 71.8253868985077 15.7703549576633 H 0.0 **** 0.06
7756 C 60.59485015814954 109.27837810845338 97.76679602284283 C 0.0 **** -0.24
7757 H 61.36235490353667 108.55814439128548 98.05363642174503 H 0.0 **** 0.06
7758 H 60.231392981427575 109.04196656715865 96.76694756813957 H 0.0 **** 0.06
7759 H 61.018681881371236 110.28173806408884 97.77270289853193 H 0.0 **** 0.06
7760 H 59.76784714995651 109.22795138701488 98.47575560591183 H 0.0 **** 0.06
7761 C 111.91158498176279 125.54722538902297 18.432091779853153 C 0.0 **** -0.24
7762 H 112.89628494825146 125.9292818594061 18.70032729756435 H 0.0 **** 0.06
7763 H 111.83143980229048 124.50309285934287 18.735280683164177 H 0.0 **** 0.06
7764 H 111.77264235067005 125.62414718930864 17.353702950563566 H 0.0 **** 0.06
7765 H 111.1450733354562 126.13264051791217 18.93940675987941 H 0.0 **** 0.06
7766 C 104.1372068191259 52.433828787472805 6.128559742606683 C 0.0 **** -0.24
7767 H 104.25295416271273 51.36971745347867 5.92068926446791 H 0.0 **** 0.06
7768 H 103.2315827390674 52.59265129756771 6.713174046968277 H 0.0 **** 0.06
7769 H 104.06408922572685 52.98141816705167 5.187691389479312 H 0.0 **** 0.06
7770 H 105.001035729033 52.789732825318325 6.689509288541359 H 0.0 **** 0.06
7771 C 132.38660588445865 89.52864324556316 26.12815122783342 C 0.0 **** -0.24
7772 H 131.97212016154356 89.63878185110018 25.125622131311246 H 0.0 **** 0.06
7773 H 131.6165321098843 89.75547143152293 26.865772306585903 H 0.0 **** 0.06
7774 H 133.22349729495514 90.21473842953826 26.252419456561498 H 0.0 **** 0.06
7775 H 132.73237340628677 88.5042569183305 26.2668846397157 H 0.0 **** 0.06
7776 C 142.6190945388286 37.67612889913033 28.294127390817934 C 0.0 **** -0.24
7777 H 142.4116291022518 36.80932021745336 27.66715509206889 H 0.0 **** 0.06
7778 H 141.98499320383056 38.50770047159037 27.9857822572651 H 0.0 **** 0.06
7779 H 143.66735228670157 37.95856916924059 28.187841277796352 H 0.0 **** 0.06
7780 H 142.41402548409877 37.42837910821888 29.3354650868405 H 0.0 **** 0.06
7781 C 130.2331739835114 14.596950380061116 97.33073540941177 C 0.0 **** -0.24
7782 H 131.23416167984064 15.0241687464748 97.36884713864208 H 0.0 **** 0.06
7783 H 130.30086751416522 13.532406634935512 97.10507702094044 H 0.0 **** 0.06
7784 H 129.65415641606577 15.09660192813368 96.55322301742746 H 0.0 **** 0.06
7785 H 129.74204457677484 14.734752417846892 98.29443973022936 H 0.0 **** 0.06
7786 C 78.52166365314767 14.361345233143709 92.4731148018482 C 0.0 **** -0.24
7787 H 79.29668439736786 13.756297506482525 92.00301208457454 H 0.0 **** 0.06
7788 H 78.38026751507553 15.279372929793112 91.90108872482999 H 0.0 **** 0.06
7789 H 78.82388977209752 14.609933863401494 93.49097952236008 H 0.0 **** 0.06
7790 H 77.58700127513583 13.800886765520119 92.49797515288371 H 0.0 **** 0.06
7791 C 32.4216935178332 73.86435163556263 33.366682644142045 C 0.0 **** -0.24
7792 H 31.340018022687183 73.80928964172932 33.25092546996083 H 0.0 **** 0.06
7793 H 32.87759239126184 74.11567846809811 32.409008103461645 H 0.0 **** 0.06
7794 H 32.80033836942739 72.90131783785591 33.70749259502523 H 0.0 **** 0.06
7795 H 32.6693231736423 74.63204669873181 34.100250195687124 H 0.0 **** 0.06
7796 C 58.494911863927626 115.23195606953077 67.30490026093739 C 0.0 **** -0.24
7797 H 58.818572792163735 114.262884327561 67.68307614747673 H 0.0 **** 0.06
7798 H 57.41462152565805 115.32614982975967 67.42520357490562 H 0.0 **** 0.06
7799 H 58.75139818796137 115.31395952933904 66.24913530273145 H 0.0 **** 0.06
7800 H 58.993112383409226 116.02444609211302 67.86246662864019 H 0.0 **** 0.06
7801 C 139.9234826517962 114.0130223004661 87.9132612687284 C 0.0 **** -0.24
7802 H 139.97095315194895 114.54335094116209 86.96212533190105 H 0.0 **** 0.06
7803 H 138.88765673649732 113.74911931678474 88.13051097159985 H 0.0 **** 0.06
7804 H 140.31071932512083 114.6529319186372 88.705705523897 H 0.0 **** 0.06
7805 H 140.5245372820593 113.10494785846231 87.85187984689007 H 0.0 **** 0.06
7806 C 12.580677393080094 143.61917018373163 82.68188797129844 C 0.0 **** -0.24
7807 H 12.416546939081599 144.6061584783406 82.25029006010433 H 0.0 **** 0.06
7808 H 12.151520133601252 142.86070545305907 82.0270202062068 H 0.0 **** 0.06
7809 H 12.10254274966016 143.56704226932473 83.66071404144569 H 0.0 **** 0.06
7810 H 13.650501108062855 143.4426086713709 82.79017328894574 H 0.0 **** 0.06
7811 C 140.07513906801762 107.62209692392268 137.6509709970795 C 0.0 **** -0.24
7812 H 140.04116734742857 108.62427080797498 137.22226718836268 H 0.0 **** 0.06
7813 H 141.02308454022005 107.48248040240061 138.17170138266235 H 0.0 **** 0.06
7814 H 139.9867491671273 106.88315232336937 136.85421406593574 H 0.0 **** 0.06
7815 H 139.25234146329197 107.49937406008262 138.35359294192017 H 0.0 **** 0.06
7816 C 79.71712396834681 14.159893084938744 37.354119943175675 C 0.0 **** -0.24
7817 H 80.4168863708366 13.843895489326712 36.579755931820536 H 0.0 **** 0.06
7818 H 79.48627103649825 15.216702143434759 37.225178202614366 H 0.0 **** 0.06
7819 H 80.16653712874302 14.002049272194085 38.33465124507561 H 0.0 **** 0.06
7820 H 78.80097480110511 13.573983517363331 37.276105920404476 H 0.0 **** 0.06
7821 C 98.31642287041365 68.3573539375102 52.64580399990594 C 0.0 **** -0.24
7822 H 97.61112002613964 67.52632344907335 52.657324081548765 H 0.0 **** 0.06
7823 H 98.77413921992562 68.45875449375758 53.62983456562806 H 0.0 **** 0.06
7824 H 97.78851259811603 69.2770490096161 52.39351209504541 H 0.0 **** 0.06
7825 H 99.08952508468896 68.16700701952455 51.90211289449158 H 0.0 **** 0.06
7826 C 24.977877843288326 5.615167332037004 70.26638135894348 C 0.0 **** -0.24
7827 H 25.694662204546034 4.994680872616215 70.80323252658584 H 0.0 **** 0.06
7828 H 25.305949380836083 6.6549857555836525 70.29190090658446 H 0.0 **** 0.06
7829 H 23.999215704811007 5.530870613943279 70.7386058369566 H 0.0 **** 0.06
7830 H 24.910732623114953 5.280071295424079 69.2307416074296 H 0.0 **** 0.06
7831 C 63.26887469883519 117.79869812848615 91.04252840887656 C 0.0 **** -0.24
7832 H 63.1686394628002 118.87956875955452 90.94975978651496 H 0.0 **** 0.06
7833 H 63.0264841987603 117.49772051874614 92.06165195494367 H 0.0 **** 0.06
7834 H 64.29355733956996 117.5072510224884 90.81087225987395 H 0.0 **** 0.06
7835 H 62.58638300014587 117.30923678643235 90.34694649438154 H 0.0 **** 0.06
7836 C 136.75155032388454 62.63357382119588 37.84883679661755 C 0.0 **** -0.24
7837 H 136.96441775871932 61.70677059082635 37.31505523904178 H 0.0 **** 0.06
7838 H 137.25782305572693 62.621265369511775 38.813847621592856 H 0.0 **** 0.06
7839 H 135.67675584407203 62.72556325268049 38.00294788796677 H 0.0 **** 0.06
7840 H 137.10794443763473 63.480537031578166 37.261392255302525 H 0.0 **** 0.06
7841 C 0.7928854800862268 100.93837244910102 78.20956114615379 C 0.0 **** -0.24
7842 H 1.7978616113956036 101.35110493593848 78.29334256269343 H 0.0 **** 0.06
7843 H 0.13985499186634343 101.66835082227763 77.73105174535701 H 0.0 **** 0.06
7844 H 0.4116836986307817 100.70531727237741 79.2036914009976 H 0.0 **** 0.06
7845 H 0.8230855250035347 100.02898697903251 77.61034877511344 H 0.0 **** 0.06
7846 C 137.62940044610457 70.14003611709454 61.495986730151586 C 0.0 **** -0.24
7847 H 137.8891636513339 69.84485851017244 60.479580450103484 H 0.0 **** 0.06
7848 H 136.54563414746445 70.21760364059304 61.5852469603674 H 0.0 **** 0.06
7849 H 138.08196761126337 71.10602574911168 61.72053402027991 H 0.0 **** 0.06
7850 H 138.00005557419246 69.39346775784222 62.19713284954267 H 0.0 **** 0.06
7851 C 87.26480894872873 8.632505828041701 130.7971876781106 C 0.0 **** -0.24
7852 H 86.2927540720524 8.763472015842268 131.2722336166943 H 0.0 **** 0.06
7853 H 87.78467067377005 7.7934189198023205 131.2594369908285 H 0.0 **** 0.06
7854 H 87.85535045063722 9.539858078424174 130.92119205865902 H 0.0 **** 0.06
7855 H 87.1250463395458 8.43274257005254 129.73423961669718 H 0.0 **** 0.06
7856 C 8.109012170432777 112.93455305085583 127.44656861590653 C 0.0 **** -0.24
7857 H 7.252225250000663 112.53005700565244 127.9838027742564 H 0.0 **** 0.06
7858 H 7.968659780665803 112.78628796929031 126.37519370111241 H 0.0 **** 0.06
7859 H 9.015266241156041 112.42229303117581 127.76857900304317 H 0.0 **** 0.06
7860 H 8.199731135222521 114.00005085087231 127.65676370732511 H 0.0 **** 0.06
7861 C 83.58241422536061 119.29521487785847 54.66620817782015 C 0.0 **** -0.24
7862 H 83.391673212514 120.05991807403784 55.41984231227377 H 0.0 **** 0.06
7863 H 84.50253045134241 119.53209291483985 54.13191573607676 H 0.0 **** 0.06
7864 H 82.75004759051609 119.26415573036807 53.96276619902167 H 0.0 **** 0.06
7865 H 83.68345318265693 118.32490282441925 55.152787200519015 H 0.0 **** 0.06
7866 C 36.935819386361516 77.51163705613934 117.714602040847 C 0.0 **** -0.24
7867 H 36.308000951130595 78.40257166045828 117.72573868224428 H 0.0 **** 0.06
7868 H 36.88988500098358 77.02355491288179 118.68880550270363 H 0.0 **** 0.06
7869 H 37.96562557649821 77.79561331512949 117.4983379156162 H 0.0 **** 0.06
7870 H 36.578665290738655 76.82525894510147 116.9462911946958 H 0.0 **** 0.06
7871 C 88.50457550297256 41.865512498008485 22.73311036830873 C 0.0 **** -0.24
7872 H 87.58182337022566 41.30171293432696 22.87297125089148 H 0.0 **** 0.06
7873 H 88.30246550584849 42.929196647130965 22.856581183684767 H 0.0 **** 0.06
7874 H 88.89254365372858 41.6830478564447 21.73000273545327 H 0.0 **** 0.06
7875 H 89.24043991446484 41.54590608896953 23.470614791987572 H 0.0 **** 0.06
7876 C 65.75385566169095 73.74433090513368 80.99886843200738 C 0.0 **** -0.24
7877 H 64.9595819063284 73.00972105871034 80.86768137003108 H 0.0 **** 0.06
7878 H 65.83900062032234 74.00268710428001 82.05473533722076 H 0.0 **** 0.06
7879 H 65.51859254502625 74.63972535508385 80.42301293788373 H 0.0 **** 0.06
7880 H 66.69738116294766 73.32571999576908 80.64905989983791 H 0.0 **** 0.06
7881 C 53.089223793861834 48.38495425231875 79.87437361530996 C 0.0 **** -0.24
7882 H 52.8492560578281 49.19231458607402 80.56639620774999 H 0.0 **** 0.06
7883 H 52.621835869971335 48.58317122240871 78.90935595851295 H 0.0 **** 0.06
7884 H 52.71484302677409 47.44235250170692 80.27379628385572 H 0.0 **** 0.06
7885 H 54.17009445945955 48.32294160338839 79.75002531198456 H 0.0 **** 0.06
7886 C 81.29930982921171 0.5701397691819352 65.86295604223739 C 0.0 **** -0.24
7887 H 80.86673204555233 0.336735809688804 64.88926892937744 H 0.0 **** 0.06
7888 H 81.18837108854079 -0.28969714829815985 66.52481902876426 H 0.0 **** 0.06
7889 H 80.78323990466886 1.4285106530267342 66.29183680021183 H 0.0 **** 0.06
7890 H 82.35728265799547 0.803668698662733 65.74333071810653 H 0.0 **** 0.06
7891 C 76.13394184164228 141.7609189530963 113.87615185276118 C 0.0 **** -0.24
7892 H 77.13081582027694 141.3673558474044 113.67500296972568 H 0.0 **** 0.06
7893 H 76.1917683997396 142.8387116363453 114.0247972941822 H 0.0 **** 0.06
7894 H 75.73243784436725 141.29015658833003 114.77314058986698 H 0.0 **** 0.06
7895 H 75.48107217740636 141.54465783835911 113.0302216937782 H 0.0 **** 0.06
7896 C 143.49171351697282 124.85055722272166 37.571103568145645 C 0.0 **** -0.24
7897 H 144.03431201907006 125.1714748049268 38.45996026717252 H 0.0 **** 0.06
7898 H 143.20149370838146 125.7246835220102 36.987432263379674 H 0.0 **** 0.06
7899 H 142.60010107190598 124.29925161839388 37.86846165858414 H 0.0 **** 0.06
7900 H 144.13197559385975 124.2073918922331 36.96665890956379 H 0.0 **** 0.06
7901 C 45.40229603925525 74.4435230362528 95.14692502371159 C 0.0 **** -0.24
7902 H 44.525612770079505 73.82833125455176 94.94446515580401 H 0.0 **** 0.06
7903 H 45.8971991964557 74.69057509630387 94.20801682440981 H 0.0 **** 0.06
7904 H 46.0916366998363 73.8951446028416 95.78852381674463 H 0.0 **** 0.06
7905 H 45.092668509261614 75.36221401602761 95.64661213881928 H 0.0 **** 0.06
7906 C 3.633565944181896 1.9110419989387104 98.88636800880936 C 0.0 **** -0.24
7907 H 4.583408582009326 2.02015567138616 98.36344293425724 H 0.0 **** 0.06
7908 H 3.096785188150818 1.0499653439666474 98.48640432150344 H 0.0 **** 0.06
7909 H 3.034955202972469 2.810250429153644 98.74460474433702 H 0.0 **** 0.06
7910 H 3.8185125631369488 1.7616233630510045 99.95006359429287 H 0.0 **** 0.06
7911 C 125.27141779467203 46.051419599483424 23.945178773459872 C 0.0 **** -0.24
7912 H 126.32097314445014 45.87862635286345 24.18127729338174 H 0.0 **** 0.06
7913 H 124.67515552775758 45.96022153579173 24.852640440828523 H 0.0 **** 0.06
7914 H 124.93730769348967 45.314511062564975 23.21439374730602 H 0.0 **** 0.06
7915 H 125.15210792186922 47.05296231093449 23.530265667693413 H 0.0 **** 0.06
7916 C 76.12407746859347 117.72916629866013 64.48434273203395 C 0.0 **** -0.24
7917 H 75.09443114059331 117.4539043600354 64.25637830285098 H 0.0 **** 0.06
7918 H 76.1497362236565 118.7440871970011 64.88150981946913 H 0.0 **** 0.06
7919 H 76.72336439020512 117.6789667018936 63.57509101728185 H 0.0 **** 0.06
7920 H 76.52849209881325 117.03835425155218 65.22468929600639 H 0.0 **** 0.06
7921 C 89.85150292752307 2.694794120489206 18.429016436286304 C 0.0 **** -0.24
7922 H 90.31452675459757 2.481365012574855 19.39230321935665 H 0.0 **** 0.06
7923 H 90.48324411433039 2.308315716564067 17.629190828514055 H 0.0 **** 0.06
7924 H 89.7347344227647 3.772611270721683 18.312381017624574 H 0.0 **** 0.06
7925 H 88.87254474711865 2.216917391209506 18.382462969823365 H 0.0 **** 0.06
7926 C 31.51065503025336 124.05837274315333 83.09935808673615 C 0.0 **** -0.24
7927 H 30.565335605325714 123.52428953685366 83.00473363307233 H 0.0 **** 0.06
7928 H 32.189131161198645 123.48756757910722 83.73333055216439 H 0.0 **** 0.06
7929 H 31.332006398506394 125.03692601304722 83.54448237308392 H 0.0 **** 0.06
7930 H 31.956226808224926 124.1848315051492 82.11188934725998 H 0.0 **** 0.06
7931 C 98.32822707469673 117.10084144599189 64.54083472898276 C 0.0 **** -0.24
7932 H 99.14586932690321 117.75653770609726 64.23925208008498 H 0.0 **** 0.06
7933 H 98.40498917556108 116.15551175890941 64.002270061724 H 0.0 **** 0.06
7934 H 97.37615298294885 117.57617510523396 64.30776763810684 H 0.0 **** 0.06
7935 H 98.38881282090121 116.91487944791139 65.6128538348967 H 0.0 **** 0.06
7936 C 71.3541640973098 3.04602013040369 146.52403104005535 C 0.0 **** -0.24
7937 H 71.23579374337143 4.0452158201233885 146.10566171485183 H 0.0 **** 0.06
7938 H 70.63900050729447 2.9036335995489253 147.33310244243444 H 0.0 **** 0.06
7939 H 72.36733838113032 2.932353726895684 146.90961540638853 H 0.0 **** 0.06
7940 H 71.17639333377625 2.3035327116606084 145.74549169893172 H 0.0 **** 0.06
7941 C 117.58218521339647 150.18038831926134 142.19245135028788 C 0.0 **** -0.24
7942 H 117.77421535258692 149.62414924914205 143.11022312135975 H 0.0 **** 0.06
7943 H 118.52092185977811 150.3416333518949 141.66268628570865 H 0.0 **** 0.06
7944 H 117.13455048389496 151.14305415589826 142.43874813718875 H 0.0 **** 0.06
7945 H 116.89986200899095 149.61266463453367 141.55967860072442 H 0.0 **** 0.06
7946 C 103.35822762204363 56.46798414107545 84.93562993137192 C 0.0 **** -0.24
7947 H 104.34680970601538 56.071823024129515 85.1671991598514 H 0.0 **** 0.06
7948 H 102.88823105916218 55.84729595589684 84.17224344937955 H 0.0 **** 0.06
7949 H 103.45419592063512 57.489087438056885 84.5651334214819 H 0.0 **** 0.06
7950 H 102.74548984468876 56.46433845033724 85.8367895113542 H 0.0 **** 0.06
7951 C 6.153714764553765 89.16233255002386 147.99942568162342 C 0.0 **** -0.24
7952 H 5.916386630081941 88.09899485857109 148.03824332507796 H 0.0 **** 0.06
7953 H 7.0122279459841295 89.31794124755895 147.3465907021187 H 0.0 **** 0.06
7954 H 6.38910914191753 89.5180640319852 149.00216396217036 H 0.0 **** 0.06
7955 H 5.2963186139236775 89.7123596692347 147.611376074277 H 0.0 **** 0.06
7956 C 145.39108203553934 126.28180151615436 84.85419681163413 C 0.0 **** -0.24
7957 H 144.86240899991657 126.46799389494372 83.91907718195566 H 0.0 **** 0.06
7958 H 145.62914312907083 125.22088215114854 84.9330797182127 H 0.0 **** 0.06
7959 H 144.75853255598264 126.57561600020416 85.69273586447588 H 0.0 **** 0.06
7960 H 146.31215672060083 126.86455558861385 84.8733959862318 H 0.0 **** 0.06
7961 C 127.30142744004819 3.3326665008743817 84.6785314665878 C 0.0 **** -0.24
7962 H 127.08633819514672 3.1517881144005173 83.62580734460391 H 0.0 **** 0.06
7963 H 126.3682172020943 3.34408814445851 85.24274483680655 H 0.0 **** 0.06
7964 H 127.80347791693993 4.293890367432937 84.78657990599687 H 0.0 **** 0.06
7965 H 127.94570594422095 2.5408562538484887 85.05933349863832 H 0.0 **** 0.06
7966 C 77.74648578450262 125.5182710735848 103.23357639606509 C 0.0 **** -0.24
7967 H 77.81676867225553 126.03499718814402 104.19064949450923 H 0.0 **** 0.06
7968 H 78.10561257880806 124.49462820647067 103.3468405403729 H 0.0 **** 0.06
7969 H 78.35522936328289 126.03802801959088 102.49500927904654 H 0.0 **** 0.06
7970 H 76.70724527527852 125.50432425825701 102.90370192287686 H 0.0 **** 0.06
7971 C 100.4548975438442 8.095508947034482 45.589595144785136 C 0.0 **** -0.24
7972 H 99.56035843852445 7.7356256794182485 45.07990371103227 H 0.0 **** 0.06
7973 H 100.28464629823694 8.092835510173813 46.6661994586303 H 0.0 **** 0.06
7974 H 100.67599096238192 9.111274374354153 45.25896718283363 H 0.0 **** 0.06
7975 H 101.29489057209824 7.444470973138472 45.3517071945856 H 0.0 **** 0.06
7976 C 126.88392601107051 50.52635685659263 31.973074499157576 C 0.0 **** -0.24
7977 H 126.70136786396111 49.4705524329281 32.173444230157116 H 0.0 **** 0.06
7978 H 126.04411347487414 51.11642893987731 32.34006404405201 H 0.0 **** 0.06
7979 H 126.99287278704526 50.67727798794462 30.89816102897123 H 0.0 **** 0.06
7980 H 127.79745177022056 50.83953439234803 32.47832195752008 H 0.0 **** 0.06
7981 C 82.75212943820698 121.84681965182935 58.73900598898763 C 0.0 **** -0.24
7982 H 82.24368502960466 121.46439086437684 59.623683311324044 H 0.0 **** 0.06
7983 H 82.33083150039467 122.81526404548285 58.468345672125054 H 0.0 **** 0.06
7984 H 82.61906503634799 121.14837070308576 57.913156490011716 H 0.0 **** 0.06
7985 H 83.81592793270413 121.96025760702608 58.9509237235859 H 0.0 **** 0.06
7986 C 71.81244491197583 61.40179889443476 83.546455146856 C 0.0 **** -0.24
7987 H 72.84890040856386 61.731976634515775 83.6061552335812 H 0.0 **** 0.06
7988 H 71.23541813123113 62.11831982859002 82.95992005628347 H 0.0 **** 0.06
7989 H 71.39426517986801 61.334158874639854 84.55033013437583 H 0.0 **** 0.06
7990 H 71.76997001041642 60.423687720939654 83.06751789542454 H 0.0 **** 0.06
7991 C 150.2831068722541 108.58549351924121 113.44740041839326 C 0.0 **** -0.24
7992 H 150.877524200844 109.08411541393981 114.21367110605648 H 0.0 **** 0.06
7993 H 149.25811748741586 108.4703072420625 113.80077470963387 H 0.0 **** 0.06
7994 H 150.70866304033933 107.60411259767618 113.23957382596707 H 0.0 **** 0.06
7995 H 150.28923338737403 109.18428982228859 112.53732630582307 H 0.0 **** 0.06
7996 C 36.814784248727335 124.38780035319128 44.71835778054174 C 0.0 **** -0.24
7997 H 37.06046578129565 125.00444822266824 45.58329390317134 H 0.0 **** 0.06
7998 H 36.72646676683371 123.34615352917386 45.02935046996929 H 0.0 **** 0.06
7999 H 37.60308500154906 124.47865090159435 43.971428355923706 H 0.0 **** 0.06
8000 H 35.86856216026507 124.72139737262346 44.29287775127921 H 0.0 **** 0.06
8001 C 11.148816831240723 42.18774494265787 86.29337251056958 C 0.0 **** -0.24
8002 H 10.675428191629834 42.697679519709354 85.45423103649283 H 0.0 **** 0.06
8003 H 10.799254149932338 41.155370661333635 86.3337806095037 H 0.0 **** 0.06
8004 H 10.888431918218814 42.696211121382476 87.22105903269184 H 0.0 **** 0.06
8005 H 12.230617723798197 42.199514053436474 86.1622321915426 H 0.0 **** 0.06
8006 C 115.683632672151 73.10893904706646 47.88257222098349 C 0.0 **** -0.24
8007 H 115.87071002293514 74.01982967029545 47.313037448423046 H 0.0 **** 0.06
8008 H 114.68382290738852 73.14935083587136 48.314376332644514 H 0.0 **** 0.06
8009 H 116.42172836285859 73.02281315450227 48.67971433422289 H 0.0 **** 0.06
8010 H 115.76012022836157 72.2463571630299 47.22120046335945 H 0.0 **** 0.06
8011 C 107.63757135961885 44.78388906468314 92.26906409302923 C 0.0 **** -0.24
8012 H 107.95213316571397 45.73034746598182 91.8305839817282 H 0.0 **** 0.06
8013 H 107.7364700669691 44.83466602166487 93.352790619035 H 0.0 **** 0.06
8014 H 108.26399151159796 43.97974606055692 91.88339416375447 H 0.0 **** 0.06
8015 H 106.59658714493537 44.59012462316565 92.00766259784267 H 0.0 **** 0.06
8016 C 105.97187174569646 90.79108347476253 145.81923133295888 C 0.0 **** -0.24
8017 H 105.57232147289128 90.07866541090539 145.09740893837215 H 0.0 **** 0.06
8018 H 105.98864066913731 91.786470560541 145.37564951771853 H 0.0 **** 0.06
8019 H 106.9844908343658 90.49853260737203 146.09582676399734 H 0.0 **** 0.06
8020 H 105.3409877133615 90.79929692380111 146.7082214178588 H 0.0 **** 0.06
8021 C 98.50566517299978 73.30584729062271 24.3947373414319 C 0.0 **** -0.24
8022 H 97.94217564935977 73.95677404212108 23.725502374332258 H 0.0 **** 0.06
8023 H 97.87277176336111 72.47794920144828 24.715580292433145 H 0.0 **** 0.06
8024 H 98.82941507601696 73.87408211337043 25.26702151980939 H 0.0 **** 0.06
8025 H 99.37827092825333 72.91468680774206 23.871839504664344 H 0.0 **** 0.06
8026 C 133.64581431282505 101.10052433080138 93.61114646798865 C 0.0 **** -0.24
8027 H 133.45000554037017 102.13972418753715 93.34707817629169 H 0.0 **** 0.06
8028 H 134.11003678982792 101.05696757138027 94.59685170670227 H 0.0 **** 0.06
8029 H 134.3159283753101 100.65795547889284 92.87379481731111 H 0.0 **** 0.06
8030 H 132.70682399962996 100.54702137706445 93.62608509380846 H 0.0 **** 0.06
8031 C 36.20683025810109 146.01529133457726 148.71346764209585 C 0.0 **** -0.24
8032 H 35.50821861633638 146.1630339622771 149.53763959734474 H 0.0 **** 0.06
8033 H 35.85333408787167 146.55862832737841 147.83692964070008 H 0.0 **** 0.06
8034 H 36.274287321286515 144.9525007828382 148.48184886585125 H 0.0 **** 0.06
8035 H 37.190412765097555 146.3877555151654 149.0001527985875 H 0.0 **** 0.06
8036 C 99.03441058252173 24.882665692384478 16.38641139777951 C 0.0 **** -0.24
8037 H 99.73672624665382 24.163929558782627 15.964275686049717 H 0.0 **** 0.06
8038 H 98.26182238606889 25.109948358522445 15.651087255566154 H 0.0 **** 0.06
8039 H 99.56593014775527 25.796958099664437 16.65063447612465 H 0.0 **** 0.06
8040 H 98.57337732382908 24.460009349270024 17.278688488206342 H 0.0 **** 0.06
8041 C 146.95685859997022 116.25881006304327 127.95937444456897 C 0.0 **** -0.24
8042 H 147.33502249508192 115.37246296127294 128.46829717908312 H 0.0 **** 0.06
8043 H 145.99197539472942 116.03338346163089 127.50647524103297 H 0.0 **** 0.06
8044 H 147.66142741358448 116.56204997537283 127.1847397963955 H 0.0 **** 0.06
8045 H 146.83961608699846 117.06869244547413 128.67993827343687 H 0.0 **** 0.06
8046 C 14.361587367073838 69.00424094906903 69.06919470955268 C 0.0 **** -0.24
8047 H 14.523318025443615 70.08213162853866 69.10175843469634 H 0.0 **** 0.06
8048 H 14.376477498394195 68.60481682453832 70.08311094124844 H 0.0 **** 0.06
8049 H 15.152873147030107 68.53657424616902 68.48179091445127 H 0.0 **** 0.06
8050 H 13.395715100649596 68.79592399333023 68.60928353944942 H 0.0 **** 0.06
8051 C 89.28756080502245 138.94275256203233 147.17855818676657 C 0.0 **** -0.24
8052 H 90.34701547807106 139.10559624722677 147.3772092009272 H 0.0 **** 0.06
8053 H 89.16324088683353 138.0249454949554 146.6043045750298 H 0.0 **** 0.06
8054 H 88.89072584186181 139.7844215708419 146.61148169120452 H 0.0 **** 0.06
8055 H 88.75021721484705 138.85614474041964 148.12325626375087 H 0.0 **** 0.06
8056 C 119.75158921871379 109.49223478262911 107.52974389395851 C 0.0 **** -0.24
8057 H 120.72010572212479 109.99202841405105 107.51619440659758 H 0.0 **** 0.06
8058 H 119.45388091345065 109.30647210335707 108.56203769905315 H 0.0 **** 0.06
8059 H 119.82461854419522 108.54525618186165 106.99604857996471 H 0.0 **** 0.06
8060 H 119.00914251234981 110.1258383674064 107.04549206328099 H 0.0 **** 0.06
8061 C 104.33408423060817 118.3162967307584 129.51439137159505 C 0.0 **** -0.24
8062 H 104.2162801365142 118.89648042842656 130.42933975181293 H 0.0 **** 0.06
8063 H 104.94702161131269 118.87507982795312 128.80676808072792 H 0.0 **** 0.06
8064 H 103.35457897669036 118.12552855306781 129.07637033516102 H 0.0 **** 0.06
8065 H 104.8190213826127 117.36756562268705 129.74571744271512 H 0.0 **** 0.06
8066 C 131.62840644911938 130.81220285562927 131.81941564094814 C 0.0 **** -0.24
8067 H 130.6374287290442 130.61258210308387 131.41090098812185 H 0.0 **** 0.06
8068 H 131.77504805990355 130.2165729135889 132.72129021687456 H 0.0 **** 0.06
8069 H 131.71337577659116 131.87050089493238 132.06436037862377 H 0.0 **** 0.06
8070 H 132.38533807436986 130.5475245447766 131.0817515200663 H 0.0 **** 0.06
8071 C 107.28493221694985 43.19939046790803 147.53317449827375 C 0.0 **** -0.24
8072 H 108.03217135921385 42.417977719996884 147.66499331774202 H 0.0 **** 0.06
8073 H 106.46346368441841 42.818345597652936 146.92565595818806 H 0.0 **** 0.06
8074 H 107.73895930240919 44.05552604948295 147.03540777520178 H 0.0 **** 0.06
8075 H 106.90482602914373 43.505331627097064 148.507512607789 H 0.0 **** 0.06
8076 C 57.94005937274048 118.0650687408022 13.485445651315729 C 0.0 **** -0.24
8077 H 57.90877292496066 118.9810970200004 12.895142466701685 H 0.0 **** 0.06
8078 H 58.940786561701216 117.93236620079729 13.895944851704058 H 0.0 **** 0.06
8079 H 57.69286997294246 117.21515062926089 12.84830034910837 H 0.0 **** 0.06
8080 H 57.218015480965875 118.13231135061694 14.29914923928726 H 0.0 **** 0.06
8081 C 64.38704767291996 53.39003964542998 56.11763225500896 C 0.0 **** -0.24
8082 H 63.61353285898937 53.595016434557934 56.858037446963365 H 0.0 **** 0.06
8083 H 65.36426739762811 53.62358668717198 56.538639170756724 H 0.0 **** 0.06
8084 H 64.21534167937182 54.00435930723066 55.23345302632548 H 0.0 **** 0.06
8085 H 64.35310107348965 52.33619448045434 55.83930237724769 H 0.0 **** 0.06
8086 C 72.36138431332367 5.037356188757997 47.88477233056142 C 0.0 **** -0.24
8087 H 72.14915332345126 5.347954372764178 46.862234203184556 H 0.0 **** 0.06
8088 H 73.37913496947667 4.649957912465538 47.94364258727907 H 0.0 **** 0.06
8089 H 71.65893397958658 4.258717466936417 48.180668803533734 H 0.0 **** 0.06
8090 H 72.25849611851612 5.892131834238654 48.553269974138374 H 0.0 **** 0.06
8091 C 52.30354428324354 4.042891353985141 37.22541993083331 C 0.0 **** -0.24
8092 H 51.89770763935665 3.7944871886041938 36.24516055494058 H 0.0 **** 0.06
8093 H 51.56147931786575 4.602713200637197 37.79471473396836 H 0.0 **** 0.06
8094 H 53.20202793330924 4.64762454324611 37.103365124920686 H 0.0 **** 0.06
8095 H 52.55309831371579 3.1248451658429985 37.75726056493056 H 0.0 **** 0.06
8096 C 9.659722657423657 149.07171533112125 101.81375546412792 C 0.0 **** -0.24
8097 H 10.146422150423575 149.2205147448791 100.84903898765589 H 0.0 **** 0.06
8098 H 10.252590653644631 148.38377854620643 102.41660453762753 H 0.0 **** 0.06
8099 H 8.66524246335166 148.65447022613756 101.6574604608031 H 0.0 **** 0.06
8100 H 9.576626678052577 150.02826042995784 102.32946662965011 H 0.0 **** 0.06
8101 C 150.05517207418634 27.062285774629657 92.91197626400802 C 0.0 **** -0.24
8102 H 149.35717040780978 27.02673556081126 93.7484721355641 H 0.0 **** 0.06
8103 H 150.75493408573922 27.88482915362013 93.05846853681712 H 0.0 **** 0.06
8104 H 149.50219935929212 27.214325631290052 91.98483088351287 H 0.0 **** 0.06
8105 H 150.60375717453545 26.122178233458243 92.85752749793625 H 0.0 **** 0.06
8106 C 107.70699723480816 50.10599197228915 76.85479158877268 C 0.0 **** -0.24
8107 H 106.9334476411653 50.409562658561484 76.14926033089439 H 0.0 **** 0.06
8108 H 107.28926343497703 50.077162098955455 77.86162068489391 H 0.0 **** 0.06
8109 H 108.52907788613096 50.82073890705074 76.82158475288355 H 0.0 **** 0.06
8110 H 108.07548415956877 49.11608229414796 76.58555618554172 H 0.0 **** 0.06
8111 C 9.379380849965912 12.160604362846705 12.182435042244286 C 0.0 **** -0.24
8112 H 10.42513034198089 12.379647122238282 12.397101613389971 H 0.0 **** 0.06
8113 H 9.310647433712575 11.225681451062947 11.62498692509579 H 0.0 **** 0.06
8114 H 8.953107457269653 12.969618634798394 11.588802660363903 H 0.0 **** 0.06
8115 H 8.82786727478964 12.06758303888084 13.118222041815088 H 0.0 **** 0.06
8116 C 1.3967103722830814 116.79961621774126 79.19247895425302 C 0.0 **** -0.24
8117 H 1.9546196377298202 117.50931546497739 78.57959739667291 H 0.0 **** 0.06
8118 H 1.0866515874341474 117.28574170599367 80.11759519037138 H 0.0 **** 0.06
8119 H 2.0305574672284763 115.94386022048084 79.42473961441048 H 0.0 **** 0.06
8120 H 0.5165376804661435 116.46208772727479 78.64569836210539 H 0.0 **** 0.06
8121 C 62.302321516435484 20.559120270669325 71.37818785437975 C 0.0 **** -0.24
8122 H 62.03970867395054 19.976793678367756 70.49492134691894 H 0.0 **** 0.06
8123 H 61.89569636717974 20.076181230386055 72.26620492636619 H 0.0 **** 0.06
8124 H 61.88647075230314 21.562877071540413 71.28778359691842 H 0.0 **** 0.06
8125 H 63.38759646013962 20.62249784511664 71.46262774432921 H 0.0 **** 0.06
8126 C 50.972844348577695 41.49243816546806 64.963003663617 C 0.0 **** -0.24
8127 H 50.30213744995163 40.69786564598047 65.29192203932594 H 0.0 **** 0.06
8128 H 50.90659771813728 42.33347368502456 65.65308707648065 H 0.0 **** 0.06
8129 H 50.68610415463125 41.818395838034746 63.96293458649777 H 0.0 **** 0.06
8130 H 51.99607950815282 41.11674272233756 64.94381404676187 H 0.0 **** 0.06
8131 C 20.612838444421072 21.15395864400952 91.99435834828627 C 0.0 **** -0.24
8132 H 20.794965742984942 22.098069456800914 91.48154953253976 H 0.0 **** 0.06
8133 H 20.111762808174234 21.34679705406822 92.94390671674823 H 0.0 **** 0.06
8134 H 21.562883019334237 20.65219556140076 92.18029819981545 H 0.0 **** 0.06
8135 H 19.982249610468074 20.518566159323512 91.37298279874435 H 0.0 **** 0.06
8136 C 133.71698625544087 139.68913746659828 57.65739844253511 C 0.0 **** -0.24
8137 H 132.82785459410616 139.99227245907997 57.106000682606194 H 0.0 **** 0.06
8138 H 134.02847988570525 138.69700515558165 57.32843380425756 H 0.0 **** 0.06
8139 H 133.49241922024856 139.66526891061167 58.72406354791177 H 0.0 **** 0.06
8140 H 134.52079114277137 140.40238237694751 57.47164072545125 H 0.0 **** 0.06
8141 C 75.94236130142788 75.67127436179463 82.19518311062065 C 0.0 **** -0.24
8142 H 76.62448087275516 76.492335436237 81.97656917268553 H 0.0 **** 0.06
8143 H 75.70678570546887 75.13872725380057 81.27288637976616 H 0.0 **** 0.06
8144 H 75.02481965426772 76.06791234729695 82.63071054562899 H 0.0 **** 0.06
8145 H 76.41260105905371 74.98673071609646 82.90033061951844 H 0.0 **** 0.06
8146 C 70.22479753018939 59.75155065630429 126.02599909233578 C 0.0 **** -0.24
8147 H 69.83921526410094 58.94725038546153 125.39968857478574 H 0.0 **** 0.06
8148 H 69.49373374508153 59.99375009452854 126.79784731952131 H 0.0 **** 0.06
8149 H 70.41106949231072 60.63300919166153 125.41225720916384 H 0.0 **** 0.06
8150 H 71.15647316424682 59.43247101201308 126.49468153081979 H 0.0 **** 0.06
8151 C 38.482008715583454 150.3295760742813 148.7637505653018 C 0.0 **** -0.24
8152 H 38.274803909275775 149.25960716609345 148.74506399364952 H 0.0 **** 0.06
8153 H 37.54772953336659 150.87892333106245 148.88015283655568 H 0.0 **** 0.06
8154 H 38.96243512066185 150.6238408740025 147.83055005813765 H 0.0 **** 0.06
8155 H 39.14374327045839 150.55561637887826 149.599899860807 H 0.0 **** 0.06
8156 C 106.70852441091948 133.59438665980005 59.27946249085136 C 0.0 **** -0.24
8157 H 105.90656700725752 133.07945872892032 58.74975874290601 H 0.0 **** 0.06
8158 H 107.36369818223606 134.08444308331462 58.559358672268814 H 0.0 **** 0.06
8159 H 107.28053043049054 132.87263775896713 59.861077534227036 H 0.0 **** 0.06
8160 H 106.2795899931182 134.34137483018108 59.947948429050626 H 0.0 **** 0.06
8161 C 92.69992579482327 68.4962984157998 23.620915820247475 C 0.0 **** -0.24
8162 H 91.64008645125017 68.33564724623761 23.81758874230269 H 0.0 **** 0.06
8163 H 93.20757548961295 67.53378308847951 23.5566233467244 H 0.0 **** 0.06
8164 H 93.13420581400966 69.08306433818021 24.431064042708684 H 0.0 **** 0.06
8165 H 92.81827853207679 69.03338335430456 22.679915354514726 H 0.0 **** 0.06
8166 C 109.05317654967165 0.12566580317846388 50.896434318322875 C 0.0 **** -0.24
8167 H 108.370631061174 0.7399311886253201 50.30788590899168 H 0.0 **** 0.06
8168 H 108.5734313232232 -0.824700696622898 51.13130562904858 H 0.0 **** 0.06
8169 H 109.30314346277574 0.6456398160683818 51.82097800844629 H 0.0 **** 0.06
8170 H 109.9626080774752 -0.05674632901065024 50.32485969066576 H 0.0 **** 0.06
8171 C 93.02708101348333 102.71400581332398 120.72877831529685 C 0.0 **** -0.24
8172 H 93.4098367290151 103.48358148033047 121.39876624165841 H 0.0 **** 0.06
8173 H 92.48611910533808 103.18469897113091 119.90679004711994 H 0.0 **** 0.06
8174 H 92.35311418257447 102.05635658681342 121.2780329928532 H 0.0 **** 0.06
8175 H 93.85859139090851 102.13243523765475 120.3308453597319 H 0.0 **** 0.06
8176 C 28.21109214113497 102.90837777272819 25.01942872761819 C 0.0 **** -0.24
8177 H 27.703089617681997 103.75018190205364 24.54881983447268 H 0.0 **** 0.06
8178 H 28.21246539841229 102.05871741093958 24.336080429700303 H 0.0 **** 0.06
8179 H 27.689255108739275 102.63714731903897 25.937061350170865 H 0.0 **** 0.06
8180 H 29.23720600340789 103.18874092654474 25.253138494764897 H 0.0 **** 0.06
8181 C 87.09343593165963 47.710722196363506 132.61337237801834 C 0.0 **** -0.24
8182 H 87.5315854767881 48.68103105056396 132.84959945153557 H 0.0 **** 0.06
8183 H 87.88504219258635 47.011013117586174 132.3445188276472 H 0.0 **** 0.06
8184 H 86.40343327414533 47.8182060692519 131.77758893513104 H 0.0 **** 0.06
8185 H 86.55581215111805 47.33432916598581 133.4836817728271 H 0.0 **** 0.06
8186 C 40.85926571791504 129.183004692355 30.278874168797927 C 0.0 **** -0.24
8187 H 41.02438064377141 129.65032978580896 31.250219545561578 H 0.0 **** 0.06
8188 H 41.637692323535916 129.50049372353217 29.586186532046327 H 0.0 **** 0.06
8189 H 39.885065368527535 129.48253714598704 29.893010907298077 H 0.0 **** 0.06
8190 H 40.88905876679527 128.09819141397318 30.388323092743462 H 0.0 **** 0.06
8191 C 69.57579507227132 77.01578540640176 90.59209244133142 C 0.0 **** -0.24
8192 H 70.30849073678277 76.86171895636514 89.80030645131546 H 0.0 **** 0.06
8193 H 69.02233640157391 77.93601568076406 90.40048270829347 H 0.0 **** 0.06
8194 H 70.08760238443438 77.09300954954469 91.55085005142043 H 0.0 **** 0.06
8195 H 68.8840918160922 76.17396445713652 90.61527782528323 H 0.0 **** 0.06
8196 C 102.66583216720018 87.10397778695602 22.351205284132988 C 0.0 **** -0.24
8197 H 101.67591929058132 86.6499520567179 22.306421184475496 H 0.0 **** 0.06
8198 H 103.42570573391863 86.32955884878103 22.24324242199603 H 0.0 **** 0.06
8199 H 102.79221859796668 87.60626895566838 23.310492806352443 H 0.0 **** 0.06
8200 H 102.76882935425093 87.82945810042165 21.544322781043554 H 0.0 **** 0.06
8201 C 20.019606259577273 34.22698060361732 74.72320905555247 C 0.0 **** -0.24
8202 H 20.040310461866937 33.61788210805409 75.6268764945369 H 0.0 **** 0.06
8203 H 21.03986466199447 34.4615872124684 74.41848452175287 H 0.0 **** 0.06
8204 H 19.47842789989116 35.15328861277331 74.92185955850587 H 0.0 **** 0.06
8205 H 19.51802110224864 33.678250799528286 73.92609713436227 H 0.0 **** 0.06
8206 C 38.96399004964043 104.9446414101551 44.401805948460435 C 0.0 **** -0.24
8207 H 39.09914519633335 105.78197219765445 45.0860483785296 H 0.0 **** 0.06
8208 H 39.934758139373486 104.50529488141996 44.16939795396013 H 0.0 **** 0.06
8209 H 38.4960040083579 105.29895785131168 43.483541065159216 H 0.0 **** 0.06
8210 H 38.32684587817127 104.19414232739047 44.86859056490567 H 0.0 **** 0.06
8211 C 1.0125345385955171 40.98258148785253 112.89933216206761 C 0.0 **** -0.24
8212 H 1.8002487713363315 40.735362921363006 112.18733864536405 H 0.0 **** 0.06
8213 H 0.042308300942487165 40.74408286455754 112.46447251846102 H 0.0 **** 0.06
8214 H 1.0549931219020827 42.046256381262594 113.13331820477642 H 0.0 **** 0.06
8215 H 1.1545405438284284 40.40421295785289 113.81233633903913 H 0.0 **** 0.06
8216 C 45.83514152396472 119.6530874200207 55.971609937616265 C 0.0 **** -0.24
8217 H 45.65028591798105 119.94600916271999 57.00559387255011 H 0.0 **** 0.06
8218 H 46.90266593628368 119.72204232536178 55.76013566077009 H 0.0 **** 0.06
8219 H 45.28919676181883 120.31903152975339 55.30274950920008 H 0.0 **** 0.06
8220 H 45.49847062021149 118.62840735838982 55.81832618002703 H 0.0 **** 0.06
8221 C 140.66634783915882 136.90472547736664 112.18351811567369 C 0.0 **** -0.24
8222 H 141.5481104466017 137.52808547328374 112.03618349014583 H 0.0 **** 0.06
8223 H 140.9292308719924 135.85980247627813 112.01758761440637 H 0.0 **** 0.06
8224 H 139.89024930740396 137.20139779707392 111.47778084258964 H 0.0 **** 0.06
8225 H 140.29888726969338 137.02896655613606 113.20189002588332 H 0.0 **** 0.06
8226 C 99.02925864852477 33.13153241610041 144.31937581665392 C 0.0 **** -0.24
8227 H 99.50179250540448 33.054400416568875 143.34067930844293 H 0.0 **** 0.06
8228 H 99.7640910721818 32.91964278468385 145.09553079298732 H 0.0 **** 0.06
8229 H 98.21239832514104 32.41260469015768 144.38504645431138 H 0.0 **** 0.06
8230 H 98.63643218996985 34.13950676022414 144.45546257537202 H 0.0 **** 0.06
8231 C 124.3460658315811 118.66592658746676 145.57399621185925 C 0.0 **** -0.24
8232 H 124.1416528565537 119.163355612899 146.52223679007025 H 0.0 **** 0.06
8233 H 123.55949050013574 118.90948210849088 144.8596276454892 H 0.0 **** 0.06
8234 H 124.37665831634165 117.58731595193386 145.72800166217826 H 0.0 **** 0.06
8235 H 125.30697886242898 119.00482417872901 145.1857783821004 H 0.0 **** 0.06
8236 C 112.99552819987575 67.60882291992388 1.4071612777700295 C 0.0 **** -0.24
8237 H 112.61251947607418 67.81110951085128 0.40720982147760765 H 0.0 **** 0.06
8238 H 112.73334285381232 66.59092854666528 1.6977527719376724 H 0.0 **** 0.06
8239 H 112.5562585522518 68.31308530967652 2.1134969894792164 H 0.0 **** 0.06
8240 H 114.07959242047748 67.71937639896427 1.410647385074327 H 0.0 **** 0.06
8241 C 144.8849140680264 38.333456450150294 18.88805234501538 C 0.0 **** -0.24
8242 H 145.081781837369 37.29779968460038 18.611461275717694 H 0.0 **** 0.06
8243 H 144.4574290895282 38.36607042187884 19.891228541579736 H 0.0 **** 0.06
8244 H 144.18118828286828 38.76977396589582 18.179559925324526 H 0.0 **** 0.06
8245 H 145.81710070694098 38.897932738466196 18.87050050938246 H 0.0 **** 0.06
8246 C 2.3437790607799514 3.112303138352001 140.31538954290525 C 0.0 **** -0.24
8247 H 3.2373379742581783 3.4899533213744505 139.8183117894639 H 0.0 **** 0.06
8248 H 2.379177638647633 2.0227667755400844 140.34568774205715 H 0.0 **** 0.06
8249 H 1.4589794819527846 3.432763311807257 139.76631811995026 H 0.0 **** 0.06
8250 H 2.302630741881387 3.5020700003214955 141.33272041833075 H 0.0 **** 0.06
8251 C 39.86236631278162 113.34894478536884 130.70137135616667 C 0.0 **** -0.24
8252 H 40.8962224599866 113.20647212576856 131.01482385094343 H 0.0 **** 0.06
8253 H 39.252179560972095 113.60467031069837 131.56943194310523 H 0.0 **** 0.06
8254 H 39.4888201381368 112.42858823394548 130.25344666896902 H 0.0 **** 0.06
8255 H 39.81181060959325 114.15570589112659 129.97073184742746 H 0.0 **** 0.06
8256 C 48.36276381068353 43.07418358800055 1.3682384748812524 C 0.0 **** -0.24
8257 H 48.215837268146515 42.63300798532576 0.3818814402507087 H 0.0 **** 0.06
8258 H 48.06791313716559 44.123716769852294 1.342514917630183 H 0.0 **** 0.06
8259 H 49.4137280767207 42.9980009089569 1.6470785614030206 H 0.0 **** 0.06
8260 H 47.75364794391544 42.54243420118338 2.098041785080113 H 0.0 **** 0.06
8261 C 63.54311184930074 7.750206354780374 75.36877972242526 C 0.0 **** -0.24
8262 H 63.712348302461436 8.688871214529627 74.841095355923 H 0.0 **** 0.06
8263 H 62.54060184604404 7.38463795147976 75.1470165375532 H 0.0 **** 0.06
8264 H 63.64182669940388 7.914935388575998 76.44249349595846 H 0.0 **** 0.06
8265 H 64.27976882317975 7.014498678712442 75.04484881984597 H 0.0 **** 0.06
8266 C 79.8866985845857 122.49054797912846 6.426969825318341 C 0.0 **** -0.24
8267 H 80.43998858775046 123.4180075043492 6.5750863016095416 H 0.0 **** 0.06
8268 H 78.85737476033779 122.72164085995088 6.150388776143306 H 0.0 **** 0.06
8269 H 79.89411165593827 121.9130245606295 7.351543371845061 H 0.0 **** 0.06
8270 H 80.35586342762082 121.91080029314911 5.631891549777578 H 0.0 **** 0.06
8271 C 135.73285175840192 57.121619398332996 1.0073359052807973 C 0.0 **** -0.24
8272 H 135.87110690829195 56.10965198523928 1.3878631028219672 H 0.0 **** 0.06
8273 H 136.19426683763825 57.833852081271516 1.6931969003393306 H 0.0 **** 0.06
8274 H 134.6679473817485 57.335882481735496 0.9228643395738914 H 0.0 **** 0.06
8275 H 136.19974707975618 57.207314246959754 0.02585607609924523 H 0.0 **** 0.06
8276 C 75.48873939379246 137.40941145790256 93.30616649257826 C 0.0 **** -0.24
8277 H 75.28000703802627 136.34562293715376 93.19950246300273 H 0.0 **** 0.06
8278 H 76.56598212018302 137.57366868889702 93.26815093572394 H 0.0 **** 0.06
8279 H 75.10127650258764 137.76113016390664 94.26267627662442 H 0.0 **** 0.06
8280 H 75.00844260547593 137.95721133310147 92.49553478341059 H 0.0 **** 0.06
8281 C 64.88794740573204 57.767836449710614 115.33762057742256 C 0.0 **** -0.24
8282 H 65.41910938512478 58.66218999291846 115.66517396031917 H 0.0 **** 0.06
8283 H 64.44131881045286 57.27455567643884 116.20208141125927 H 0.0 **** 0.06
8284 H 65.58709062188571 57.08686262143448 114.85218685922352 H 0.0 **** 0.06
8285 H 64.10432478089223 58.0485729546252 114.63424936514552 H 0.0 **** 0.06
8286 C 29.571351879629304 131.79526848527757 5.859595219901408 C 0.0 **** -0.24
8287 H 28.557716873776144 131.5268955262524 5.562421024991949 H 0.0 **** 0.06
8288 H 30.098829027916473 130.9039198839926 6.199517298129496 H 0.0 **** 0.06
8289 H 29.5316953183098 132.52475491896598 6.6690576433730655 H 0.0 **** 0.06
8290 H 30.097839753492693 132.22623432722781 5.007496940349821 H 0.0 **** 0.06
8291 C 96.56428962527875 41.34114683039226 147.90644114483877 C 0.0 **** -0.24
8292 H 97.28576162245625 41.85043659492612 147.26799494108207 H 0.0 **** 0.06
8293 H 95.75002802662956 42.024364691978036 148.15004722994058 H 0.0 **** 0.06
8294 H 97.0563390940687 41.01900631552937 148.8246226756145 H 0.0 **** 0.06
8295 H 96.16584879545141 40.47251559228931 147.38366193231366 H 0.0 **** 0.06
8296 C 148.00765556665397 123.64209753594545 123.79782574867838 C 0.0 **** -0.24
8297 H 148.69076108575825 123.38068170454082 122.98994080639133 H 0.0 **** 0.06
8298 H 148.39541084079772 123.2546556586855 124.7408990156433 H 0.0 **** 0.06
8299 H 147.02802866347338 123.20684993633236 123.60057682436664 H 0.0 **** 0.06
8300 H 147.91709147450788 124.72717589539147 123.86066391848229 H 0.0 **** 0.06
8301 C 18.233860622864256 25.37356642984426 111.65925592707372 C 0.0 **** -0.24
8302 H 17.25639242791874 25.8313042542633 111.81440917386611 H 0.0 **** 0.06
8303 H 18.62878330042264 25.68156327805397 110.69120711727494 H 0.0 **** 0.06
8304 H 18.13481878188412 24.28867605580723 111.68352622800747 H 0.0 **** 0.06
8305 H 18.913948273409915 25.694344393153784 112.44822662477857 H 0.0 **** 0.06
8306 C 95.71218794474206 106.12188503144658 53.96050726653891 C 0.0 **** -0.24
8307 H 96.76589782036206 106.03555479156996 54.22385501202463 H 0.0 **** 0.06
8308 H 95.12054758827725 105.48205023435104 54.615233624944636 H 0.0 **** 0.06
8309 H 95.57027408899819 105.8122914896148 52.9245092823826 H 0.0 **** 0.06
8310 H 95.39228331834045 107.15747539597139 54.077477878228194 H 0.0 **** 0.06
8311 C 72.53828249468026 68.02284835173788 7.056852314702461 C 0.0 **** -0.24
8312 H 72.15654940411315 67.04212769828297 7.34173887594617 H 0.0 **** 0.06
8313 H 72.19557225917876 68.7688883558454 7.774659066739034 H 0.0 **** 0.06
8314 H 72.17391613987056 68.27944269356502 6.062506319310327 H 0.0 **** 0.06
8315 H 73.62874419882036 67.9998733238964 7.049574842315252 H 0.0 **** 0.06
8316 C 29.78821826085408 98.94194470907291 111.25410769949369 C 0.0 **** -0.24
8317 H 28.72154558562528 98.77402919490422 111.40370809179709 H 0.0 **** 0.06
8318 H 29.955870190233526 99.34670976346877 110.25588549201044 H 0.0 **** 0.06
8319 H 30.322394156755053 97.99742383052873 111.35844328769801 H 0.0 **** 0.06
8320 H 30.152040498851335 99.64884696439711 111.99899629624693 H 0.0 **** 0.06
8321 C 45.312065804759925 48.859510227968556 113.79508819332281 C 0.0 **** -0.24
8322 H 45.46487380670857 48.21535992540957 114.66174708389767 H 0.0 **** 0.06
8323 H 44.244779387445675 49.02706736925806 113.65208548686624 H 0.0 **** 0.06
8324 H 45.72706178713824 48.380074004824394 112.90878310561939 H 0.0 **** 0.06
8325 H 45.81086331214365 49.81458525074109 113.9596397933573 H 0.0 **** 0.06
8326 C 83.23852526979184 39.10347419705192 7.6594557490729756 C 0.0 **** -0.24
8327 H 82.70423119462137 39.47780423685042 6.786657765913816 H 0.0 **** 0.06
8328 H 83.46845763194969 39.93350739098335 8.327881143795764 H 0.0 **** 0.06
8329 H 84.16452666230938 38.62561460609629 7.342045824426265 H 0.0 **** 0.06
8330 H 82.61543856478099 38.37776735286532 8.182745382655497 H 0.0 **** 0.06
8331 C 33.676087394236845 17.391495893515874 20.863045569720185 C 0.0 **** -0.24
8332 H 34.68232045896002 17.811375573202938 20.884131102236864 H 0.0 **** 0.06
8333 H 32.95432076047632 18.189774940655305 20.689459910020275 H 0.0 **** 0.06
8334 H 33.464210483632144 16.90987555113813 21.817334039107806 H 0.0 **** 0.06
8335 H 33.60635555390235 16.656640069109656 20.06131253749149 H 0.0 **** 0.06
8336 C 23.845507979849685 13.766935678318958 115.4251453030664 C 0.0 **** -0.24
8337 H 23.33670147371265 14.708047104108545 115.21377655109988 H 0.0 **** 0.06
8338 H 23.537836287121536 13.399395312048796 116.40434125360481 H 0.0 **** 0.06
8339 H 24.923151454955132 13.928940570645324 115.42030586521922 H 0.0 **** 0.06
8340 H 23.583968736661973 13.033482394606125 114.66275303518206 H 0.0 **** 0.06
8341 C 13.0367924307551 135.81182238425671 117.3602855638797 C 0.0 **** -0.24
8342 H 12.76818956695638 135.93611968435525 116.3110934092274 H 0.0 **** 0.06
8343 H 14.121815123829123 135.77907297286896 117.45587684299113 H 0.0 **** 0.06
8344 H 12.610212216008136 134.88110723726942 117.73567889965437 H 0.0 **** 0.06
8345 H 12.645361763734627 136.64947529242698 117.93644966900604 H 0.0 **** 0.06
8346 C 105.68109022092742 52.3539705709473 46.13445894239297 C 0.0 **** -0.24
8347 H 106.39663598040167 52.3685597022954 45.312960391232195 H 0.0 **** 0.06
8348 H 106.00308818818777 53.05078349145754 46.908786116529654 H 0.0 **** 0.06
8349 H 105.62530141591995 51.34816773257016 46.55063286967777 H 0.0 **** 0.06
8350 H 104.69845129414242 52.6486875268198 45.765111996142 H 0.0 **** 0.06
8351 C 135.058046007774 85.09569406925687 31.000387142311467 C 0.0 **** -0.24
8352 H 134.4742020811408 85.46687519996388 30.157955940427144 H 0.0 **** 0.06
8353 H 134.39486829672026 84.60388367272878 31.7129581142552 H 0.0 **** 0.06
8354 H 135.56220736309274 85.92947995977053 31.488788507337574 H 0.0 **** 0.06
8355 H 135.79995138177188 84.38282852634637 30.641904811994266 H 0.0 **** 0.06
8356 C 128.57180565834292 40.36270053517332 44.85911746675151 C 0.0 **** -0.24
8357 H 128.29792425038008 40.77349616148706 43.88730451434327 H 0.0 **** 0.06
8358 H 128.26088068239326 41.05203655173277 45.64545014141544 H 0.0 **** 0.06
8359 H 129.65098127125694 40.223071926885055 44.90416477860319 H 0.0 **** 0.06
8360 H 128.07509592785507 39.40280543561795 44.99994118498978 H 0.0 **** 0.06
8361 C 102.99666899789655 74.05179200803846 86.28112466664857 C 0.0 **** -0.24
8362 H 104.00043209576027 73.8201940387082 86.63562073384176 H 0.0 **** 0.06
8363 H 102.99728036697117 75.03074632144614 85.80020719117337 H 0.0 **** 0.06
8364 H 102.3073577830027 74.06139853685696 87.12519766861112 H 0.0 **** 0.06
8365 H 102.68135516423996 73.29438356850508 85.56261358717492 H 0.0 **** 0.06
8366 C 3.8999098659745925 141.0389420545679 77.28294299251554 C 0.0 **** -0.24
8367 H 4.252261639029342 141.42097007173075 76.324574418928 H 0.0 **** 0.06
8368 H 2.8608056301295903 140.72303862411727 77.18683410747246 H 0.0 **** 0.06
8369 H 3.974036363397772 141.82396101408116 78.03570589690244 H 0.0 **** 0.06
8370 H 4.512447884324928 140.18912257067413 77.58259858006011 H 0.0 **** 0.06
8371 C 43.43677119122563 124.26730442802801 63.484623915378734 C 0.0 **** -0.24
8372 H 42.397854692130835 124.21436397658044 63.810909555376355 H 0.0 **** 0.06
8373 H 44.05886449346522 123.67781658405238 64.15772975343506 H 0.0 **** 0.06
8374 H 43.769255696983635 125.30530301339795 63.49748765216404 H 0.0 **** 0.06
8375 H 43.518937308561675 123.8714674624253 62.4719115459158 H 0.0 **** 0.06
8376 C 131.82453243771232 114.11117464324053 120.53048111413263 C 0.0 **** -0.24
8377 H 131.31261257951223 113.80915095186566 121.44503744949652 H 0.0 **** 0.06
8378 H 132.66287373748662 114.76170941673126 120.78138525681608 H 0.0 **** 0.06
8379 H 131.12728871437008 114.64762693526876 119.88580781337724 H 0.0 **** 0.06
8380 H 132.19216029417493 113.2271831947237 120.01138258125322 H 0.0 **** 0.06
8381 C 149.70836411973988 39.57724601912008 20.705410667273867 C 0.0 **** -0.24
8382 H 149.80429316055773 40.28842897774368 21.525501443542993 H 0.0 **** 0.06
8383 H 148.66189670699447 39.291927377864766 20.59279738992234 H 0.0 **** 0.06
8384 H 150.30683848522023 38.69236659457326 20.920422984017648 H 0.0 **** 0.06
8385 H 150.0606387036588 40.039481492947175 19.782155803650397 H 0.0 **** 0.06
8386 C 8.68471858718246 50.74640533817393 4.9424037681977495 C 0.0 **** -0.24
8387 H 9.356222580658084 50.601478856877804 5.7885427503040034 H 0.0 **** 0.06
8388 H 9.112123247568576 50.2754062086388 4.056145550607141 H 0.0 **** 0.06
8389 H 8.55414992276809 51.81299309486792 4.760527844996034 H 0.0 **** 0.06
8390 H 7.718116295726105 50.29434054545271 5.164284164151127 H 0.0 **** 0.06
8391 C 103.84046023498247 110.99580518167141 91.43217879951038 C 0.0 **** -0.24
8392 H 104.09990640719111 110.88533841083432 92.48575998427235 H 0.0 **** 0.06
8393 H 102.86689754674642 111.47884689527098 91.34631324058843 H 0.0 **** 0.06
8394 H 103.80143084774046 110.01306927450173 90.96341842563925 H 0.0 **** 0.06
8395 H 104.59424486974983 111.60649952923035 90.93552740172285 H 0.0 **** 0.06
8396 C 47.06063555410391 102.97417406471719 129.60256079549922 C 0.0 **** -0.24
8397 H 46.00891057372297 103.26087266549156 129.59212175077803 H 0.0 **** 0.06
8398 H 47.39836101574305 102.79661281508821 128.58174005573002 H 0.0 **** 0.06
8399 H 47.18335235257072 102.06492503517649 130.1902335263416 H 0.0 **** 0.06
8400 H 47.650443100220116 103.77592944458193 130.04649754856686 H 0.0 **** 0.06
8401 C 84.58263320139815 100.84861065300733 142.99391831253615 C 0.0 **** -0.24
8402 H 85.38724005410064 100.91482285376587 143.72653844303215 H 0.0 **** 0.06
8403 H 84.06199055019661 99.8982785017905 143.11127891531726 H 0.0 **** 0.06
8404 H 85.0009998677734 100.91257948457773 141.98899551086362 H 0.0 **** 0.06
8405 H 83.88252682605847 101.66860263776401 143.14869761641623 H 0.0 **** 0.06
8406 C 36.061768728617324 60.312055141604844 133.29268888191152 C 0.0 **** -0.24
8407 H 35.74046798457425 61.055466782645595 134.0215451172648 H 0.0 **** 0.06
8408 H 35.49758777313275 60.44002218320503 132.3696955373208 H 0.0 **** 0.06
8409 H 35.88541658948395 59.31341707770086 133.6913897674742 H 0.0 **** 0.06
8410 H 37.1253685474004 60.43869769167729 133.08935026536906 H 0.0 **** 0.06
8411 C 122.50361841477338 91.57685675164153 108.97579659511904 C 0.0 **** -0.24
8412 H 122.38989075641116 92.11443758928279 109.91638326977564 H 0.0 **** 0.06
8413 H 122.44702407249379 90.50483962779091 109.16113628779375 H 0.0 **** 0.06
8414 H 123.46923271743712 91.81937827288343 108.53272911357332 H 0.0 **** 0.06
8415 H 121.70656745651239 91.86971385026648 108.29151666918118 H 0.0 **** 0.06
8416 C 129.48147079119167 29.050110867837006 92.39816193102197 C 0.0 **** -0.24
8417 H 129.96406942662716 28.5386681089241 91.5650038641823 H 0.0 **** 0.06
8418 H 129.66461033218934 28.49604349075836 93.31893212106803 H 0.0 **** 0.06
8419 H 128.40949661235237 29.10862950294738 92.21659288509937 H 0.0 **** 0.06
8420 H 129.8899728769678 30.05617768814154 92.4920185960957 H 0.0 **** 0.06
8421 C 41.23138986154106 70.14216725499175 110.6993317366133 C 0.0 **** -0.24
8422 H 42.13324932649758 69.56118719070763 110.89148829635623 H 0.0 **** 0.06
8423 H 41.08046754045897 70.8568865828967 111.50862972618292 H 0.0 **** 0.06
8424 H 40.37299083295025 69.47235010989456 110.64156833511053 H 0.0 **** 0.06
8425 H 41.33820160968429 70.67707677533555 109.75610137932198 H 0.0 **** 0.06
8426 C 10.76676987899262 58.192767378754226 18.534936242933668 C 0.0 **** -0.24
8427 H 11.452323272928481 58.09520560258076 17.692592036507108 H 0.0 **** 0.06
8428 H 9.832209003736722 58.63775837884084 18.191958840150754 H 0.0 **** 0.06
8429 H 11.215434845448925 58.83027729718103 19.296411991585018 H 0.0 **** 0.06
8430 H 10.568018214710492 57.207156823772436 18.95685107354695 H 0.0 **** 0.06
8431 C 44.681464234766906 51.01263454593587 50.771987552481505 C 0.0 **** -0.24
8432 H 45.5172596442853 51.496217817816046 50.26664140919908 H 0.0 **** 0.06
8433 H 45.04876533707514 50.47646575293527 51.64760473229441 H 0.0 **** 0.06
8434 H 44.20202991293118 50.31015503629391 50.090193774263014 H 0.0 **** 0.06
8435 H 43.96071237814432 51.76811138732171 51.08411087813707 H 0.0 **** 0.06
8436 C 21.823300258658207 70.30384912085563 141.44938660568306 C 0.0 **** -0.24
8437 H 21.127450778434707 69.6781875424732 142.00786001931624 H 0.0 **** 0.06
8438 H 22.6613900945228 69.69670926461635 141.1050798252629 H 0.0 **** 0.06
8439 H 22.19290065952515 71.10099677790296 142.09445299166416 H 0.0 **** 0.06
8440 H 21.311840574671294 70.73858009033978 140.59021055632698 H 0.0 **** 0.06
8441 C 14.989280553506603 82.60694499948895 64.21906065067752 C 0.0 **** -0.24
8442 H 14.81302598205204 83.36313250125903 63.454532531005555 H 0.0 **** 0.06
8443 H 14.035907108036866 82.29285044488424 64.64531903564767 H 0.0 **** 0.06
8444 H 15.618083671377406 83.02584494581427 65.00513760790872 H 0.0 **** 0.06
8445 H 15.489159776396946 81.74808017649653 63.77201318610557 H 0.0 **** 0.06
8446 C 62.783434455786534 121.28651876496258 82.0877100489863 C 0.0 **** -0.24
8447 H 63.620864676617856 120.68207862457012 82.4370855597208 H 0.0 **** 0.06
8448 H 62.83338366916924 122.27427533519455 82.54603146667424 H 0.0 **** 0.06
8449 H 61.84624068841609 120.80246176694806 82.36554131454783 H 0.0 **** 0.06
8450 H 62.834452779061905 121.38466481231433 81.0038609238214 H 0.0 **** 0.06
8451 C 13.533366196017198 58.247461277555885 122.69800891289735 C 0.0 **** -0.24
8452 H 13.568257886313575 59.012164361354564 123.47431508118724 H 0.0 **** 0.06
8453 H 14.511862169262088 58.16643866408424 122.22428909896571 H 0.0 **** 0.06
8454 H 12.789498122561497 58.52323358686465 121.9496757961506 H 0.0 **** 0.06
8455 H 13.263019610577032 57.29050804073859 123.14272191651936 H 0.0 **** 0.06
8456 C 80.84209646479682 113.25207397617736 137.3064916099016 C 0.0 **** -0.24
8457 H 80.843276521949 113.99071483805385 138.10887731288028 H 0.0 **** 0.06
8458 H 81.50678255512346 112.42913256065061 137.56948270359692 H 0.0 **** 0.06
8459 H 81.18594922134629 113.71838025343148 136.38419439336124 H 0.0 **** 0.06
8460 H 79.8303665048819 112.87165283528516 137.1659507750607 H 0.0 **** 0.06
8461 C 42.78201720842978 66.47265121468234 110.25546952157228 C 0.0 **** -0.24
8462 H 42.868410889233445 65.4614392066702 110.65353472212959 H 0.0 **** 0.06
8463 H 41.75206178150725 66.81482717795683 110.35394232810737 H 0.0 **** 0.06
8464 H 43.066982232392576 66.47416085048025 109.20326224694546 H 0.0 **** 0.06
8465 H 43.44206787480999 67.13827307597472 110.81164767421805 H 0.0 **** 0.06
8466 C 72.54741028272674 28.070388600712754 104.43225620171373 C 0.0 **** -0.24
8467 H 73.48140188769288 28.100852262413767 103.87181878002335 H 0.0 **** 0.06
8468 H 72.74110901009955 28.32715142122853 105.47404848687123 H 0.0 **** 0.06
8469 H 72.12356937658535 27.068133089819355 104.37682851092464 H 0.0 **** 0.06
8470 H 71.84535918896601 28.7866254928757 104.00577472835246 H 0.0 **** 0.06
8471 C 109.18949661177774 73.39434317871512 105.36148258298782 C 0.0 **** -0.24
8472 H 109.93466101302099 72.7357426909309 104.91463594481753 H 0.0 **** 0.06
8473 H 108.26570987059037 72.83953454508735 105.5244976385108 H 0.0 **** 0.06
8474 H 108.99721779166927 74.23227112862087 104.691510878769 H 0.0 **** 0.06
8475 H 109.56180724057484 73.76897266872137 106.31474907726592 H 0.0 **** 0.06
8476 C 115.63537898562045 127.04507476479574 83.9136627468304 C 0.0 **** -0.24
8477 H 114.78339171588267 127.49379784174687 84.42580025568182 H 0.0 **** 0.06
8478 H 116.44452978819398 127.77281594787073 83.85159636426064 H 0.0 **** 0.06
8479 H 115.33725491369758 126.74527490141278 82.90848883100912 H 0.0 **** 0.06
8480 H 115.9739403272237 126.17047007885498 84.46880807181802 H 0.0 **** 0.06
8481 C 82.56617678067079 72.56831800559152 80.19545515559105 C 0.0 **** -0.24
8482 H 81.93571609025327 73.43379271293438 80.40005804654277 H 0.0 **** 0.06
8483 H 82.24174536151034 71.72847284719623 80.81102797821873 H 0.0 **** 0.06
8484 H 83.60297330367132 72.81064636006124 80.42984039542904 H 0.0 **** 0.06
8485 H 82.48428824773987 72.30049328381008 79.14188518505057 H 0.0 **** 0.06
8486 C 9.277534295686308 95.98313355788514 8.366836206856014 C 0.0 **** -0.24
8487 H 10.287411882676764 95.7425055055728 8.036480581762945 H 0.0 **** 0.06
8488 H 9.327013504502077 96.60181270767289 9.263251526742579 H 0.0 **** 0.06
8489 H 8.73957498431784 95.06139449540777 8.589558864498954 H 0.0 **** 0.06
8490 H 8.75626711832058 96.52585506576101 7.57827525290913 H 0.0 **** 0.06
8491 C 60.162170858350834 36.89888399906545 20.52563618118623 C 0.0 **** -0.24
8492 H 59.68600558180478 36.01745134047928 20.09727704848811 H 0.0 **** 0.06
8493 H 61.18214935863347 36.97995929940862 20.148785853890416 H 0.0 **** 0.06
8494 H 60.181054953046356 36.80991214305226 21.61198920653601 H 0.0 **** 0.06
8495 H 59.59827811249109 37.78891690121117 20.244768024291744 H 0.0 **** 0.06
8496 C 146.0231349712673 6.07417004058982 3.029518108057232 C 0.0 **** -0.24
8497 H 145.03149043530775 6.2568654401706 3.442879899638399 H 0.0 **** 0.06
8498 H 146.04732934644818 5.088324055304895 2.565864373671559 H 0.0 **** 0.06
8499 H 146.76299608545384 6.118134329352358 3.8295719841833886 H 0.0 **** 0.06
8500 H 146.25033541895124 6.833761108580575 2.281920738037826 H 0.0 **** 0.06
8501 C 146.29219729230218 57.5322665724251 149.60565774891253 C 0.0 **** -0.24
8502 H 146.9877056072428 57.87433166722434 148.83934897720644 H 0.0 **** 0.06
8503 H 146.84351138966386 57.284887105267046 150.51293976480684 H 0.0 **** 0.06
8504 H 145.76419851172935 56.648616097077536 149.2484035289549 H 0.0 **** 0.06
8505 H 145.57322198794893 58.32262812090306 149.82210088377292 H 0.0 **** 0.06
8506 C 149.33213084585842 73.16272159565972 89.46422681534041 C 0.0 **** -0.24
8507 H 148.71221478160936 73.35793244889157 88.58924837237153 H 0.0 **** 0.06
8508 H 149.3353415983996 72.09368631751954 89.67656556051912 H 0.0 **** 0.06
8509 H 148.9302404603146 73.70299925967925 90.32156319032376 H 0.0 **** 0.06
8510 H 150.35064051195312 73.49756676398965 89.26838696425024 H 0.0 **** 0.06
8511 C 118.07672109838528 147.7098992692014 68.10738562516327 C 0.0 **** -0.24
8512 H 118.0736946997706 148.35747215234684 67.23060932222205 H 0.0 **** 0.06
8513 H 117.98961784988843 148.31694431126212 69.0079197923513 H 0.0 **** 0.06
8514 H 119.00882182714021 147.14504868363298 68.13712709319557 H 0.0 **** 0.06
8515 H 117.2355341805533 147.01864653860974 68.05069581068888 H 0.0 **** 0.06
8516 C 70.06309221114188 98.21210803813688 77.1936049686782 C 0.0 **** -0.24
8517 H 70.71800120674897 98.83017516199025 77.80761858017131 H 0.0 **** 0.06
8518 H 69.14171629304141 98.00603204554031 77.7398545895089 H 0.0 **** 0.06
8519 H 70.56471148130956 97.2740121789979 76.95869284901887 H 0.0 **** 0.06
8520 H 69.82738872545437 98.73943119891939 76.26935466388053 H 0.0 **** 0.06
8521 C 53.19364979032542 50.89997267519223 106.0885668178428 C 0.0 **** -0.24
8522 H 54.03406120711335 51.58630549928442 105.9844592209669 H 0.0 **** 0.06
8523 H 52.408393671221916 51.17874837145452 105.38511357699306 H 0.0 **** 0.06
8524 H 52.806477559856305 50.95208230401765 107.10598596533137 H 0.0 **** 0.06
8525 H 53.527321554849024 49.88371943259888 105.8775549612894 H 0.0 **** 0.06
8526 C 95.08519366658855 126.9404019471751 14.511147742450447 C 0.0 **** -0.24
8527 H 94.99178127551886 127.11797858152258 15.582502560558908 H 0.0 **** 0.06
8528 H 94.09931823727598 126.98767712331508 14.048785142058563 H 0.0 **** 0.06
8529 H 95.51986650382791 125.95501038891027 14.34350382539094 H 0.0 **** 0.06
8530 H 95.73014655878154 127.7021743142877 14.071889103644395 H 0.0 **** 0.06
8531 C 18.807374640417294 128.95859354475337 36.760346684454774 C 0.0 **** -0.24
8532 H 19.115617086273602 129.21684538631357 37.77326477109786 H 0.0 **** 0.06
8533 H 19.55911263023549 128.31279990050533 36.30487977834287 H 0.0 **** 0.06
8534 H 18.702305204663816 129.86787971190446 36.16933693146828 H 0.0 **** 0.06
8535 H 17.85135875429387 128.43511122148797 36.79477641056196 H 0.0 **** 0.06
8536 C 48.4143775225307 123.54841611606253 84.77650274998922 C 0.0 **** -0.24
8537 H 48.60491567589739 124.1758726882855 83.9056583575703 H 0.0 **** 0.06
8538 H 48.80471816997999 122.54693964603672 84.59419378345183 H 0.0 **** 0.06
8539 H 47.34113582283415 123.49365128290407 84.95591989464043 H 0.0 **** 0.06
8540 H 48.90733808100104 123.97809891005767 85.64828027370987 H 0.0 **** 0.06
8541 C 122.08526696595219 76.02678507455991 7.589139762146829 C 0.0 **** -0.24
8542 H 121.44603693887582 76.44559425007438 8.365980356180387 H 0.0 **** 0.06
8543 H 123.12996760187498 76.13198009440598 7.882320737713144 H 0.0 **** 0.06
8544 H 121.91498732462999 76.55900142686656 6.652463117274976 H 0.0 **** 0.06
8545 H 121.84964341622732 74.97112859494115 7.4545722282916245 H 0.0 **** 0.06
8546 C 85.27067178164754 70.15961136802377 3.237098595210398 C 0.0 **** -0.24
8547 H 85.77270061552196 69.94854536053383 4.180895525712202 H 0.0 **** 0.06
8548 H 84.68735355315818 69.29046113988566 2.933471849883773 H 0.0 **** 0.06
8549 H 86.01457835610489 70.3851485041143 2.4728136332098813 H 0.0 **** 0.06
8550 H 84.60865736070463 71.0169071408563 3.362551292803971 H 0.0 **** 0.06
8551 C 90.92834828793715 149.00168205398649 65.17630935316583 C 0.0 **** -0.24
8552 H 90.375448196034 149.87573933203217 65.52004593365984 H 0.0 **** 0.06
8553 H 91.86230639427592 149.32130213015296 64.71372773042151 H 0.0 **** 0.06
8554 H 90.32902973803428 148.45618763390203 64.44701132346597 H 0.0 **** 0.06
8555 H 91.1457382874348 148.35273889784006 66.02526747285043 H 0.0 **** 0.06
8556 C 72.23097735901882 135.89665451325095 106.86689007800216 C 0.0 **** -0.24
8557 H 72.71822148941354 135.42603972877419 106.01285765978996 H 0.0 **** 0.06
8558 H 72.05567592801572 136.95097805971278 106.64909932503521 H 0.0 **** 0.06
8559 H 72.87169830553609 135.80812028667444 107.7448222397269 H 0.0 **** 0.06
8560 H 71.27951786054422 135.40151481882765 107.06004021751964 H 0.0 **** 0.06
8561 C 8.982362592155994 106.10520627068259 7.904327872140101 C 0.0 **** -0.24
8562 H 9.543883660638784 106.7848094855308 7.265282529364171 H 0.0 **** 0.06
8563 H 9.540042701653249 105.92737805797016 8.824189019555057 H 0.0 **** 0.06
8564 H 8.829751586418666 105.15922070232678 7.384002302027113 H 0.0 **** 0.06
8565 H 8.01582465266219 106.54710933263833 8.144657951830851 H 0.0 **** 0.06
8566 C 109.52285360026794 100.30434084197603 12.921044940731576 C 0.0 **** -0.24
8567 H 108.58153307147059 99.887669633243 13.279866989080176 H 0.0 **** 0.06
8568 H 110.3517232379654 99.84267748339052 13.458151606547261 H 0.0 **** 0.06
8569 H 109.53289355580499 101.38104141483507 13.093075727191092 H 0.0 **** 0.06
8570 H 109.62486746673316 100.10554437705727 11.854372729529757 H 0.0 **** 0.06
8571 C 126.25073749565634 80.68474569850733 140.23918674984864 C 0.0 **** -0.24
8572 H 126.32336077178317 81.74442643620131 140.48359843424404 H 0.0 **** 0.06
8573 H 125.22556740544773 80.3471119951503 140.3878279762977 H 0.0 **** 0.06
8574 H 126.91872046403428 80.11628227676005 140.88643135754361 H 0.0 **** 0.06
8575 H 126.53734553299559 80.53185284785812 139.19830245068331 H 0.0 **** 0.06
8576 C 38.37355546381107 107.75480276348725 146.94075021041277 C 0.0 **** -0.24
8577 H 39.378832070302394 108.04583141626688 146.63705014488528 H 0.0 **** 0.06
8578 H 37.691196871023244 108.59157138861804 146.78490228760242 H 0.0 **** 0.06
8579 H 38.376875464680566 107.47983266632303 147.99475678065423 H 0.0 **** 0.06
8580 H 38.04621165501062 106.90282344061643 146.3436348098185 H 0.0 **** 0.06
8581 C 3.2796932219669976 1.2251445636411518 144.74702891069398 C 0.0 **** -0.24
8582 H 2.327124509692066 1.552215389421633 145.16408647772892 H 0.0 **** 0.06
8583 H 3.220208243604233 1.2295472752371381 143.65780271491138 H 0.0 **** 0.06
8584 H 3.5015468649200514 0.21689810205702997 145.0954804631614 H 0.0 **** 0.06
8585 H 4.069314938843462 1.90348887406995 145.0703028294144 H 0.0 **** 0.06
8586 C 45.12682959926957 44.511707938416095 16.757759998029655 C 0.0 **** -0.24
8587 H 45.219164011001226 43.95095604616333 17.687592851552694 H 0.0 **** 0.06
8588 H 46.006688011506384 44.334971758201874 16.13873172865837 H 0.0 **** 0.06
8589 H 45.047169263766364 45.57558416507396 16.981782538373068 H 0.0 **** 0.06
8590 H 44.2344513995842 44.184800851114346 16.22377367077482 H 0.0 **** 0.06
8591 C 40.90810963567536 16.805920150497137 107.59514795690454 C 0.0 **** -0.24
8592 H 40.73181284978115 15.889364374631555 108.15675313857831 H 0.0 **** 0.06
8593 H 40.777844580232596 16.610750274588803 106.52984457969036 H 0.0 **** 0.06
8594 H 41.92381255841782 17.154587417680382 107.77931950196661 H 0.0 **** 0.06
8595 H 40.19816474227366 17.56970805726246 107.91376809931766 H 0.0 **** 0.06
8596 C 6.132909184016398 65.17980453345369 138.5160771930909 C 0.0 **** -0.24
8597 H 5.532982688967024 64.70719969965522 139.29459784238762 H 0.0 **** 0.06
8598 H 6.636219223155678 66.05442418127998 138.9262538649185 H 0.0 **** 0.06
8599 H 5.485350050003632 65.48467346438851 137.69378065333126 H 0.0 **** 0.06
8600 H 6.874786828138326 64.46996965487557 138.1497801801702 H 0.0 **** 0.06
8601 C 149.612289937096 139.74606386551488 115.2160922874895 C 0.0 **** -0.24
8602 H 148.66717150862817 139.60241373962938 114.6910053080053 H 0.0 **** 0.06
8603 H 150.0680329627879 140.68143567603974 114.89321257409905 H 0.0 **** 0.06
8604 H 150.2832238244889 138.91738378627736 114.98897658738782 H 0.0 **** 0.06
8605 H 149.42882028561445 139.7810148482603 116.2896521480772 H 0.0 **** 0.06
8606 C 7.981806009929727 132.9843968355852 75.10692812716465 C 0.0 **** -0.24
8607 H 7.322567543112484 133.67479191067318 75.63335739837859 H 0.0 **** 0.06
8608 H 8.738792165139216 132.60887679330833 75.79448692026949 H 0.0 **** 0.06
8609 H 8.466828779839659 133.50390925487963 74.28007126574394 H 0.0 **** 0.06
8610 H 7.39773047804357 132.15042496392184 74.71833945308708 H 0.0 **** 0.06
8611 C 94.98670252597165 39.66353932604079 54.38017569101214 C 0.0 **** -0.24
8612 H 94.36112859908658 38.771449738814 54.34816136119741 H 0.0 **** 0.06
8613 H 94.41810445765319 40.49131567020248 54.80348530586065 H 0.0 **** 0.06
8614 H 95.3053459063072 39.918840619580294 53.37043509908517 H 0.0 **** 0.06
8615 H 95.86233600500802 39.46956734938209 55.000377593259714 H 0.0 **** 0.06
8616 C 14.235942475372042 87.858076142731 55.077962503090205 C 0.0 **** -0.24
8617 H 14.819058045474634 86.97469591934848 55.334633555729084 H 0.0 **** 0.06
8618 H 14.898314577042186 88.63037118992342 54.68706988614332 H 0.0 **** 0.06
8619 H 13.729665773278441 88.23028634034459 55.96910502027893 H 0.0 **** 0.06
8620 H 13.494682711220236 87.5978430732801 54.32112549000671 H 0.0 **** 0.06
8621 C 14.016233519832696 16.32695295786806 124.48074730012375 C 0.0 **** -0.24
8622 H 13.396390744097033 16.73487299174039 123.68214309721169 H 0.0 **** 0.06
8623 H 15.06730932037351 16.50583723787713 124.25236037073599 H 0.0 **** 0.06
8624 H 13.83993282997838 15.254609919595083 124.56453844398196 H 0.0 **** 0.06
8625 H 13.76116973393627 16.81159201867925 125.42353092010879 H 0.0 **** 0.06
8626 C 102.45488964513953 5.888444284328159 121.80094010334905 C 0.0 **** -0.24
8627 H 101.60600433412549 5.9531152465648915 121.12167814436874 H 0.0 **** 0.06
8628 H 102.14595813731461 5.393432210023718 122.72231510910005 H 0.0 **** 0.06
8629 H 102.81470168476898 6.891768239769533 122.03029974063723 H 0.0 **** 0.06
8630 H 103.25383107237667 5.314624997057479 121.33011790009765 H 0.0 **** 0.06
8631 C 25.97159294915909 38.00420085858431 80.3060462463111 C 0.0 **** -0.24
8632 H 25.584286899640148 38.7963948253533 80.94610889620276 H 0.0 **** 0.06
8633 H 25.2084354762613 37.23682532738479 80.17606566383165 H 0.0 **** 0.06
8634 H 26.855082628006457 37.56422854943702 80.76781329907249 H 0.0 **** 0.06
8635 H 26.23898472841578 38.42066298038944 79.33525255313111 H 0.0 **** 0.06
8636 C 32.12437664982581 96.59902121838769 108.60930460248737 C 0.0 **** -0.24
8637 H 32.157590412942966 95.96575334223502 109.49609552615199 H 0.0 **** 0.06
8638 H 32.20026846410669 95.97811731590923 107.71684550105248 H 0.0 **** 0.06
8639 H 32.957010819984205 97.30273149042807 108.63531833486566 H 0.0 **** 0.06
8640 H 31.18370289614176 97.14937493380921 108.5911618319658 H 0.0 **** 0.06
8641 C 59.174621947775194 13.305093278977552 42.15299296785386 C 0.0 **** -0.24
8642 H 58.677860836148895 13.713936215538638 41.27355376762847 H 0.0 **** 0.06
8643 H 58.71610335470429 12.352742987585259 42.41956399428915 H 0.0 **** 0.06
8644 H 59.07320931667819 14.00401542487407 42.98393691164296 H 0.0 **** 0.06
8645 H 60.23145709263457 13.151658448638614 41.93516113943585 H 0.0 **** 0.06
8646 C 21.49072476944677 47.56782781322367 112.38035967847594 C 0.0 **** -0.24
8647 H 21.680778059605807 47.167838572910895 111.38401994529221 H 0.0 **** 0.06
8648 H 22.43368077172839 47.655813186040646 112.9213449734957 H 0.0 **** 0.06
8649 H 20.82326946833836 46.89585392158335 112.91902001733115 H 0.0 **** 0.06
8650 H 21.026690370715883 48.549751772849675 112.29519014909175 H 0.0 **** 0.06
8651 C 11.736236478585539 51.671815510511806 122.53236061574533 C 0.0 **** -0.24
8652 H 11.961044919721957 50.609917093443414 122.64005212490387 H 0.0 **** 0.06
8653 H 11.937263594400662 51.98288613052341 121.50734322951878 H 0.0 **** 0.06
8654 H 12.36013097919863 52.24598904172694 123.21604243308421 H 0.0 **** 0.06
8655 H 10.685796516321005 51.84480125793016 122.76620094137193 H 0.0 **** 0.06
8656 C 91.36365925936688 55.71024469522523 130.1470353809012 C 0.0 **** -0.24
8657 H 90.68042356150897 56.46182470550244 129.75059751660513 H 0.0 **** 0.06
8658 H 91.91973821478923 56.13106448156523 130.9851370509443 H 0.0 **** 0.06
8659 H 92.0593945180389 55.403277189965905 129.36532320245846 H 0.0 **** 0.06
8660 H 90.79386303719731 54.844652797204276 130.48638247535365 H 0.0 **** 0.06
8661 C 90.30225412605108 42.5262777446942 113.13120335663221 C 0.0 **** -0.24
8662 H 90.99839316436567 42.68454171984965 112.30652008540447 H 0.0 **** 0.06
8663 H 90.06199643446217 43.48438333280117 113.59171871467429 H 0.0 **** 0.06
8664 H 90.76125493509699 41.87086437768616 113.87123109363914 H 0.0 **** 0.06
8665 H 89.39086313121959 42.06434161413907 112.75254133855113 H 0.0 **** 0.06
8666 C 75.07358309747005 40.7025669420366 41.9532442154089 C 0.0 **** -0.24
8667 H 75.80622494869652 40.528511459168726 42.74136482403357 H 0.0 **** 0.06
8668 H 74.0699182344052 40.68697350105583 42.379638655305655 H 0.0 **** 0.06
8669 H 75.16044192284888 39.921321838131234 41.19761127287427 H 0.0 **** 0.06
8670 H 75.2584333518658 41.67302168982532 41.49378212623303 H 0.0 **** 0.06
8671 C 29.017400413459455 149.79326552569722 74.58645187502768 C 0.0 **** -0.24
8672 H 28.29991169775758 149.45922066782464 75.33694938674574 H 0.0 **** 0.06
8673 H 28.62133071180881 149.59274922820333 73.5908583353602 H 0.0 **** 0.06
8674 H 29.95749457920178 149.25684556105142 74.71877760508238 H 0.0 **** 0.06
8675 H 29.1903917491546 150.86292942379316 74.70123252029637 H 0.0 **** 0.06
8676 C 131.32377868899334 22.774120940131006 23.68875905554725 C 0.0 **** -0.24
8677 H 130.36576496169573 22.353438526964297 23.38239732776441 H 0.0 **** 0.06
8678 H 131.4725953886048 22.59744951908337 24.753965739594918 H 0.0 **** 0.06
8679 H 131.32880093391336 23.846371180320645 23.493908679905076 H 0.0 **** 0.06
8680 H 132.12565813767173 22.29865782051609 23.1254051750727 H 0.0 **** 0.06
8681 C 67.0068780649293 57.38442592740114 133.672182775444 C 0.0 **** -0.24
8682 H 67.01847182594864 56.699671052005954 132.8244193560527 H 0.0 **** 0.06
8683 H 66.01672897411945 57.83075638730065 133.76616891570225 H 0.0 **** 0.06
8684 H 67.74684323710521 58.169812823734105 133.51434268435446 H 0.0 **** 0.06
8685 H 67.24699085949064 56.83739236290904 134.58462272310638 H 0.0 **** 0.06
8686 C 150.38405614754663 69.34146203339304 23.375774991252115 C 0.0 **** -0.24
8687 H 151.3766862064077 69.01483456479178 23.064910766487287 H 0.0 **** 0.06
8688 H 150.1662890618745 70.31272653524519 22.932072127893207 H 0.0 **** 0.06
8689 H 150.35288202492669 69.42313963851899 24.46249042988535 H 0.0 **** 0.06
8690 H 149.64223577176145 68.61559910940059 23.044768980053902 H 0.0 **** 0.06
8691 C 37.950414337222924 41.17902805202115 10.369200614728186 C 0.0 **** -0.24
8692 H 37.99982883140129 42.13677829282361 9.850650533542563 H 0.0 **** 0.06
8693 H 37.24945244258868 40.52280337521975 9.852435568244573 H 0.0 **** 0.06
8694 H 37.61362257845994 41.338280316198194 11.392982069894543 H 0.0 **** 0.06
8695 H 38.938550274859296 40.72013795107941 10.378014803920394 H 0.0 **** 0.06
8696 C 99.38791032545322 44.90065529189154 11.387650671331869 C 0.0 **** -0.24
8697 H 98.64587665025903 44.39620715712046 10.768146340518228 H 0.0 **** 0.06
8698 H 100.38493158223002 44.690315079380824 11.001620797679664 H 0.0 **** 0.06
8699 H 99.31070807751075 44.53777716198293 12.413309881250143 H 0.0 **** 0.06
8700 H 99.20793121911635 45.975296007749364 11.367344994566992 H 0.0 **** 0.06
8701 C 80.59905592519317 128.3536255744854 100.6065443886688 C 0.0 **** -0.24
8702 H 79.9916673927408 127.68333484661457 101.21450407839362 H 0.0 **** 0.06
8703 H 81.31431901567925 128.87419631826108 101.24422952833243 H 0.0 **** 0.06
8704 H 79.95480109975489 129.08261707333588 100.11450311365874 H 0.0 **** 0.06
8705 H 81.13472453940011 127.77581473481143 99.8535409074812 H 0.0 **** 0.06
8706 C 82.77344429771321 78.57528970582969 91.93417110787922 C 0.0 **** -0.24
8707 H 83.34995857965346 79.49928355230539 91.97582599382187 H 0.0 **** 0.06
8708 H 82.46283985066789 78.38810643092668 90.9056397131856 H 0.0 **** 0.06
8709 H 81.89261970361433 78.66727106185662 92.56956464411363 H 0.0 **** 0.06
8710 H 83.39042185690634 77.74724372220446 92.28456383116051 H 0.0 **** 0.06
8711 C 118.09332061647983 113.07359147074142 48.40140531022793 C 0.0 **** -0.24
8712 H 118.69739307000553 113.68793029657066 47.73354771260449 H 0.0 **** 0.06
8713 H 117.90202626058876 113.6219970662546 49.323962229205776 H 0.0 **** 0.06
8714 H 118.62723168763928 112.15187831546369 48.6300278519748 H 0.0 **** 0.06
8715 H 117.14639319709214 112.83475927054114 47.917755531007174 H 0.0 **** 0.06
8716 C 6.861870372490586 22.93799102376647 9.019873464408285 C 0.0 **** -0.24
8717 H 7.6680965493901 22.613335065880108 9.67723129931938 H 0.0 **** 0.06
8718 H 6.572268693062824 22.113687851834868 8.367002354626244 H 0.0 **** 0.06
8719 H 7.201931897755088 23.77775847955121 8.414395769347877 H 0.0 **** 0.06
8720 H 6.005324446146972 23.246112383078184 9.61950984613624 H 0.0 **** 0.06
8721 C 55.694906531969124 65.84483501575384 69.7910612179949 C 0.0 **** -0.24
8722 H 56.5520751676863 65.49288343157473 69.21597988389655 H 0.0 **** 0.06
8723 H 55.32288555462833 66.77241335847837 69.35580118110934 H 0.0 **** 0.06
8724 H 55.99727322302142 66.02290876215693 70.8221439215229 H 0.0 **** 0.06
8725 H 54.9081005895669 65.0914414807923 69.7679952029961 H 0.0 **** 0.06
8726 C 59.87747042682872 44.22085233332433 80.53598222703695 C 0.0 **** -0.24
8727 H 60.15338173498513 43.93469226383064 79.52162932724812 H 0.0 **** 0.06
8728 H 60.62596205612843 43.84883732411862 81.23522866312513 H 0.0 **** 0.06
8729 H 58.90468678577817 43.79341373334455 80.78238793744427 H 0.0 **** 0.06
8730 H 59.82391097611149 45.307390226805126 80.60406507155884 H 0.0 **** 0.06
8731 C 41.312562864726445 66.15285912550166 21.648773030564797 C 0.0 **** -0.24
8732 H 41.73280872511509 65.28957314710738 21.134309073682942 H 0.0 **** 0.06
8733 H 40.24277285570466 66.21406329931713 21.44217929647536 H 0.0 **** 0.06
8734 H 41.80356296393917 67.06008390740027 21.296300916304602 H 0.0 **** 0.06
8735 H 41.46941022448149 66.04801898340352 22.722475012479777 H 0.0 **** 0.06
8736 C 87.74701846780236 149.42352823998655 128.39709896992153 C 0.0 **** -0.24
8737 H 87.37934435321695 148.40101885677186 128.4778192170497 H 0.0 **** 0.06
8738 H 87.77815473992301 149.87852429863742 129.38741085263536 H 0.0 **** 0.06
8739 H 87.08084028194781 149.99945451356243 127.75345691377754 H 0.0 **** 0.06
8740 H 88.74933408976808 149.4173736595379 127.9677750462838 H 0.0 **** 0.06
8741 C 119.64530465921548 106.03786754363125 88.53659924737399 C 0.0 **** -0.24
8742 H 119.76676903831789 105.29185509198271 89.32210883866529 H 0.0 **** 0.06
8743 H 119.70751259673666 107.0356945790129 88.97148875515416 H 0.0 **** 0.06
8744 H 118.67359629328057 105.90847817736017 88.06061321197346 H 0.0 **** 0.06
8745 H 120.43256742937525 105.91502088820619 87.79367767262326 H 0.0 **** 0.06
8746 C 117.68384212815755 13.107708216939443 147.25492807452474 C 0.0 **** -0.24
8747 H 118.33707621710948 13.595571448005941 147.97762520109296 H 0.0 **** 0.06
8748 H 116.94669177858077 13.824260695293574 146.88985210248092 H 0.0 **** 0.06
8749 H 117.17166421660875 12.27296965884701 147.73399991606254 H 0.0 **** 0.06
8750 H 118.27703744912895 12.738784706589819 146.4180647364913 H 0.0 **** 0.06
8751 C 118.7476656542301 97.86280216730741 102.83777997112071 C 0.0 **** -0.24
8752 H 119.327936183323 97.37754018375243 103.62304325866012 H 0.0 **** 0.06
8753 H 119.42487795137475 98.30221491742655 102.10488881280992 H 0.0 **** 0.06
8754 H 118.12830414329522 98.6450262440187 103.2756055783127 H 0.0 **** 0.06
8755 H 118.11098211198714 97.12648003286014 102.34854667246884 H 0.0 **** 0.06
8756 C 93.50549442083137 60.40378419811998 42.59643855697854 C 0.0 **** -0.24
8757 H 93.93107707726027 61.282511522467814 43.081621199892794 H 0.0 **** 0.06
8758 H 94.27667030296732 59.90242078990711 42.01120356759861 H 0.0 **** 0.06
8759 H 92.69182550266703 60.71055290377099 41.93825516087094 H 0.0 **** 0.06
8760 H 93.12187694645478 59.7206646203816 43.353840521920006 H 0.0 **** 0.06
8761 C 132.1275686608346 144.46473110324453 26.49684229380739 C 0.0 **** -0.24
8762 H 132.97745151535565 145.13465966498038 26.368299218899878 H 0.0 **** 0.06
8763 H 131.414400335246 144.91175471191713 27.189877169960596 H 0.0 **** 0.06
8764 H 132.4733407853675 143.51144344249838 26.895912134888505 H 0.0 **** 0.06
8765 H 131.6445516915431 144.30237627849345 25.53334034870474 H 0.0 **** 0.06
8766 C 28.528214799452 24.4319862753835 28.59223903517824 C 0.0 **** -0.24
8767 H 29.511294817196443 24.0921366315496 28.91633522614326 H 0.0 **** 0.06
8768 H 28.5187129478862 25.521314255995804 28.545124493691354 H 0.0 **** 0.06
8769 H 27.77350528941193 24.09253117086586 29.303329295027524 H 0.0 **** 0.06
8770 H 28.308798278293494 24.022750850356033 27.606827858172615 H 0.0 **** 0.06
8771 C 73.21155881563594 129.9171670417287 148.66600721610604 C 0.0 **** -0.24
8772 H 74.11813227594108 129.32417408345646 148.79131259114254 H 0.0 **** 0.06
8773 H 72.77528547901362 130.12232511861686 149.64407125133513 H 0.0 **** 0.06
8774 H 72.497424158288 129.36264825075384 148.05835844041783 H 0.0 **** 0.06
8775 H 73.45790837054419 130.85635609870877 148.17244543452586 H 0.0 **** 0.06
8776 C 29.979706593591914 107.68291337214596 96.28451224892885 C 0.0 **** -0.24
8777 H 30.80657640411468 107.00738811945446 96.06120864536999 H 0.0 **** 0.06
8778 H 30.139955154314094 108.14083752077208 97.26112803572295 H 0.0 **** 0.06
8779 H 29.04556872242088 107.12122484296985 96.29523241316875 H 0.0 **** 0.06
8780 H 29.92878242502482 108.45916000631617 95.52119556184451 H 0.0 **** 0.06
8781 C 56.893011475201575 19.234762793937932 41.103157644890814 C 0.0 **** -0.24
8782 H 57.415216471761255 18.43877098951856 41.63363239263188 H 0.0 **** 0.06
8783 H 57.03211911201042 20.17701388577126 41.63358430810098 H 0.0 **** 0.06
8784 H 55.82987574388146 19.00014716058118 41.05227152355059 H 0.0 **** 0.06
8785 H 57.29367554205905 19.32257950830021 40.09374693602808 H 0.0 **** 0.06
8786 C 102.67668015557983 128.354942042703 112.97989783299829 C 0.0 **** -0.24
8787 H 103.53745394858775 128.4667380801912 113.63921308979428 H 0.0 **** 0.06
8788 H 102.53276565788067 129.27342786375516 112.41168144424569 H 0.0 **** 0.06
8789 H 101.78728789433687 128.15280848035192 113.57638915463389 H 0.0 **** 0.06
8790 H 102.8502206778265 127.5262641791758 112.29423236971974 H 0.0 **** 0.06
8791 C 132.6945438976448 101.36877591813227 87.2402793295887 C 0.0 **** -0.24
8792 H 133.22905004786114 102.31192177819437 87.35595371735661 H 0.0 **** 0.06
8793 H 133.40799433901213 100.54419343307548 87.24339510188992 H 0.0 **** 0.06
8794 H 132.14908821423245 101.37367177709687 86.29673780892114 H 0.0 **** 0.06
8795 H 131.9931523985083 101.24617179941255 88.06522578683939 H 0.0 **** 0.06
8796 C 105.35607340033185 82.63345903071922 79.54669404489695 C 0.0 **** -0.24
8797 H 105.04668658812575 83.64905352580467 79.79411093069365 H 0.0 **** 0.06
8798 H 105.80189121161932 82.62235514601934 78.55151832743255 H 0.0 **** 0.06
8799 H 104.48790454485628 81.97524415598633 79.56347109436805 H 0.0 **** 0.06
8800 H 106.08857691790509 82.2894561026639 80.27717750170862 H 0.0 **** 0.06
8801 C 71.99580746798219 64.61691890175439 86.07914580311966 C 0.0 **** -0.24
8802 H 72.65781019821006 65.19150284806821 86.7263321179465 H 0.0 **** 0.06
8803 H 72.2912923434715 64.75971135088548 85.03899939826498 H 0.0 **** 0.06
8804 H 70.96974031451865 64.95590880906707 86.2162788246352 H 0.0 **** 0.06
8805 H 72.06632937205228 63.55944657608106 86.33503727835544 H 0.0 **** 0.06
8806 C 56.35278412320369 25.178427980749575 83.25671067335753 C 0.0 **** -0.24
8807 H 55.42657169671489 24.72145507393769 82.90902292832641 H 0.0 **** 0.06
8808 H 56.27719054235695 26.262451240968545 83.16955175493388 H 0.0 **** 0.06
8809 H 57.18436529216879 24.82168786597873 82.64769360313397 H 0.0 **** 0.06
8810 H 56.52365916460977 24.90795466125644 84.2984411410772 H 0.0 **** 0.06
8811 C 13.575166105627659 28.490389874860966 102.21896665321842 C 0.0 **** -0.24
8812 H 14.063271301431314 29.018935243920396 103.03910912414663 H 0.0 **** 0.06
8813 H 12.869978573040612 29.158401971268745 101.72521890602204 H 0.0 **** 0.06
8814 H 13.042780674441076 27.624093239263118 102.61159927299695 H 0.0 **** 0.06
8815 H 14.327558819437286 28.160803012689087 101.50135028879536 H 0.0 **** 0.06
8816 C 39.74209190975289 67.9394902484681 70.24865079222727 C 0.0 **** -0.24
8817 H 40.273174813966065 66.98973203374734 70.19287684577446 H 0.0 **** 0.06
8818 H 38.68785761315805 67.78024484033932 70.0166841520541 H 0.0 **** 0.06
8819 H 40.17067449630353 68.63886605197536 69.53110224306468 H 0.0 **** 0.06
8820 H 39.834510923522146 68.34840048264712 71.25486927468356 H 0.0 **** 0.06
8821 C 2.016072418710575 45.38921415590045 128.7342703163788 C 0.0 **** -0.24
8822 H 2.2033994142781275 45.05197349771406 127.71506974719485 H 0.0 **** 0.06
8823 H 2.96432256621598 45.50498745028632 129.25910999038774 H 0.0 **** 0.06
8824 H 1.4014674551856636 44.65212121896724 129.25301813523274 H 0.0 **** 0.06
8825 H 1.4934341441800214 46.3450913346916 128.70972417537206 H 0.0 **** 0.06
8826 C 128.39949556612387 148.71234380465717 8.764506548457689 C 0.0 **** -0.24
8827 H 129.3638746343713 148.92817252075025 8.30436040803076 H 0.0 **** 0.06
8828 H 127.67475486593509 149.46589990599844 8.45741441626032 H 0.0 **** 0.06
8829 H 128.50385170078465 148.7283911323573 9.848946371379157 H 0.0 **** 0.06
8830 H 128.05808154044573 147.72824359032083 8.446053013897597 H 0.0 **** 0.06
8831 C 50.40729104817113 68.0516410400696 145.63036451025343 C 0.0 **** -0.24
8832 H 50.58716188042021 69.08431688031416 145.9275539102673 H 0.0 **** 0.06
8833 H 49.373386334663735 67.78515377178084 145.85046920025172 H 0.0 **** 0.06
8834 H 51.077470976457235 67.39317966431159 146.18367454264023 H 0.0 **** 0.06
8835 H 50.59106771725804 67.9433883869566 144.56193250784062 H 0.0 **** 0.06
8836 C 121.5855715795073 20.751064797901506 3.722246982299737 C 0.0 **** -0.24
8837 H 121.99135611098723 21.330076381073724 2.89289665168036 H 0.0 **** 0.06
8838 H 120.52593021637864 20.977574286410885 3.8381352802582 H 0.0 **** 0.06
8839 H 122.1159570147318 21.009948653168124 4.639027735484831 H 0.0 **** 0.06
8840 H 121.71041794361633 19.68770847465757 3.518828242078314 H 0.0 **** 0.06
8841 C 101.3431623741684 33.89393799190344 113.822603467447 C 0.0 **** -0.24
8842 H 101.02128390141996 32.865830696229786 113.65530092925734 H 0.0 **** 0.06
8843 H 102.39781590240231 33.90430055860066 114.09890775591039 H 0.0 **** 0.06
8844 H 100.75229240358934 34.33131654588601 114.62810033532945 H 0.0 **** 0.06
8845 H 101.19998161347432 34.472695993360674 112.91106912069664 H 0.0 **** 0.06
8846 C 97.69999863565769 17.598556219035935 132.67214948884632 C 0.0 **** -0.24
8847 H 96.85970910166262 18.082412329865697 132.17481536942464 H 0.0 **** 0.06
8848 H 97.83091342032965 18.027914129951697 133.66541057507916 H 0.0 **** 0.06
8849 H 98.60668914404654 17.754127359931964 132.08609873511787 H 0.0 **** 0.06
8850 H 97.50285634422427 16.53034139523553 132.76011809465982 H 0.0 **** 0.06
8851 C 128.75220836477274 15.945845299853147 90.2828383792947 C 0.0 **** -0.24
8852 H 128.30619299640034 15.631056771133387 91.22661058694386 H 0.0 **** 0.06
8853 H 128.18018421720893 16.7782172882865 89.87061295546494 H 0.0 **** 0.06
8854 H 128.74135804539375 15.113593371954778 89.57955077373975 H 0.0 **** 0.06
8855 H 129.7806639250894 16.263203476288822 90.45533891647445 H 0.0 **** 0.06
8856 C 87.69870613361456 7.285104793818448 92.25598836979964 C 0.0 **** -0.24
8857 H 87.87979202892481 7.651495730655682 91.24536327887137 H 0.0 **** 0.06
8858 H 88.04203797705802 6.253105089809651 92.33445731174605 H 0.0 **** 0.06
8859 H 86.63217819700006 7.331244410659735 92.47293474031417 H 0.0 **** 0.06
8860 H 88.24194422951663 7.9050307627289556 92.9690722643572 H 0.0 **** 0.06
8861 C 89.22444918990651 123.82820768900734 32.21058763949446 C 0.0 **** -0.24
8862 H 88.95384178629779 122.83084296784841 32.556577110564206 H 0.0 **** 0.06
8863 H 88.46546619497377 124.19203156822545 31.517639228547523 H 0.0 **** 0.06
8864 H 90.18888476742092 123.78662710929876 31.70347957446512 H 0.0 **** 0.06
8865 H 89.29097674299821 124.50285399320285 33.06371125694875 H 0.0 **** 0.06
8866 C 79.06731398070707 120.95771913017343 10.39437904981699 C 0.0 **** -0.24
8867 H 79.76101349753283 120.12023194512695 10.47182385077366 H 0.0 **** 0.06
8868 H 78.76833945766587 121.08577558967961 9.35391748382753 H 0.0 **** 0.06
8869 H 79.55480308943314 121.86580905521392 10.747627549260159 H 0.0 **** 0.06
8870 H 78.18686980269214 120.7569336680444 11.004736100016515 H 0.0 **** 0.06
8871 C 67.11432082001984 147.5448874744141 150.1016190471777 C 0.0 **** -0.24
8872 H 68.18057516555112 147.77030329091642 150.06274868628623 H 0.0 **** 0.06
8873 H 66.83241662066015 147.30027507763234 151.12608588818279 H 0.0 **** 0.06
8874 H 66.8990826522337 146.69675269007084 149.45176260327102 H 0.0 **** 0.06
8875 H 66.54762528532957 148.41358900974478 149.76534635263357 H 0.0 **** 0.06
8876 C 38.43036935336532 3.819272222299219 148.7814855862992 C 0.0 **** -0.24
8877 H 38.034288596897966 4.299276819091659 149.67587759926798 H 0.0 **** 0.06
8878 H 37.98068965203319 4.273250184245569 147.89738619867046 H 0.0 **** 0.06
8879 H 38.19249062017536 2.755863224508545 148.80490546429468 H 0.0 **** 0.06
8880 H 39.51187662947494 3.9495104410220847 148.746880798079 H 0.0 **** 0.06
8881 C 70.70184174235065 131.75653622413108 134.10928135052225 C 0.0 **** -0.24
8882 H 70.94368260247985 132.173930398141 133.13166404403725 H 0.0 **** 0.06
8883 H 71.14660411021697 130.7656204021632 134.20208631972022 H 0.0 **** 0.06
8884 H 69.61959802985528 131.68069146489194 134.21406015830954 H 0.0 **** 0.06
8885 H 71.09645925744475 132.40721199911027 134.88980396018755 H 0.0 **** 0.06
8886 C 114.40952325531346 136.66566649142734 110.06080725713682 C 0.0 **** -0.24
8887 H 114.82366980203328 135.69417106811125 109.79145663894994 H 0.0 **** 0.06
8888 H 114.12842276404443 136.6614359642047 111.11363064074979 H 0.0 **** 0.06
8889 H 113.52981306711497 136.86796007258292 109.4491408395036 H 0.0 **** 0.06
8890 H 115.15785672416273 137.4392543509463 109.88791036535113 H 0.0 **** 0.06
8891 C 110.66699223914003 103.25085636884548 119.43754937660196 C 0.0 **** -0.24
8892 H 110.22836550126237 103.87512906122474 120.21529910104675 H 0.0 **** 0.06
8893 H 109.88017657065745 102.88824253040029 118.77526180191393 H 0.0 **** 0.06
8894 H 111.17501150311142 102.40228826788139 119.89730816268695 H 0.0 **** 0.06
8895 H 111.3849185785756 103.8357811709332 118.86322785946481 H 0.0 **** 0.06
8896 C 45.942868216731256 11.857955453796421 149.6628929052822 C 0.0 **** -0.24
8897 H 46.27333553057876 11.289496453742373 150.53281143043023 H 0.0 **** 0.06
8898 H 45.96709404938419 12.922762879762075 149.89416056499326 H 0.0 **** 0.06
8899 H 44.92550988370826 11.565327967718275 149.40267824436455 H 0.0 **** 0.06
8900 H 46.605816390030256 11.653082294374116 148.8226910447114 H 0.0 **** 0.06
8901 C 110.89656925789582 9.362424418154326 87.42754965529213 C 0.0 **** -0.24
8902 H 110.67674506069888 8.440071331407765 87.96541543661881 H 0.0 **** 0.06
8903 H 110.49984431408002 10.21177819965952 87.98464928275665 H 0.0 **** 0.06
8904 H 110.43422625939091 9.327051287394504 86.44100762200014 H 0.0 **** 0.06
8905 H 111.97546139741344 9.470796854155594 87.31912627979314 H 0.0 **** 0.06
8906 C 141.77972285480476 59.85456064485585 117.57357085410355 C 0.0 **** -0.24
8907 H 142.83202842717785 59.94473543834776 117.84399273027371 H 0.0 **** 0.06
8908 H 141.60149898266354 60.37591613452237 116.63282742163862 H 0.0 **** 0.06
8909 H 141.16424476257924 60.29679613197091 118.35705791880916 H 0.0 **** 0.06
8910 H 141.5227517988237 58.80131997072618 117.46064856930651 H 0.0 **** 0.06
8911 C 14.806436322630418 61.26248882172783 2.1978404405999186 C 0.0 **** -0.24
8912 H 14.55741853891766 60.32673674141142 2.699573156233356 H 0.0 **** 0.06
8913 H 15.882209258823025 61.42968319245877 2.255208825470362 H 0.0 **** 0.06
8914 H 14.283377416704639 62.08498449372554 2.6846665872822086 H 0.0 **** 0.06
8915 H 14.501944555367857 61.20580691924063 1.1528287637667631 H 0.0 **** 0.06
8916 C 95.07509638616146 94.28454893337367 64.79590302157911 C 0.0 **** -0.24
8917 H 95.52215613887796 94.99425150793103 65.4920411677423 H 0.0 **** 0.06
8918 H 94.0157092749148 94.50959188621519 64.67792397139749 H 0.0 **** 0.06
8919 H 95.19155524300638 93.27299963025979 65.18506086963343 H 0.0 **** 0.06
8920 H 95.57378555186942 94.36091203154871 63.82950802503652 H 0.0 **** 0.06
8921 C 47.85973222763492 75.54079394404556 136.16163731955365 C 0.0 **** -0.24
8922 H 47.32043243323264 76.48025555000157 136.04002272019332 H 0.0 **** 0.06
8923 H 48.91949678716006 75.70196108578835 135.9629196016737 H 0.0 **** 0.06
8924 H 47.46607921174585 74.8036036036705 135.46151932505728 H 0.0 **** 0.06
8925 H 47.731664637112104 75.1788147810579 137.18154576873604 H 0.0 **** 0.06
8926 C 4.3623686206717025 21.968595814993137 105.40263975884865 C 0.0 **** -0.24
8927 H 5.117603943806216 22.718575573267472 105.16761326669713 H 0.0 **** 0.06
8928 H 4.014725627043617 22.110846576224787 106.4254581798533 H 0.0 **** 0.06
8929 H 4.7952832548591005 20.972659602557684 105.30118277940811 H 0.0 **** 0.06
8930 H 3.5232704360057596 22.071187989130607 104.71497229281162 H 0.0 **** 0.06
8931 C 10.312706590577363 47.98517995795166 119.30396171386322 C 0.0 **** -0.24
8932 H 9.624276054852203 47.903013518154665 118.46225654227057 H 0.0 **** 0.06
8933 H 10.554390903937758 49.03410628569782 119.47363997231916 H 0.0 **** 0.06
8934 H 11.225588042517188 47.433474837357295 119.08042338696184 H 0.0 **** 0.06
8935 H 9.845376792693003 47.56949763774767 120.19649717064455 H 0.0 **** 0.06
8936 C 96.31170444329918 37.92828338746965 92.54254676308949 C 0.0 **** -0.24
8937 H 96.02973352223783 37.0048676169196 93.04679782996614 H 0.0 **** 0.06
8938 H 97.31712991809339 38.21820133910837 92.8489120759111 H 0.0 **** 0.06
8939 H 95.6087832336182 38.717494480198006 92.80958068141214 H 0.0 **** 0.06
8940 H 96.29043272208344 37.7741517531558 91.46349882468242 H 0.0 **** 0.06
8941 C 41.657899690027705 99.16308165393806 126.9966873894067 C 0.0 **** -0.24
8942 H 40.779070600469026 98.72674023579171 127.4713378703959 H 0.0 **** 0.06
8943 H 42.119094192022146 98.42653003969608 126.3387141104192 H 0.0 **** 0.06
8944 H 42.37251186184238 99.46398114367534 127.76278035042336 H 0.0 **** 0.06
8945 H 41.36078303256397 100.03574976935062 126.41464224144443 H 0.0 **** 0.06
8946 C 59.18518929520974 134.68662632463824 19.017598020477422 C 0.0 **** -0.24
8947 H 58.97556543490845 135.47260096067566 19.7435313600041 H 0.0 **** 0.06
8948 H 59.865710021370006 133.95685181481653 19.45756419162528 H 0.0 **** 0.06
8949 H 59.64400531876561 135.12465454582448 18.13077862270007 H 0.0 **** 0.06
8950 H 58.25439452373226 134.1933019910859 18.73862909824237 H 0.0 **** 0.06
8951 C 104.05075581839138 135.60278676746017 142.3839203385698 C 0.0 **** -0.24
8952 H 104.9882465438457 136.13723170800395 142.22964384352605 H 0.0 **** 0.06
8953 H 104.01128918466311 134.74058534048277 141.71880716071337 H 0.0 **** 0.06
8954 H 103.21427759674275 136.26684633521702 142.16923566339923 H 0.0 **** 0.06
8955 H 103.99156137449758 135.26632591214835 143.41866261019646 H 0.0 **** 0.06
8956 C 8.421974577100258 91.1318943714532 140.82944220407575 C 0.0 **** -0.24
8957 H 8.804969404181719 91.9321086365684 140.1967056477493 H 0.0 **** 0.06
8958 H 7.388606038090785 90.91589087973622 140.5567198791691 H 0.0 **** 0.06
8959 H 8.464691581467633 91.44282775154771 141.8738392631899 H 0.0 **** 0.06
8960 H 9.029320219150662 90.23766057886502 140.6919443702763 H 0.0 **** 0.06
8961 C 110.45685291226486 87.85774356863053 91.64016081814037 C 0.0 **** -0.24
8962 H 109.62330886906896 87.15564992375997 91.66572125436367 H 0.0 **** 0.06
8963 H 110.21760079847137 88.68088126333075 90.96717104776633 H 0.0 **** 0.06
8964 H 111.35219004020304 87.34605374979954 91.28489542769248 H 0.0 **** 0.06
8965 H 110.63475412502156 88.24721129418438 92.64220997290734 H 0.0 **** 0.06
8966 C 29.26353519215119 57.6636863258104 138.52239705710616 C 0.0 **** -0.24
8967 H 28.85286953501796 58.14809195552775 137.63598100268524 H 0.0 **** 0.06
8968 H 28.581525139661025 56.88072282192431 138.85622182955274 H 0.0 **** 0.06
8969 H 29.38666137252985 58.40112923042014 139.31520117448832 H 0.0 **** 0.06
8970 H 30.23110754632492 57.22402093049445 138.2809668355623 H 0.0 **** 0.06
8971 C 33.40654001681264 18.83512465525922 70.12534567426553 C 0.0 **** -0.24
8972 H 33.86263579832894 19.453394539161422 69.35202072308243 H 0.0 **** 0.06
8973 H 32.36351958502888 18.644270600773382 69.86917256917783 H 0.0 **** 0.06
8974 H 33.45721220327226 19.35427751703429 71.08245231446531 H 0.0 **** 0.06
8975 H 33.9427924806202 17.888555964067848 70.19773709033655 H 0.0 **** 0.06
8976 C 32.85711203408594 66.94943556012228 98.28385655758996 C 0.0 **** -0.24
8977 H 33.659648249489564 67.59468843824177 98.63844048039232 H 0.0 **** 0.06
8978 H 32.50003120310332 67.31006511667792 97.31851820464067 H 0.0 **** 0.06
8979 H 32.03758692937625 66.96107866822038 99.0023052460844 H 0.0 **** 0.06
8980 H 33.23053528337439 65.93038415117337 98.17565839700842 H 0.0 **** 0.06
8981 C 145.02391056071838 93.72168689083445 150.06734096501754 C 0.0 **** -0.24
8982 H 143.9924876163247 93.372862903576 150.11142038956189 H 0.0 **** 0.06
8983 H 145.62217508033552 93.01594106878689 149.489978056252 H 0.0 **** 0.06
8984 H 145.42519703218065 93.79719782309975 151.07728190377858 H 0.0 **** 0.06
8985 H 145.055165951316 94.70085555597223 149.58853688987944 H 0.0 **** 0.06
8986 C 21.85651881917795 3.8308111808484 137.81962668083062 C 0.0 **** -0.24
8987 H 22.77663682295409 4.395303820035849 137.97171683182833 H 0.0 **** 0.06
8988 H 21.271661909892217 3.836203622022367 138.7403366584152 H 0.0 **** 0.06
8989 H 22.101194301672187 2.80372141889211 137.54937124163834 H 0.0 **** 0.06
8990 H 21.277642768503014 4.2897417134471425 137.01802904226403 H 0.0 **** 0.06
8991 C 19.94354763437272 105.78410342998109 89.6486831494043 C 0.0 **** -0.24
8992 H 20.1698228128933 105.83887793044272 88.58383772345864 H 0.0 **** 0.06
8993 H 20.195467335202096 106.73224367635714 90.12364843067249 H 0.0 **** 0.06
8994 H 20.527342333169145 104.98302474259555 90.10283642247444 H 0.0 **** 0.06
8995 H 18.881293642218736 105.58086653685297 89.78342622222821 H 0.0 **** 0.06
8996 C 96.15227280903608 65.2275183233493 26.26884189364975 C 0.0 **** -0.24
8997 H 96.61878564883162 65.75557482990222 27.100677569620686 H 0.0 **** 0.06
8998 H 96.73469319697429 65.39170091685293 25.361958731470423 H 0.0 **** 0.06
8999 H 95.13939943120798 65.60222417750958 26.123540474502093 H 0.0 **** 0.06
9000 H 96.11697637267844 64.1603980263906 26.490368308189687 H 0.0 **** 0.06
9001 C 70.3213336384079 29.990844603608522 28.13531083697788 C 0.0 **** -0.24
9002 H 70.17715740784098 28.944621384032565 28.404650151106722 H 0.0 **** 0.06
9003 H 70.77779023078202 30.05141353312336 27.146867463730274 H 0.0 **** 0.06
9004 H 70.97262478879912 30.468677654280626 28.867180291240032 H 0.0 **** 0.06
9005 H 69.35676326996986 30.49869497092812 28.12154468663084 H 0.0 **** 0.06
9006 C 116.51059303320835 38.51067804695137 37.33006847392278 C 0.0 **** -0.24
9007 H 116.05547513957725 38.50568590238754 38.320385219769506 H 0.0 **** 0.06
9008 H 115.79275953312123 38.136884639175605 36.59824463681886 H 0.0 **** 0.06
9009 H 117.39313615707891 37.87066600959193 37.332242152376786 H 0.0 **** 0.06
9010 H 116.80020167041408 39.52812517945867 37.06866910926115 H 0.0 **** 0.06
9011 C 9.301125147509538 31.717905592910157 86.48337477036596 C 0.0 **** -0.24
9012 H 9.148285857491828 31.24798286765988 87.45452163801048 H 0.0 **** 0.06
9013 H 9.771335932744506 32.69167708634041 86.62136168821296 H 0.0 **** 0.06
9014 H 8.340432600197687 31.844949984896644 85.98553243355055 H 0.0 **** 0.06
9015 H 9.946891731483305 31.086888193916856 85.87201883800668 H 0.0 **** 0.06
9016 C 43.95292248257191 107.82822204125912 85.69954688192 C 0.0 **** -0.24
9017 H 44.33327063690241 108.34627198360315 86.57936731054866 H 0.0 **** 0.06
9018 H 43.47643993690694 108.54664029743358 85.03314981920283 H 0.0 **** 0.06
9019 H 43.22471054481204 107.07758068309593 86.00649053138034 H 0.0 **** 0.06
9020 H 44.778974637954406 107.34209476447185 85.17918197074262 H 0.0 **** 0.06
9021 C 38.09689347857078 130.43738884486862 22.41574352804082 C 0.0 **** -0.24
9022 H 38.545002718376374 129.88863454215183 21.587478291054737 H 0.0 **** 0.06
9023 H 38.22474642206055 131.50815386719822 22.254215179316674 H 0.0 **** 0.06
9024 H 38.58362785837518 130.1500650816434 23.347274606336356 H 0.0 **** 0.06
9025 H 37.03419691547089 130.20270188848116 22.474006035455574 H 0.0 **** 0.06
9026 C 58.80015392006891 110.76166419168506 106.07781964783648 C 0.0 **** -0.24
9027 H 59.33232705597527 110.12917094287916 105.36693038342868 H 0.0 **** 0.06
9028 H 58.0498675466321 110.16797739215708 106.60117981961646 H 0.0 **** 0.06
9029 H 58.31123186705116 111.5769052516549 105.54450011553031 H 0.0 **** 0.06
9030 H 59.507811631918 111.17215017383107 106.79930656243162 H 0.0 **** 0.06
9031 C 54.72231482178279 139.92729283961623 149.6088397931656 C 0.0 **** -0.24
9032 H 53.767193734858466 139.40851220067637 149.52491808116508 H 0.0 **** 0.06
9033 H 55.20009632303723 139.9690374908785 148.6291884446872 H 0.0 **** 0.06
9034 H 55.36669984976626 139.39106217147108 150.30565404252235 H 0.0 **** 0.06
9035 H 54.554519302277896 140.94036567517045 149.97496626378526 H 0.0 **** 0.06
9036 C 120.32226637791969 6.593158627921952 113.85070551450106 C 0.0 **** -0.24
9037 H 119.78020836344008 5.6565183580608505 113.71958875268409 H 0.0 **** 0.06
9038 H 119.65064879691393 7.430349738911076 113.66044949163997 H 0.0 **** 0.06
9039 H 121.1570117018402 6.629927989237331 113.15056927723053 H 0.0 **** 0.06
9040 H 120.69994361969778 6.653323145354307 114.87045280864542 H 0.0 **** 0.06
9041 C 15.850998480203316 52.09818375664027 141.72426022450742 C 0.0 **** -0.24
9042 H 15.426529402325627 52.778535789275736 140.98612772310832 H 0.0 **** 0.06
9043 H 15.068746411078678 51.77261383221271 142.41034726537046 H 0.0 **** 0.06
9044 H 16.633672741064174 52.61036502429074 142.2829093037185 H 0.0 **** 0.06
9045 H 16.273872503547068 51.230787240612074 141.2169956552645 H 0.0 **** 0.06
9046 C 65.5300420013684 108.28670965316505 147.31862148327676 C 0.0 **** -0.24
9047 H 65.4897379051194 107.58327235129471 148.15014299086644 H 0.0 **** 0.06
9048 H 66.55291469751947 108.35050580446554 146.94752718218766 H 0.0 **** 0.06
9049 H 65.20419629538534 109.2691969396549 147.6592162102032 H 0.0 **** 0.06
9050 H 64.87372841203293 107.94197750226849 146.51989644921028 H 0.0 **** 0.06
9051 C 20.785002007253013 76.46833135264242 39.915057809428475 C 0.0 **** -0.24
9052 H 21.47693725078227 75.92060618662907 39.276099902953064 H 0.0 **** 0.06
9053 H 21.342696944428383 77.17417440346486 40.53142739552827 H 0.0 **** 0.06
9054 H 20.25001032528155 75.76866020517652 40.5566625507324 H 0.0 **** 0.06
9055 H 20.0714038699968 77.01198296109602 39.29532388413138 H 0.0 **** 0.06
9056 C 101.36425443188779 49.19931713783592 38.74467864521995 C 0.0 **** -0.24
9057 H 100.90406370357886 48.402022412809174 38.1607855821735 H 0.0 **** 0.06
9058 H 101.85813267466102 48.77148915011105 39.61749993411007 H 0.0 **** 0.06
9059 H 100.59688399588964 49.90182029101214 39.0684523073711 H 0.0 **** 0.06
9060 H 102.09870048848 49.72129217165474 38.132024170644286 H 0.0 **** 0.06
9061 C 141.63391466238005 115.1381249859615 91.86953977750784 C 0.0 **** -0.24
9062 H 141.98320281288954 116.0152049376527 91.32420130412294 H 0.0 **** 0.06
9063 H 141.82789591216482 114.24185175992523 91.2799822504407 H 0.0 **** 0.06
9064 H 140.56332730338156 115.22811341061436 92.05548681447152 H 0.0 **** 0.06
9065 H 142.16292813884428 115.06870611979065 92.82077597240243 H 0.0 **** 0.06
9066 C 51.703398974319626 108.46439064619528 78.25112016760403 C 0.0 **** -0.24
9067 H 50.86615765462045 107.87297155724633 77.88048838529515 H 0.0 **** 0.06
9068 H 52.44969673560182 107.80116038209258 78.68814733141826 H 0.0 **** 0.06
9069 H 51.34816660175571 109.16237777088412 79.0092899522971 H 0.0 **** 0.06
9070 H 52.14868301251201 109.01966894573616 77.42541947744202 H 0.0 **** 0.06
9071 C 148.91619076853368 62.43769786536389 112.54549887051938 C 0.0 **** -0.24
9072 H 148.9997618107797 63.20174870564419 111.77253659286963 H 0.0 **** 0.06
9073 H 149.91346766802272 62.10363021410588 112.83486393304376 H 0.0 **** 0.06
9074 H 148.34705293784756 61.59173904962793 112.16059072381582 H 0.0 **** 0.06
9075 H 148.4058018870476 62.8541203607014 113.41423818549912 H 0.0 **** 0.06
9076 C 61.404752361704126 99.58767475528792 106.33024965858631 C 0.0 **** -0.24
9077 H 62.00236459995473 99.43569642545702 105.43103516244328 H 0.0 **** 0.06
9078 H 60.35439633146858 99.40547981244373 106.10286958518454 H 0.0 **** 0.06
9079 H 61.528489491155895 100.61255651118513 106.67939715526067 H 0.0 **** 0.06
9080 H 61.73451115425124 98.89727729040227 107.10616778481342 H 0.0 **** 0.06
9081 C 91.3528985109043 32.90196570626229 12.425260315108801 C 0.0 **** -0.24
9082 H 91.11927215473466 33.93105976579259 12.69904425049296 H 0.0 **** 0.06
9083 H 92.38990623586868 32.68452210853817 12.68307959628791 H 0.0 **** 0.06
9084 H 91.20866524985418 32.76969905234776 11.353687766884917 H 0.0 **** 0.06
9085 H 90.69373166197634 32.22364888403978 12.967434507298748 H 0.0 **** 0.06
9086 C 121.93019329712182 124.10864742351707 95.84471577439237 C 0.0 **** -0.24
9087 H 122.46135088762857 123.73047668252308 96.71742645924775 H 0.0 **** 0.06
9088 H 122.44450496428418 124.98950063767082 95.46024001068372 H 0.0 **** 0.06
9089 H 120.91210945497623 124.37682183336274 96.12770212436284 H 0.0 **** 0.06
9090 H 121.9018963119914 123.33844351322058 95.07435632732596 H 0.0 **** 0.06
9091 C 121.70698586990201 3.1154438696134186 60.21231019248057 C 0.0 **** -0.24
9092 H 121.39746237650738 4.120174220285858 60.50092348192689 H 0.0 **** 0.06
9093 H 122.75926436781876 3.1284776504581693 59.92520632200845 H 0.0 **** 0.06
9094 H 121.1039201673544 2.777426758284765 59.37008478041869 H 0.0 **** 0.06
9095 H 121.5679459912549 2.437580955547819 61.05445047945037 H 0.0 **** 0.06
9096 C 59.403352761825715 13.368642504526974 80.27981484250758 C 0.0 **** -0.24
9097 H 59.8536907128086 14.197420319422633 79.73441543673701 H 0.0 **** 0.06
9098 H 58.629371056666514 12.908094428383947 79.6651333756882 H 0.0 **** 0.06
9099 H 58.961249739409254 13.739609330989026 81.20458996189754 H 0.0 **** 0.06
9100 H 60.16974846563403 12.630028762380277 80.51463146654149 H 0.0 **** 0.06
9101 C 21.2994942930342 133.02984140649122 68.20308237242384 C 0.0 **** -0.24
9102 H 20.747534916212487 133.60226662333122 68.949197467196 H 0.0 **** 0.06
9103 H 22.250365193961386 132.70576188057498 68.62514450728847 H 0.0 **** 0.06
9104 H 21.48377690227332 133.6558421730437 67.32915073981624 H 0.0 **** 0.06
9105 H 20.715346500460242 132.1585005859794 67.90907561952577 H 0.0 **** 0.06
9106 C 60.396423308447424 93.40645941977132 46.54592125402547 C 0.0 **** -0.24
9107 H 59.77743385235678 93.19857985639482 47.41834523437562 H 0.0 **** 0.06
9108 H 59.801262718879 93.92606920640335 45.794806724649746 H 0.0 **** 0.06
9109 H 60.76604526668973 92.46758306848457 46.13224102688763 H 0.0 **** 0.06
9110 H 61.23965200584817 94.03126256546449 46.83964197417086 H 0.0 **** 0.06
9111 C 80.99884647359299 94.49057065704034 92.72014529301686 C 0.0 **** -0.24
9112 H 80.40529096443589 94.74541391361737 91.84235189829664 H 0.0 **** 0.06
9113 H 80.75862409084134 93.47605923492162 93.03860451207808 H 0.0 **** 0.06
9114 H 80.77355675631458 95.18791561732633 93.52625880117415 H 0.0 **** 0.06
9115 H 82.0591565761281 94.5525437034558 92.47221109737946 H 0.0 **** 0.06
9116 C 138.23136612242035 130.98366939126564 92.88355782251523 C 0.0 **** -0.24
9117 H 139.16748059302518 130.43444022631928 92.77793328363873 H 0.0 **** 0.06
9118 H 138.17157847044422 131.75032371857463 92.11091037985335 H 0.0 **** 0.06
9119 H 138.19561764230485 131.4539891778159 93.86632627740593 H 0.0 **** 0.06
9120 H 137.39244721051335 130.29545515824591 92.77922316871519 H 0.0 **** 0.06
9121 C 80.97828797202064 121.18623579608565 85.03031697989383 C 0.0 **** -0.24
9122 H 81.15350375622137 122.23160543822975 84.7782332929568 H 0.0 **** 0.06
9123 H 81.8026702317231 120.57851574418409 84.65646576113852 H 0.0 **** 0.06
9124 H 80.04581539285498 120.85457392814568 84.57263279811535 H 0.0 **** 0.06
9125 H 80.9094329270859 121.07929829503682 86.11248462247117 H 0.0 **** 0.06
9126 C 134.46495637575123 123.56320902253738 131.14680689805883 C 0.0 **** -0.24
9127 H 133.62643039072935 123.22006036723981 130.541500672975 H 0.0 **** 0.06
9128 H 134.6224770923373 122.87001572222006 131.97396275259192 H 0.0 **** 0.06
9129 H 134.24676009333035 124.55601686521082 131.54072499388715 H 0.0 **** 0.06
9130 H 135.3637441399871 123.60577565801164 130.53198407551983 H 0.0 **** 0.06
9131 C 148.14780181875406 115.89728843977842 88.97085238884904 C 0.0 **** -0.24
9132 H 147.1771142972752 116.13141406941251 89.40797069043543 H 0.0 **** 0.06
9133 H 148.9096343842121 115.91011886599291 89.75082420603235 H 0.0 **** 0.06
9134 H 148.39249302792965 116.64109401862727 88.21251146265433 H 0.0 **** 0.06
9135 H 148.11161275071137 114.9092268363698 88.51336243497279 H 0.0 **** 0.06
9136 C 46.401883091252884 89.94399617328537 99.09064172310516 C 0.0 **** -0.24
9137 H 46.53943123367101 90.30346300077355 98.07068505501941 H 0.0 **** 0.06
9138 H 47.25315068674122 90.24787760211404 99.7006696565222 H 0.0 **** 0.06
9139 H 46.32766405506091 88.85660162936853 99.08497433585889 H 0.0 **** 0.06
9140 H 45.48714928662167 90.36892195806729 99.50444680233515 H 0.0 **** 0.06
9141 C 28.33480036632801 14.67685075320884 21.970691549451885 C 0.0 **** -0.24
9142 H 28.974267774038196 15.51955998367663 22.23370310156332 H 0.0 **** 0.06
9143 H 27.30047849609639 15.012323279181231 21.90264820898932 H 0.0 **** 0.06
9144 H 28.417745339310386 13.905125373621871 22.737159826639754 H 0.0 **** 0.06
9145 H 28.64900773060691 14.268886206183765 21.00992250890448 H 0.0 **** 0.06
9146 C 30.11536006493077 108.08661601297113 123.45773969544312 C 0.0 **** -0.24
9147 H 29.374355800121464 108.66031824738762 124.01359837931788 H 0.0 **** 0.06
9148 H 30.84558085094625 108.7651964105715 123.01724483996354 H 0.0 **** 0.06
9149 H 29.62022962505131 107.52257204833565 122.66802285057737 H 0.0 **** 0.06
9150 H 30.6214096206117 107.39716995012473 124.13332717884082 H 0.0 **** 0.06
9151 C 31.55870984575691 25.351620149663802 148.92853715674002 C 0.0 **** -0.24
9152 H 31.735199851177867 26.337785402788683 149.35917260855373 H 0.0 **** 0.06
9153 H 32.43390476886984 24.722617684045765 149.09065507928815 H 0.0 **** 0.06
9154 H 31.374617696326908 25.450023243531447 147.85919700635392 H 0.0 **** 0.06
9155 H 30.69039012547293 24.896956772978477 149.40728200167197 H 0.0 **** 0.06
9156 C 144.77419342636196 2.463150887526524 147.80206927350625 C 0.0 **** -0.24
9157 H 143.94500920860258 1.8301014290007345 148.11852371284905 H 0.0 **** 0.06
9158 H 144.39368787261662 3.441653794236913 147.50894972221872 H 0.0 **** 0.06
9159 H 145.28150577397778 2.001169037039915 146.9553866768741 H 0.0 **** 0.06
9160 H 145.47729493581522 2.5786483414026407 148.62751771172802 H 0.0 **** 0.06
9161 C 3.3123448632844372 83.33387793050485 90.34192019649572 C 0.0 **** -0.24
9162 H 2.2362828601096965 83.26423497736741 90.18449438031885 H 0.0 **** 0.06
9163 H 3.5685292312309684 82.88445375155553 91.30166390359057 H 0.0 **** 0.06
9164 H 3.6127506486253935 84.38159869034965 90.33817151596821 H 0.0 **** 0.06
9165 H 3.8309621200525044 82.8049199527961 89.54293017936965 H 0.0 **** 0.06
9166 C 3.153182647390903 33.217199471627 68.9322786366471 C 0.0 **** -0.24
9167 H 3.376884921902146 32.172213336329236 69.1465815718963 H 0.0 **** 0.06
9168 H 2.435837420744928 33.274258745081056 68.11327645887948 H 0.0 **** 0.06
9169 H 4.069954373439074 33.73449076879314 68.65015847888105 H 0.0 **** 0.06
9170 H 2.7297889557578436 33.68663893015977 69.82032247904688 H 0.0 **** 0.06
9171 C 12.31435520258276 127.34823793698361 17.46637237052247 C 0.0 **** -0.24
9172 H 13.005364445528159 127.55235757120914 16.64784202707854 H 0.0 **** 0.06
9173 H 12.467326990122586 126.32933181379431 17.823227323960808 H 0.0 **** 0.06
9174 H 11.290067872416131 127.46077215828609 17.113266239459612 H 0.0 **** 0.06
9175 H 12.498596139821672 128.0498857476161 18.279377953978553 H 0.0 **** 0.06
9176 C 4.660516293265658 147.51894340631986 128.60050534131003 C 0.0 **** -0.24
9177 H 4.980343419468539 148.5341246289647 128.36502670821324 H 0.0 **** 0.06
9178 H 3.7445297543324614 147.55564056675084 129.19171133627552 H 0.0 **** 0.06
9179 H 5.441319066312047 147.01647615439543 129.17110078425424 H 0.0 **** 0.06
9180 H 4.475345868379918 146.97196204909577 127.67659476385143 H 0.0 **** 0.06
9181 C 143.72737643890497 98.45917286260672 80.76970206443869 C 0.0 **** -0.24
9182 H 143.0346000919157 98.14606009243107 81.55141418834918 H 0.0 **** 0.06
9183 H 143.6271258209789 99.53176022328816 80.604237135869 H 0.0 **** 0.06
9184 H 143.49942974036162 97.9251479070193 79.84671443302088 H 0.0 **** 0.06
9185 H 144.74828840772952 98.23292628886958 81.07704343220237 H 0.0 **** 0.06
9186 C 18.851043736805906 6.31396094533784 37.17857372717182 C 0.0 **** -0.24
9187 H 19.355543984082686 7.0599376457792005 37.79295696260846 H 0.0 **** 0.06
9188 H 19.508031999165297 5.456547711326493 37.03568418858889 H 0.0 **** 0.06
9189 H 18.603612331650965 6.748460804476906 36.209531885614865 H 0.0 **** 0.06
9190 H 17.935697503409074 5.992724725185724 37.6761258009474 H 0.0 **** 0.06
9191 C 111.94717984771934 150.4040982118667 11.985215694610446 C 0.0 **** -0.24
9192 H 111.98377908567942 149.4399999952672 11.479311000767865 H 0.0 **** 0.06
9193 H 111.37900280772489 150.3067032525197 12.91162524023565 H 0.0 **** 0.06
9194 H 111.46365950862041 151.13557250229334 11.33816090038232 H 0.0 **** 0.06
9195 H 112.96033689121158 150.7336809572246 12.2127864723561 H 0.0 **** 0.06
9196 C 8.824351862895753 140.4415906061776 45.225969342629924 C 0.0 **** -0.24
9197 H 8.047528640986343 139.6872687141905 45.34739263452414 H 0.0 **** 0.06
9198 H 8.364871441880382 141.42895873044836 45.16574916321068 H 0.0 **** 0.06
9199 H 9.383319990385587 140.24422719703216 44.31119734664165 H 0.0 **** 0.06
9200 H 9.500666647615844 140.407553705444 46.08003742014179 H 0.0 **** 0.06
9201 C 39.213968038337484 18.260113225285664 128.8210002842254 C 0.0 **** -0.24
9202 H 38.636032324158194 18.50401113276385 129.7123395015092 H 0.0 **** 0.06
9203 H 40.26197431899011 18.508342465823034 128.98808276194583 H 0.0 **** 0.06
9204 H 38.83485585672918 18.834215808922522 127.97512104485818 H 0.0 **** 0.06
9205 H 39.1211760219083 17.19515932544934 128.60855897929937 H 0.0 **** 0.06
9206 C 111.96015583746708 149.70230187092943 122.35551620122732 C 0.0 **** -0.24
9207 H 112.55434228065775 150.27579693624654 123.06675129158441 H 0.0 **** 0.06
9208 H 112.04559016937367 150.1509001254725 121.36493751871632 H 0.0 **** 0.06
9209 H 110.91544455271446 149.70674538757942 122.66798876987855 H 0.0 **** 0.06
9210 H 112.32370969734939 148.67556006252534 122.32161469395419 H 0.0 **** 0.06
9211 C 70.34637100297317 101.52094613383268 142.32030635490912 C 0.0 **** -0.24
9212 H 69.59207957530171 101.94296675814842 142.98480882852812 H 0.0 **** 0.06
9213 H 71.24002751129693 102.14409196201979 142.34347492129208 H 0.0 **** 0.06
9214 H 69.95490484222847 101.4842139304408 141.30363999976174 H 0.0 **** 0.06
9215 H 70.59718224227555 100.51224185874439 142.64981496325512 H 0.0 **** 0.06
9216 C 91.80491805675084 136.8640057579258 13.16390707021742 C 0.0 **** -0.24
9217 H 92.80041489777332 136.9110195612997 12.72234934015583 H 0.0 **** 0.06
9218 H 91.4352807092479 135.83949749356202 13.116784414230096 H 0.0 **** 0.06
9219 H 91.13167369175343 137.5202165136402 12.611571136539382 H 0.0 **** 0.06
9220 H 91.8533730530992 137.18597081514218 14.203744109614789 H 0.0 **** 0.06
9221 C 116.63539041959427 4.70139705601423 127.5310655298923 C 0.0 **** -0.24
9222 H 117.0522676411669 4.580604676382691 126.53140806263468 H 0.0 **** 0.06
9223 H 116.67760608878945 3.7489486061994306 128.05967434661045 H 0.0 **** 0.06
9224 H 115.59998095529619 5.030458999455451 127.4557934493354 H 0.0 **** 0.06
9225 H 117.21519328643944 5.445876926456773 128.07825553833172 H 0.0 **** 0.06
9226 C 33.445397567726616 76.25257212331186 103.44522563710693 C 0.0 **** -0.24
9227 H 33.206862142887815 77.14334551733509 102.8642815030695 H 0.0 **** 0.06
9228 H 34.52674117045342 76.17179946450716 103.55906894711127 H 0.0 **** 0.06
9229 H 33.066188740595805 75.37018607413088 102.93106130487301 H 0.0 **** 0.06
9230 H 32.981577479211865 76.32703424091329 104.42959541475143 H 0.0 **** 0.06
9231 C 103.8603960400864 145.97882804674458 108.69869466687892 C 0.0 **** -0.24
9232 H 104.74872191132123 146.53653403783244 108.99580351859977 H 0.0 **** 0.06
9233 H 103.56907240602108 145.30384820438698 109.50405314093358 H 0.0 **** 0.06
9234 H 104.07816959887477 145.40103145428674 107.80038165707636 H 0.0 **** 0.06
9235 H 103.04611793071216 146.674322224084 108.4957944765345 H 0.0 **** 0.06
9236 C 33.78375302124536 74.6969699152649 127.37653920818201 C 0.0 **** -0.24
9237 H 33.412644936204714 75.19966776946097 126.4830705950663 H 0.0 **** 0.06
9238 H 33.88114685876954 75.42061009192344 128.1859388776322 H 0.0 **** 0.06
9239 H 34.756858468699875 74.25292715063244 127.16604144920673 H 0.0 **** 0.06
9240 H 33.08401715158746 73.91459232792141 127.67017078376311 H 0.0 **** 0.06
9241 C 100.17075181026597 128.16448572766473 148.4344445157607 C 0.0 **** -0.24
9242 H 99.92266944615369 129.10621349685078 147.94524678609875 H 0.0 **** 0.06
9243 H 100.18979664101435 127.3644301455879 147.69424126471867 H 0.0 **** 0.06
9244 H 99.41885210030989 127.94044659576804 149.1925585289977 H 0.0 **** 0.06
9245 H 101.14949037463278 128.2472212378637 148.90674646598686 H 0.0 **** 0.06
9246 C 11.151098192506183 92.76974415247179 94.79296387959448 C 0.0 **** -0.24
9247 H 12.11648586655236 92.42744007466348 94.42109963535944 H 0.0 **** 0.06
9248 H 11.234016331421266 93.00880191656248 95.85313624634655 H 0.0 **** 0.06
9249 H 10.40881856057657 91.98329984716679 94.65442938217242 H 0.0 **** 0.06
9250 H 10.844221855632341 93.6595750765 94.24268272504204 H 0.0 **** 0.06
9251 C 144.56318669014877 57.10932816451657 40.08425691847147 C 0.0 **** -0.24
9252 H 144.56657321981453 56.95944084440873 41.163219268491474 H 0.0 **** 0.06
9253 H 143.94114916176676 56.3490925828294 39.61229543671902 H 0.0 **** 0.06
9254 H 145.58218756733385 57.0329894447886 39.70431730216839 H 0.0 **** 0.06
9255 H 144.16424948618592 58.097600425182804 39.85634351849332 H 0.0 **** 0.06
9256 C 141.50689526788236 96.37889757703176 34.634984010841244 C 0.0 **** -0.24
9257 H 141.9090523822871 95.82428779667963 35.48283490171963 H 0.0 **** 0.06
9258 H 140.77097594140122 97.10021067041083 34.98983417419473 H 0.0 **** 0.06
9259 H 141.03134657015426 95.68536879166918 33.941061274530306 H 0.0 **** 0.06
9260 H 142.31520189984107 96.90369846805386 34.1271505294765 H 0.0 **** 0.06
9261 C 39.23221663734459 98.47326210390258 78.25297190910521 C 0.0 **** -0.24
9262 H 39.919019315597126 97.96547536119789 78.92993289652406 H 0.0 **** 0.06
9263 H 39.40732786058281 98.13063826182065 77.23314327343348 H 0.0 **** 0.06
9264 H 39.39529099812454 99.54953114658831 78.30919632161391 H 0.0 **** 0.06
9265 H 38.20564438972137 98.24585958880087 78.54187506603523 H 0.0 **** 0.06
9266 C 84.49184907358169 102.92913240367012 56.8915136396232 C 0.0 **** -0.24
9267 H 84.67665632671525 102.22063782381169 56.084061354339426 H 0.0 **** 0.06
9268 H 83.86009939315204 102.46134698279064 57.64743074508539 H 0.0 **** 0.06
9269 H 83.98859040552635 103.8112898668458 56.492494214662926 H 0.0 **** 0.06
9270 H 85.4395971081946 103.22367313840898 57.340116842309016 H 0.0 **** 0.06
9271 C 98.10210039182499 128.0888095478225 75.88552070891807 C 0.0 **** -0.24
9272 H 98.4017023270228 128.54638601568348 74.94273922018695 H 0.0 **** 0.06
9273 H 97.02174510507894 128.1775222776252 76.00444517704645 H 0.0 **** 0.06
9274 H 98.60235558631967 128.59561699756742 76.7102166535637 H 0.0 **** 0.06
9275 H 98.38291577698561 127.03587873112026 75.8827140417752 H 0.0 **** 0.06
9276 C 103.92404245653228 149.48981936423547 60.7735277784726 C 0.0 **** -0.24
9277 H 104.39992098341298 149.32792969277727 59.80625333322473 H 0.0 **** 0.06
9278 H 104.11476265798308 148.632876328873 61.420062344952655 H 0.0 **** 0.06
9279 H 102.84999068075808 149.60943884773258 60.63493337277917 H 0.0 **** 0.06
9280 H 104.33322489602921 150.38999703849623 61.23390091832148 H 0.0 **** 0.06
9281 C 8.417161137346795 18.107783868828932 1.1562830699721758 C 0.0 **** -0.24
9282 H 8.40320392747384 18.652124027522945 2.101133594330861 H 0.0 **** 0.06
9283 H 7.661920942040808 18.52064840295904 0.4877177422958425 H 0.0 **** 0.06
9284 H 8.203690976164637 17.054799341764152 1.3415736008234944 H 0.0 **** 0.06
9285 H 9.400988853568208 18.20304373285964 0.6972339955779034 H 0.0 **** 0.06
9286 C 71.73235067283024 88.13065496025428 78.58172603843538 C 0.0 **** -0.24
9287 H 71.20950635955549 89.02957816981052 78.25764532181957 H 0.0 **** 0.06
9288 H 71.48711008387068 87.30649909718721 77.91084773349522 H 0.0 **** 0.06
9289 H 71.42500243748887 87.87777239287831 79.5962564410078 H 0.0 **** 0.06
9290 H 72.80818276687967 88.30783139263661 78.56117507430484 H 0.0 **** 0.06
9291 C 132.95225137257847 8.77867530962154 23.656376996465383 C 0.0 **** -0.24
9292 H 132.60373443181885 8.753623940116277 24.68909277176533 H 0.0 **** 0.06
9293 H 132.82999078579348 7.792089930927645 23.208509659249984 H 0.0 **** 0.06
9294 H 134.00619717530265 9.059364123187763 23.63616343979001 H 0.0 **** 0.06
9295 H 132.3712156364861 9.508908781222011 23.09456032289529 H 0.0 **** 0.06
9296 C 56.28199760447693 38.63878911079399 11.858164535679464 C 0.0 **** -0.24
9297 H 56.75295011992242 39.59473831523853 12.088898925464889 H 0.0 **** 0.06
9298 H 55.35428933017812 38.545765095087305 12.422728412742003 H 0.0 **** 0.06
9299 H 56.95639403038895 37.8273022997261 12.129524182578848 H 0.0 **** 0.06
9300 H 56.06462145736731 38.58956416570976 10.791682486619152 H 0.0 **** 0.06
9301 C 73.16266186503665 138.43438980429275 140.20536310427667 C 0.0 **** -0.24
9302 H 73.06508945633911 138.14667759036757 139.1588356228708 H 0.0 **** 0.06
9303 H 72.66364815978508 139.3893223729838 140.3675190850072 H 0.0 **** 0.06
9304 H 74.21917820294183 138.52838741395 140.4588551266188 H 0.0 **** 0.06
9305 H 72.70376320495271 137.6724192035792 140.83563472753374 H 0.0 **** 0.06
9306 C 63.80573688443252 87.61020194712071 35.48480487284522 C 0.0 **** -0.24
9307 H 62.74353295268047 87.60447130955741 35.72831140800551 H 0.0 **** 0.06
9308 H 63.97181588185639 88.22747889614077 34.60120515317803 H 0.0 **** 0.06
9309 H 64.13785111677919 86.59184840854407 35.28387285264279 H 0.0 **** 0.06
9310 H 64.36900251243958 88.01799736755831 36.323716181071035 H 0.0 **** 0.06
9311 C 62.95013001776084 25.15426797129973 128.98245721660837 C 0.0 **** -0.24
9312 H 61.92121443576019 25.344313858475942 129.28625275973667 H 0.0 **** 0.06
9313 H 63.62298398221867 25.406401661026592 129.8032773552336 H 0.0 **** 0.06
9314 H 63.19176475321237 25.76555612319588 128.1131075035034 H 0.0 **** 0.06
9315 H 63.06486766253647 24.10041296183438 128.72937152850233 H 0.0 **** 0.06
9316 C 74.35768034674953 148.01553516701793 89.81681597456696 C 0.0 **** -0.24
9317 H 75.17617561539657 148.6977542997511 90.04637213770474 H 0.0 **** 0.06
9318 H 74.75592636673696 147.01351942580987 89.65343271184653 H 0.0 **** 0.06
9319 H 73.84425758893369 148.35494686784745 88.91627152018651 H 0.0 **** 0.06
9320 H 73.65622137258356 147.99689860143317 90.65042286035407 H 0.0 **** 0.06
9321 C 124.94939369615497 34.687965877774936 47.06546714921791 C 0.0 **** -0.24
9322 H 124.6680214808087 35.38461038778851 47.85417465503451 H 0.0 **** 0.06
9323 H 125.09027145968261 33.69494495743041 47.492194683680665 H 0.0 **** 0.06
9324 H 125.87838901788106 35.019249188313744 46.601445011944975 H 0.0 **** 0.06
9325 H 124.16039168298272 34.65231041551695 46.31448846606985 H 0.0 **** 0.06
9326 C 109.66289324381164 91.08594022133946 137.17442692173756 C 0.0 **** -0.24
9327 H 108.88506895384835 90.6003876190465 137.76405014035967 H 0.0 **** 0.06
9328 H 109.9911896096636 90.4124114756778 136.38206459874192 H 0.0 **** 0.06
9329 H 110.5085467758917 91.32830595657401 137.81822226699796 H 0.0 **** 0.06
9330 H 109.26801483833493 92.00097748894837 136.73416303597037 H 0.0 **** 0.06
9331 C 104.79812447206739 114.9141884689907 51.924629523661366 C 0.0 **** -0.24
9332 H 105.20385478754382 115.57444043933246 52.69047264891725 H 0.0 **** 0.06
9333 H 105.57133214227336 114.21566288810799 51.601766602635706 H 0.0 **** 0.06
9334 H 104.4644580075561 115.50643764004182 51.07305095219297 H 0.0 **** 0.06
9335 H 103.954792892745 114.35807287859767 52.33403858636055 H 0.0 **** 0.06
9336 C 72.55605046556491 39.755578717838176 115.9547413520248 C 0.0 **** -0.24
9337 H 72.57770022885086 40.08704847556899 114.9173737645738 H 0.0 **** 0.06
9338 H 73.57041701147307 39.53241301372927 116.28565836290326 H 0.0 **** 0.06
9339 H 71.9409961068061 38.859830029098305 116.03789714970313 H 0.0 **** 0.06
9340 H 72.1362058765643 40.54397228243391 116.57999859260596 H 0.0 **** 0.06
9341 C 116.10233917239945 49.17497818460275 20.28215839369946 C 0.0 **** -0.24
9342 H 116.67580201151098 48.595650322884524 19.55858042112061 H 0.0 **** 0.06
9343 H 116.6739497015317 50.055288124697256 20.57815390006124 H 0.0 **** 0.06
9344 H 115.90090544288002 48.560833695671576 21.16078205746706 H 0.0 **** 0.06
9345 H 115.15957196021604 49.48691199834825 19.833711372553097 H 0.0 **** 0.06
9346 C 31.68631192778544 89.02882987766554 137.51232668631172 C 0.0 **** -0.24
9347 H 31.65969550447514 89.33579402649167 138.55812880938322 H 0.0 **** 0.06
9348 H 32.32960692950445 88.15429426400442 137.408103194846 H 0.0 **** 0.06
9349 H 32.07794060354459 89.8435166530038 136.90500400228257 H 0.0 **** 0.06
9350 H 30.677867303635495 88.77971177316175 137.18122834195404 H 0.0 **** 0.06
9351 C 54.9721458833358 119.71458711454179 8.095976799035412 C 0.0 **** -0.24
9352 H 54.51017691817617 119.35205952485697 9.014664413086905 H 0.0 **** 0.06
9353 H 55.978162873535865 119.30266472972173 8.008368029905057 H 0.0 **** 0.06
9354 H 55.02604280062212 120.80315725785366 8.122028020615716 H 0.0 **** 0.06
9355 H 54.37435760795117 119.40054871092545 7.240249887238264 H 0.0 **** 0.06
9356 C 60.69006836198173 15.0916188663831 131.1589624936855 C 0.0 **** -0.24
9357 H 61.66481188981169 15.483522692917155 131.45039850618005 H 0.0 **** 0.06
9358 H 60.33369730897289 14.399542718568263 131.9238205636064 H 0.0 **** 0.06
9359 H 60.778128582806346 14.568239049502594 130.20741196277757 H 0.0 **** 0.06
9360 H 59.98297509434258 15.915666979563504 131.0571030335129 H 0.0 **** 0.06
9361 C 119.58488000227604 105.68877613438916 20.77044505717302 C 0.0 **** -0.24
9362 H 119.34550548252295 104.92050411576848 20.03527335930039 H 0.0 **** 0.06
9363 H 120.3263557277426 106.37092350222194 20.354054357144406 H 0.0 **** 0.06
9364 H 119.98657426317598 105.21928718881541 21.66939744745244 H 0.0 **** 0.06
9365 H 118.68160390887138 106.24359548789143 21.02337044765912 H 0.0 **** 0.06
9366 C 57.02547809263581 60.86120911772372 57.40724577832114 C 0.0 **** -0.24
9367 H 58.11154167697107 60.792183002068555 57.4604786096283 H 0.0 **** 0.06
9368 H 56.73693815928624 61.885995116617664 57.169632830712715 H 0.0 **** 0.06
9369 H 56.5962310570242 60.576342947204864 58.36832369738292 H 0.0 **** 0.06
9370 H 56.65585711947493 60.19067899892838 56.63079409504357 H 0.0 **** 0.06
9371 C 26.521676561923556 148.16068943336194 46.548469634246345 C 0.0 **** -0.24
9372 H 26.004511704572906 149.02389006915084 46.12998947739864 H 0.0 **** 0.06
9373 H 27.3339077049134 147.86587536652522 45.88353825100289 H 0.0 **** 0.06
9374 H 25.819522452844268 147.33287966870714 46.653788821248796 H 0.0 **** 0.06
9375 H 26.92785036384086 148.41997441446316 47.52618054535969 H 0.0 **** 0.06
9376 C 103.93555524968544 72.6315617735028 11.708304457316665 C 0.0 **** -0.24
9377 H 102.89218395239944 72.87508968132956 11.508027210649466 H 0.0 **** 0.06
9378 H 104.577511797848 73.39062302569663 11.261109538575717 H 0.0 **** 0.06
9379 H 104.1699915470363 71.65826803481879 11.279394984723979 H 0.0 **** 0.06
9380 H 104.10137335544592 72.60417171427443 12.784838985379558 H 0.0 **** 0.06
9381 C 15.20333704812927 124.25212339768558 66.00218023603787 C 0.0 **** -0.24
9382 H 14.151375469670455 124.04876501701153 65.80152457277171 H 0.0 **** 0.06
9383 H 15.694926979493005 124.56640548513218 65.08105938528952 H 0.0 **** 0.06
9384 H 15.682341660507035 123.3491734847886 66.38052731582931 H 0.0 **** 0.06
9385 H 15.28453448841654 125.04507531717343 66.7452715443988 H 0.0 **** 0.06
9386 C 10.964635663484017 24.723490039320097 114.27079044105164 C 0.0 **** -0.24
9387 H 11.469750185176366 25.11648562808466 115.15387442303194 H 0.0 **** 0.06
9388 H 10.082945485836916 24.158999362588588 114.57779902394503 H 0.0 **** 0.06
9389 H 11.644267773890903 24.069011071592172 113.72460093552678 H 0.0 **** 0.06
9390 H 10.661388653122088 25.550106123956994 113.62813299821039 H 0.0 **** 0.06
9391 C 48.60676547933559 87.63899083284613 105.04768987815221 C 0.0 **** -0.24
9392 H 47.54197444495577 87.7689735571004 104.85223897249482 H 0.0 **** 0.06
9393 H 49.078770749632156 88.61642915874464 105.15223586920085 H 0.0 **** 0.06
9394 H 49.06583024601258 87.1006514494459 104.21795030126124 H 0.0 **** 0.06
9395 H 48.73975391750582 87.07049448608748 105.96798681523678 H 0.0 **** 0.06
9396 C 55.355361701745 17.844491547131156 84.68308235218419 C 0.0 **** -0.24
9397 H 56.031871745091294 18.68661060709539 84.82918894524113 H 0.0 **** 0.06
9398 H 55.15599969627877 17.368765726026595 85.64374891675016 H 0.0 **** 0.06
9399 H 55.81532682796774 17.121611362126174 84.00856560601704 H 0.0 **** 0.06
9400 H 54.420117036501 18.200647926426683 84.25145806727818 H 0.0 **** 0.06
9401 C 13.617024350826767 7.403237304494297 60.75061120748566 C 0.0 **** -0.24
9402 H 12.712159779696265 8.00566256449926 60.830319398874224 H 0.0 **** 0.06
9403 H 13.465438982289754 6.451095564533205 61.25908487109044 H 0.0 **** 0.06
9404 H 14.447784174991114 7.93489527193114 61.21491112636292 H 0.0 **** 0.06
9405 H 13.843052190118726 7.223132764159857 59.69935896638337 H 0.0 **** 0.06
9406 C 106.17543576039408 138.95370855724775 112.86664465557271 C 0.0 **** -0.24
9407 H 106.94586451478885 138.39549376335324 112.33564915085509 H 0.0 **** 0.06
9408 H 106.12956017454168 139.97129077620804 112.4759844214775 H 0.0 **** 0.06
9409 H 106.41605052996282 138.98334201012588 113.92966718591265 H 0.0 **** 0.06
9410 H 105.21077465576214 138.46590890709803 112.72582581003917 H 0.0 **** 0.06
9411 C 146.8843084751234 29.2134442276095 11.582457189660488 C 0.0 **** -0.24
9412 H 147.80660618905947 29.321940625843183 12.151631924272465 H 0.0 **** 0.06
9413 H 147.11865671536253 28.877257064628765 10.572085177631322 H 0.0 **** 0.06
9414 H 146.3714614769965 30.174411473527584 11.535304097403355 H 0.0 **** 0.06
9415 H 146.24037760884428 28.480702323608412 12.068884807831807 H 0.0 **** 0.06
9416 C 23.79691539996228 114.07787672729205 143.1901221082074 C 0.0 **** -0.24
9417 H 24.036346557643938 113.24298987552294 143.84969863661163 H 0.0 **** 0.06
9418 H 22.935682877348356 114.61685695520714 143.58638386689725 H 0.0 **** 0.06
9419 H 23.562187504765568 113.69879843360997 142.19636968344793 H 0.0 **** 0.06
9420 H 24.652225979146216 114.7506259791756 143.13077798405385 H 0.0 **** 0.06
9421 C 114.87549256964876 123.28793313259986 25.485108824312817 C 0.0 **** -0.24
9422 H 114.15698152700206 122.54557423143116 25.13801428798115 H 0.0 **** 0.06
9423 H 114.85793076337104 124.14986676939886 24.816529322298692 H 0.0 **** 0.06
9424 H 115.87428943890565 122.8523131853624 25.490543263391146 H 0.0 **** 0.06
9425 H 114.61125765300251 123.6052531193722 26.494303280714092 H 0.0 **** 0.06
9426 C 57.97981282161534 45.24242707145859 73.92960369366973 C 0.0 **** -0.24
9427 H 57.168562788636606 45.41634749278387 73.22223704322894 H 0.0 **** 0.06
9428 H 58.66437483218522 46.0904261449451 73.91130322154777 H 0.0 **** 0.06
9429 H 58.51649908261071 44.33593725476277 73.64911917524813 H 0.0 **** 0.06
9430 H 57.56914271184134 45.12751283225063 74.93172004853659 H 0.0 **** 0.06
9431 C 131.6114870950233 106.04207642013272 62.11844527011925 C 0.0 **** -0.24
9432 H 131.80772869280338 106.83933992353572 61.40228286826732 H 0.0 **** 0.06
9433 H 130.57436171339913 106.09680882116892 62.44970468522172 H 0.0 **** 0.06
9434 H 132.27391345438343 106.1539819134483 62.977478450733656 H 0.0 **** 0.06
9435 H 131.79132496568653 105.07635002202791 61.64518912526404 H 0.0 **** 0.06
9436 C 146.5783643058006 122.45723919680586 97.8477940388415 C 0.0 **** -0.24
9437 H 147.04733615741745 123.15899126467872 98.53840099376808 H 0.0 **** 0.06
9438 H 146.95155989243565 122.63700376800153 96.83908879329081 H 0.0 **** 0.06
9439 H 145.4977383229366 122.59901559601519 97.86616316241233 H 0.0 **** 0.06
9440 H 146.81744904570277 121.43748272867799 98.14857252159638 H 0.0 **** 0.06
9441 C 20.446077965466372 19.118761381312588 33.431623689845964 C 0.0 **** -0.24
9442 H 19.614179962777484 18.78594447233052 34.05305360112471 H 0.0 **** 0.06
9443 H 20.343679236886146 18.694854330424548 32.43182278074073 H 0.0 **** 0.06
9444 H 21.384479284883753 18.78669987108769 33.873160230991736 H 0.0 **** 0.06
9445 H 20.439193762083107 20.206451225027507 33.367421947710575 H 0.0 **** 0.06
9446 C 58.61590018415171 87.81014598287817 129.10077518776222 C 0.0 **** -0.24
9447 H 58.08059558872043 87.25660092326649 129.8719375081497 H 0.0 **** 0.06
9448 H 58.326816617156965 87.43365026072894 128.11853121598818 H 0.0 **** 0.06
9449 H 59.68895388311029 87.67964198890058 129.2391873737656 H 0.0 **** 0.06
9450 H 58.36478168023564 88.86832666538231 129.17226376788247 H 0.0 **** 0.06
9451 C 89.31387069350268 95.56372856684644 91.57713586938041 C 0.0 **** -0.24
9452 H 88.51813910687004 95.34992841840001 90.86430967552212 H 0.0 **** 0.06
9453 H 90.14642042243847 94.88138303983949 91.40621188418368 H 0.0 **** 0.06
9454 H 88.9373216780723 95.43266898567555 92.59196528165239 H 0.0 **** 0.06
9455 H 89.65288100767874 96.5915398259156 91.44500134992938 H 0.0 **** 0.06
9456 C 34.87524997803605 45.50250624532325 96.75421520011716 C 0.0 **** -0.24
9457 H 34.115214119052325 45.39610102663529 97.52827715362699 H 0.0 **** 0.06
9458 H 35.14502588542949 46.554266207618554 96.65229134884103 H 0.0 **** 0.06
9459 H 34.48261944563532 45.13382399988171 95.80676328168943 H 0.0 **** 0.06
9460 H 35.75816126149866 44.92565244766696 97.0309314324684 H 0.0 **** 0.06
9461 C 26.346526160100566 81.62575913400968 64.69307363807616 C 0.0 **** -0.24
9462 H 26.086123766394216 81.0061618574105 65.5514571814963 H 0.0 **** 0.06
9463 H 25.993440083997797 81.14693125786073 63.77968895691079 H 0.0 **** 0.06
9464 H 27.429567294212553 81.74423519923843 64.64703186080249 H 0.0 **** 0.06
9465 H 25.87781320058093 82.60469246477076 64.79618134211296 H 0.0 **** 0.06
9466 C 93.872177766244 0.3968247414178805 104.29602613581984 C 0.0 **** -0.24
9467 H 93.62564755508234 1.427152590194865 104.0401026053403 H 0.0 **** 0.06
9468 H 92.95515312475041 -0.156050763255152 104.49783529997642 H 0.0 **** 0.06
9469 H 94.50653981017544 0.38502126256183544 105.18221119019684 H 0.0 **** 0.06
9470 H 94.4021465458957 -0.06678582246447462 103.46346211251905 H 0.0 **** 0.06
9471 C 39.00394336040853 132.97608525673138 59.98253000455948 C 0.0 **** -0.24
9472 H 39.395006353811766 132.0020791058689 59.68564400352153 H 0.0 **** 0.06
9473 H 38.17054230927414 133.2459934069169 59.33426096631483 H 0.0 **** 0.06
9474 H 39.79129531045089 133.72485037595828 59.89299674552062 H 0.0 **** 0.06
9475 H 38.66205254987301 132.9296894745852 61.01609643176481 H 0.0 **** 0.06
9476 C 109.52780267468177 101.36478548992147 59.72542946080853 C 0.0 **** -0.24
9477 H 109.43237525107702 101.04593784417379 60.76282920430805 H 0.0 **** 0.06
9478 H 110.34910877274439 102.0757163581673 59.63878620064753 H 0.0 **** 0.06
9479 H 108.60093494817613 101.83890753284658 59.404231778831615 H 0.0 **** 0.06
9480 H 109.72951082458701 100.49742530670075 59.09548447768418 H 0.0 **** 0.06
9481 C 29.07286779957991 33.44342061589174 117.93229597524395 C 0.0 **** -0.24
9482 H 28.44283560396886 32.67221850389217 117.48910389611778 H 0.0 **** 0.06
9483 H 29.919618632109348 33.64227901354329 117.27380305673542 H 0.0 **** 0.06
9484 H 29.437305158785904 33.1021040804564 118.90078856054866 H 0.0 **** 0.06
9485 H 28.49195061527317 34.356365610703364 118.06258464711577 H 0.0 **** 0.06
9486 C 86.67121094332049 101.30705506684798 134.19185842314556 C 0.0 **** -0.24
9487 H 86.20529549332042 102.29120124076697 134.25770410153427 H 0.0 **** 0.06
9488 H 85.8956689731929 100.54188160366544 134.137657195701 H 0.0 **** 0.06
9489 H 87.28685959332975 101.13852666107474 135.07526285479267 H 0.0 **** 0.06
9490 H 87.29392472299969 101.25877290261354 133.2995928815081 H 0.0 **** 0.06
9491 C 148.25030513220946 141.2795689755406 90.44771784906482 C 0.0 **** -0.24
9492 H 148.31396711840287 141.4559147820085 91.52187185247476 H 0.0 **** 0.06
9493 H 149.202410062472 141.53610538995775 89.982104500422 H 0.0 **** 0.06
9494 H 147.45935877209268 141.89786836783517 90.02435138252918 H 0.0 **** 0.06
9495 H 148.02753808247724 140.2280469665391 90.26548775952506 H 0.0 **** 0.06
9496 C 148.81164999958108 15.64744823571857 84.32284469605128 C 0.0 **** -0.24
9497 H 149.73646738000306 15.87458221762838 84.85193675204798 H 0.0 **** 0.06
9498 H 148.3342611918682 14.781371301471523 84.78109479101715 H 0.0 **** 0.06
9499 H 149.03472406293005 15.429513155575705 83.27826882156563 H 0.0 **** 0.06
9500 H 148.14146238544035 16.504890981612682 84.37931559813234 H 0.0 **** 0.06
9501 C 57.66210074075565 56.410727155133316 101.1751137642969 C 0.0 **** -0.24
9502 H 57.477461124080904 55.80596531154498 102.06334111855715 H 0.0 **** 0.06
9503 H 57.48403809137454 57.461065061230556 101.40756481420837 H 0.0 **** 0.06
9504 H 56.9917569758462 56.09658698907623 100.37543842049061 H 0.0 **** 0.06
9505 H 58.695986020485066 56.27997654770644 100.85606677741362 H 0.0 **** 0.06
9506 C 17.463360060898637 60.11870094513435 96.56220463806332 C 0.0 **** -0.24
9507 H 17.21059855363918 61.17650724414784 96.48587011991455 H 0.0 **** 0.06
9508 H 17.9417983854661 59.92839270241157 97.52357089060433 H 0.0 **** 0.06
9509 H 18.14533089705546 59.848968656907076 95.756553527784 H 0.0 **** 0.06
9510 H 16.554292750599195 59.522049415523725 96.48448029494887 H 0.0 **** 0.06
9511 C 88.46740012292801 57.03049649788353 144.57405072948944 C 0.0 **** -0.24
9512 H 88.46684493154405 56.11847107186898 145.17088219142082 H 0.0 **** 0.06
9513 H 88.18546443742262 57.87566852430015 145.2022521391222 H 0.0 **** 0.06
9514 H 87.75383068080575 56.930233223523715 143.756925055063 H 0.0 **** 0.06
9515 H 89.46494742046193 57.197054460538396 144.16735880308568 H 0.0 **** 0.06
9516 C 6.172767252601204 106.3029087904796 140.3142018770229 C 0.0 **** -0.24
9517 H 7.044420496290684 105.78575231960069 139.9107153695795 H 0.0 **** 0.06
9518 H 5.4415768468170995 105.5690369998246 140.65455655039617 H 0.0 **** 0.06
9519 H 5.729255674221861 106.92692656369893 139.53914592096058 H 0.0 **** 0.06
9520 H 6.478638465300548 106.92809479402281 141.15403448272704 H 0.0 **** 0.06
9521 C 36.2455864578841 122.13296014452675 144.32854911784554 C 0.0 **** -0.24
9522 H 35.457836450597085 122.66607583310156 143.7954355238055 H 0.0 **** 0.06
9523 H 36.215173714833895 122.40343507948324 145.38422940771449 H 0.0 **** 0.06
9524 H 37.21391807020163 122.40550918013281 143.91044943331374 H 0.0 **** 0.06
9525 H 36.092242617254186 121.059402399178 144.22357826731502 H 0.0 **** 0.06
9526 C 64.00617121315952 103.25545143609394 109.5782529607897 C 0.0 **** -0.24
9527 H 65.00968354131425 102.83217577021166 109.63530776856807 H 0.0 **** 0.06
9528 H 63.81670821948018 103.85941054963432 110.46606920042824 H 0.0 **** 0.06
9529 H 63.27490392452802 102.4488938621137 109.52290383972367 H 0.0 **** 0.06
9530 H 63.92711709401004 103.88100757917071 108.68877532467467 H 0.0 **** 0.06
9531 C 64.63424656016316 116.72749528049069 123.75270235285734 C 0.0 **** -0.24
9532 H 63.89483885951968 117.22049546953575 124.383983238305 H 0.0 **** 0.06
9533 H 65.22553257995389 116.03897563699776 124.35650532788651 H 0.0 **** 0.06
9534 H 65.28876711033837 117.47684621509565 123.30690696233438 H 0.0 **** 0.06
9535 H 64.12550947246345 116.17384080089708 122.9627056278477 H 0.0 **** 0.06
9536 C 11.881725344314134 138.3412647031108 125.41513212532628 C 0.0 **** -0.24
9537 H 10.88318004098872 138.31599447041012 125.84979190430305 H 0.0 **** 0.06
9538 H 11.804248211784909 138.44773607716886 124.33234189389042 H 0.0 **** 0.06
9539 H 12.40597440858312 137.415667372069 125.65289247292587 H 0.0 **** 0.06
9540 H 12.434095493265488 139.18816471060697 125.82396109990377 H 0.0 **** 0.06
9541 C 44.39244711957858 10.260893694757527 127.97890028625567 C 0.0 **** -0.24
9542 H 43.906078040629524 9.410079262519048 127.49977141607147 H 0.0 **** 0.06
9543 H 43.793446803655854 11.15732439452367 127.82212316984915 H 0.0 **** 0.06
9544 H 45.38194634472947 10.404136024085659 127.54503579873354 H 0.0 **** 0.06
9545 H 44.488299539801176 10.069084086565937 129.0481308099474 H 0.0 **** 0.06
9546 C 106.52507242682825 65.16144667616481 14.284349158678495 C 0.0 **** -0.24
9547 H 105.99600327773598 64.29854887734527 14.688154419058328 H 0.0 **** 0.06
9548 H 107.37753146244248 65.3954599340151 14.921512282741027 H 0.0 **** 0.06
9549 H 105.85082810595574 66.01710600692405 14.248765647122731 H 0.0 **** 0.06
9550 H 106.87499484598001 64.93364202783692 13.276946624109293 H 0.0 **** 0.06
9551 C 47.97743765117073 149.74317011044752 109.03301658065199 C 0.0 **** -0.24
9552 H 47.00886576748637 150.13299388659365 109.34760114533044 H 0.0 **** 0.06
9553 H 48.55351115938532 150.5395055999807 108.56155545641043 H 0.0 **** 0.06
9554 H 47.82949545448318 148.93140710066058 108.32168588415821 H 0.0 **** 0.06
9555 H 48.518001868163395 149.3700617772105 109.90304761032179 H 0.0 **** 0.06
9556 C 130.6173273415482 41.32406750851284 78.55169019828816 C 0.0 **** -0.24
9557 H 130.43525863067444 42.01622673697457 79.37359047076421 H 0.0 **** 0.06
9558 H 131.06802267598204 40.4096130023768 78.94027768883407 H 0.0 **** 0.06
9559 H 131.29336312007746 41.785666772885776 77.83226875505886 H 0.0 **** 0.06
9560 H 129.67355350406086 41.08415474794268 78.06282389370574 H 0.0 **** 0.06
9561 C 65.4448103126883 20.393354076028714 93.32007892182423 C 0.0 **** -0.24
9562 H 66.4296363040915 20.848798981553955 93.42970206395266 H 0.0 **** 0.06
9563 H 65.53636533005204 19.45882374788789 92.76619784856346 H 0.0 **** 0.06
9564 H 64.78810665061903 21.075125008317997 92.77841645327346 H 0.0 **** 0.06
9565 H 65.02625472540484 20.192689568522383 94.30681013940354 H 0.0 **** 0.06
9566 C 108.52439292990834 29.27904291776013 56.81623799943101 C 0.0 **** -0.24
9567 H 108.34807211069358 28.378161472613506 56.227339770090026 H 0.0 **** 0.06
9568 H 109.09674262796113 29.993190812623375 56.2235103040058 H 0.0 **** 0.06
9569 H 109.08455339744728 29.02123066294935 57.71487172020559 H 0.0 **** 0.06
9570 H 107.56849242075549 29.721701321452443 57.09691619858022 H 0.0 **** 0.06
9571 C 71.08606701079569 101.56216278225422 49.577609326365376 C 0.0 **** -0.24
9572 H 70.5634573900989 100.69617986358463 49.982942799945704 H 0.0 **** 0.06
9573 H 70.61727303879096 101.86395969090252 48.640921904546445 H 0.0 **** 0.06
9574 H 72.12899518374184 101.30415199639125 49.3957612685052 H 0.0 **** 0.06
9575 H 71.03463073696375 102.38470541725563 50.29174548121216 H 0.0 **** 0.06
9576 C 115.03988813723453 89.13556080643657 143.2155298547566 C 0.0 **** -0.24
9577 H 115.19219256871185 89.39753802330215 144.26323154565583 H 0.0 **** 0.06
9578 H 114.62910403877521 89.99348479274299 142.6835380028259 H 0.0 **** 0.06
9579 H 114.34580379533452 88.29839167049953 143.14728604835372 H 0.0 **** 0.06
9580 H 115.99412338215899 88.85415383113829 142.76992161503628 H 0.0 **** 0.06
9581 C 80.3469322934648 51.839311024914025 69.06513694925819 C 0.0 **** -0.24
9582 H 79.35906862243826 51.725388372426266 68.61867476351267 H 0.0 **** 0.06
9583 H 80.85182633427566 50.872777282989716 69.07938690044679 H 0.0 **** 0.06
9584 H 80.24368972078798 52.21094234675931 70.08431583112855 H 0.0 **** 0.06
9585 H 80.93138785527569 52.546435340952996 68.47831814966266 H 0.0 **** 0.06
9586 C 45.45882639736507 62.34373343614679 80.71992256805478 C 0.0 **** -0.24
9587 H 45.09129540273693 62.08813477760869 81.71420965480971 H 0.0 **** 0.06
9588 H 44.881874161736135 63.18040250320038 80.32448165440454 H 0.0 **** 0.06
9589 H 45.350849827634306 61.483440783015084 80.06038178403466 H 0.0 **** 0.06
9590 H 46.51036959295212 62.62451503337907 80.78301062527154 H 0.0 **** 0.06
9591 C 129.02467000631435 142.8671644151109 132.99502439811766 C 0.0 **** -0.24
9592 H 129.0861281420271 143.19307884665426 134.03305818510546 H 0.0 **** 0.06
9593 H 129.87360708903947 142.22161561488417 132.7676610389575 H 0.0 **** 0.06
9594 H 129.04312601845103 143.73677110644036 132.339232504736 H 0.0 **** 0.06
9595 H 128.0974171463643 142.3150805350133 132.84187412941537 H 0.0 **** 0.06
9596 C 146.81722782420727 88.37355348686378 64.0636984710072 C 0.0 **** -0.24
9597 H 147.3701690297591 88.47452251083013 63.12984689822733 H 0.0 **** 0.06
9598 H 146.37993732246878 89.33466887933639 64.3334088503955 H 0.0 **** 0.06
9599 H 147.49586118581942 88.04717825279494 64.85303269955246 H 0.0 **** 0.06
9600 H 146.02485338497905 87.63553306263839 63.93861414776373 H 0.0 **** 0.06
9601 C 21.545514168309396 23.229397243339264 34.39451150113348 C 0.0 **** -0.24
9602 H 21.124881004541024 22.25273348977234 34.15355265480116 H 0.0 **** 0.06
9603 H 21.566206676972357 23.84718166465815 33.496868084573435 H 0.0 **** 0.06
9604 H 22.55969461244696 23.104380887701552 34.77413029483111 H 0.0 **** 0.06
9605 H 20.93039111140918 23.711541107479206 35.154961657425275 H 0.0 **** 0.06
9606 C 143.7533898359951 35.199211812002545 105.8081703079945 C 0.0 **** -0.24
9607 H 144.72744231344487 35.23471530587605 106.29627046503693 H 0.0 **** 0.06
9608 H 143.88687913986251 35.237003863048386 104.72691508383748 H 0.0 **** 0.06
9609 H 143.15350557237122 36.05062394733977 106.13096089187762 H 0.0 **** 0.06
9610 H 143.2452033800212 34.27403066451157 106.07975795363306 H 0.0 **** 0.06
9611 C 82.09165084071924 21.313824021462608 139.0098705307427 C 0.0 **** -0.24
9612 H 82.96917482506353 21.133789668504846 139.6302524649084 H 0.0 **** 0.06
9613 H 81.71597992754732 22.320536020480034 139.19342108653456 H 0.0 **** 0.06
9614 H 81.3173161118849 20.586411942317312 139.25505598191333 H 0.0 **** 0.06
9615 H 82.36371127265596 21.21309746534166 137.95883209513858 H 0.0 **** 0.06
9616 C 16.712899547699834 80.19724876952858 8.221529896723126 C 0.0 **** -0.24
9617 H 16.316791967383892 80.75039802049673 9.072424208916061 H 0.0 **** 0.06
9618 H 17.07399446879478 80.89799896602402 7.469003425183331 H 0.0 **** 0.06
9619 H 15.92627440905298 79.57735420166567 7.7931036550062345 H 0.0 **** 0.06
9620 H 17.53548443625371 79.56306001228079 8.552622358445461 H 0.0 **** 0.06
9621 C 149.21484048098557 92.00961836793032 93.2906649406695 C 0.0 **** -0.24
9622 H 149.43548298351877 91.25008944541722 94.04078372517523 H 0.0 **** 0.06
9623 H 150.08412913206814 92.14711956850266 92.64682242791235 H 0.0 **** 0.06
9624 H 148.97778773892128 92.95173635621059 93.785805534995 H 0.0 **** 0.06
9625 H 148.36408061560675 91.6902420121349 92.68929579097085 H 0.0 **** 0.06
9626 C 111.35630244221583 113.85019275785692 102.85094308219557 C 0.0 **** -0.24
9627 H 111.42332386760235 114.91406345187164 102.62207897359053 H 0.0 **** 0.06
9628 H 112.30138275420482 113.36593070026436 102.60346383551101 H 0.0 **** 0.06
9629 H 110.55370718983185 113.402582468346 102.26407052048947 H 0.0 **** 0.06
9630 H 111.14676351828966 113.71978937063955 103.91230016329324 H 0.0 **** 0.06
9631 C 56.44624161293247 122.62130379198258 2.5456935112085617 C 0.0 **** -0.24
9632 H 56.856300221800865 123.63018702756251 2.5133206967148 H 0.0 **** 0.06
9633 H 56.36885534792944 122.29299613707776 3.5825362956180733 H 0.0 **** 0.06
9634 H 57.103789310954696 121.9438345733095 1.9991626000988987 H 0.0 **** 0.06
9635 H 55.45706137631467 122.6154334074342 2.0872259509644344 H 0.0 **** 0.06
9636 C 107.39567103727813 134.87033978445615 107.08001305124606 C 0.0 **** -0.24
9637 H 106.40647190131529 134.56369850368057 106.73902521544971 H 0.0 **** 0.06
9638 H 108.13610696800441 134.14445121678767 106.74478494557502 H 0.0 **** 0.06
9639 H 107.40463149486828 134.92372506829375 108.16830904805386 H 0.0 **** 0.06
9640 H 107.6330738851326 135.85105050880892 106.66626325723013 H 0.0 **** 0.06
9641 C 88.17312622663745 148.23485713967128 125.09450057336066 C 0.0 **** -0.24
9642 H 89.05589757766802 147.78817718495176 125.55206613825857 H 0.0 **** 0.06
9643 H 87.68271964908044 148.8885422800346 125.81556547771484 H 0.0 **** 0.06
9644 H 87.48392035694033 147.4468550426984 124.78914751879991 H 0.0 **** 0.06
9645 H 88.47119367872212 148.81429746451383 124.22095253676567 H 0.0 **** 0.06
9646 C 141.94857987529952 128.44111135332247 129.39035765559865 C 0.0 **** -0.24
9647 H 142.87146438040133 128.07467329914874 128.94137234706017 H 0.0 **** 0.06
9648 H 141.09848802259532 127.92201832424504 128.94900098672704 H 0.0 **** 0.06
9649 H 141.85586857165947 129.51205259439396 129.20822040695413 H 0.0 **** 0.06
9650 H 141.96895761832232 128.25636136025054 130.46437100258817 H 0.0 **** 0.06
9651 C 77.9631395288676 35.59523589943538 89.6190692700215 C 0.0 **** -0.24
9652 H 77.47405248765239 36.185193908061976 90.39374395744227 H 0.0 **** 0.06
9653 H 78.1072617711684 34.57519024571823 89.97606807902054 H 0.0 **** 0.06
9654 H 78.93059089210789 36.03842990639798 89.38214221196472 H 0.0 **** 0.06
9655 H 77.34026896897632 35.58301488684954 88.72406064728148 H 0.0 **** 0.06
9656 C 124.50433893644963 131.6648480900529 118.78487454860245 C 0.0 **** -0.24
9657 H 124.96658829060983 130.83049505831693 119.31292573647896 H 0.0 **** 0.06
9658 H 123.70290739416062 131.29197254052391 118.14720317098887 H 0.0 **** 0.06
9659 H 125.25430263346577 132.16518174775015 118.17197228905523 H 0.0 **** 0.06
9660 H 124.09668614931321 132.37130007160297 119.50752056397833 H 0.0 **** 0.06
9661 C 50.96980147409839 116.05159648762132 118.67776589798518 C 0.0 **** -0.24
9662 H 51.19305358365739 115.09014610065297 118.21370535585254 H 0.0 **** 0.06
9663 H 49.961815845154874 116.02757798948478 119.09356106190756 H 0.0 **** 0.06
9664 H 51.035412004375715 116.84035261082924 117.92823502800547 H 0.0 **** 0.06
9665 H 51.687222363538424 116.24553781088603 119.47371214697506 H 0.0 **** 0.06
9666 C 115.42528261123009 9.829594732849166 121.57997507845093 C 0.0 **** -0.24
9667 H 115.05019293897793 10.692465709170712 121.02921567820377 H 0.0 **** 0.06
9668 H 114.69676948375296 9.02050908843195 121.52569309320845 H 0.0 **** 0.06
9669 H 115.58685259570721 10.10538184993706 122.62185466567107 H 0.0 **** 0.06
9670 H 116.36678305478095 9.500574576885505 121.1410364634788 H 0.0 **** 0.06
9671 C 66.70436099134595 49.05075663531157 69.3877603070257 C 0.0 **** -0.24
9672 H 67.37136383537201 49.35166212915607 70.19467512077688 H 0.0 **** 0.06
9673 H 67.27521003367563 48.52428427133894 68.62229787394811 H 0.0 **** 0.06
9674 H 66.23835780300718 49.9345726171849 68.95276628335151 H 0.0 **** 0.06
9675 H 65.9315920556919 48.38958587109845 69.78345081529817 H 0.0 **** 0.06
9676 C 56.81458356750886 88.78176435982517 9.75403003806801 C 0.0 **** -0.24
9677 H 56.41790319144998 88.98098162324793 10.749203701144182 H 0.0 **** 0.06
9678 H 57.41329515872576 89.6310460221983 9.424420295708558 H 0.0 **** 0.06
9679 H 55.989115324381615 88.6267056623261 9.058779371278092 H 0.0 **** 0.06
9680 H 57.437025331047536 87.88697190136966 9.783291305454071 H 0.0 **** 0.06
9681 C 73.96365290265445 129.09835281156327 44.50431386588187 C 0.0 **** -0.24
9682 H 73.42616642887285 128.42847928991313 43.83240667361592 H 0.0 **** 0.06
9683 H 73.25197869173715 129.7498810211124 45.012345684389715 H 0.0 **** 0.06
9684 H 74.66414327690426 129.7041833837493 43.929717460670034 H 0.0 **** 0.06
9685 H 74.51032127288194 128.51120576529922 45.2418486124278 H 0.0 **** 0.06
9686 C 3.5369790598497275 116.23933660931112 115.05878181433347 C 0.0 **** -0.24
9687 H 3.9437076739595796 116.65542880427444 115.98021796798578 H 0.0 **** 0.06
9688 H 3.326268422464352 115.17906983762538 115.20195974229323 H 0.0 **** 0.06
9689 H 4.261986164465043 116.36140693685917 114.25419744374408 H 0.0 **** 0.06
9690 H 2.6153110114336187 116.7610345099568 114.79994438994284 H 0.0 **** 0.06
9691 C 124.98819999615549 20.704167552189062 79.3207122752575 C 0.0 **** -0.24
9692 H 125.57331549891208 20.678028631619924 80.2406346267664 H 0.0 **** 0.06
9693 H 123.9923260860808 20.303524252283466 79.51157769219427 H 0.0 **** 0.06
9694 H 125.48299157964775 20.10053176066529 78.55911747173963 H 0.0 **** 0.06
9695 H 124.90579110902596 21.733476026995106 78.9718809160826 H 0.0 **** 0.06
9696 C 130.80440297076404 22.96017553907697 71.66581581758741 C 0.0 **** -0.24
9697 H 130.51778638561734 23.124125558761918 70.6272688567924 H 0.0 **** 0.06
9698 H 129.994814266941 22.452140342922007 72.19020390760807 H 0.0 **** 0.06
9699 H 131.00124474530355 23.920672900756543 72.14334347415588 H 0.0 **** 0.06
9700 H 131.70351775261062 22.345792738189516 71.70109797620523 H 0.0 **** 0.06
9701 C 15.561779750464837 56.41922399101168 34.486369840124745 C 0.0 **** -0.24
9702 H 15.680050879025345 57.49444564467068 34.6168028986022 H 0.0 **** 0.06
9703 H 15.023554428753243 56.222437901503454 33.559478152207035 H 0.0 **** 0.06
9704 H 15.000484684066635 56.01065953526512 35.327229192969305 H 0.0 **** 0.06
9705 H 16.544248667267 55.948755988163995 34.443437551128774 H 0.0 **** 0.06
9706 C 141.0629132560663 95.64091351685767 71.21832135548121 C 0.0 **** -0.24
9707 H 141.0496241019395 94.56525481597896 71.39824716185035 H 0.0 **** 0.06
9708 H 140.75758773924412 95.83949586682161 70.1905359227878 H 0.0 **** 0.06
9709 H 142.07124552451273 96.02302936944079 71.37890781542974 H 0.0 **** 0.06
9710 H 140.3741440638976 96.13294098058532 71.90437049655077 H 0.0 **** 0.06
9711 C 48.629905855039794 105.90738843940917 102.92912030430698 C 0.0 **** -0.24
9712 H 48.406440572053214 106.25521324801727 103.93823808487194 H 0.0 **** 0.06
9713 H 47.70923511058908 105.86464899458858 102.34664950936698 H 0.0 **** 0.06
9714 H 49.074496107073 104.91344805836118 102.97863300713523 H 0.0 **** 0.06
9715 H 49.33004661775908 106.5945448877392 102.45462226361651 H 0.0 **** 0.06
9716 C 43.93834886347227 48.38098279370345 70.47224147441273 C 0.0 **** -0.24
9717 H 44.23228395659774 47.377178384369046 70.78090860292556 H 0.0 **** 0.06
9718 H 44.122480489517216 48.50116835801002 69.40471140305766 H 0.0 **** 0.06
9719 H 44.519967269210525 49.11636720085383 71.02749840691666 H 0.0 **** 0.06
9720 H 42.87720190461354 48.52652251207567 70.67774537940033 H 0.0 **** 0.06
9721 C 134.8884120366345 61.02333991658297 134.24928852309935 C 0.0 **** -0.24
9722 H 134.10016624750912 60.700542725208834 134.92951718899857 H 0.0 **** 0.06
9723 H 135.8609134231979 60.790001135083756 134.68355062715446 H 0.0 **** 0.06
9724 H 134.81083754262878 62.09879767276625 134.08729369506236 H 0.0 **** 0.06
9725 H 134.78101733152587 60.50351906185921 133.29728424872445 H 0.0 **** 0.06
9726 C 60.63452768550073 129.75754378792402 15.046281603780102 C 0.0 **** -0.24
9727 H 59.89956337121659 129.32530444425626 15.726843993149487 H 0.0 **** 0.06
9728 H 61.165765882436816 128.95768504262642 14.530458525700624 H 0.0 **** 0.06
9729 H 61.344078834131636 130.35911728623472 15.613248031174237 H 0.0 **** 0.06
9730 H 60.12575164306507 130.38643942446112 14.315855910980275 H 0.0 **** 0.06
9731 C 141.76945127273964 88.79762264582507 20.82561469601933 C 0.0 **** -0.24
9732 H 140.90511733935423 88.33189241264617 21.297757302712483 H 0.0 **** 0.06
9733 H 142.6796245730436 88.30022572137261 21.16130854694481 H 0.0 **** 0.06
9734 H 141.8093343626107 89.85250688113825 21.099784580498465 H 0.0 **** 0.06
9735 H 141.68362919164778 88.7077345121553 19.74238470925073 H 0.0 **** 0.06
9736 C 130.77589570932034 53.35032031294352 69.75147897363551 C 0.0 **** -0.24
9737 H 131.41658820996858 54.207848397680465 69.95551613724862 H 0.0 **** 0.06
9738 H 131.3642979585841 52.434483250873456 69.80958888334746 H 0.0 **** 0.06
9739 H 130.34823647284423 53.44504491380442 68.75294788177602 H 0.0 **** 0.06
9740 H 129.97310254307357 53.31388959871626 70.4882587500717 H 0.0 **** 0.06
9741 C 127.91543812760668 24.537955455170675 139.32904009864242 C 0.0 **** -0.24
9742 H 127.97239647799293 25.592130734210826 139.60042674888464 H 0.0 **** 0.06
9743 H 128.5434718379825 24.352343868941944 138.4574418550796 H 0.0 **** 0.06
9744 H 126.88327622140378 24.27851316024814 139.09569926939557 H 0.0 **** 0.06
9745 H 128.26270143172425 23.929446578144308 140.16386380279562 H 0.0 **** 0.06
9746 C 104.48262072092747 90.11302727524948 4.001917231630273 C 0.0 **** -0.24
9747 H 104.23815745124965 91.16771860966007 3.87346334054115 H 0.0 **** 0.06
9748 H 103.56851166602915 89.54918225059293 4.1889811846330645 H 0.0 **** 0.06
9749 H 105.15943029997756 89.99843333974967 4.848766992024366 H 0.0 **** 0.06
9750 H 104.96292561907173 89.739042861133 3.0981101052503845 H 0.0 **** 0.06
9751 C 121.10929011184076 105.78335105706181 38.11816396322058 C 0.0 **** -0.24
9752 H 120.92676525566431 104.97562943659945 37.40894751747345 H 0.0 **** 0.06
9753 H 121.28309579127735 105.3640765225107 39.1094928477107 H 0.0 **** 0.06
9754 H 120.24216803499571 106.44217987301535 38.148385374206924 H 0.0 **** 0.06
9755 H 121.98590060151624 106.3503076189477 37.80485933840211 H 0.0 **** 0.06
9756 C 31.692247244775245 121.59336366197904 39.214266629411014 C 0.0 **** -0.24
9757 H 30.838486908653607 122.12688232724558 39.6324909939259 H 0.0 **** 0.06
9758 H 31.395313247531476 120.57652575748388 38.95787561497838 H 0.0 **** 0.06
9759 H 32.49658991953109 121.56353934849288 39.94921958864769 H 0.0 **** 0.06
9760 H 32.03936047011916 122.10824089529767 38.31812414776643 H 0.0 **** 0.06
9761 C 127.2366870316091 53.93192511891044 1.2890957374742698 C 0.0 **** -0.24
9762 H 127.76676729210479 53.042695196328765 0.9501009113946566 H 0.0 **** 0.06
9763 H 126.92825373799415 54.5224495249152 0.42643397841470687 H 0.0 **** 0.06
9764 H 127.89436207062761 54.52784403214119 1.921828439399576 H 0.0 **** 0.06
9765 H 126.35539971287102 53.633910610575484 1.8592427253952906 H 0.0 **** 0.06
9766 C 2.265571362621138 14.83701529972845 34.02334052550731 C 0.0 **** -0.24
9767 H 1.4122777382546055 14.943655030479334 34.69285186104152 H 0.0 **** 0.06
9768 H 2.0361597678786936 15.304134966178509 33.06519176380838 H 0.0 **** 0.06
9769 H 2.4785205792006444 13.778696193578355 33.87053735938379 H 0.0 **** 0.06
9770 H 3.136629008632408 15.322109212192146 34.46492403053927 H 0.0 **** 0.06
9771 C 62.45726308419256 86.47624690685217 128.28221303681835 C 0.0 **** -0.24
9772 H 63.29090359177158 86.02292933640007 127.74549413139852 H 0.0 **** 0.06
9773 H 61.51780716017865 86.07316971809092 127.90182390641777 H 0.0 **** 0.06
9774 H 62.4754190781272 87.55600083209191 128.13473660197587 H 0.0 **** 0.06
9775 H 62.54464796506065 86.25272640128469 129.34482298403324 H 0.0 **** 0.06
9776 C 69.61457459805149 74.08293370582965 60.40300335779517 C 0.0 **** -0.24
9777 H 70.48544763321902 74.64467638576104 60.741291420306226 H 0.0 **** 0.06
9778 H 68.72988781587252 74.71728963166225 60.457384770429016 H 0.0 **** 0.06
9779 H 69.47608411308967 73.20928524953223 61.04000119760347 H 0.0 **** 0.06
9780 H 69.76802775682224 73.76107569646825 59.37276209989123 H 0.0 **** 0.06
9781 C 30.24175228123252 57.06614649305203 67.34622054328105 C 0.0 **** -0.24
9782 H 30.517351473399458 56.42320784402932 66.50994099431973 H 0.0 **** 0.06
9783 H 31.123582311654303 57.268760793686226 67.95439464893532 H 0.0 **** 0.06
9784 H 29.487398872149384 56.56655242965951 67.9539558355248 H 0.0 **** 0.06
9785 H 29.838360226027163 58.00458542230848 66.96494409006607 H 0.0 **** 0.06
9786 C 2.4347051955098493 89.3149709650049 56.79645971702088 C 0.0 **** -0.24
9787 H 1.895553729926462 88.39033225762117 57.00302072302142 H 0.0 **** 0.06
9788 H 1.8192760676127193 89.96114234260014 56.17017061556899 H 0.0 **** 0.06
9789 H 3.365700656397422 89.0854844070603 56.27913021218649 H 0.0 **** 0.06
9790 H 2.6562290172748817 89.82224144622359 57.736024179052976 H 0.0 **** 0.06
9791 C 105.03901984616999 149.02259793408155 113.0742731726892 C 0.0 **** -0.24
9792 H 105.21524682927827 148.42829449207053 113.97187443171444 H 0.0 **** 0.06
9793 H 103.97282321814652 149.0336436776388 112.85059442380688 H 0.0 **** 0.06
9794 H 105.5822054654837 148.58415752208458 112.237604276258 H 0.0 **** 0.06
9795 H 105.38689746903032 150.04195864170185 113.23953770687845 H 0.0 **** 0.06
9796 C 146.20493748143818 127.18653903591235 76.22313215298661 C 0.0 **** -0.24
9797 H 145.13275157801945 127.28878251951905 76.05418198353303 H 0.0 **** 0.06
9798 H 146.46413069060486 126.12854799556685 76.28447873079762 H 0.0 **** 0.06
9799 H 146.47490964494335 127.68044206966661 77.15696690071042 H 0.0 **** 0.06
9800 H 146.74830925738195 127.64637320634155 75.39825574006085 H 0.0 **** 0.06
9801 C 97.54023579751228 74.47098291609322 125.61996965743923 C 0.0 **** -0.24
9802 H 98.17056381033808 73.69101776270068 126.04716216821625 H 0.0 **** 0.06
9803 H 96.97486086215469 74.06358584759701 124.78215447810497 H 0.0 **** 0.06
9804 H 98.16559822625592 75.29346961602104 125.27213354470585 H 0.0 **** 0.06
9805 H 96.8498888457645 74.83707372072789 126.3819671689557 H 0.0 **** 0.06
9806 C 83.43693776661868 149.46963564404916 100.06782893271274 C 0.0 **** -0.24
9807 H 82.59342377407157 150.1501213481223 99.95233076037083 H 0.0 **** 0.06
9808 H 83.14727357652933 148.63819107151298 100.71077533883907 H 0.0 **** 0.06
9809 H 84.27501626141523 150.00155027089286 100.51686535389187 H 0.0 **** 0.06
9810 H 83.73106813208753 149.08713524525217 99.0900501822629 H 0.0 **** 0.06
9811 C 33.2902692336024 103.94099782658343 138.43910114948886 C 0.0 **** -0.24
9812 H 32.284672874663556 103.72118648043043 138.79700113764082 H 0.0 **** 0.06
9813 H 33.63030582423866 104.88467505349657 138.86750860744166 H 0.0 **** 0.06
9814 H 33.280406075320826 104.0178388571883 137.3521597372233 H 0.0 **** 0.06
9815 H 33.96675595635847 103.14075380694423 138.74054390620122 H 0.0 **** 0.06
9816 C 40.28325996753405 145.7877105757478 64.78348685357818 C 0.0 **** -0.24
9817 H 39.473662680345186 145.86001686060567 64.05799289927688 H 0.0 **** 0.06
9818 H 40.856632471140415 146.71406870162104 64.78124309873164 H 0.0 **** 0.06
9819 H 40.9353753552644 144.9550084338786 64.51882448501084 H 0.0 **** 0.06
9820 H 39.866145272681095 145.62034557261717 65.77712552788643 H 0.0 **** 0.06
9821 C 2.016860822608052 17.409212844787078 98.86956302077792 C 0.0 **** -0.24
9822 H 1.2162739962594245 17.952801770826625 98.36850786010362 H 0.0 **** 0.06
9823 H 2.447653205317323 18.035120762534007 99.6507612461323 H 0.0 **** 0.06
9824 H 2.7884741696965207 17.150536389788613 98.14406468314948 H 0.0 **** 0.06
9825 H 1.614695504575547 16.497879457781266 99.31330059796761 H 0.0 **** 0.06
9826 C 79.59920228122783 107.01197815803596 39.107109473862366 C 0.0 **** -0.24
9827 H 79.8024798237744 105.96797313194071 39.34753465012233 H 0.0 **** 0.06
9828 H 78.9035462838138 107.42406050510948 39.83838395800291 H 0.0 **** 0.06
9829 H 79.15998535573974 107.07636620728863 38.11168084806391 H 0.0 **** 0.06
9830 H 80.52957162158233 107.57829132693769 39.13076794765581 H 0.0 **** 0.06
9831 C 70.74924701060951 34.630346553176516 58.57620887547246 C 0.0 **** -0.24
9832 H 70.85912025003319 33.6918759146085 59.11928272110339 H 0.0 **** 0.06
9833 H 71.29512904242037 35.41751085452361 59.095006142994706 H 0.0 **** 0.06
9834 H 69.69291624924888 34.89576872781337 58.52090136339949 H 0.0 **** 0.06
9835 H 71.14731569468948 34.514694234686175 57.5681104936388 H 0.0 **** 0.06
9836 C 133.07187463928807 126.67008706869336 104.71462670859387 C 0.0 **** -0.24
9837 H 131.98661709788595 126.72324615273183 104.63484812110732 H 0.0 **** 0.06
9838 H 133.51136129851506 127.5748097631693 104.2920005309652 H 0.0 **** 0.06
9839 H 133.4353162479954 125.80089414775942 104.16730293597772 H 0.0 **** 0.06
9840 H 133.35588584856453 126.58458771875328 105.76335592387647 H 0.0 **** 0.06
9841 C 103.91937389107534 132.57458064755104 48.85665972465338 C 0.0 **** -0.24
9842 H 103.28484732788888 133.37868219938224 48.484914929339 H 0.0 **** 0.06
9843 H 104.08005191722674 131.84333139954433 48.064367102547266 H 0.0 **** 0.06
9844 H 103.4347850943596 132.09212167006027 49.70461223655536 H 0.0 **** 0.06
9845 H 104.87837824638967 132.98582427529672 49.17174512314759 H 0.0 **** 0.06
9846 C 139.16999497673783 80.21148601656705 115.50295604383528 C 0.0 **** -0.24
9847 H 138.77082423127817 81.16866057064897 115.16841299964774 H 0.0 **** 0.06
9848 H 139.40342234193594 80.26638237643883 116.56640822923008 H 0.0 **** 0.06
9849 H 140.07622956024852 79.98108876668661 114.94235771229175 H 0.0 **** 0.06
9850 H 138.42894475248409 79.42980508797135 115.33226035213117 H 0.0 **** 0.06
9851 C 80.52461047080504 87.1951260700043 49.80041196243104 C 0.0 **** -0.24
9852 H 80.95419217468775 88.07203551589102 50.28568600871938 H 0.0 **** 0.06
9853 H 80.77005778506981 87.21254742124049 48.738436630886724 H 0.0 **** 0.06
9854 H 79.44129998759189 87.20682615340488 49.922571725437194 H 0.0 **** 0.06
9855 H 80.93267518082588 86.29246849152051 50.253698763035345 H 0.0 **** 0.06
9856 C 125.14161525825105 38.67653617948031 46.02607154565766 C 0.0 **** -0.24
9857 H 125.47911804022417 39.64664007787644 46.39282600574853 H 0.0 **** 0.06
9858 H 125.41361452802383 37.90252219731536 46.743098883814866 H 0.0 **** 0.06
9859 H 125.61415231363716 38.46631599875599 45.06610866934267 H 0.0 **** 0.06
9860 H 124.05859030581635 38.69279527178924 45.90154805238427 H 0.0 **** 0.06
9861 C 130.24516108568878 73.74377778364163 13.749154189093389 C 0.0 **** -0.24
9862 H 130.7796610139689 73.87957995334568 12.808700522641203 H 0.0 **** 0.06
9863 H 129.57925607666334 74.5907787100328 13.913724620181938 H 0.0 **** 0.06
9864 H 130.96264512721297 73.68053222724785 14.567604647755928 H 0.0 **** 0.06
9865 H 129.66175169762317 72.82391714789298 13.705252108603503 H 0.0 **** 0.06
9866 C 29.687057272738713 44.077819983599255 59.67600910334552 C 0.0 **** -0.24
9867 H 29.281480147180247 44.90708625705523 59.096818193881674 H 0.0 **** 0.06
9868 H 29.001893636317874 43.23012718010972 59.62473260198226 H 0.0 **** 0.06
9869 H 29.808382019370356 44.384235169120444 60.71440376754947 H 0.0 **** 0.06
9870 H 30.65477280363808 43.787691561504346 59.26595342550114 H 0.0 **** 0.06
9871 C 141.6358874351912 80.31844700659525 38.8500113530845 C 0.0 **** -0.24
9872 H 142.67162324345153 80.38047728162493 39.18607848429835 H 0.0 **** 0.06
9873 H 141.11003434219035 79.5611587848039 39.430874961900486 H 0.0 **** 0.06
9874 H 141.6140748268305 80.04791793840533 37.79414690532435 H 0.0 **** 0.06
9875 H 141.15179191464273 81.28467837898597 38.9879421490438 H 0.0 **** 0.06
9876 C 27.469709877525105 84.77688466764188 47.033676149201796 C 0.0 **** -0.24
9877 H 27.241128819255493 83.8182821520491 47.50018491232083 H 0.0 **** 0.06
9878 H 26.547066615663027 85.24017080708555 46.68445438702801 H 0.0 **** 0.06
9879 H 28.1400036252075 84.61974598189825 46.18870679844389 H 0.0 **** 0.06
9880 H 27.951655608211894 85.42929680599097 47.762342208587285 H 0.0 **** 0.06
9881 C 87.36726565351563 83.5337080249339 124.49444474945743 C 0.0 **** -0.24
9882 H 88.07625248605333 83.04783416443959 123.8231379688137 H 0.0 **** 0.06
9883 H 86.4112085040218 83.65688313114956 123.98453775323507 H 0.0 **** 0.06
9884 H 87.75403542780592 84.5105169472588 124.78465665442907 H 0.0 **** 0.06
9885 H 87.22931910545172 82.9182652755604 125.38340900865481 H 0.0 **** 0.06
9886 C 104.09285140853632 25.46826056998151 138.7380247694018 C 0.0 **** -0.24
9887 H 103.38853533922833 24.734402021170666 139.12776946824454 H 0.0 **** 0.06
9888 H 103.81896873346682 25.726074272957135 137.71434273566223 H 0.0 **** 0.06
9889 H 105.09895816671428 25.048292809418513 138.750098681016 H 0.0 **** 0.06
9890 H 104.06554678826882 26.36414385827908 139.35861568874546 H 0.0 **** 0.06
9891 C 107.25337861585263 8.350768636507354 138.07877499878097 C 0.0 **** -0.24
9892 H 106.83953112727562 9.172941352021411 138.6638953459691 H 0.0 **** 0.06
9893 H 107.73660840786363 7.637275048587327 138.74629904656152 H 0.0 **** 0.06
9894 H 107.9845249509878 8.740620256469214 137.37166102026274 H 0.0 **** 0.06
9895 H 106.4505567729305 7.852955422542067 137.53473677941807 H 0.0 **** 0.06
9896 C 62.2605066249437 108.20019462285545 20.313599267539303 C 0.0 **** -0.24
9897 H 63.276481236095876 108.1586051692061 19.919191557965803 H 0.0 **** 0.06
9898 H 61.65654118149368 107.4246066750732 19.841182488841838 H 0.0 **** 0.06
9899 H 61.82840108356989 109.17710606743448 20.101374760590232 H 0.0 **** 0.06
9900 H 62.283132517566 108.0381201293289 21.39119075176191 H 0.0 **** 0.06
9901 C 127.76125076402562 29.280844883181146 4.413881563074142 C 0.0 **** -0.24
9902 H 128.1489293057653 29.755049745811178 3.512178405144539 H 0.0 **** 0.06
9903 H 128.4963292295345 29.36970703254471 5.214197547590857 H 0.0 **** 0.06
9904 H 127.5655182867179 28.22744943093167 4.215668872544711 H 0.0 **** 0.06
9905 H 126.83579956217127 29.772732277067703 4.713788811649863 H 0.0 **** 0.06
9906 C 116.10377873154357 51.48827763421032 86.7450493896047 C 0.0 **** -0.24
9907 H 115.06880614535936 51.59953838998575 86.42009814440638 H 0.0 **** 0.06
9908 H 116.13431492113983 51.38147973132587 87.83001818350718 H 0.0 **** 0.06
9909 H 116.67281119438127 52.370399761956605 86.45032219836824 H 0.0 **** 0.06
9910 H 116.53707222933286 50.6037718966235 86.28023140677564 H 0.0 **** 0.06
9911 C 6.807379894497274 31.41231047845804 115.9963179768104 C 0.0 **** -0.24
9912 H 6.994249213611596 31.53627720620789 114.9300419525862 H 0.0 **** 0.06
9913 H 5.941051688125555 30.766112326738643 116.14071985427803 H 0.0 **** 0.06
9914 H 6.614138781654788 32.38627898032171 116.446242108021 H 0.0 **** 0.06
9915 H 7.680173909152728 30.96070982167199 116.46728179402693 H 0.0 **** 0.06
9916 C 113.62443050538222 93.11829069461562 9.9119455212616 C 0.0 **** -0.24
9917 H 114.45256146433523 93.14508234967157 9.203658285092047 H 0.0 **** 0.06
9918 H 112.69762193756922 92.9040684474929 9.378098862197646 H 0.0 **** 0.06
9919 H 113.54187477812427 94.08390311920502 10.410302483726014 H 0.0 **** 0.06
9920 H 113.80491555276664 92.3409154824396 10.653533927770411 H 0.0 **** 0.06
9921 C 27.355191201005766 43.77321089139153 14.028355949862373 C 0.0 **** -0.24
9922 H 27.2511170078468 42.86004802530222 14.61466613994989 H 0.0 **** 0.06
9923 H 27.99097412443129 43.578576673303004 13.163363949872206 H 0.0 **** 0.06
9924 H 27.807648851208256 44.54999113390856 14.644423313499402 H 0.0 **** 0.06
9925 H 26.372663099065562 44.10240702276643 13.691006132961803 H 0.0 **** 0.06
9926 C 6.845525859101002 95.20795736349267 71.64570352482903 C 0.0 **** -0.24
9927 H 7.556386720661095 95.67991143114818 72.32422300872656 H 0.0 **** 0.06
9928 H 5.831208571111773 95.48715407609654 71.93074758524972 H 0.0 **** 0.06
9929 H 6.954458569257298 94.12427847129484 71.70326444517167 H 0.0 **** 0.06
9930 H 7.041631894104313 95.53883034982846 70.62544914423151 H 0.0 **** 0.06
9931 C 34.542674340458376 81.34932642555543 91.0788636067109 C 0.0 **** -0.24
9932 H 34.69641253498146 82.1852390944027 90.39680492703451 H 0.0 **** 0.06
9933 H 33.63382613260811 81.5152692445067 91.65809018943372 H 0.0 **** 0.06
9934 H 35.39514580470241 81.27017568071818 91.75417470496383 H 0.0 **** 0.06
9935 H 34.44531288954161 80.42662168259406 90.50638460541148 H 0.0 **** 0.06
9936 C 115.31903433511525 93.07158630553513 66.3823660934496 C 0.0 **** -0.24
9937 H 115.51459962016833 93.58490449205591 67.32452966223445 H 0.0 **** 0.06
9938 H 114.96672384160814 93.79194403604063 65.64332510619556 H 0.0 **** 0.06
9939 H 114.557746912629 92.30729898452745 66.53652773417059 H 0.0 **** 0.06
9940 H 116.23703305080608 92.60412264877428 66.0262192548677 H 0.0 **** 0.06
9941 C 7.247854365672488 86.15509587820364 79.57297645692572 C 0.0 **** -0.24
9942 H 7.922815248402884 86.01125364360107 80.41641802911518 H 0.0 **** 0.06
9943 H 6.4849556975855585 86.88711079696762 79.83899954592901 H 0.0 **** 0.06
9944 H 6.771100800076457 85.2080542575398 79.32294718133136 H 0.0 **** 0.06
9945 H 7.812659229228927 86.5163808255003 78.71392866174807 H 0.0 **** 0.06
9946 C 45.353500668714204 14.172855791357826 56.96353283689314 C 0.0 **** -0.24
9947 H 44.69972435148671 13.636600865767655 57.65136687627006 H 0.0 **** 0.06
9948 H 46.32209297244471 14.336738787555838 57.43548281736781 H 0.0 **** 0.06
9949 H 44.904811643620306 15.133398859000991 56.70974223893576 H 0.0 **** 0.06
9950 H 45.4861515083208 13.5827948638426 56.05582616691879 H 0.0 **** 0.06
9951 C 132.34569537787576 34.21301797235898 76.2397173077018 C 0.0 **** -0.24
9952 H 132.07359820667284 34.505673120459335 75.22547247166086 H 0.0 **** 0.06
9953 H 131.45099538444435 34.18608931236794 76.8612792375108 H 0.0 **** 0.06
9954 H 133.05078458296163 34.93673392880689 76.6482132064677 H 0.0 **** 0.06
9955 H 132.8075672383635 33.22611946935092 76.22135441836889 H 0.0 **** 0.06
9956 C 32.90892500549313 4.530492098848185 2.9631161498298297 C 0.0 **** -0.24
9957 H 32.10975963297517 5.190434935154457 2.623324006815949 H 0.0 **** 0.06
9958 H 33.222437073913625 3.8873393467972903 2.1399847784116446 H 0.0 **** 0.06
9959 H 32.54732761801699 3.9165829059864734 3.787657412674264 H 0.0 **** 0.06
9960 H 33.75476549056083 5.1296592382391 3.2990864879193964 H 0.0 **** 0.06
9961 C 123.24806013531963 61.091511574948925 147.47661421760859 C 0.0 **** -0.24
9962 H 124.09785332184413 61.60075563383609 147.92948777205726 H 0.0 **** 0.06
9963 H 122.59472828904694 61.82528500374687 147.00377961178145 H 0.0 **** 0.06
9964 H 122.69353208753432 60.55474954223115 148.24726764171146 H 0.0 **** 0.06
9965 H 123.60457323368695 60.385156655600525 146.7266811308628 H 0.0 **** 0.06
9966 C 85.60610281483643 16.38385263118178 8.33041190902469 C 0.0 **** -0.24
9967 H 84.93712686798418 16.597528519163653 9.16395511525701 H 0.0 **** 0.06
9968 H 86.59179600685921 16.799596329936804 8.541742522392326 H 0.0 **** 0.06
9969 H 85.20852316485379 16.833914745349944 7.421549462843302 H 0.0 **** 0.06
9970 H 85.68727146598343 15.305252863474031 8.197251629505502 H 0.0 **** 0.06
9971 C 120.13184598767332 60.67686815803586 35.79211496627778 C 0.0 **** -0.24
9972 H 120.53241799118722 61.07062447493638 34.858854307555305 H 0.0 **** 0.06
9973 H 119.40943894695867 61.382701888776126 36.203254033490964 H 0.0 **** 0.06
9974 H 120.94412387534824 60.53068822411731 36.50404792696514 H 0.0 **** 0.06
9975 H 119.6391516753409 59.722493310561276 35.60232428266153 H 0.0 **** 0.06
9976 C 38.50823490193952 68.08622169888287 94.57551097937755 C 0.0 **** -0.24
9977 H 39.440578136627366 67.91740431348614 94.03501367816241 H 0.0 **** 0.06
9978 H 38.42105422568216 67.35845946190224 95.3834263264232 H 0.0 **** 0.06
9979 H 37.66629755757101 67.97327580320916 93.89232562690398 H 0.0 **** 0.06
9980 H 38.506954143098 69.093500844306 94.99086207295139 H 0.0 **** 0.06
9981 C 44.675523914013084 49.61760018654218 118.16469176754191 C 0.0 **** -0.24
9982 H 45.63562081594 49.55128178877398 117.6523985780762 H 0.0 **** 0.06
9983 H 44.25269015139045 50.61193400715601 118.01707608712309 H 0.0 **** 0.06
9984 H 44.82060863197475 49.438195573616966 119.23066078456395 H 0.0 **** 0.06
9985 H 43.99493747711399 48.868825299722346 117.76032593344104 H 0.0 **** 0.06
9986 C 33.57341380365936 46.09244084246515 92.73374086818019 C 0.0 **** -0.24
9987 H 32.93050991692172 46.971417511764216 92.78417006939137 H 0.0 **** 0.06
9988 H 33.01626227293061 45.25910286014032 92.30625584526439 H 0.0 **** 0.06
9989 H 33.90790127921038 45.829578073076846 93.73764464964844 H 0.0 **** 0.06
9990 H 34.43889961524664 46.3107076572787 92.10910789901598 H 0.0 **** 0.06
9991 C 60.605601861356064 77.36215408313096 75.0886069734253 C 0.0 **** -0.24
9992 H 59.56649700414124 77.5051396387076 75.38625901040365 H 0.0 **** 0.06
9993 H 60.844305861570604 78.03917158128432 74.26759221194618 H 0.0 **** 0.06
9994 H 60.75151882910717 76.33127654096845 74.76531727295065 H 0.0 **** 0.06
9995 H 61.25728806375861 77.5733483732661 75.93552579656992 H 0.0 **** 0.06
9996 C 74.95010895402918 150.35805151256184 28.97687016491119 C 0.0 **** -0.24
9997 H 75.98427345251184 150.08023928410827 29.180950167895723 H 0.0 **** 0.06
9998 H 74.75498665698483 151.35367228774285 29.375280811764874 H 0.0 **** 0.06
9999 H 74.28096884339436 149.63908386722161 29.449770289804164 H 0.0 **** 0.06
10000 H 74.77947469409492 150.3577145239245 27.89998746715674 H 0.0 **** 0.06
10001 C 93.32454911961486 146.46706205959538 133.0979400631683 C 0.0 **** -0.24
10002 H 93.92667857505194 145.7536129044171 132.5344864801423 H 0.0 **** 0.06
10003 H 92.29190314095797 146.42082325801732 132.75459668306675 H 0.0 **** 0.06
10004 H 93.71507013746367 147.47365240527287 132.94378836771202 H 0.0 **** 0.06
10005 H 93.36736139977896 146.21912747041156 134.1588628028749 H 0.0 **** 0.06
10006 C 60.1842133752932 121.37459239137367 84.85653791584986 C 0.0 **** -0.24
10007 H 60.76618005379272 121.80090919835494 84.03903973724223 H 0.0 **** 0.06
10008 H 60.48356236207525 121.8395116794501 85.79555958871784 H 0.0 **** 0.06
10009 H 60.362952127587846 120.30091355821075 84.90810029897109 H 0.0 **** 0.06
10010 H 59.124054846685425 121.55850000867578 84.68103468813429 H 0.0 **** 0.06
10011 C 8.597312081934383 50.10984243777526 98.7921860420893 C 0.0 **** -0.24
10012 H 8.414617886371595 49.0351054825845 98.81282143801063 H 0.0 **** 0.06
10013 H 7.660004285712816 50.634091575481094 98.6065697423884 H 0.0 **** 0.06
10014 H 9.307855611282221 50.34169979583545 97.99861654144256 H 0.0 **** 0.06
10015 H 9.006967182332879 50.42636823647591 99.75146577480365 H 0.0 **** 0.06
10016 C 23.932913103013504 119.1855246541787 37.48203551057938 C 0.0 **** -0.24
10017 H 23.34789395191271 118.63819002600975 38.221974647511985 H 0.0 **** 0.06
10018 H 24.970380884213426 119.24381738680823 37.81058235433602 H 0.0 **** 0.06
10019 H 23.527964456927805 120.1909450938107 37.37120779770666 H 0.0 **** 0.06
10020 H 23.88301302947076 118.66584980446028 36.52498925721008 H 0.0 **** 0.06
10021 C 41.3895985132898 123.48049868350954 88.19068082823206 C 0.0 **** -0.24
10022 H 40.92477908696941 122.78384799027283 88.88830765882075 H 0.0 **** 0.06
10023 H 41.96265794606711 122.92211225369267 87.44941837653782 H 0.0 **** 0.06
10024 H 42.05456762056116 124.15154577800315 88.73460120442772 H 0.0 **** 0.06
10025 H 40.616542172730874 124.06229770266201 87.68861381868746 H 0.0 **** 0.06
10026 C 139.11508212785512 36.30446124362172 18.478964358861305 C 0.0 **** -0.24
10027 H 139.32603011017184 35.66026754983338 19.333163372747748 H 0.0 **** 0.06
10028 H 138.39572695603803 35.81377855715655 17.823975740235568 H 0.0 **** 0.06
10029 H 140.0369672221888 36.49298588929807 17.930148579226312 H 0.0 **** 0.06
10030 H 138.70119219681575 37.24883909350203 18.830791081349133 H 0.0 **** 0.06
10031 C 79.92688923548263 65.98056324172754 69.17468079356851 C 0.0 **** -0.24
10032 H 80.14684353876748 66.85910880836778 68.56824343379915 H 0.0 **** 0.06
10033 H 79.38498951791257 65.25084423056146 68.57241559237436 H 0.0 **** 0.06
10034 H 79.31716110872856 66.27183614745601 70.02940832635603 H 0.0 **** 0.06
10035 H 80.85999542555635 65.53938183493412 69.52732274504508 H 0.0 **** 0.06
10036 C 47.37202308926882 46.46639297689158 148.97265648921712 C 0.0 **** -0.24
10037 H 46.37343704064145 46.23940744882064 148.60032340057555 H 0.0 **** 0.06
10038 H 47.294632151165644 46.9428557352736 149.95013558350675 H 0.0 **** 0.06
10039 H 47.874560921422756 47.1393514903415 148.2784807040885 H 0.0 **** 0.06
10040 H 47.94384191231569 45.54250396729924 149.06219883787372 H 0.0 **** 0.06
10041 C 40.031417972102105 12.174639639811744 134.64027758772784 C 0.0 **** -0.24
10042 H 40.49953136954153 11.67927114925348 133.7889295779714 H 0.0 **** 0.06
10043 H 39.60098555139791 13.122528549170994 134.31707016976623 H 0.0 **** 0.06
10044 H 40.78223447174662 12.358957495297688 135.40967088954045 H 0.0 **** 0.06
10045 H 39.245942745305655 11.536521780737075 135.0449610980954 H 0.0 **** 0.06
10046 C 31.78984783612424 82.54471708957173 149.42310708132484 C 0.0 **** -0.24
10047 H 31.457990581898116 82.69086319181545 150.45051962033637 H 0.0 **** 0.06
10048 H 32.879436649565264 82.56347812121818 149.3877694144176 H 0.0 **** 0.06
10049 H 31.39210217515773 83.34167671047605 148.79578962537352 H 0.0 **** 0.06
10050 H 31.43153537375241 81.58186315837852 149.05882426134457 H 0.0 **** 0.06
10051 C 60.991000039074706 25.66946531078551 125.59761322387675 C 0.0 **** -0.24
10052 H 62.01673581139357 25.39158777869747 125.84222460104748 H 0.0 **** 0.06
10053 H 60.96365516865892 26.709632598096164 125.27334058107787 H 0.0 **** 0.06
10054 H 60.36219932644802 25.54712484861861 126.47947429932731 H 0.0 **** 0.06
10055 H 60.62143865167357 25.027875158163994 124.79693227327779 H 0.0 **** 0.06
10056 C 21.952432941785105 137.88473311073167 54.7927001237322 C 0.0 **** -0.24
10057 H 22.30970658243018 137.62302991165086 55.788947324336874 H 0.0 **** 0.06
10058 H 22.33017892636525 137.1612528845911 54.069357284877555 H 0.0 **** 0.06
10059 H 22.308470326464885 138.88102073113188 54.529987635232516 H 0.0 **** 0.06
10060 H 20.862332796108262 137.87390263802172 54.782410662264425 H 0.0 **** 0.06
10061 C 6.116878832528727 89.4008060582064 27.755688705369153 C 0.0 **** -0.24
10062 H 6.572395076573475 88.93842690065219 28.630936054483243 H 0.0 **** 0.06
10063 H 5.860212655385713 88.62864349638886 27.028645356890706 H 0.0 **** 0.06
10064 H 6.820030127009474 90.1015860493817 27.307950983956708 H 0.0 **** 0.06
10065 H 5.214008295836106 89.93256825114207 28.05472586192724 H 0.0 **** 0.06
10066 C 89.11227081605995 86.26584289922167 59.69153007554911 C 0.0 **** -0.24
10067 H 89.91622147043725 86.06142545945752 58.98344647124094 H 0.0 **** 0.06
10068 H 89.53384018676195 86.66643247120064 60.61308079052007 H 0.0 **** 0.06
10069 H 88.57695870191405 85.3412737453898 59.90809487115358 H 0.0 **** 0.06
10070 H 88.42378393523221 86.99193026869511 59.25985379555331 H 0.0 **** 0.06
10071 C 2.3297462071678297 144.05654789551386 129.50458757745452 C 0.0 **** -0.24
10072 H 1.8157781208820438 143.1876864474232 129.91641896946192 H 0.0 **** 0.06
10073 H 3.0037965867132357 144.46938144441694 130.2555163698048 H 0.0 **** 0.06
10074 H 1.596702025689467 144.81121807564202 129.2196724510186 H 0.0 **** 0.06
10075 H 2.9029424250732063 143.75671569308588 128.6274700149996 H 0.0 **** 0.06
10076 C 42.51814483806072 59.43017910006091 54.261883130025 C 0.0 **** -0.24
10077 H 42.755176520466364 60.49073002879808 54.33393950462148 H 0.0 **** 0.06
10078 H 43.44056765275258 58.84903222646193 54.29224754547529 H 0.0 **** 0.06
10079 H 41.998532074537195 59.237123387940926 53.32264109477737 H 0.0 **** 0.06
10080 H 41.87913498899951 59.14274957238615 55.09585141642789 H 0.0 **** 0.06
10081 C 2.798428371193154 67.42366556677518 19.058724139596166 C 0.0 **** -0.24
10082 H 3.170881475208006 67.35071063295011 18.036362271531488 H 0.0 **** 0.06
10083 H 1.8640318517643664 67.98382359236602 19.06617877611913 H 0.0 **** 0.06
10084 H 3.5357038025109375 67.93622407476239 19.67676880149918 H 0.0 **** 0.06
10085 H 2.6266127923676095 66.42231046283936 19.454138939604093 H 0.0 **** 0.06
10086 C 135.62275225139413 143.024076221154 69.0094972687128 C 0.0 **** -0.24
10087 H 135.97181032317596 143.10842744249564 67.98037200133487 H 0.0 **** 0.06
10088 H 136.45059618210905 143.22098576750952 69.69184732485263 H 0.0 **** 0.06
10089 H 135.24128845338745 142.01711408758143 69.18151224394515 H 0.0 **** 0.06
10090 H 134.8271762684178 143.74841020941807 69.18392378513826 H 0.0 **** 0.06
10091 C 35.586653173989845 25.128122680806996 9.128554818423012 C 0.0 **** -0.24
10092 H 35.328196742743074 26.18005043826207 9.008231337989272 H 0.0 **** 0.06
10093 H 35.204511074252906 24.560832251340173 8.280042321306944 H 0.0 **** 0.06
10094 H 35.142213717883834 24.749019953164236 10.049771535977527 H 0.0 **** 0.06
10095 H 36.66980534547892 25.022919955480916 9.1782558688246 H 0.0 **** 0.06
10096 C 136.1684741263133 125.86657400413853 34.2281100571808 C 0.0 **** -0.24
10097 H 136.67384868796398 125.04577988256179 34.739302908364245 H 0.0 **** 0.06
10098 H 135.09189622051247 125.77395424272785 34.36921304967178 H 0.0 **** 0.06
10099 H 136.4011426955651 125.82915543799251 33.16433111538658 H 0.0 **** 0.06
10100 H 136.50883132039996 126.81557020527893 34.64166857916537 H 0.0 **** 0.06
10101 C 92.97981202553652 128.29929175667033 116.29008040237105 C 0.0 **** -0.24
10102 H 93.86583896598225 127.66421247146042 116.2620967566991 H 0.0 **** 0.06
10103 H 92.18608432873631 127.8422826571521 115.69860636917682 H 0.0 **** 0.06
10104 H 93.22310006729664 129.27930112620322 115.87796743584923 H 0.0 **** 0.06
10105 H 92.64643947038711 128.41108995685283 117.32177870285577 H 0.0 **** 0.06
10106 C 106.45902748768414 68.53222481621292 33.390911581832626 C 0.0 **** -0.24
10107 H 106.08660392285337 67.64813105000755 32.87396635793078 H 0.0 **** 0.06
10108 H 107.54179364938047 68.59336900054626 33.2716874515977 H 0.0 **** 0.06
10109 H 106.21359561534807 68.46377526426532 34.45088061512064 H 0.0 **** 0.06
10110 H 105.9955906792416 69.4232312976647 32.967932576361505 H 0.0 **** 0.06
10111 C 134.6968731475132 44.560177190172965 135.75836206361015 C 0.0 **** -0.24
10112 H 134.28611150907915 43.61533893193369 136.11492628422167 H 0.0 **** 0.06
10113 H 134.47844835036804 45.34589391644958 136.48190704156238 H 0.0 **** 0.06
10114 H 134.2442120123668 44.81342070045399 134.79908986737826 H 0.0 **** 0.06
10115 H 135.77584193288908 44.46530653233272 135.6379154499166 H 0.0 **** 0.06
10116 C 37.128687347354116 150.26011474059143 64.50236114398777 C 0.0 **** -0.24
10117 H 38.16407025977167 150.42018401970088 64.20578494371628 H 0.0 **** 0.06
10118 H 36.76669611313751 149.32670122416962 64.07145044208735 H 0.0 **** 0.06
10119 H 36.51558175920784 151.08709632505892 64.14454349423718 H 0.0 **** 0.06
10120 H 37.066742908477735 150.2063065608502 65.59015989414192 H 0.0 **** 0.06
10121 C 121.06759873925472 53.7110258301491 113.98292930593716 C 0.0 **** -0.24
10122 H 120.41585261383568 52.84988670176138 114.13169720079209 H 0.0 **** 0.06
10123 H 122.01854496541944 53.537713006215455 114.48895648679577 H 0.0 **** 0.06
10124 H 120.59217518990795 54.60121755535803 114.3957872170014 H 0.0 **** 0.06
10125 H 121.2440070699381 53.85385800673885 112.91725791193399 H 0.0 **** 0.06
10126 C 112.00893388947013 21.493586230630044 48.5320159447724 C 0.0 **** -0.24
10127 H 112.37080732088218 20.819761752476886 49.30728144772199 H 0.0 **** 0.06
10128 H 112.03690494658882 20.985254575090423 47.567871735845614 H 0.0 **** 0.06
10129 H 112.64327885982841 22.378834989649683 48.49412723041202 H 0.0 **** 0.06
10130 H 110.9846153638701 21.78971416112956 48.75646473875631 H 0.0 **** 0.06
10131 C 35.53109127884727 150.3766279549689 10.94677054303758 C 0.0 **** -0.24
10132 H 36.23097465764084 149.81869727760235 11.569995343069202 H 0.0 **** 0.06
10133 H 35.92040200633227 150.43720826619628 9.930671801805019 H 0.0 **** 0.06
10134 H 35.407019042162005 151.3808750602036 11.350733757252328 H 0.0 **** 0.06
10135 H 34.56816655380163 149.86730800991458 10.9381914992819 H 0.0 **** 0.06
10136 C 49.0390760630857 98.70483773686186 148.28204667434542 C 0.0 **** -0.24
10137 H 49.06921609631303 98.01754738336224 147.4355166409259 H 0.0 **** 0.06
10138 H 49.455003000032946 99.66665359149047 147.98245275076457 H 0.0 **** 0.06
10139 H 49.62614193077445 98.2941399664718 149.1033964694603 H 0.0 **** 0.06
10140 H 48.00714709182523 98.83827633574025 148.60397858823856 H 0.0 **** 0.06
10141 C 134.05604976430953 70.70188346865336 150.1908169317776 C 0.0 **** -0.24
10142 H 133.6726404495516 71.72222716876234 150.19009945631194 H 0.0 **** 0.06
10143 H 133.29445584198257 70.02793407620527 150.58201939497047 H 0.0 **** 0.06
10144 H 134.94579054355393 70.64987946571705 150.81883081428253 H 0.0 **** 0.06
10145 H 134.31270932027886 70.40917010094955 149.17280404719315 H 0.0 **** 0.06
10146 C 59.390746677621536 1.445484969477036 126.01297849739422 C 0.0 **** -0.24
10147 H 58.902604322547774 1.6330398915083606 125.05584071739567 H 0.0 **** 0.06
10148 H 59.77392947716845 0.42569833938352986 126.03094009026381 H 0.0 **** 0.06
10149 H 58.66989483560721 1.579082960040779 126.81975026919302 H 0.0 **** 0.06
10150 H 60.215657050267424 2.1466212961513236 126.14294866186233 H 0.0 **** 0.06
10151 C 62.484456952470566 50.06757865593437 5.024022790783533 C 0.0 **** -0.24
10152 H 62.22333606069225 49.122947454643736 5.502223895828564 H 0.0 **** 0.06
10153 H 63.19266895634286 49.881942158020934 4.216641639089545 H 0.0 **** 0.06
10154 H 62.936721416527746 50.733530176409516 5.759273720652288 H 0.0 **** 0.06
10155 H 61.58387745620371 50.5303130861671 4.619366231023292 H 0.0 **** 0.06
10156 C 22.75796218382763 41.16195258813514 58.50802802067105 C 0.0 **** -0.24
10157 H 21.957194801916984 41.561666281781385 57.886360888112094 H 0.0 **** 0.06
10158 H 23.534719708981605 40.73726787043242 57.87256275785927 H 0.0 **** 0.06
10159 H 22.35780683087338 40.385820896467465 59.160631870754855 H 0.0 **** 0.06
10160 H 23.180806629148854 41.9631160606192 59.114618630371794 H 0.0 **** 0.06
10161 C 121.97032839882009 73.55622762034636 140.52442130422176 C 0.0 **** -0.24
10162 H 120.99239989961275 73.97400613701188 140.76126387634068 H 0.0 **** 0.06
10163 H 122.53162155682777 73.3997115414221 141.44668008836297 H 0.0 **** 0.06
10164 H 122.51525058240021 74.24672719806654 139.88074698544415 H 0.0 **** 0.06
10165 H 121.84416292469389 72.60326862501387 140.01043208756363 H 0.0 **** 0.06
10166 C 111.26277239397828 132.2988621763032 134.02330738026075 C 0.0 **** -0.24
10167 H 110.4145982356587 131.98227713333773 133.41524649714472 H 0.0 **** 0.06
10168 H 112.1107192038962 131.64154373180514 133.8334729319892 H 0.0 **** 0.06
10169 H 110.99210467611417 132.24852685425063 135.07771043683618 H 0.0 **** 0.06
10170 H 111.53175490646348 133.32299185526628 133.76564622039228 H 0.0 **** 0.06
10171 C 45.84349020084241 52.05102011479909 66.07222005133089 C 0.0 **** -0.24
10172 H 46.77557300909595 52.24909924799938 66.60186785437863 H 0.0 **** 0.06
10173 H 45.59016369544773 52.909010035780156 65.44982512365792 H 0.0 **** 0.06
10174 H 45.04547864827455 51.87763492391382 66.79481790303132 H 0.0 **** 0.06
10175 H 45.96264138874986 51.168205036211816 65.44459915310377 H 0.0 **** 0.06
10176 C 19.441095872649186 37.85739054334107 121.09115492024104 C 0.0 **** -0.24
10177 H 18.94630424781218 37.517542490900894 120.18067313761627 H 0.0 **** 0.06
10178 H 19.016718213459683 38.8125714974787 121.40044351008096 H 0.0 **** 0.06
10179 H 20.507475742237574 37.97675931287915 120.9013272868775 H 0.0 **** 0.06
10180 H 19.292757342060412 37.11975505925005 121.8811170279421 H 0.0 **** 0.06
10181 C 145.95403969094926 49.9756264489036 38.405718919367416 C 0.0 **** -0.24
10182 H 146.99559922165344 50.134644721581054 38.12568421952153 H 0.0 **** 0.06
10183 H 145.5807747889809 50.8542646423589 38.93146953381034 H 0.0 **** 0.06
10184 H 145.88338002314893 49.10387489867276 39.05750875579446 H 0.0 **** 0.06
10185 H 145.35866572890794 49.80709756546554 37.50826900362193 H 0.0 **** 0.06
10186 C 40.85497585095813 68.14334285493516 103.53123494502093 C 0.0 **** -0.24
10187 H 41.77492750646434 68.61196267955316 103.18246585926558 H 0.0 **** 0.06
10188 H 40.052872179789404 68.88098519851927 103.54142997334732 H 0.0 **** 0.06
10189 H 41.004647953004906 67.7544049230338 104.53948248845073 H 0.0 **** 0.06
10190 H 40.58823009049003 67.32513875457018 102.8623528702946 H 0.0 **** 0.06
10191 C 136.3449193353 13.338608059327498 144.43812856631186 C 0.0 **** -0.24
10192 H 136.23664719725699 13.184968258664284 143.36403524053324 H 0.0 **** 0.06
10193 H 135.41002384923107 13.08286037484644 144.93711558767487 H 0.0 **** 0.06
10194 H 136.5870045897339 14.382898268955202 144.63315712247274 H 0.0 **** 0.06
10195 H 137.14491322235563 12.703127739056796 144.81751229591552 H 0.0 **** 0.06
10196 C 122.94675524849498 98.62062794845349 82.25026422389885 C 0.0 **** -0.24
10197 H 123.93731402649667 99.07506218281316 82.29086427174926 H 0.0 **** 0.06
10198 H 122.43493758536272 98.78205687275423 83.19989832644286 H 0.0 **** 0.06
10199 H 123.04526732614437 97.55115715155526 82.06705388060647 H 0.0 **** 0.06
10200 H 122.37068799586945 99.07687524754627 81.44486095366666 H 0.0 **** 0.06
10201 C 49.3821041262633 31.07336684525569 128.07041253539577 C 0.0 **** -0.24
10202 H 48.519260004747 30.414794457983874 128.16264520826908 H 0.0 **** 0.06
10203 H 49.641534506293596 31.186806829003842 127.01775887098961 H 0.0 **** 0.06
10204 H 50.22732354851132 30.64306002937684 128.609049439294 H 0.0 **** 0.06
10205 H 49.141113076697195 32.049122920021546 128.49330840173798 H 0.0 **** 0.06
10206 C 36.16302462332277 76.9886138037745 43.01213757790538 C 0.0 **** -0.24
10207 H 37.22448916203902 76.79475708117462 42.85686652907384 H 0.0 **** 0.06
10208 H 36.03881453987057 77.94780470870249 43.51569113129767 H 0.0 **** 0.06
10209 H 35.73508287789011 76.19711235527802 43.62634988481807 H 0.0 **** 0.06
10210 H 35.65470592722255 77.0154880844825 42.047768666609045 H 0.0 **** 0.06
10211 C 120.26660149612432 64.64898934345729 92.59564350684315 C 0.0 **** -0.24
10212 H 120.89934275248403 64.60846346404281 91.70937909026856 H 0.0 **** 0.06
10213 H 119.7147465677677 63.713996039264885 92.69081772770119 H 0.0 **** 0.06
10214 H 119.56385545817649 65.47796598284236 92.5014188382327 H 0.0 **** 0.06
10215 H 120.886787004492 64.79745240478957 93.47908513089868 H 0.0 **** 0.06
10216 C 145.52382915128155 69.31978123882053 25.704201672763816 C 0.0 **** -0.24
10217 H 144.90568147274425 70.00564588486922 26.28384262462933 H 0.0 **** 0.06
10218 H 144.9049034464979 68.50838882588519 25.32089263682505 H 0.0 **** 0.06
10219 H 146.30617499216262 68.90888437679112 26.34339122803948 H 0.0 **** 0.06
10220 H 145.97888359189622 69.85521871629449 24.871494273170327 H 0.0 **** 0.06
10221 C 77.58885568767596 115.49681993417028 131.73283692162755 C 0.0 **** -0.24
10222 H 78.50892151555956 115.35538272035706 132.30014537405222 H 0.0 **** 0.06
10223 H 76.73254351068132 115.26428034012542 132.36674489288797 H 0.0 **** 0.06
10224 H 77.59098892373098 114.83429296727991 130.86783985985093 H 0.0 **** 0.06
10225 H 77.52391895505258 116.53205169804937 131.39895839032403 H 0.0 **** 0.06
10226 C 144.5430310996147 66.81323359964647 56.63842173682917 C 0.0 **** -0.24
10227 H 144.12489496931937 65.91006594777731 56.192525000609436 H 0.0 **** 0.06
10228 H 143.87768900715272 67.65478923674273 56.442890330361394 H 0.0 **** 0.06
10229 H 145.52074949422772 67.01336648823903 56.20146520802976 H 0.0 **** 0.06
10230 H 144.64691444658365 66.67317880264692 57.713955722348544 H 0.0 **** 0.06
10231 C 98.7900707137114 122.7565603144612 4.852943342324739 C 0.0 **** -0.24
10232 H 97.83215256366022 123.23883802161079 4.660593448749619 H 0.0 **** 0.06
10233 H 98.93982339952804 121.94722921470596 4.13803439450399 H 0.0 **** 0.06
10234 H 98.79721292217154 122.35199205484618 5.865975456261548 H 0.0 **** 0.06
10235 H 99.5931273336474 123.48654706463473 4.748650898906348 H 0.0 **** 0.06
10236 C 77.0522515971105 85.41513863552706 92.89728848755371 C 0.0 **** -0.24
10237 H 77.21949396805151 84.33996422958874 92.96255313738946 H 0.0 **** 0.06
10238 H 75.98171110082019 85.61872045420527 92.94408625239221 H 0.0 **** 0.06
10239 H 77.45154263006812 85.7879461315747 91.95388680353729 H 0.0 **** 0.06
10240 H 77.55330899658878 85.91277818062274 93.72663087226758 H 0.0 **** 0.06
10241 C 7.762230054304126 26.301634312375768 27.3301424866561 C 0.0 **** -0.24
10242 H 7.162365856089593 25.41319334849024 27.13492709089516 H 0.0 **** 0.06
10243 H 8.532897167915621 26.395560218764643 26.565424507699063 H 0.0 **** 0.06
10244 H 8.231740335239436 26.214318745486594 28.309956536085068 H 0.0 **** 0.06
10245 H 7.122033926139125 27.183721295601543 27.312480090149535 H 0.0 **** 0.06
10246 C 27.041046285707573 42.67030263141211 56.191785000870354 C 0.0 **** -0.24
10247 H 27.63797424756119 41.80228180927091 55.91376646396424 H 0.0 **** 0.06
10248 H 26.063160895281626 42.34074536084816 56.543520227966596 H 0.0 **** 0.06
10249 H 26.917108874238643 43.3187391622793 55.324009629557224 H 0.0 **** 0.06
10250 H 27.547719383983846 43.21993140993118 56.98506872137587 H 0.0 **** 0.06
10251 C 97.36643147537578 149.95187815682112 103.8512744404466 C 0.0 **** -0.24
10252 H 97.4601532683351 150.45191391095 104.8160904912542 H 0.0 **** 0.06
10253 H 97.03726053530576 150.6714713965651 103.09992256535712 H 0.0 **** 0.06
10254 H 96.63507760643462 149.14713318643413 103.9287892733441 H 0.0 **** 0.06
10255 H 98.33208568831817 149.53862830817786 103.56130037312396 H 0.0 **** 0.06
10256 C 124.1757169995046 1.634928227606565 11.690688545944255 C 0.0 **** -0.24
10257 H 124.36225451909817 2.2664530162079473 12.559760296865392 H 0.0 **** 0.06
10258 H 124.43832845265379 0.604197207397192 11.92902082438053 H 0.0 **** 0.06
10259 H 124.78049131029778 1.9816394969459452 10.853986247267585 H 0.0 **** 0.06
10260 H 123.12053436296807 1.6887629435558722 11.424063556867623 H 0.0 **** 0.06
10261 C 127.32730491037076 142.2500690512388 109.6906936322818 C 0.0 **** -0.24
10262 H 127.46149908373911 143.18848555392307 109.15344988467206 H 0.0 **** 0.06
10263 H 128.28431685024114 141.73184376531825 109.7619904434195 H 0.0 **** 0.06
10264 H 126.61448649953512 141.62392456347183 109.15411048234728 H 0.0 **** 0.06
10265 H 126.94935253355436 142.45468537921258 110.69180131882518 H 0.0 **** 0.06
10266 C 92.57316136023037 34.26614181850917 64.70705241256557 C 0.0 **** -0.24
10267 H 92.682932231387 33.63777128928419 63.82359370284931 H 0.0 **** 0.06
10268 H 91.87380044807516 33.79898585411647 65.40055519547984 H 0.0 **** 0.06
10269 H 92.19346129706419 35.24454312845097 64.41032986025762 H 0.0 **** 0.06
10270 H 93.54245554432357 34.384988672866655 65.19089606610308 H 0.0 **** 0.06
10271 C 2.857608776818381 33.95894026116154 134.23854264440862 C 0.0 **** -0.24
10272 H 3.0909331212513393 32.96621377839695 134.62475036184395 H 0.0 **** 0.06
10273 H 1.9037128183809955 34.29324696085011 134.6486866195865 H 0.0 **** 0.06
10274 H 2.7924952053667766 33.919760016206176 133.1513344749621 H 0.0 **** 0.06
10275 H 3.6423068500061504 34.656050870508636 134.531344953127 H 0.0 **** 0.06
10276 C 109.82504951704925 27.7861905831397 9.323477941599862 C 0.0 **** -0.24
10277 H 110.50254607239867 27.018735225406715 8.950550150898096 H 0.0 **** 0.06
10278 H 110.40099964444681 28.64560467730955 9.663881054133142 H 0.0 **** 0.06
10279 H 109.24473797556266 27.384823419685716 10.154544373482949 H 0.0 **** 0.06
10280 H 109.14925405714479 28.09311307354372 8.524074018368623 H 0.0 **** 0.06
10281 C 58.870744014676944 47.42388696765832 103.48170210847753 C 0.0 **** -0.24
10282 H 57.84048274040384 47.77737644868304 103.44454884226802 H 0.0 **** 0.06
10283 H 59.45559168218128 48.07678280886424 104.13024257763142 H 0.0 **** 0.06
10284 H 59.29551990531388 47.432947386491094 102.47864489090327 H 0.0 **** 0.06
10285 H 58.89147786683603 46.40749051759252 103.87603430324076 H 0.0 **** 0.06
10286 C 135.9454098639743 89.02168291956124 57.47948003475523 C 0.0 **** -0.24
10287 H 136.62794833336048 88.17665292975197 57.5676561281108 H 0.0 **** 0.06
10288 H 135.22211846256477 88.82290986792255 56.68834204233859 H 0.0 **** 0.06
10289 H 136.51066221752012 89.92126660960491 57.23868054255465 H 0.0 **** 0.06
10290 H 135.42081625976968 89.16366463321447 58.42423355832668 H 0.0 **** 0.06
10291 C 146.4652138020109 126.8279705253955 138.13092901586344 C 0.0 **** -0.24
10292 H 146.20630540987818 127.87050091650141 137.9444716948779 H 0.0 **** 0.06
10293 H 147.2570712159913 126.77960794936587 138.87920464987008 H 0.0 **** 0.06
10294 H 146.81024858758678 126.36880068743488 137.20515447637825 H 0.0 **** 0.06
10295 H 145.5872159545737 126.29509620115721 138.4955853025662 H 0.0 **** 0.06
10296 C 10.665589123040036 125.50224936104803 2.0888264739326132 C 0.0 **** -0.24
10297 H 10.379263554303435 125.0255898567061 3.0263908041866614 H 0.0 **** 0.06
10298 H 10.89718725397745 124.73597121709987 1.3481884775150945 H 0.0 **** 0.06
10299 H 11.544165428552247 126.1267590518469 2.2534710567086904 H 0.0 **** 0.06
10300 H 9.842811728297505 126.11962811831836 1.7285789132708942 H 0.0 **** 0.06
10301 C 42.138676264439795 45.9673542685027 9.604400031297075 C 0.0 **** -0.24
10302 H 41.18135760074645 45.51109125522791 9.855044199287192 H 0.0 **** 0.06
10303 H 42.91578567915688 45.55945172643757 10.252258833075928 H 0.0 **** 0.06
10304 H 42.075243179256404 47.0460222710729 9.746291018394686 H 0.0 **** 0.06
10305 H 42.38234539488256 45.75045865709248 8.5645278663157 H 0.0 **** 0.06
10306 C 17.57086505449479 89.91740968473192 89.34291093204845 C 0.0 **** -0.24
10307 H 18.287732892848 90.72587168575129 89.4873830372575 H 0.0 **** 0.06
10308 H 17.871072409257096 89.05542566796669 89.93802819235106 H 0.0 **** 0.06
10309 H 17.542979816076098 89.6402484280319 88.28960637195888 H 0.0 **** 0.06
10310 H 16.58158199313587 90.24938670911872 89.65777401462873 H 0.0 **** 0.06
10311 C 125.59961567316819 102.70979641294261 30.864364432747976 C 0.0 **** -0.24
10312 H 124.62616935695038 103.1712582503991 30.7001459681604 H 0.0 **** 0.06
10313 H 126.38397220963245 103.38306287245122 30.518418505194546 H 0.0 **** 0.06
10314 H 125.65474530158374 101.77259846187043 30.3103380647878 H 0.0 **** 0.06
10315 H 125.73258498318646 102.51129550611742 31.928278935437532 H 0.0 **** 0.06
10316 C 25.37033740826891 27.351840612967948 82.8529577935779 C 0.0 **** -0.24
10317 H 26.07836741135685 26.80711234645758 83.47755775852212 H 0.0 **** 0.06
10318 H 24.354069395692136 27.04969841219758 83.10818894805466 H 0.0 **** 0.06
10319 H 25.56387432106169 27.127339227031662 81.80383240062986 H 0.0 **** 0.06
10320 H 25.48492473693267 28.422115804480306 83.02313776634415 H 0.0 **** 0.06
10321 C 6.946965100340911 21.892757900823227 100.48776392287714 C 0.0 **** -0.24
10322 H 6.355662011999293 22.775782485300056 100.73111088185617 H 0.0 **** 0.06
10323 H 7.6824320251418285 22.1476483036501 99.72419938835948 H 0.0 **** 0.06
10324 H 6.290277529966076 21.10795838905773 100.11290977936355 H 0.0 **** 0.06
10325 H 7.459381666790279 21.541839888116527 101.3832354609413 H 0.0 **** 0.06
10326 C 134.02998731005823 91.48515566519598 17.69905579443406 C 0.0 **** -0.24
10327 H 133.9855167837771 92.45042629242029 17.19297424376697 H 0.0 **** 0.06
10328 H 133.0673371087424 90.9821859225284 17.60690095786228 H 0.0 **** 0.06
10329 H 134.2618295611582 91.63834997339188 18.753763912392543 H 0.0 **** 0.06
10330 H 134.80643284861404 90.87179615730466 17.24230651024604 H 0.0 **** 0.06
10331 C 126.45045793575407 36.48891807012597 7.373487931405236 C 0.0 **** -0.24
10332 H 126.04608287919156 35.62881102246349 7.907927071174129 H 0.0 **** 0.06
10333 H 127.46097437640398 36.260708565673106 7.031942189408085 H 0.0 **** 0.06
10334 H 126.47686265331909 37.35002199108041 8.040367432380833 H 0.0 **** 0.06
10335 H 125.81802316150365 36.71284070257768 6.514119899686705 H 0.0 **** 0.06
10336 C 88.73549491896686 137.19181379385563 129.6164898696217 C 0.0 **** -0.24
10337 H 88.66697845124014 136.13520565910787 129.8742673070297 H 0.0 **** 0.06
10338 H 88.2126520407342 137.37205632058632 128.67687640508748 H 0.0 **** 0.06
10339 H 89.78322479434895 137.4717539555402 129.5092048290089 H 0.0 **** 0.06
10340 H 88.28030466729906 137.78870667807652 130.4067893074399 H 0.0 **** 0.06
10341 C 62.20754716184675 28.70246665868237 30.409583956275817 C 0.0 **** -0.24
10342 H 61.802572054058174 28.967087779194998 31.386587193349598 H 0.0 **** 0.06
10343 H 62.69465377881487 29.573956061841542 29.970809650937518 H 0.0 **** 0.06
10344 H 61.39886221107308 28.372061963842896 29.758626333128497 H 0.0 **** 0.06
10345 H 62.93452663462749 27.898525667395603 30.523957051977945 H 0.0 **** 0.06
10346 C 38.952988050764986 91.70033139159037 40.78878860456035 C 0.0 **** -0.24
10347 H 37.86933983844301 91.72743220505285 40.67644731687707 H 0.0 **** 0.06
10348 H 39.267768416741376 92.49777622010286 41.46153932505166 H 0.0 **** 0.06
10349 H 39.423338315124 91.83842624907888 39.815181945399274 H 0.0 **** 0.06
10350 H 39.250160234181294 90.7360639721132 41.20272286344964 H 0.0 **** 0.06
10351 C 32.60499278129603 24.837590099340275 107.29581085504395 C 0.0 **** -0.24
10352 H 33.36983557269113 24.6709563361361 106.53697741181463 H 0.0 **** 0.06
10353 H 32.9844509232841 25.52984332244185 108.04746135904804 H 0.0 **** 0.06
10354 H 32.35189372185903 23.8890837470814 107.76972335473408 H 0.0 **** 0.06
10355 H 31.715775290665903 25.25911489640754 106.82862616946716 H 0.0 **** 0.06
10356 C 125.79258675871938 8.544573858242245 121.60556307823 C 0.0 **** -0.24
10357 H 125.67735385497326 9.394374240825414 122.27892865434208 H 0.0 **** 0.06
10358 H 125.63602055585125 8.871410333012022 120.57703283215542 H 0.0 **** 0.06
10359 H 125.05867736585667 7.778927178556046 121.85977696145406 H 0.0 **** 0.06
10360 H 126.79701293874021 8.133954746010318 121.70830778532851 H 0.0 **** 0.06
10361 C 47.710902201010455 79.47495205625283 27.68424839706593 C 0.0 **** -0.24
10362 H 46.83454952941854 79.28660646961765 28.304468857957715 H 0.0 **** 0.06
10363 H 47.46371052323727 79.29054563604518 26.63863994193315 H 0.0 **** 0.06
10364 H 48.521045533097876 78.81246500292593 27.989535443985517 H 0.0 **** 0.06
10365 H 48.025317823027706 80.51183386784828 27.805477230897424 H 0.0 **** 0.06
10366 C 58.55729776751181 72.20638146508605 107.17503157865131 C 0.0 **** -0.24
10367 H 59.33687124903045 71.49000117320963 106.91541848863478 H 0.0 **** 0.06
10368 H 57.802795480330445 71.71378375532117 107.78983019981344 H 0.0 **** 0.06
10369 H 58.09422664145194 72.58356938683141 106.26385056170274 H 0.0 **** 0.06
10370 H 58.99564345970029 73.0352260013816 107.73057479019742 H 0.0 **** 0.06
10371 C 49.61729799328805 25.172485682643938 9.885872410909457 C 0.0 **** -0.24
10372 H 49.730000202753814 25.867656190881 10.71842132641899 H 0.0 **** 0.06
10373 H 48.5583711330722 25.05635759113921 9.651397003772786 H 0.0 **** 0.06
10374 H 50.03792676556489 24.206107215133926 10.16072057497641 H 0.0 **** 0.06
10375 H 50.14146851431596 25.56363000655842 9.013633405356217 H 0.0 **** 0.06
10376 C 15.862377266476408 29.61278573026354 122.24178029084597 C 0.0 **** -0.24
10377 H 15.432816078514612 28.71728670909917 122.69213039334467 H 0.0 **** 0.06
10378 H 15.188983088647014 29.990567470891847 121.47184084275624 H 0.0 **** 0.06
10379 H 16.826193614340433 29.366898688365524 121.79495243936044 H 0.0 **** 0.06
10380 H 16.00150318022836 30.373956145868675 123.00963839688337 H 0.0 **** 0.06
10381 C 126.11790355375763 5.217041711095618 30.008183397285563 C 0.0 **** -0.24
10382 H 125.81785275537126 5.7991852211197 30.88049813403012 H 0.0 **** 0.06
10383 H 125.80113628142516 5.733582635771484 29.101472034635435 H 0.0 **** 0.06
10384 H 125.64912386420147 4.233919132767966 30.04854520370054 H 0.0 **** 0.06
10385 H 127.20109358604516 5.103718115145142 30.002658033589512 H 0.0 **** 0.06
10386 C 142.1182966136214 103.62672055670602 29.204071100121382 C 0.0 **** -0.24
10387 H 142.41639760822542 104.54470718124828 28.69748464037152 H 0.0 **** 0.06
10388 H 141.81229637097275 102.88613415855868 28.46372780184756 H 0.0 **** 0.06
10389 H 141.28505450348422 103.83603962167543 29.87512594907465 H 0.0 **** 0.06
10390 H 142.96034344211816 103.2403310649894 29.77891091069307 H 0.0 **** 0.06
10391 C 101.00985550115551 12.454387326872506 111.65308603643336 C 0.0 **** -0.24
10392 H 100.140872930043 12.125242416414238 112.22336879454542 H 0.0 **** 0.06
10393 H 101.34000787107823 13.425359746132045 112.02322314955495 H 0.0 **** 0.06
10394 H 100.74170221081414 12.538005182551615 110.59959879214477 H 0.0 **** 0.06
10395 H 101.81473161746787 11.728324591334115 111.76657531666575 H 0.0 **** 0.06
10396 C 119.21463774757179 107.90604823517026 92.93670726144074 C 0.0 **** -0.24
10397 H 119.4941440958698 108.8289222108184 92.42906931114732 H 0.0 **** 0.06
10398 H 119.39443522205043 108.0120764662069 94.00702656170512 H 0.0 **** 0.06
10399 H 119.81220309202244 107.08205607908582 92.547403971846 H 0.0 **** 0.06
10400 H 118.15824620714882 107.70200406547701 92.76347806170833 H 0.0 **** 0.06
10401 C 119.47040040597464 18.361515551004402 137.43763559840065 C 0.0 **** -0.24
10402 H 119.52460888618974 19.287168405572118 136.86457912692322 H 0.0 **** 0.06
10403 H 118.77461128374766 18.488948699443824 138.26742581492869 H 0.0 **** 0.06
10404 H 120.45914896190824 18.117337616787296 137.82679101044275 H 0.0 **** 0.06
10405 H 119.12419237613467 17.555191920031575 136.7923785777831 H 0.0 **** 0.06
10406 C 125.54669906999015 144.9136119981563 10.29036189544314 C 0.0 **** -0.24
10407 H 125.9160421688972 143.99220349733238 10.742749566947907 H 0.0 **** 0.06
10408 H 124.66490915091373 144.69361755899902 9.688921579501965 H 0.0 **** 0.06
10409 H 126.32239380208787 145.34271968606973 9.656424403107735 H 0.0 **** 0.06
10410 H 125.28459543489026 145.62279817233681 11.075091221002111 H 0.0 **** 0.06
10411 C 3.391796915895611 1.9223282000497761 76.3384117421643 C 0.0 **** -0.24
10412 H 3.771811713089562 1.2235232501000155 75.5935997813894 H 0.0 **** 0.06
10413 H 3.46094447614945 1.471742223944375 77.32942205639677 H 0.0 **** 0.06
10414 H 2.3501803794699185 2.1568295467021983 76.11853086415886 H 0.0 **** 0.06
10415 H 3.983782730639234 2.837757310678171 76.31331476423439 H 0.0 **** 0.06
10416 C 143.9756095628208 54.586906762702824 1.558489836900435 C 0.0 **** -0.24
10417 H 143.53668398692025 54.532648729746825 2.5549831417083624 H 0.0 **** 0.06
10418 H 144.97611274216618 54.15578798495278 1.5790432219669128 H 0.0 **** 0.06
10419 H 144.0348946731135 55.62877820102102 1.2440352969088622 H 0.0 **** 0.06
10420 H 143.3533220046111 54.02973968056716 0.8574844466549223 H 0.0 **** 0.06
10421 C 129.27256773373728 59.86643993260789 70.64490676845327 C 0.0 **** -0.24
10422 H 128.56018673545563 60.67125502965058 70.46280935916212 H 0.0 **** 0.06
10423 H 129.17921597371708 59.52489312564809 71.67611030555435 H 0.0 **** 0.06
10424 H 130.2849305504949 60.232482232141265 70.47325580224691 H 0.0 **** 0.06
10425 H 129.06498163096387 59.03817143923786 69.96746098115761 H 0.0 **** 0.06
10426 C 41.034308830761475 118.69628017088843 103.07409296039309 C 0.0 **** -0.24
10427 H 42.112568412738995 118.85270236306218 103.1017669034975 H 0.0 **** 0.06
10428 H 40.60112099567728 118.98028009649391 104.03241481328537 H 0.0 **** 0.06
10429 H 40.825769942531196 117.64476552749284 102.8770422898033 H 0.0 **** 0.06
10430 H 40.59911083550206 119.30720240868652 102.28310104204213 H 0.0 **** 0.06
10431 C 43.030058344852335 66.60797521221266 141.7986399990511 C 0.0 **** -0.24
10432 H 42.233404229288766 66.29955349821554 142.47514774187536 H 0.0 **** 0.06
10433 H 42.72508241104077 67.5079970730817 141.26392246119576 H 0.0 **** 0.06
10434 H 43.2290053084856 65.80986907038786 141.08401132313406 H 0.0 **** 0.06
10435 H 43.93431036898167 66.81503137693527 142.37196411942276 H 0.0 **** 0.06
10436 C 107.82867153578805 60.23625116701321 36.8372403937079 C 0.0 **** -0.24
10437 H 108.5420486079854 60.74273535437099 36.18664034231213 H 0.0 **** 0.06
10438 H 107.6709006004484 59.2185496194478 36.47959756784492 H 0.0 **** 0.06
10439 H 106.88241754447334 60.77694317541069 36.82759622601904 H 0.0 **** 0.06
10440 H 108.22095354712887 60.20786582953093 37.85405827240825 H 0.0 **** 0.06
10441 C 104.60920275627142 56.739676882125224 4.807950012968831 C 0.0 **** -0.24
10442 H 104.91356551393086 55.69350473957044 4.804261129193037 H 0.0 **** 0.06
10443 H 104.33984453158705 57.03612007085334 5.82188003047483 H 0.0 **** 0.06
10444 H 103.74933066427009 56.870247265769024 4.15120666069447 H 0.0 **** 0.06
10445 H 105.43314062142433 57.35920081642402 4.454405168095207 H 0.0 **** 0.06
10446 C 58.594809216312996 99.3512192707864 86.28444485288233 C 0.0 **** -0.24
10447 H 59.4844520628684 99.802964451973 86.72278075712535 H 0.0 **** 0.06
10448 H 58.86069114546844 98.85825170180951 85.34959393265243 H 0.0 **** 0.06
10449 H 57.85228322094417 100.12437367034434 86.0903189747132 H 0.0 **** 0.06
10450 H 58.18250544700388 98.61713723585626 86.97771154201754 H 0.0 **** 0.06
10451 C 92.58252960371905 129.39952419295733 21.310050658080996 C 0.0 **** -0.24
10452 H 93.57860624203371 128.99168336080254 21.480208368103455 H 0.0 **** 0.06
10453 H 92.64524567728861 130.4836205558155 21.21631566179957 H 0.0 **** 0.06
10454 H 91.9373431562415 129.1429547331056 22.149555273038224 H 0.0 **** 0.06
10455 H 92.17071565450041 128.97886218644155 20.392164899232824 H 0.0 **** 0.06
10456 C 90.85509036509777 45.295670327233225 74.89520493202892 C 0.0 **** -0.24
10457 H 91.64803771959288 45.196627502115206 74.15503101033093 H 0.0 **** 0.06
10458 H 91.0076641900468 44.56642998238485 75.69135771971966 H 0.0 **** 0.06
10459 H 89.88976331227346 45.11808342407153 74.41945277354733 H 0.0 **** 0.06
10460 H 90.87290896515462 46.30155928742646 75.31520302314169 H 0.0 **** 0.06
10461 C 7.049737199024719 66.65566009428684 33.13859498241402 C 0.0 **** -0.24
10462 H 8.129200786491936 66.74794061116276 33.0198720104155 H 0.0 **** 0.06
10463 H 6.832035780873525 65.92948862822638 33.923541909952405 H 0.0 **** 0.06
10464 H 6.608252482105399 66.32096896776494 32.20074237171593 H 0.0 **** 0.06
10465 H 6.63102915776949 67.6238422352802 33.41401542120332 H 0.0 **** 0.06
10466 C 23.667925266465367 82.46660290816274 99.22520628755387 C 0.0 **** -0.24
10467 H 23.30643176820206 81.76446072942431 99.9763962038214 H 0.0 **** 0.06
10468 H 22.911140110172234 82.59153721533949 98.45056628040959 H 0.0 **** 0.06
10469 H 24.58516911235089 82.0823895395892 98.77905912050628 H 0.0 **** 0.06
10470 H 23.868449812471077 83.42985172241637 99.69598667178468 H 0.0 **** 0.06
10471 C 139.6190099500746 43.01897020832172 143.12810001821592 C 0.0 **** -0.24
10472 H 139.38864200552695 43.3002516813238 144.15544991465254 H 0.0 **** 0.06
10473 H 140.60655335383873 43.394640859359015 142.86142034360233 H 0.0 **** 0.06
10474 H 138.87320229076437 43.44949655041165 142.45890084337233 H 0.0 **** 0.06
10475 H 139.60546284807103 41.93354845840048 143.0367735057067 H 0.0 **** 0.06
10476 C 36.87912964531478 124.0821776343086 130.07636215326065 C 0.0 **** -0.24
10477 H 37.40306552425997 123.28564346698978 129.54790212262967 H 0.0 **** 0.06
10478 H 37.26482144856118 125.04870736406299 129.75069571221482 H 0.0 **** 0.06
10479 H 37.03707008892772 123.9703127196732 131.14919324558602 H 0.0 **** 0.06
10480 H 35.8127355060208 124.02217031811149 129.85734121883897 H 0.0 **** 0.06
10481 C 8.608784783306334 113.83931316585037 6.714069444071033 C 0.0 **** -0.24
10482 H 8.331129426015622 112.9403661135556 7.263722202331643 H 0.0 **** 0.06
10483 H 8.881957100068973 113.57125528901256 5.692896399706925 H 0.0 **** 0.06
10484 H 9.45740340206001 114.3163065332433 7.2045551793895655 H 0.0 **** 0.06
10485 H 7.7651671584737585 114.52888283141968 6.69583644871636 H 0.0 **** 0.06
10486 C 24.392913518442867 89.4735670506771 13.112999380474271 C 0.0 **** -0.24
10487 H 24.047166561408346 90.44977451636015 12.775728803048231 H 0.0 **** 0.06
10488 H 24.736683135627516 89.54657649938059 14.145139671670243 H 0.0 **** 0.06
10489 H 25.214386185761896 89.14047692120965 12.478754078034171 H 0.0 **** 0.06
10490 H 23.5735459605267 88.756466398984 13.053392481625266 H 0.0 **** 0.06
10491 C 17.832289350506784 79.5652081549629 79.56650324449657 C 0.0 **** -0.24
10492 H 16.90281610960966 79.75633923801402 80.10189641820847 H 0.0 **** 0.06
10493 H 18.441023869623024 80.46999203166794 79.56094029773544 H 0.0 **** 0.06
10494 H 17.60725208974617 79.27269391067452 78.53959612671548 H 0.0 **** 0.06
10495 H 18.378222682238146 78.76141484314465 80.0611673922943 H 0.0 **** 0.06
10496 C 128.07634790314543 95.89424497666005 54.95475642820557 C 0.0 **** -0.24
10497 H 129.15365393653923 95.91654256469337 55.12188525625149 H 0.0 **** 0.06
10498 H 127.87459638860769 95.94157631614593 53.88423665462162 H 0.0 **** 0.06
10499 H 127.61565298194873 96.74857969705181 55.44981988509258 H 0.0 **** 0.06
10500 H 127.66428880659646 94.97130974715012 55.36276788121353 H 0.0 **** 0.06
10501 C 43.7182728417756 116.48821753872609 3.2593633232942736 C 0.0 **** -0.24
10502 H 43.649435300374876 117.39088793327097 3.865850758396512 H 0.0 **** 0.06
10503 H 43.95842224616145 116.75969826687309 2.2301733247409707 H 0.0 **** 0.06
10504 H 42.76520989999766 115.96054015604993 3.283716260282876 H 0.0 **** 0.06
10505 H 44.50125692544323 115.84185612035346 3.6570294616237398 H 0.0 **** 0.06
10506 C 64.07295977165242 108.74277812429462 68.36469204896792 C 0.0 **** -0.24
10507 H 65.090362408245 109.12167793268357 68.27986745239201 H 0.0 **** 0.06
10508 H 63.38684405645128 109.57557464222073 68.51879807410516 H 0.0 **** 0.06
10509 H 64.00930530674961 108.05875802358757 69.21127643006082 H 0.0 **** 0.06
10510 H 63.80422524467184 108.21363647599186 67.45010614554418 H 0.0 **** 0.06
10511 C 121.16280294270315 126.3228790171813 142.5053239066977 C 0.0 **** -0.24
10512 H 121.45229843266573 125.28481623972883 142.3436715219483 H 0.0 **** 0.06
10513 H 121.03314087558657 126.81736944135596 141.54338191268278 H 0.0 **** 0.06
10514 H 121.94014292961175 126.83187597125479 143.07460161040308 H 0.0 **** 0.06
10515 H 120.22484314723495 126.35499836495606 143.06080234838092 H 0.0 **** 0.06
10516 C 5.762045919202222 83.69563481143385 116.67559536539173 C 0.0 **** -0.24
10517 H 5.834801833311417 82.66985017174008 116.3117313793887 H 0.0 **** 0.06
10518 H 6.487564526339014 84.31856266106823 116.15253024011199 H 0.0 **** 0.06
10519 H 5.968153066671363 83.71625356339399 117.74496907677971 H 0.0 **** 0.06
10520 H 4.756280172662258 84.07502028947246 116.49143387697225 H 0.0 **** 0.06
10521 C 61.545904321470346 54.428118454487674 1.3539544826521706 C 0.0 **** -0.24
10522 H 62.32116703177002 55.19474986718026 1.3660176509105781 H 0.0 **** 0.06
10523 H 60.67855041392312 54.7978430485671 0.8055226559341122 H 0.0 **** 0.06
10524 H 61.25454410160671 54.19128993888131 2.3771875723489586 H 0.0 **** 0.06
10525 H 61.92868372403774 53.531551129229115 0.8679767194822432 H 0.0 **** 0.06
10526 C 77.36917009608104 62.88499281267892 39.63888169314862 C 0.0 **** -0.24
10527 H 76.4259574771673 62.913605796989685 40.18424737657364 H 0.0 **** 0.06
10528 H 78.16152328807028 62.53883935553944 40.302773022919666 H 0.0 **** 0.06
10529 H 77.60889855515573 63.88357515392397 39.27533663440181 H 0.0 **** 0.06
10530 H 77.2790402906513 62.202081005721084 38.79412577227134 H 0.0 **** 0.06
10531 C 20.880800058918283 86.89790343431878 78.82256772679307 C 0.0 **** -0.24
10532 H 20.09612521252987 87.28271040244712 79.47330072504589 H 0.0 **** 0.06
10533 H 21.820195194500798 87.40359293288927 79.04789731939621 H 0.0 **** 0.06
10534 H 20.6111507680765 87.07987649494169 77.78215792519839 H 0.0 **** 0.06
10535 H 20.995902976934048 85.82715597907335 78.98698074530684 H 0.0 **** 0.06
10536 C 35.213843264815154 129.4539795484661 16.824962674477064 C 0.0 **** -0.24
10537 H 35.630766131257616 129.3392532581984 15.824515935601568 H 0.0 **** 0.06
10538 H 34.99853566246304 130.50624009693385 17.00977297134901 H 0.0 **** 0.06
10539 H 35.933458181586474 129.09530497263208 17.561264530605712 H 0.0 **** 0.06
10540 H 34.294133195532794 128.87454028197405 16.90370274136265 H 0.0 **** 0.06
10541 C 135.76128353695785 23.543538523089055 120.08020887188295 C 0.0 **** -0.24
10542 H 134.81120116671315 23.80779695685745 119.61736829168606 H 0.0 **** 0.06
10543 H 136.54113413132558 23.515629379125613 119.31863770359669 H 0.0 **** 0.06
10544 H 135.6772526132293 22.56326406223885 120.54958002192788 H 0.0 **** 0.06
10545 H 136.01680497303232 24.28706801187292 120.8357584803907 H 0.0 **** 0.06
10546 C 77.00885274103996 81.4452445803291 44.40605074627791 C 0.0 **** -0.24
10547 H 77.06102166945713 82.35145424232216 43.80340582669788 H 0.0 **** 0.06
10548 H 77.24919501710579 80.58145101041907 43.78562043632246 H 0.0 **** 0.06
10549 H 76.0026978495496 81.33444927555281 44.809895028426496 H 0.0 **** 0.06
10550 H 77.72432817457232 81.51260612575841 45.22606223258853 H 0.0 **** 0.06
10551 C 121.64564296015297 73.73750058302295 44.31207158960869 C 0.0 **** -0.24
10552 H 121.17053119591131 73.57676544061155 43.34434047612993 H 0.0 **** 0.06
10553 H 121.97221563370144 74.77484793574155 44.38821131824305 H 0.0 **** 0.06
10554 H 122.5063683433763 73.07635138151585 44.408518472346756 H 0.0 **** 0.06
10555 H 120.93128041308623 73.52184968189243 45.106737765814486 H 0.0 **** 0.06
10556 C 64.55011113287719 64.73090723536473 74.56750330176226 C 0.0 **** -0.24
10557 H 64.31364359457217 64.28751985698591 75.53522188283 H 0.0 **** 0.06
10558 H 64.57118005511774 65.8166190287551 74.66145266915129 H 0.0 **** 0.06
10559 H 63.79076878818188 64.44267662581206 73.84127553741877 H 0.0 **** 0.06
10560 H 65.52559590735865 64.376066074307 74.23427409488994 H 0.0 **** 0.06
10561 C 137.87599900300086 134.57291851419797 67.42847214495706 C 0.0 **** -0.24
10562 H 137.48086269355787 135.3323387185743 66.75420460802133 H 0.0 **** 0.06
10563 H 137.5958369952959 134.81645735218171 68.45423558586384 H 0.0 **** 0.06
10564 H 138.96212816449045 134.5426395726068 67.3455258314186 H 0.0 **** 0.06
10565 H 137.4645832703046 133.59960439473434 67.16104326818495 H 0.0 **** 0.06
10566 C 17.23441790832051 31.05481854067537 72.4871879138837 C 0.0 **** -0.24
10567 H 17.100178903183334 31.23560679197311 73.5529420713089 H 0.0 **** 0.06
10568 H 17.08862254815883 31.985620926705565 71.93904549163827 H 0.0 **** 0.06
10569 H 16.506818373616795 30.316190067172116 72.14927754485177 H 0.0 **** 0.06
10570 H 18.242593509479427 30.680232691741708 72.30523477080905 H 0.0 **** 0.06
10571 C 89.80180672676636 101.13911500455824 51.54289800974233 C 0.0 **** -0.24
10572 H 90.09758709504841 101.12885465200378 50.49435561983397 H 0.0 **** 0.06
10573 H 89.98227793446362 102.12912346626838 51.96138798848261 H 0.0 **** 0.06
10574 H 90.38564301657973 100.40033966561408 52.09270497556368 H 0.0 **** 0.06
10575 H 88.74171886097352 100.89814223434662 51.62314345508892 H 0.0 **** 0.06
10576 C 55.28019172821999 12.517773920786937 67.07286780673803 C 0.0 **** -0.24
10577 H 54.30899699685975 13.00658699359954 66.99135656271118 H 0.0 **** 0.06
10578 H 55.70341039513548 12.710886777499496 68.05853400908906 H 0.0 **** 0.06
10579 H 55.94854361720513 12.910540565457467 66.30636104662969 H 0.0 **** 0.06
10580 H 55.15869145374191 11.443376440432843 66.93306351215007 H 0.0 **** 0.06
10581 C 148.19201132678364 110.67553990067115 31.442289860041996 C 0.0 **** -0.24
10582 H 148.68758583160545 110.79961837555292 32.40493253005167 H 0.0 **** 0.06
10583 H 148.0950686774047 109.61304464938202 31.217339917891934 H 0.0 **** 0.06
10584 H 148.7837568925891 111.15890948935696 30.664984574788903 H 0.0 **** 0.06
10585 H 147.20263296125785 111.13062873724071 31.48188864654591 H 0.0 **** 0.06
10586 C 139.87418116058132 58.27227585355004 114.45185414318034 C 0.0 **** -0.24
10587 H 140.82075984743565 58.1880580904739 114.98677907586993 H 0.0 **** 0.06
10588 H 139.05569768364631 58.32778811139664 115.1699430589076 H 0.0 **** 0.06
10589 H 139.73962910270632 57.399153003026555 113.81327703748359 H 0.0 **** 0.06
10590 H 139.88297239422477 59.172786571562455 113.83909514902608 H 0.0 **** 0.06
10591 C 74.20752806003881 39.15953670383357 91.05134597573446 C 0.0 **** -0.24
10592 H 73.20602326608633 38.72740659989546 91.05666254632713 H 0.0 **** 0.06
10593 H 74.74637436559254 38.81765405938222 90.16804343601078 H 0.0 **** 0.06
10594 H 74.74222446615389 38.84720638190561 91.94876562838945 H 0.0 **** 0.06
10595 H 74.13289754948417 40.247469646873014 91.03277897156872 H 0.0 **** 0.06
10596 C 103.81910630445616 106.82877894887538 125.22107422148417 C 0.0 **** -0.24
10597 H 102.87472736407965 107.31061842539292 124.9683518209351 H 0.0 **** 0.06
10598 H 104.55568527428078 107.58866326884593 125.48511926188955 H 0.0 **** 0.06
10599 H 104.17627023144796 106.25882544861919 124.36248498623671 H 0.0 **** 0.06
10600 H 103.67052293509822 106.15742860337802 126.06628789013723 H 0.0 **** 0.06
10601 C 99.4116121342418 51.28538290850415 128.60846008225525 C 0.0 **** -0.24
10602 H 99.07985897034621 51.70876726493715 127.6597988932688 H 0.0 **** 0.06
10603 H 100.49855503582918 51.355336892041635 128.6764318197709 H 0.0 **** 0.06
10604 H 99.110194835762 50.23935386631308 128.66362653642304 H 0.0 **** 0.06
10605 H 98.9596587463974 51.838893416017584 129.43115122316863 H 0.0 **** 0.06
10606 C 143.2841952781078 0.6083660708563627 94.43555657465436 C 0.0 **** -0.24
10607 H 143.915207819164 1.4648176259242511 94.67391849523977 H 0.0 **** 0.06
10608 H 142.25553956250926 0.8237343678127012 94.72506030070582 H 0.0 **** 0.06
10609 H 143.6394864286773 -0.26686485115264347 94.9799356096438 H 0.0 **** 0.06
10610 H 143.32710682324822 0.411960816837464 93.36412012306477 H 0.0 **** 0.06
10611 C 47.962261007830605 123.56890217390121 38.235006787415344 C 0.0 **** -0.24
10612 H 46.94683914218135 123.50196363369405 38.6262128311611 H 0.0 **** 0.06
10613 H 47.96118705467072 123.30354946768766 37.17778057084013 H 0.0 **** 0.06
10614 H 48.608756459890245 122.88356592567787 38.78267395090222 H 0.0 **** 0.06
10615 H 48.33011244989399 124.58769362591342 38.35352576525705 H 0.0 **** 0.06
10616 C 128.04795251286697 86.94136084269545 111.22634570025362 C 0.0 **** -0.24
10617 H 128.9843731149718 87.4982807095731 111.20466206665968 H 0.0 **** 0.06
10618 H 127.338636385445 87.44998515221705 111.88058150704431 H 0.0 **** 0.06
10619 H 128.23191099205536 85.9354597727157 111.6029300556795 H 0.0 **** 0.06
10620 H 127.63598065609739 86.88278725349276 110.21921671940105 H 0.0 **** 0.06
10621 C 108.63402220136369 104.55330336685039 51.65944124200308 C 0.0 **** -0.24
10622 H 107.60448626855073 104.52873751560934 51.3006532702675 H 0.0 **** 0.06
10623 H 109.25219717851947 103.91274633170123 51.02953417938369 H 0.0 **** 0.06
10624 H 108.6690009179968 104.19621150252335 52.68816002435983 H 0.0 **** 0.06
10625 H 109.00828941033366 105.57642990683901 51.61646862971071 H 0.0 **** 0.06
10626 C 65.44572966742652 1.0274841736786016 66.14241542243873 C 0.0 **** -0.24
10627 H 64.4849029371731 1.3830191994113363 66.51661373757437 H 0.0 **** 0.06
10628 H 65.96772416694728 1.8464899503537993 65.64677059639692 H 0.0 **** 0.06
10629 H 65.2817514818613 0.2179806069249821 65.43126240992109 H 0.0 **** 0.06
10630 H 66.0476879076345 0.6635136403076842 66.97538374845456 H 0.0 **** 0.06
10631 C 20.095434156549942 95.49775476413114 131.38758065306968 C 0.0 **** -0.24
10632 H 20.41492332100782 95.94355388977124 130.44596540618517 H 0.0 **** 0.06
10633 H 20.964344011333083 95.3340309124608 132.02529741043332 H 0.0 **** 0.06
10634 H 19.604384169003026 94.54467592386672 131.19070474534163 H 0.0 **** 0.06
10635 H 19.398298059366283 96.16955376579938 131.8895048392828 H 0.0 **** 0.06
10636 C 56.09624854883519 92.51130688830817 20.266800087602633 C 0.0 **** -0.24
10637 H 55.973775975071504 91.83912207098598 19.417222226267825 H 0.0 **** 0.06
10638 H 57.10622086487018 92.41242540520163 20.663798616822675 H 0.0 **** 0.06
10639 H 55.37401247746119 92.25218770162489 21.041004059485147 H 0.0 **** 0.06
10640 H 55.93093937781785 93.53841831951488 19.943931055357837 H 0.0 **** 0.06
10641 C 68.04323039563316 30.78877116581606 135.39098350444775 C 0.0 **** -0.24
10642 H 68.82180760737835 30.73488861971424 134.63019531297076 H 0.0 **** 0.06
10643 H 67.65923614703767 29.788158737623917 135.58979163534102 H 0.0 **** 0.06
10644 H 67.23366480901075 31.42606411183567 135.03642643656843 H 0.0 **** 0.06
10645 H 68.45949782992571 31.206510497602892 136.30776688338045 H 0.0 **** 0.06
10646 C 79.57816005252766 8.488241091035832 114.3446063606352 C 0.0 **** -0.24
10647 H 80.40104564099431 7.779804157586888 114.2504050028476 H 0.0 **** 0.06
10648 H 79.25652832086803 8.804603456020054 113.35298126960859 H 0.0 **** 0.06
10649 H 79.91028430653137 9.356190951925136 114.91398232842428 H 0.0 **** 0.06
10650 H 78.74639054678562 8.011260324682617 114.86214794208146 H 0.0 **** 0.06
10651 C 111.43854816834195 99.63052452432046 125.73897954272533 C 0.0 **** -0.24
10652 H 110.93383482247222 99.37945141855735 126.67165912421379 H 0.0 **** 0.06
10653 H 110.83502758345449 99.29140119566844 124.89703432142133 H 0.0 **** 0.06
10654 H 112.41203662506311 99.14180389565084 125.71048695579029 H 0.0 **** 0.06
10655 H 111.57220986493897 100.71129397598898 125.67883405485807 H 0.0 **** 0.06
10656 C 56.78846630078573 114.69426345046506 7.520630151046191 C 0.0 **** -0.24
10657 H 56.634487316415544 114.85327827339088 8.588324523878839 H 0.0 **** 0.06
10658 H 56.30610826133844 113.76436003271172 7.219036304742247 H 0.0 **** 0.06
10659 H 57.857134472286575 114.63295615793359 7.3128363320211065 H 0.0 **** 0.06
10660 H 56.35721403835139 115.5249993913383 6.963162913185499 H 0.0 **** 0.06
10661 C 88.22538816333996 120.57362927047558 100.40386500275909 C 0.0 **** -0.24
10662 H 87.5249545771008 121.05144024616754 99.71966261478498 H 0.0 **** 0.06
10663 H 87.67474744946021 119.95845095711417 101.1163395450368 H 0.0 **** 0.06
10664 H 88.78622360664865 121.33856556970164 100.9415355070413 H 0.0 **** 0.06
10665 H 88.91563211671756 119.9466338522248 99.83874152590035 H 0.0 **** 0.06
10666 C 107.16643016470486 16.84699578756465 97.43531471095419 C 0.0 **** -0.24
10667 H 108.02559441247921 17.4513439292229 97.72529674535915 H 0.0 **** 0.06
10668 H 106.35729141416253 17.50058453601116 97.1062648831429 H 0.0 **** 0.06
10669 H 106.83249774361447 16.256377120019067 98.28846957115489 H 0.0 **** 0.06
10670 H 107.44945096915346 16.18114037079812 96.61978709752458 H 0.0 **** 0.06
10671 C 20.045777026459575 129.36676542620768 115.7390029137451 C 0.0 **** -0.24
10672 H 20.40122428543384 128.86036692775988 116.63698639306305 H 0.0 **** 0.06
10673 H 19.521967321826253 128.65404357979733 115.10277621577596 H 0.0 **** 0.06
10674 H 20.894382298012772 129.78351217603202 115.19694506978 H 0.0 **** 0.06
10675 H 19.366315914807387 130.17099558957926 116.02152712868569 H 0.0 **** 0.06
10676 C 76.32920097463557 53.42589883553967 5.950108617278886 C 0.0 **** -0.24
10677 H 77.22916664911885 52.811383451215505 5.927019424991528 H 0.0 **** 0.06
10678 H 76.3987285479187 54.19913521540346 5.184305809351031 H 0.0 **** 0.06
10679 H 76.23314449200836 53.8926728705126 6.929360148076654 H 0.0 **** 0.06
10680 H 75.45755505928734 52.80146408308937 5.757588300528738 H 0.0 **** 0.06
10681 C 88.56579911976885 51.82758455554557 145.11035040025695 C 0.0 **** -0.24
10682 H 87.97607563024465 50.963299435993775 144.80288501122055 H 0.0 **** 0.06
10683 H 88.56576215340456 52.569792288758904 144.31167575629257 H 0.0 **** 0.06
10684 H 89.58989333510118 51.51474568232857 145.31570713148366 H 0.0 **** 0.06
10685 H 88.1306630502074 52.262302004051165 146.01057084393 H 0.0 **** 0.06
10686 C 6.179871121130159 81.44696357944777 49.93993098549669 C 0.0 **** -0.24
10687 H 5.16718146950004 81.8370002629872 49.8334764338249 H 0.0 **** 0.06
10688 H 6.705094494329401 82.00588562945926 50.71313727149743 H 0.0 **** 0.06
10689 H 6.709959217707766 81.54998644926148 48.99278928376634 H 0.0 **** 0.06
10690 H 6.13493239973759 80.39361294355136 50.217721294903924 H 0.0 **** 0.06
10691 C 93.535097236544 75.31348483628656 93.68646932568483 C 0.0 **** -0.24
10692 H 93.75331802888864 76.38198654916465 93.67122754158879 H 0.0 **** 0.06
10693 H 93.41538282592067 74.98234505501765 94.71783704588745 H 0.0 **** 0.06
10694 H 94.35646668545549 74.76868735450492 93.2218475574762 H 0.0 **** 0.06
10695 H 92.61474724060027 75.12309247584668 93.13393685114295 H 0.0 **** 0.06
10696 C 30.657710695824164 64.0684933031493 66.73095124512668 C 0.0 **** -0.24
10697 H 30.994156494358663 64.43749008224164 65.76152557837713 H 0.0 **** 0.06
10698 H 31.52337175690684 63.85663540654113 67.3580809145254 H 0.0 **** 0.06
10699 H 30.078728840362146 63.15540859644871 66.5907591225027 H 0.0 **** 0.06
10700 H 30.035794287166652 64.823381303859 67.21071527399477 H 0.0 **** 0.06
10701 C 103.21322815477157 135.09750372241766 54.60356315865391 C 0.0 **** -0.24
10702 H 102.42319434633504 135.1472215994033 53.8553070930364 H 0.0 **** 0.06
10703 H 102.78686771981745 134.8053403568205 55.563847946853144 H 0.0 **** 0.06
10704 H 103.68570194056127 136.07523335243124 54.69834067961912 H 0.0 **** 0.06
10705 H 103.95791946973605 134.36240053317655 54.29736771117868 H 0.0 **** 0.06
10706 C 121.79518997220651 67.01634742710712 116.89983847260764 C 0.0 **** -0.24
10707 H 121.27963794905963 66.29187528774366 116.26866040842715 H 0.0 **** 0.06
10708 H 121.45270854607918 68.02152915062021 116.65383712555355 H 0.0 **** 0.06
10709 H 122.86983066228498 66.94556080813601 116.72865095988747 H 0.0 **** 0.06
10710 H 121.57911399989206 66.803725523055 117.94664531683499 H 0.0 **** 0.06
10711 C 33.78039470246719 146.16744218504917 119.40218855547361 C 0.0 **** -0.24
10712 H 34.44876515789301 145.45256260456034 118.92233795299573 H 0.0 **** 0.06
10713 H 32.830654649463725 146.19211436232635 118.86614595740902 H 0.0 **** 0.06
10714 H 34.234568299981504 147.15743715308344 119.3817498194298 H 0.0 **** 0.06
10715 H 33.60849637510776 145.8670167262825 120.43454890916279 H 0.0 **** 0.06
10716 C 32.19493235702435 40.13273468772525 118.26820688563005 C 0.0 **** -0.24
10717 H 32.81791345737176 40.52776535700603 117.46484653352435 H 0.0 **** 0.06
10718 H 31.711945541055982 40.95738297354502 118.79170320573165 H 0.0 **** 0.06
10719 H 32.816600834534796 39.57166049625103 118.9660016568594 H 0.0 **** 0.06
10720 H 31.434952098491806 39.47378006881472 117.84695239910043 H 0.0 **** 0.06
10721 C 88.78155501192276 84.75520603300784 108.18199265177996 C 0.0 **** -0.24
10722 H 88.16246259180022 85.13679864793482 107.36993591521606 H 0.0 **** 0.06
10723 H 89.52360909219925 84.0654218519056 107.78007972007173 H 0.0 **** 0.06
10724 H 88.15289699629314 84.23390126648553 108.9036316958573 H 0.0 **** 0.06
10725 H 89.28675022349228 85.58685048879582 108.67469016148387 H 0.0 **** 0.06
10726 C 141.91660747525907 3.683596899002765 115.2378580135282 C 0.0 **** -0.24
10727 H 141.17142073851707 2.939588362208781 114.95810013219737 H 0.0 **** 0.06
10728 H 142.27819234959594 4.190688006414376 114.34352448679614 H 0.0 **** 0.06
10729 H 142.75038548766548 3.1913830484438392 115.7395005872291 H 0.0 **** 0.06
10730 H 141.46690929367065 4.412373495586394 115.91268297194337 H 0.0 **** 0.06
10731 C 144.61873392291923 110.34698145349596 94.5494646353802 C 0.0 **** -0.24
10732 H 143.66410854815746 110.84746373839592 94.70895547556603 H 0.0 **** 0.06
10733 H 144.68843863142948 109.4787096081467 95.20473766333072 H 0.0 **** 0.06
10734 H 145.43189842197546 111.037543112437 94.77187317198118 H 0.0 **** 0.06
10735 H 144.69023340876137 110.02496889155294 93.50997761652417 H 0.0 **** 0.06
10736 C 116.40260314048642 86.04222704940724 87.52805799957301 C 0.0 **** -0.24
10737 H 115.92243665898722 86.98290928323343 87.26056308705854 H 0.0 **** 0.06
10738 H 117.36136559113852 85.96472662940849 87.01545998198003 H 0.0 **** 0.06
10739 H 115.76327179869007 85.21099583727417 87.23003181622272 H 0.0 **** 0.06
10740 H 116.56292637566317 86.00906878846669 88.60556737943715 H 0.0 **** 0.06
10741 C 124.58791176764528 27.887592749231914 37.736375768346406 C 0.0 **** -0.24
10742 H 123.88604693332296 27.086873801452896 37.97071830800575 H 0.0 **** 0.06
10743 H 125.32831488097887 27.523803803153243 37.02362312349012 H 0.0 **** 0.06
10744 H 125.08892343848426 28.211146777732864 38.648804168013164 H 0.0 **** 0.06
10745 H 124.04653143407104 28.728398790212054 37.301081532506494 H 0.0 **** 0.06
10746 C 0.4243351345749744 47.318117222092184 25.310008478859203 C 0.0 **** -0.24
10747 H 1.2774524270224639 46.88899312752636 24.78486386356039 H 0.0 **** 0.06
10748 H 0.12238345661635464 48.24308421053004 24.81790913179779 H 0.0 **** 0.06
10749 H 0.7037497398356223 47.53076386384612 26.342507105138537 H 0.0 **** 0.06
10750 H -0.4042051716707995 46.61082476831737 25.29630495669511 H 0.0 **** 0.06
10751 C 49.89877315654982 18.855645896952097 25.39092027078823 C 0.0 **** -0.24
10752 H 50.642070402789756 18.56272564112774 26.132206585262196 H 0.0 **** 0.06
10753 H 49.70791758570962 18.020224663881976 24.717424916279484 H 0.0 **** 0.06
10754 H 50.27176775893534 19.706273562960178 24.820309115139906 H 0.0 **** 0.06
10755 H 48.973341993123114 19.134942541048417 25.895319970780506 H 0.0 **** 0.06
10756 C 108.13233040328426 62.74635577863398 114.63515734901286 C 0.0 **** -0.24
10757 H 108.15947881018415 62.230983099671164 113.67513732570303 H 0.0 **** 0.06
10758 H 108.58070884188608 62.112811565573594 115.40031287673843 H 0.0 **** 0.06
10759 H 107.09862594741297 62.96258547415468 114.90181862925202 H 0.0 **** 0.06
10760 H 108.69203494758632 63.679445743180025 114.56264897425804 H 0.0 **** 0.06
10761 C 92.65272583115542 89.10021600748053 89.90279691645915 C 0.0 **** -0.24
10762 H 93.12103059685367 88.17271311725469 89.57302346883935 H 0.0 **** 0.06
10763 H 93.41850384038607 89.86269358093158 90.04551859059532 H 0.0 **** 0.06
10764 H 92.12990444737358 88.92927327438359 90.84349923054958 H 0.0 **** 0.06
10765 H 91.94072996427569 89.43611022443078 89.14847174210095 H 0.0 **** 0.06
10766 C 35.5038155013226 46.59422778724601 140.82105448079162 C 0.0 **** -0.24
10767 H 35.48755854584343 45.73884179003332 141.4966838190011 H 0.0 **** 0.06
10768 H 36.16219146322429 47.36381962923977 141.2261668566226 H 0.0 **** 0.06
10769 H 34.49522648256056 46.99512435947608 140.71941482048723 H 0.0 **** 0.06
10770 H 35.87001311824524 46.27840178523928 139.8450187915964 H 0.0 **** 0.06
10771 C 125.36939356898583 34.74311763896905 91.26231884765406 C 0.0 **** -0.24
10772 H 126.00190666969809 34.14263590024905 91.91610500691093 H 0.0 **** 0.06
10773 H 125.07492441581024 34.150105144287 90.39606911062536 H 0.0 **** 0.06
10774 H 125.92297407107978 35.622005704413226 90.92978023314322 H 0.0 **** 0.06
10775 H 124.47981926379343 35.0585302185726 91.80693790674354 H 0.0 **** 0.06
10776 C 115.10674584912384 78.55713631990298 95.14399166536106 C 0.0 **** -0.24
10777 H 115.78095464115945 79.3928458436528 95.33456087486465 H 0.0 **** 0.06
10778 H 114.92140559380555 78.47719147894921 94.07218788331542 H 0.0 **** 0.06
10779 H 114.16318824596506 78.72611684659901 95.6644205013575 H 0.0 **** 0.06
10780 H 115.56034795494689 77.6351840474965 95.50493285837935 H 0.0 **** 0.06
10781 C 31.917541473991406 45.034876870848024 63.42050401328319 C 0.0 **** -0.24
10782 H 32.266362530714126 45.00092222474558 64.45312179041098 H 0.0 **** 0.06
10783 H 31.84793213649572 46.07298031551014 63.09439315872973 H 0.0 **** 0.06
10784 H 30.93584964654073 44.56518581437649 63.35288759303147 H 0.0 **** 0.06
10785 H 32.62119244333448 44.50009280676491 62.782336471122804 H 0.0 **** 0.06
10786 C 125.44079816825172 54.080224767305 20.812172983816083 C 0.0 **** -0.24
10787 H 124.49164656649104 53.72464629149006 21.21179233833209 H 0.0 **** 0.06
10788 H 126.1859363646771 53.28848503805074 20.88805277989013 H 0.0 **** 0.06
10789 H 125.77292112246369 54.94852134466167 21.382178175974047 H 0.0 **** 0.06
10790 H 125.312586869541 54.360209047977165 19.76641767722299 H 0.0 **** 0.06
10791 C 67.06207000438289 0.5386035125073292 123.99255233258832 C 0.0 **** -0.24
10792 H 66.7356501881757 1.2587861891817873 123.24312358087518 H 0.0 **** 0.06
10793 H 66.48023323263575 -0.37800813049675597 123.89288001687503 H 0.0 **** 0.06
10794 H 66.9137992967999 0.9569123792551544 124.9874231397268 H 0.0 **** 0.06
10795 H 68.11892725016304 0.31526168731182835 123.84545818539142 H 0.0 **** 0.06
10796 C 85.24329017625354 22.051298815978896 72.23546179406794 C 0.0 **** -0.24
10797 H 86.2640789007448 21.73753926197665 72.01718947393967 H 0.0 **** 0.06
10798 H 85.20724379702658 22.50334644597598 73.22711047974009 H 0.0 **** 0.06
10799 H 84.5826050277939 21.185503083568335 72.20463437461036 H 0.0 **** 0.06
10800 H 84.9215908829033 22.78040124514817 71.49121067473249 H 0.0 **** 0.06
10801 C 53.76400491851871 85.29103215370407 60.817720552086456 C 0.0 **** -0.24
10802 H 53.35817341828982 84.47169588484911 61.41094508732729 H 0.0 **** 0.06
10803 H 54.0291421352959 86.11920681248594 61.475277767083156 H 0.0 **** 0.06
10804 H 53.01637313731635 85.62392253051522 60.0970762314449 H 0.0 **** 0.06
10805 H 54.653305433076184 84.94987394916066 60.286731665286965 H 0.0 **** 0.06
10806 C 45.47182566930799 8.049634297806733 132.024307945152 C 0.0 **** -0.24
10807 H 45.84536696212737 7.068748820608818 132.3187431270752 H 0.0 **** 0.06
10808 H 44.5213472606669 8.241124932954364 132.52175803738467 H 0.0 **** 0.06
10809 H 45.328091363911284 8.07332111064511 130.94380626071242 H 0.0 **** 0.06
10810 H 46.19267947755834 8.81490199255083 132.31159284737038 H 0.0 **** 0.06
10811 C 30.33158254513691 122.06380288066401 117.56098642940391 C 0.0 **** -0.24
10812 H 29.923740344689236 122.97683630194774 117.12712447155336 H 0.0 **** 0.06
10813 H 29.58244612800192 121.27374332747996 117.51716878478472 H 0.0 **** 0.06
10814 H 30.607524124038065 122.24739497296855 118.59983661465544 H 0.0 **** 0.06
10815 H 31.21542784043976 121.75808605401505 117.00044274056954 H 0.0 **** 0.06
10816 C 126.8579996282218 20.663880315163503 71.0393399061204 C 0.0 **** -0.24
10817 H 127.91501284221849 20.73087000629826 70.78124507766444 H 0.0 **** 0.06
10818 H 126.53675159596085 21.599283790566453 71.49990108985914 H 0.0 **** 0.06
10819 H 126.70728830361702 19.843167014958 71.7402345048403 H 0.0 **** 0.06
10820 H 126.2741329326232 20.484243459254095 70.1366246885289 H 0.0 **** 0.06
10821 C 139.71356215699063 69.84314995068891 133.2923719379287 C 0.0 **** -0.24
10822 H 138.87101249175498 69.16519309596785 133.43092543217355 H 0.0 **** 0.06
10823 H 140.57877580405167 69.46208875761678 133.8351510892198 H 0.0 **** 0.06
10824 H 139.45112884921122 70.83078956368806 133.67264718974266 H 0.0 **** 0.06
10825 H 139.9513500634219 69.91347420505173 132.23174531520797 H 0.0 **** 0.06
10826 C 58.013495155274114 115.76278396046459 56.90118273074856 C 0.0 **** -0.24
10827 H 56.95730094414611 115.98119962846798 56.74894342316529 H 0.0 **** 0.06
10828 H 58.28726978908915 115.98801340629407 57.931980787986305 H 0.0 **** 0.06
10829 H 58.61156245782897 116.37306927424251 56.22418359175552 H 0.0 **** 0.06
10830 H 58.19872902049525 114.70785960184699 56.698511810404284 H 0.0 **** 0.06
10831 C 28.90158842080035 87.21430127876164 1.9755362636580287 C 0.0 **** -0.24
10832 H 29.969067813862466 87.08432096988025 1.799356456717362 H 0.0 **** 0.06
10833 H 28.648044554846763 86.84118089436589 2.9676759519255995 H 0.0 **** 0.06
10834 H 28.339142529940716 86.66097857911657 1.2240037861886606 H 0.0 **** 0.06
10835 H 28.64981856551583 88.27345194922525 1.9098907613194172 H 0.0 **** 0.06
10836 C 96.41108362017309 100.3938939383855 106.4418119601547 C 0.0 **** -0.24
10837 H 96.69841737734265 99.3639556205087 106.2308502399512 H 0.0 **** 0.06
10838 H 97.29910227907826 100.97544095829524 106.6909694128855 H 0.0 **** 0.06
10839 H 95.71738663683558 100.41175150347885 107.28249863970834 H 0.0 **** 0.06
10840 H 95.9291194998296 100.8232257954968 105.56360798732291 H 0.0 **** 0.06
10841 C 48.15962890307409 46.44907006177749 54.702821610165756 C 0.0 **** -0.24
10842 H 47.24968256542343 45.99983482532514 55.10053865107557 H 0.0 **** 0.06
10843 H 48.758410505315396 46.84425440742348 55.52304132849491 H 0.0 **** 0.06
10844 H 47.89744776148078 47.258215935398596 54.020644569945034 H 0.0 **** 0.06
10845 H 48.73246782970787 45.69197644144015 54.166196655699935 H 0.0 **** 0.06
10846 C 109.89624399941181 109.95128701832276 25.292641284524223 C 0.0 **** -0.24
10847 H 109.76716672164474 109.86795160113714 24.21351953580637 H 0.0 **** 0.06
10848 H 110.5635861389614 109.16171250080309 25.64089421726942 H 0.0 **** 0.06
10849 H 108.9280794612319 109.85195453668756 25.78335093925483 H 0.0 **** 0.06
10850 H 110.32741856032027 110.92393057988149 25.53233803339839 H 0.0 **** 0.06
10851 C 66.2349029090042 102.69951900561372 125.39097188323457 C 0.0 **** -0.24
10852 H 65.80241070154715 102.17491241156219 124.53881056750232 H 0.0 **** 0.06
10853 H 67.26676597270435 102.37624324352154 125.53097513479979 H 0.0 **** 0.06
10854 H 65.65706894466224 102.47288021169663 126.28725212275222 H 0.0 **** 0.06
10855 H 66.21198101702197 103.77384208040341 125.20582860516446 H 0.0 **** 0.06
10856 C 54.36440392074417 9.672600189693298 58.967616112004194 C 0.0 **** -0.24
10857 H 53.34173221100721 9.296913426799023 58.98960454654686 H 0.0 **** 0.06
10858 H 55.04211921610265 8.866813249653546 58.68711684473257 H 0.0 **** 0.06
10859 H 54.6346138884259 10.047935237342301 59.95490871230534 H 0.0 **** 0.06
10860 H 54.438904409262946 10.481037020565708 58.2396455861638 H 0.0 **** 0.06
10861 C 114.82086177404956 146.46233914702864 18.985458234247517 C 0.0 **** -0.24
10862 H 115.57662066660119 146.24485890338994 19.739081656108056 H 0.0 **** 0.06
10863 H 115.29146956691615 146.94536125582775 18.128765492693674 H 0.0 **** 0.06
10864 H 114.06639644232278 147.12680535184577 19.407993738417474 H 0.0 **** 0.06
10865 H 114.34880852049791 145.5332839882598 18.66455364910945 H 0.0 **** 0.06
10866 C 40.467283114147364 136.66553318178833 69.14596955853042 C 0.0 **** -0.24
10867 H 39.67167257532171 135.94288870096207 69.32878456866857 H 0.0 **** 0.06
10868 H 40.749740133924035 136.63509053680784 68.0936878674002 H 0.0 **** 0.06
10869 H 41.33167644602375 136.4160609558554 69.76153861931044 H 0.0 **** 0.06
10870 H 40.11495491872486 137.66470365543924 69.40044285611097 H 0.0 **** 0.06
10871 C 50.545004345846266 51.5858834187939 8.611415579754066 C 0.0 **** -0.24
10872 H 51.07810199479778 52.536325935588536 8.564325633914052 H 0.0 **** 0.06
10873 H 49.69979767318141 51.67830277368904 9.294534808466665 H 0.0 **** 0.06
10874 H 51.22031893340721 50.80855107545257 8.970800010311166 H 0.0 **** 0.06
10875 H 50.18369154169292 51.32342912586272 7.617992094974738 H 0.0 **** 0.06
10876 C 95.94846900151069 45.22036998456268 99.36905572501915 C 0.0 **** -0.24
10877 H 96.77546039895964 45.64051524857648 99.94099947171226 H 0.0 **** 0.06
10878 H 95.25872278956672 46.017270173943714 99.08896149612922 H 0.0 **** 0.06
10879 H 95.42525031559683 44.48218935518939 99.97671684946312 H 0.0 **** 0.06
10880 H 96.33528882512053 44.74131880862777 98.47004412846547 H 0.0 **** 0.06
10881 C 22.124364931168714 134.03052451061006 115.00999669906535 C 0.0 **** -0.24
10882 H 22.802162491737306 134.7578224442666 115.45748936411708 H 0.0 **** 0.06
10883 H 21.88511229790648 133.25897272597825 115.74240064212053 H 0.0 **** 0.06
10884 H 22.603144095286275 133.5732799776004 114.14362757344357 H 0.0 **** 0.06
10885 H 21.2087443008801 134.5317105807461 114.69649732389918 H 0.0 **** 0.06
10886 C 34.77774493048298 40.43743314518366 95.0069318187864 C 0.0 **** -0.24
10887 H 35.08619370822177 39.453717369988965 94.65173730629355 H 0.0 **** 0.06
10888 H 35.53421875764826 41.174286599333016 94.7371600351936 H 0.0 **** 0.06
10889 H 34.66542562989352 40.41150001409761 96.09097026045501 H 0.0 **** 0.06
10890 H 33.82652753825167 40.707448825683116 94.5484533763097 H 0.0 **** 0.06
10891 C 8.60066559804568 147.61182405964826 25.10511338239821 C 0.0 **** -0.24
10892 H 7.9002389999494085 147.9410122580385 24.337570423499493 H 0.0 **** 0.06
10893 H 9.616227535928573 147.65310026295333 24.71160645452145 H 0.0 **** 0.06
10894 H 8.365246256472403 146.5887844039308 25.398725516322422 H 0.0 **** 0.06
10895 H 8.520712083563666 148.2664862607755 25.97381147544406 H 0.0 **** 0.06
10896 C 78.37808065862255 38.58034148851863 93.33064670791501 C 0.0 **** -0.24
10897 H 77.93616515019214 37.6071790937207 93.11979587792861 H 0.0 **** 0.06
10898 H 77.8370103004443 39.05454704263897 94.14963721674513 H 0.0 **** 0.06
10899 H 78.31677746474863 39.20752614040916 92.44170926004944 H 0.0 **** 0.06
10900 H 79.4232120281526 38.45160279301919 93.61245916206799 H 0.0 **** 0.06
10901 C 83.10551054923368 14.833032507982352 19.88302650004954 C 0.0 **** -0.24
10902 H 82.01787166805934 14.887182368605437 19.848113692929473 H 0.0 **** 0.06
10903 H 83.46563254154003 14.217021936917348 19.059200910934976 H 0.0 **** 0.06
10904 H 83.4171502780936 14.392308769239861 20.83032569895994 H 0.0 **** 0.06
10905 H 83.52182826845424 15.837670193291899 19.795726787616275 H 0.0 **** 0.06
10906 C 87.57377584274599 130.42742086928007 18.979818907051914 C 0.0 **** -0.24
10907 H 87.81886861020331 130.81593759195593 17.990613757479984 H 0.0 **** 0.06
10908 H 87.77522796975397 131.1926920780092 19.730496974707727 H 0.0 **** 0.06
10909 H 88.18308528546618 129.54661165808528 19.185212828317944 H 0.0 **** 0.06
10910 H 86.51916738245443 130.15588403043097 19.011412915822262 H 0.0 **** 0.06
10911 C 73.14865012934844 37.44197209834098 37.6066497627687 C 0.0 **** -0.24
10912 H 73.21113955373448 38.05936547550792 36.70982758433185 H 0.0 **** 0.06
10913 H 73.9228548602442 37.747039555249046 38.311823801312514 H 0.0 **** 0.06
10914 H 73.29439893900982 36.395536070978125 37.337870254891264 H 0.0 **** 0.06
10915 H 72.16822641216422 37.56653831037394 38.065822996358946 H 0.0 **** 0.06
10916 C 143.3629164794635 108.15832972830938 109.50723868227287 C 0.0 **** -0.24
10917 H 143.50671175438796 107.5192643710283 110.37838956899849 H 0.0 **** 0.06
10918 H 143.07687915320022 107.54618109801933 108.65121401514772 H 0.0 **** 0.06
10919 H 144.29129468181148 108.68349697200225 109.28431551869211 H 0.0 **** 0.06
10920 H 142.5757769981927 108.88343322568934 109.71471362061759 H 0.0 **** 0.06
10921 C 79.7041593237349 38.89218640886429 54.57081458213527 C 0.0 **** -0.24
10922 H 80.17134005500046 38.53716681915947 53.652117272769644 H 0.0 **** 0.06
10923 H 78.7406160444038 38.39921451674283 54.70251337095998 H 0.0 **** 0.06
10924 H 79.55649942602801 39.96997725725447 54.510004303412686 H 0.0 **** 0.06
10925 H 80.35017470901985 38.66144864699672 55.41900781521373 H 0.0 **** 0.06
10926 C 57.75538784824474 109.7862067502784 101.84198383343221 C 0.0 **** -0.24
10927 H 58.56876425587049 110.27942998311728 102.37467057459337 H 0.0 **** 0.06
10928 H 56.82326082739257 109.92972277558523 102.388185114885 H 0.0 **** 0.06
10929 H 57.968607655088846 108.71942406893315 101.7615004399207 H 0.0 **** 0.06
10930 H 57.66186546626844 110.21452325780571 100.84392771025507 H 0.0 **** 0.06
10931 C 26.93243795399954 98.11102562447698 23.155033637388854 C 0.0 **** -0.24
10932 H 26.83561458804448 98.9550276207579 23.836414054322617 H 0.0 **** 0.06
10933 H 26.103920129239725 98.11816154386574 22.4462340851834 H 0.0 **** 0.06
10934 H 26.915965683164103 97.18106151015158 23.723167324057464 H 0.0 **** 0.06
10935 H 27.875558141793107 98.18833773131685 22.612904797442134 H 0.0 **** 0.06
10936 C 57.13241479653166 121.16486978020272 123.63752080496033 C 0.0 **** -0.24
10937 H 56.230942999883936 121.4190339462278 123.08046816800442 H 0.0 **** 0.06
10938 H 57.80141106750753 120.58596051741678 122.99999074573282 H 0.0 **** 0.06
10939 H 56.862821143238506 120.57418235223223 124.51344154043977 H 0.0 **** 0.06
10940 H 57.63232047242384 122.07944245270598 123.95542110418876 H 0.0 **** 0.06
10941 C 110.88092892584854 119.52199706373268 19.820318102418867 C 0.0 **** -0.24
10942 H 111.61193504957885 119.51297537032782 19.011107880886698 H 0.0 **** 0.06
10943 H 111.0378250105739 118.65281131988216 20.460387869493246 H 0.0 **** 0.06
10944 H 109.87512321113019 119.4893243529191 19.40166808458119 H 0.0 **** 0.06
10945 H 111.00085946395626 120.4327167619873 20.407178208787087 H 0.0 **** 0.06
10946 C 149.33659270612256 57.19805418157773 72.41245874889738 C 0.0 **** -0.24
10947 H 149.53801899415802 57.67013923946561 71.45102408081499 H 0.0 **** 0.06
10948 H 148.92026175237962 57.93632298268983 73.09843996489198 H 0.0 **** 0.06
10949 H 150.26534364832136 56.80224489571964 72.82399027691196 H 0.0 **** 0.06
10950 H 148.62418857812523 56.38503386349544 72.27511691910284 H 0.0 **** 0.06
10951 C 59.174772547655834 114.25593020430652 72.77997979605564 C 0.0 **** -0.24
10952 H 58.76059121732936 115.26241706109967 72.84305540494032 H 0.0 **** 0.06
10953 H 59.59052695784621 114.09659943872076 71.7844058365082 H 0.0 **** 0.06
10954 H 58.38555984718667 113.52667693387063 72.96587090843839 H 0.0 **** 0.06
10955 H 59.959981378086894 114.1395538290377 73.52571436448947 H 0.0 **** 0.06
10956 C 105.02245446670908 46.54380291970244 145.47674334376282 C 0.0 **** -0.24
10957 H 105.90492946638521 46.492049666400604 144.83979364057922 H 0.0 **** 0.06
10958 H 104.34114426346376 47.30352335035536 145.0934435077328 H 0.0 **** 0.06
10959 H 105.32108264555104 46.80190813896374 146.4925875133524 H 0.0 **** 0.06
10960 H 104.52119637558168 45.57513511389611 145.48149166535657 H 0.0 **** 0.06
10961 C 37.54445895679618 101.35468589750155 141.17931251510888 C 0.0 **** -0.24
10962 H 36.98873381599019 101.95440197752049 141.90031715000217 H 0.0 **** 0.06
10963 H 36.84794303014769 100.76352510409652 140.5850205393371 H 0.0 **** 0.06
10964 H 38.22607026895241 100.68894740229547 141.70925381231967 H 0.0 **** 0.06
10965 H 38.11580852927835 102.01218011348314 140.52420298340337 H 0.0 **** 0.06
10966 C 17.59134989163823 136.2953254577729 3.283447531001059 C 0.0 **** -0.24
10967 H 17.834192605803082 135.25934945090975 3.0474229419582457 H 0.0 **** 0.06
10968 H 16.581880776662445 136.51894978473962 2.939224160391518 H 0.0 **** 0.06
10969 H 18.30050146026258 136.9569658249235 2.7875044830251454 H 0.0 **** 0.06
10970 H 17.64861067047309 136.44368943746818 4.36197190772134 H 0.0 **** 0.06
10971 C 30.769380244742393 102.16602569051744 16.328755606033184 C 0.0 **** -0.24
10972 H 30.414602562062925 101.96142973327417 15.318376572313525 H 0.0 **** 0.06
10973 H 31.243074441960317 103.14716185982971 16.35464176418256 H 0.0 **** 0.06
10974 H 31.492035716758693 101.40462612205002 16.621205990007297 H 0.0 **** 0.06
10975 H 29.925736028968203 102.15117404855582 17.019524298697462 H 0.0 **** 0.06
10976 C 146.80710685604538 126.4869079160967 39.941314053199534 C 0.0 **** -0.24
10977 H 146.1833975487421 127.37835858030644 39.99833032034542 H 0.0 **** 0.06
10978 H 147.71335970374395 126.71382234664713 39.379384237920306 H 0.0 **** 0.06
10979 H 146.2572499944782 125.69072734417105 39.43839412756064 H 0.0 **** 0.06
10980 H 147.07447359649345 126.16409933519068 40.947000929452926 H 0.0 **** 0.06
10981 C 9.875803345915187 46.770961047410935 90.90873642198072 C 0.0 **** -0.24
10982 H 9.614127173677446 47.6430541346642 90.30909675557345 H 0.0 **** 0.06
10983 H 10.208246195844083 47.09595024094804 91.89515534817724 H 0.0 **** 0.06
10984 H 10.67692644941934 46.219658351405656 90.41823919581097 H 0.0 **** 0.06
10985 H 9.001967751427287 46.127845252944056 91.01351196624377 H 0.0 **** 0.06
10986 C 133.57881730704116 50.47644558697158 63.803422173852596 C 0.0 **** -0.24
10987 H 132.9032530487661 51.3233728555353 63.922722681763474 H 0.0 **** 0.06
10988 H 134.42437390572044 50.77172538374985 63.18183921151089 H 0.0 **** 0.06
10989 H 133.0485621118458 49.65204100845007 63.32703473700755 H 0.0 **** 0.06
10990 H 133.93958851278143 50.15995524570708 64.78195090368072 H 0.0 **** 0.06
10991 C 75.73924500892969 62.5265296507998 44.140214611844115 C 0.0 **** -0.24
10992 H 75.45251109660617 61.50398851211739 44.38550375183439 H 0.0 **** 0.06
10993 H 76.79415132090867 62.67415217887921 44.371957473586534 H 0.0 **** 0.06
10994 H 75.13769657352373 63.222188597921814 44.725340748226714 H 0.0 **** 0.06
10995 H 75.57149230553657 62.7066198968935 43.07824661491604 H 0.0 **** 0.06
10996 C 76.60832101443604 89.77340453632237 55.53036397887813 C 0.0 **** -0.24
10997 H 77.33570485496902 89.94974577149773 54.73808309856153 H 0.0 **** 0.06
10998 H 76.1310492671715 88.80538785290713 55.376292952549136 H 0.0 **** 0.06
10999 H 75.85300854212244 90.55904021613875 55.509265785449614 H 0.0 **** 0.06
11000 H 77.11400942985006 89.78078586391342 56.49517544883261 H 0.0 **** 0.06
11001 C 67.05819387623671 118.2482246786075 116.94515399236276 C 0.0 **** -0.24
11002 H 67.87684163656658 117.85689081340419 116.34223352669697 H 0.0 **** 0.06
11003 H 66.13065051474632 118.19880381414183 116.37344215022596 H 0.0 **** 0.06
11004 H 67.26645571700277 119.2842414263329 117.21137339164558 H 0.0 **** 0.06
11005 H 66.95794061047408 117.65285787532653 117.85311718846974 H 0.0 **** 0.06
11006 C 59.18130521806323 99.96683712475522 130.9443073183665 C 0.0 **** -0.24
11007 H 59.569669822819506 100.53759957926695 131.78843034019272 H 0.0 **** 0.06
11008 H 58.20656422723064 100.3620647394635 130.65701192176397 H 0.0 **** 0.06
11009 H 59.07994132829498 98.92042515236938 131.23125646181467 H 0.0 **** 0.06
11010 H 59.86979671243971 100.04891539631097 130.10364384220932 H 0.0 **** 0.06
11011 C 66.13361847249016 71.88407546855117 144.5677794175602 C 0.0 **** -0.24
11012 H 65.62860293593889 71.05133710143602 145.0592015095898 H 0.0 **** 0.06
11013 H 65.41052167565624 72.4545930657228 143.98536619850694 H 0.0 **** 0.06
11014 H 66.91005454567657 71.49791202076975 143.90777390204306 H 0.0 **** 0.06
11015 H 66.58511316139447 72.52915439679771 145.32123425365313 H 0.0 **** 0.06
11016 C 24.93783439972094 100.3123899943452 57.04328891542832 C 0.0 **** -0.24
11017 H 24.542688431285967 99.30850832420504 57.20139890723232 H 0.0 **** 0.06
11018 H 24.380154626129467 100.79921080286155 56.24226500161117 H 0.0 **** 0.06
11019 H 25.99039880081341 100.24870479531337 56.76783320127775 H 0.0 **** 0.06
11020 H 24.835657090952793 100.8907332365217 57.96112950509723 H 0.0 **** 0.06
11021 C 141.326127046793 33.64497555496729 145.1168313412258 C 0.0 **** -0.24
11022 H 140.63219122051302 34.48008322423968 145.01980174222032 H 0.0 **** 0.06
11023 H 140.81328145395253 32.71626395942934 144.866982090714 H 0.0 **** 0.06
11024 H 141.691117901145 33.594760281745494 146.14317856503448 H 0.0 **** 0.06
11025 H 142.1673052575726 33.79073689238585 144.4395660221431 H 0.0 **** 0.06
11026 C 55.08211846126426 18.07405753498324 89.06761492618455 C 0.0 **** -0.24
11027 H 54.611922444518 18.05159244035616 88.08449310789274 H 0.0 **** 0.06
11028 H 54.98405916319092 17.0963919394066 89.53902538987677 H 0.0 **** 0.06
11029 H 54.59527088632423 18.827153657777274 89.68647203226783 H 0.0 **** 0.06
11030 H 56.138498737257166 18.32050998810172 88.95781780585293 H 0.0 **** 0.06
11031 C 24.013929206843613 133.63777064002278 150.25577343199558 C 0.0 **** -0.24
11032 H 24.688606149473287 133.27221627582927 151.03006053783605 H 0.0 **** 0.06
11033 H 23.060487022438053 133.11375918120774 150.32890692738567 H 0.0 **** 0.06
11034 H 24.45476395005943 133.45821919633752 149.27542733215756 H 0.0 **** 0.06
11035 H 23.852191822005068 134.70699035425025 150.39112368268718 H 0.0 **** 0.06
11036 C 9.521139116446733 18.412250217267683 29.28878780165701 C 0.0 **** -0.24
11037 H 10.302731928624382 17.92167685207916 28.708300120367085 H 0.0 **** 0.06
11038 H 9.8833347025884 18.599836674414654 30.29966374229727 H 0.0 **** 0.06
11039 H 8.642225567052805 17.768679207320325 29.33158764107435 H 0.0 **** 0.06
11040 H 9.256739068297065 19.357147263924553 28.815726905265052 H 0.0 **** 0.06
11041 C 92.80006734882387 25.095241976308102 139.60344357698125 C 0.0 **** -0.24
11042 H 92.50672945176102 26.10389110269415 139.8964919440101 H 0.0 **** 0.06
11043 H 92.69267677903184 24.424131332128553 140.45546660707356 H 0.0 **** 0.06
11044 H 93.83977403631592 25.101418552939123 139.27332025551468 H 0.0 **** 0.06
11045 H 92.162228163079 24.75431151256825 138.787521337243 H 0.0 **** 0.06
11046 C 74.47331208887377 19.511699283132202 74.13091902069208 C 0.0 **** -0.24
11047 H 74.42112428588268 18.94908959018352 73.19853215438249 H 0.0 **** 0.06
11048 H 74.77613507733929 18.84801589267113 74.9399925835285 H 0.0 **** 0.06
11049 H 73.49359967464156 19.93478880659768 74.35448634973623 H 0.0 **** 0.06
11050 H 75.20066590244014 20.317199966418002 74.02826633365238 H 0.0 **** 0.06
11051 C 52.21028741189767 78.00574575310685 42.777043781450274 C 0.0 **** -0.24
11052 H 52.5877610653568 77.17360715946478 42.182706765647296 H 0.0 **** 0.06
11053 H 51.1351059793364 77.88975799946007 42.921599288308514 H 0.0 **** 0.06
11054 H 52.407885852986766 78.94238790141651 42.255408048003105 H 0.0 **** 0.06
11055 H 52.708568516267974 78.01655623537374 43.7452666256285 H 0.0 **** 0.06
11056 C 17.354027844495363 61.84803518398553 105.51911696714204 C 0.0 **** -0.24
11057 H 17.345019545958706 60.84874264395236 105.95362212271927 H 0.0 **** 0.06
11058 H 17.574446322464212 62.58135943157865 106.2953873819926 H 0.0 **** 0.06
11059 H 16.379516656845112 62.06326816594435 105.08179539092977 H 0.0 **** 0.06
11060 H 18.11915851862409 61.89929155463531 104.74329457291837 H 0.0 **** 0.06
11061 C 39.76088413332468 146.21490911049568 115.9114326819648 C 0.0 **** -0.24
11062 H 39.227796595363145 146.7669589341568 116.68469014723335 H 0.0 **** 0.06
11063 H 40.23647209053712 146.91771002259196 115.2252697565719 H 0.0 **** 0.06
11064 H 39.05826636601381 145.58938170926677 115.36086186326399 H 0.0 **** 0.06
11065 H 40.52213438442874 145.58631520999683 116.3728633126549 H 0.0 **** 0.06
11066 C 89.27227401246992 65.89545942954399 74.83716900485966 C 0.0 **** -0.24
11067 H 90.18422060968129 66.4400772024803 75.08362874130226 H 0.0 **** 0.06
11068 H 89.25887889853843 64.9478522657376 75.37569450973604 H 0.0 **** 0.06
11069 H 89.24284665472925 65.70438915650394 73.76465296813154 H 0.0 **** 0.06
11070 H 88.40534049542106 66.48995644050873 75.12459907788039 H 0.0 **** 0.06
11071 C 79.60666941636964 133.31296813027976 46.120440323410776 C 0.0 **** -0.24
11072 H 79.06336304525959 132.884342267692 46.96235927857998 H 0.0 **** 0.06
11073 H 79.92880624624422 132.5154369091742 45.45182963494699 H 0.0 **** 0.06
11074 H 80.47911874639783 133.85311297907938 46.49004584945226 H 0.0 **** 0.06
11075 H 78.95586976383609 134.00016697917698 45.580048773551596 H 0.0 **** 0.06
11076 C 128.89209104622475 57.991935335734055 145.36307453375724 C 0.0 **** -0.24
11077 H 129.56127126660388 57.85919370368427 144.51335519690502 H 0.0 **** 0.06
11078 H 129.4762235108515 58.02245044049623 146.28344870610704 H 0.0 **** 0.06
11079 H 128.19052068139993 57.158883579367725 145.40603119963012 H 0.0 **** 0.06
11080 H 128.342290873678 58.92586286208022 145.2500984353016 H 0.0 **** 0.06
11081 C 29.266363203910714 93.87750348517912 29.213928899887293 C 0.0 **** -0.24
11082 H 28.734988483512097 93.18017231501378 28.56699335853132 H 0.0 **** 0.06
11083 H 29.963648508471692 94.46806094647766 28.61855370602528 H 0.0 **** 0.06
11084 H 29.816817620207814 93.32195873985981 29.973144582600703 H 0.0 **** 0.06
11085 H 28.54983888185984 94.541413096524 29.698586968236157 H 0.0 **** 0.06
11086 C 91.90255074455843 55.92542850613829 120.31218763127822 C 0.0 **** -0.24
11087 H 92.37767957159559 56.36774061535107 119.43577840614938 H 0.0 **** 0.06
11088 H 91.0737511550821 55.293168875388375 119.99448420828548 H 0.0 **** 0.06
11089 H 91.5285409490358 56.7174267080146 120.96067355190598 H 0.0 **** 0.06
11090 H 92.6316549650378 55.32393536563984 120.8561826365638 H 0.0 **** 0.06
11091 C 131.00229724371556 107.36845950400108 34.65409288006127 C 0.0 **** -0.24
11092 H 130.2896115737238 106.70969176547125 35.14887428127429 H 0.0 **** 0.06
11093 H 131.94100074743932 107.3694505062799 35.208145436285676 H 0.0 **** 0.06
11094 H 130.59838117167607 108.38012882784155 34.61980791958036 H 0.0 **** 0.06
11095 H 131.18020028180644 107.013825474429 33.63887285601952 H 0.0 **** 0.06
11096 C 135.38742747099056 1.5648078549234583 50.662492995371494 C 0.0 **** -0.24
11097 H 135.81356118359147 2.4557940129428744 50.200159512904506 H 0.0 **** 0.06
11098 H 136.11300312246937 1.1322366057422073 51.352381844463835 H 0.0 **** 0.06
11099 H 135.14182801625626 0.8373806964833079 49.889993770805646 H 0.0 **** 0.06
11100 H 134.4835277152489 1.8352621415306203 51.20845471535027 H 0.0 **** 0.06
11101 C 109.61118427160676 135.3967897410712 77.01762178611749 C 0.0 **** -0.24
11102 H 109.049680388409 136.19494438007726 77.50312363280872 H 0.0 **** 0.06
11103 H 110.41396382201947 135.8304848251995 76.42100543904596 H 0.0 **** 0.06
11104 H 108.94476804979178 134.82599195709443 76.37162042297683 H 0.0 **** 0.06
11105 H 110.03594373443963 134.7384533311687 77.77543116440746 H 0.0 **** 0.06
11106 C 148.63194790914912 145.33736960419554 145.03514747630462 C 0.0 **** -0.24
11107 H 148.70365879820545 145.75023286532175 146.04160660433052 H 0.0 **** 0.06
11108 H 147.75481027771698 144.6946377401329 144.96693622758227 H 0.0 **** 0.06
11109 H 149.52748756485323 144.7554702551962 144.817914088225 H 0.0 **** 0.06
11110 H 148.5448633626164 146.1517551614337 144.31512180217314 H 0.0 **** 0.06
11111 C 69.37575936298538 71.15272736893132 125.25776736586334 C 0.0 **** -0.24
11112 H 68.82533684420824 70.99232848629498 124.3298143526613 H 0.0 **** 0.06
11113 H 68.69872018095 71.04083321593976 126.10516996251982 H 0.0 **** 0.06
11114 H 69.79978082363075 72.15678699513575 125.25936279999895 H 0.0 **** 0.06
11115 H 70.17931619454598 70.41958512630094 125.3340588323118 H 0.0 **** 0.06
11116 C 47.287156514567656 147.47165454273863 52.59606247776844 C 0.0 **** -0.24
11117 H 46.46157655682097 146.85117395264072 52.94450336261988 H 0.0 **** 0.06
11118 H 46.891157266758185 148.34213640685832 52.073243774950015 H 0.0 **** 0.06
11119 H 47.91428538205017 146.8937127305689 51.91799014244364 H 0.0 **** 0.06
11120 H 47.879702489342876 147.79890782319816 53.449891506290626 H 0.0 **** 0.06
11121 C 75.51825778275348 98.04631403724392 37.57197238594054 C 0.0 **** -0.24
11122 H 75.55766933030996 99.04145598531056 38.0156059482838 H 0.0 **** 0.06
11123 H 74.56038014572565 97.90881005503303 37.071417163786634 H 0.0 **** 0.06
11124 H 75.63106444893153 97.2956916541207 38.35440972363189 H 0.0 **** 0.06
11125 H 76.32635455137738 97.94098065032762 36.84756573059447 H 0.0 **** 0.06
11126 C 72.52501734622257 43.512224608303 138.59830277673734 C 0.0 **** -0.24
11127 H 72.02206629353284 42.73998264203058 139.1797630441689 H 0.0 **** 0.06
11128 H 71.91157902376426 43.77532163619537 137.7364496163811 H 0.0 **** 0.06
11129 H 73.49148378306415 43.13941374857947 138.25743445241076 H 0.0 **** 0.06
11130 H 72.6760372971404 44.39500643131356 139.21990210548617 H 0.0 **** 0.06
11131 C 91.96012393445739 79.82039145208434 14.224377939166118 C 0.0 **** -0.24
11132 H 92.57932912966271 79.40485070208861 15.019972892694824 H 0.0 **** 0.06
11133 H 91.07988764449084 80.29349896977445 14.660902708694294 H 0.0 **** 0.06
11134 H 91.64812095620528 79.02086433211134 13.552843137829683 H 0.0 **** 0.06
11135 H 92.53269341012793 80.56112535484 13.667827943676457 H 0.0 **** 0.06
11136 C 114.03899432382862 41.40362170823818 27.88487781270858 C 0.0 **** -0.24
11137 H 113.5887697715561 41.13041633456169 26.930644532650085 H 0.0 **** 0.06
11138 H 113.26376521976273 41.46347873912765 28.6491169603977 H 0.0 **** 0.06
11139 H 114.5303174809704 42.37225580132227 27.789436434310588 H 0.0 **** 0.06
11140 H 114.77343680911788 40.64998213136394 28.1692211128086 H 0.0 **** 0.06
11141 C 132.4326520737795 79.67035765029082 42.11128543797477 C 0.0 **** -0.24
11142 H 132.84978871565528 79.68617942524635 43.11798656662289 H 0.0 **** 0.06
11143 H 131.37730740540104 79.94101520207818 42.15176536126657 H 0.0 **** 0.06
11144 H 132.536820583281 78.67011179170876 41.691206139524155 H 0.0 **** 0.06
11145 H 132.96768984367898 80.38432265266408 41.485165608005175 H 0.0 **** 0.06
11146 C 40.08588511494921 99.1333179707596 82.43739852802611 C 0.0 **** -0.24
11147 H 40.416092480057756 100.02448079035547 82.97050206698789 H 0.0 **** 0.06
11148 H 39.713573426816794 98.39957399132678 83.15314869871908 H 0.0 **** 0.06
11149 H 40.9245482078785 98.70881793111144 81.88463053563689 H 0.0 **** 0.06
11150 H 39.28948249277059 99.39986300897561 81.74214238027636 H 0.0 **** 0.06
11151 C 32.019093304183514 92.32701913915895 5.404885712071106 C 0.0 **** -0.24
11152 H 32.19870150973367 91.53608429669944 4.6763093800380595 H 0.0 **** 0.06
11153 H 31.560431124229524 91.90083968738482 6.297430715307851 H 0.0 **** 0.06
11154 H 31.35260557571098 93.07383319944942 4.973845879458398 H 0.0 **** 0.06
11155 H 32.9667618962668 92.7954950800909 5.6723423473632515 H 0.0 **** 0.06
11156 C 78.52416714689792 145.12769177479635 67.76683946795322 C 0.0 **** -0.24
11157 H 78.65409696277476 144.74979367648777 68.78195711087216 H 0.0 **** 0.06
11158 H 78.87087385710396 144.3779714925362 67.0549241106138 H 0.0 **** 0.06
11159 H 79.10354729016677 146.04160385661515 67.64296948544666 H 0.0 **** 0.06
11160 H 77.46972902557474 145.33719925271353 67.58993183833263 H 0.0 **** 0.06
11161 C 139.54318808772743 91.99859542225722 145.10964083862604 C 0.0 **** -0.24
11162 H 140.54751042064296 92.09351391237483 144.69816839174706 H 0.0 **** 0.06
11163 H 138.97720162354486 92.90620272193159 144.8988499207057 H 0.0 **** 0.06
11164 H 139.60464929645977 91.85136286411655 146.1881025176616 H 0.0 **** 0.06
11165 H 139.04357490635667 91.1442111514345 144.6538167022064 H 0.0 **** 0.06
11166 C 27.946505664038966 124.41333162528096 15.161138141964813 C 0.0 **** -0.24
11167 H 28.68966913043994 125.16286926291767 14.891266259893001 H 0.0 **** 0.06
11168 H 28.35444346561411 123.75904049036384 15.932033964815645 H 0.0 **** 0.06
11169 H 27.690304762067456 123.8227594856236 14.281677443179575 H 0.0 **** 0.06
11170 H 27.052100841627976 124.90822843332748 15.540330266722918 H 0.0 **** 0.06
11171 C 74.96646532646749 142.82952857420597 128.9354504087977 C 0.0 **** -0.24
11172 H 75.33990397166662 142.46685631334046 127.97800177922667 H 0.0 **** 0.06
11173 H 75.61371907774401 143.62971930950468 129.29752627687324 H 0.0 **** 0.06
11174 H 74.961758909632 142.0114873166132 129.65606115567897 H 0.0 **** 0.06
11175 H 73.95292287659137 143.20989266089992 128.81027721019547 H 0.0 **** 0.06
11176 C 133.4268633472896 55.00657746984015 62.61408945943373 C 0.0 **** -0.24
11177 H 134.35799931070466 54.483951655009065 62.83236577010467 H 0.0 **** 0.06
11178 H 133.4748739193115 55.430867541437806 61.6112004305711 H 0.0 **** 0.06
11179 H 133.28120906296715 55.80612339008303 63.34052571822593 H 0.0 **** 0.06
11180 H 132.59486796178726 54.30498799021137 62.674167429408044 H 0.0 **** 0.06
11181 C 110.98106567387066 4.607637634467153 144.19198045085272 C 0.0 **** -0.24
11182 H 110.54828132308427 3.6380865379892384 144.43764861205352 H 0.0 **** 0.06
11183 H 111.47523056763492 4.548775751327838 143.22116177818026 H 0.0 **** 0.06
11184 H 111.70823790177303 4.883943927819018 144.95432735407417 H 0.0 **** 0.06
11185 H 110.19147305614263 5.358768331828031 144.1527924808856 H 0.0 **** 0.06
11186 C 34.54886850893068 32.986799132809296 1.520315234386075 C 0.0 **** -0.24
11187 H 34.05750585447089 33.791461765269645 2.067934900928371 H 0.0 **** 0.06
11188 H 34.31876588580583 33.07729863868323 0.4584342952632561 H 0.0 **** 0.06
11189 H 34.19326673359915 32.02575007859676 1.8895976676685002 H 0.0 **** 0.06
11190 H 35.62736590923057 33.05610439971579 1.6658132027812336 H 0.0 **** 0.06
11191 C 15.32779607352279 21.519142477299972 80.01815760278828 C 0.0 **** -0.24
11192 H 16.071968628837766 21.901833743645852 80.71687077629075 H 0.0 **** 0.06
11193 H 15.71295529007574 20.622088455460357 79.53333398157935 H 0.0 **** 0.06
11194 H 15.113829767384374 22.277020546420843 79.26494733113084 H 0.0 **** 0.06
11195 H 14.412626046167333 21.276249626522734 80.55961713650711 H 0.0 **** 0.06
11196 C 143.71006461767757 39.51677878817959 90.20027937434119 C 0.0 **** -0.24
11197 H 144.56435836473895 39.822958542760134 90.80413170640117 H 0.0 **** 0.06
11198 H 142.786504980043 39.76421787447366 90.72415722035565 H 0.0 **** 0.06
11199 H 143.75367930814588 38.44136200885853 90.0280644143191 H 0.0 **** 0.06
11200 H 143.73676329299963 40.03879677567589 89.24307462366484 H 0.0 **** 0.06
11201 C 10.31483063051374 43.238725798492084 121.51198752136249 C 0.0 **** -0.24
11202 H 11.127493533540644 43.4449158873754 120.81661274640017 H 0.0 **** 0.06
11203 H 10.692546895392752 43.27113916627788 122.53411094516453 H 0.0 **** 0.06
11204 H 9.903653746077083 42.249282575859795 121.30738979588226 H 0.0 **** 0.06
11205 H 9.533417714679501 43.98825411049293 121.38865613798443 H 0.0 **** 0.06
11206 C 17.416002965804267 23.619271549215227 131.366828455427 C 0.0 **** -0.24
11207 H 16.545227068534416 23.010678473085107 131.6106568532837 H 0.0 **** 0.06
11208 H 17.34687619711636 24.5769993585765 131.88326571166644 H 0.0 **** 0.06
11209 H 17.450351074188433 23.78854006850193 130.29076300826992 H 0.0 **** 0.06
11210 H 18.321936433902266 23.100969820287702 131.68170838090222 H 0.0 **** 0.06
11211 C 68.19884072982066 21.06878359276675 85.1677013623389 C 0.0 **** -0.24
11212 H 68.75822019474268 20.179215479602874 85.45705178096861 H 0.0 **** 0.06
11213 H 67.17442129865447 20.788719895211898 84.91924474053467 H 0.0 **** 0.06
11214 H 68.67085674776885 21.52762204053073 84.2988258547342 H 0.0 **** 0.06
11215 H 68.19165829281508 21.77791100529629 85.99525631312659 H 0.0 **** 0.06
11216 C 127.01454202173903 11.2210034595183 96.2699313553727 C 0.0 **** -0.24
11217 H 126.43953466534428 11.871295112924685 95.61160260343291 H 0.0 **** 0.06
11218 H 127.8609681699428 10.806900755327803 95.72211641702745 H 0.0 **** 0.06
11219 H 126.3787023400794 10.409563062008175 96.6250382277093 H 0.0 **** 0.06
11220 H 127.3789629115895 11.796254907812596 97.12096817332099 H 0.0 **** 0.06
11221 C 137.79984064296139 16.046139739918388 50.709237247747495 C 0.0 **** -0.24
11222 H 137.6150402614142 15.54846575975727 51.66134119194791 H 0.0 **** 0.06
11223 H 138.51354798650536 16.856910134487556 50.85691153314076 H 0.0 **** 0.06
11224 H 136.86320936579503 16.45096058971169 50.32429769526567 H 0.0 **** 0.06
11225 H 138.206217806039 15.32863070081337 49.997401724997104 H 0.0 **** 0.06
11226 C 45.35339695903656 40.89543859680447 53.53202334586153 C 0.0 **** -0.24
11227 H 46.08524496208031 40.11780803093673 53.75122119377943 H 0.0 **** 0.06
11228 H 44.43737430477212 40.436426179814134 53.159806218173685 H 0.0 **** 0.06
11229 H 45.75537465170764 41.56989231130905 52.7762849073671 H 0.0 **** 0.06
11230 H 45.13544063145824 41.455503507822286 54.44146208708868 H 0.0 **** 0.06
11231 C 136.32399611515388 62.970951476765094 61.39553252759511 C 0.0 **** -0.24
11232 H 136.40303090787518 63.61232965059743 60.51781616135959 H 0.0 **** 0.06
11233 H 137.1172843954779 63.220604042544394 62.09997257176428 H 0.0 **** 0.06
11234 H 136.42038306406909 61.92845401523351 61.09194384508966 H 0.0 **** 0.06
11235 H 135.35438318494624 63.12308268202236 61.868827695896215 H 0.0 **** 0.06
11236 C 83.30743991998204 0.5258101535800961 115.2266509884557 C 0.0 **** -0.24
11237 H 84.11768506424136 1.1614749430220854 115.585359236117 H 0.0 **** 0.06
11238 H 82.43974511167902 1.1426009010050109 114.98958047281721 H 0.0 **** 0.06
11239 H 83.04075825828191 -0.19388429975907684 116.00074095471749 H 0.0 **** 0.06
11240 H 83.63162671795264 -0.005217919605257748 114.33233530326865 H 0.0 **** 0.06
11241 C 67.68437759117165 96.0780319688345 80.43203737079686 C 0.0 **** -0.24
11242 H 66.68413020498325 95.83407824381946 80.78892279156814 H 0.0 **** 0.06
11243 H 67.8756451510575 95.55051680910442 79.49673740992235 H 0.0 **** 0.06
11244 H 68.41978251697059 95.77378515357839 81.17779001516759 H 0.0 **** 0.06
11245 H 67.75906263760275 97.1520316644571 80.26560650850149 H 0.0 **** 0.06
11246 C 90.29030808595758 119.41140603139137 75.17002557937006 C 0.0 **** -0.24
11247 H 89.66537388831108 119.531265450654 74.28534008005175 H 0.0 **** 0.06
11248 H 91.34030335182686 119.46793880969285 74.8828958677214 H 0.0 **** 0.06
11249 H 90.08961090273922 118.44276107999319 75.62881214924097 H 0.0 **** 0.06
11250 H 90.06474573113243 120.2038857708444 75.88376991650362 H 0.0 **** 0.06
11251 C 134.17197816715307 109.99455101318648 56.818282215160636 C 0.0 **** -0.24
11252 H 134.21440372488536 109.65117781172472 55.783402756180635 H 0.0 **** 0.06
11253 H 134.00361972518556 111.07168959537404 56.83561489115175 H 0.0 **** 0.06
11254 H 135.1142038793092 109.7639922865838 57.3157687747447 H 0.0 **** 0.06
11255 H 133.35540338936673 109.49044592522404 57.33472113585523 H 0.0 **** 0.06
11256 C 14.167667605598837 14.717046049090499 63.90353370820975 C 0.0 **** -0.24
11257 H 15.051885280969287 14.986342763258136 63.32591111291936 H 0.0 **** 0.06
11258 H 13.840624335917681 15.577029718111845 64.48744401784626 H 0.0 **** 0.06
11259 H 14.409401861424783 13.892241842763013 64.57373968219068 H 0.0 **** 0.06
11260 H 13.369621239057352 14.413105104133791 63.22531661610253 H 0.0 **** 0.06
11261 C 96.75056718147229 15.746495601937795 30.233891360549364 C 0.0 **** -0.24
11262 H 96.03305785409032 15.563173453894564 31.03471275064723 H 0.0 **** 0.06
11263 H 97.00989995586353 16.80499830153542 30.21411689049117 H 0.0 **** 0.06
11264 H 96.30872419113865 15.462015403406468 29.279433274949753 H 0.0 **** 0.06
11265 H 97.64837565801504 15.153705862281782 30.409481094353424 H 0.0 **** 0.06
11266 C 135.73658391363173 102.38112585218927 38.061346573231916 C 0.0 **** -0.24
11267 H 134.97511688486478 101.6300033568709 37.85006367015009 H 0.0 **** 0.06
11268 H 136.6228989323054 101.89349731019415 38.469342453604185 H 0.0 **** 0.06
11269 H 135.34922718642062 103.09681090214131 38.7857436456695 H 0.0 **** 0.06
11270 H 135.99859155624452 102.90187257751474 37.140844920842056 H 0.0 **** 0.06
11271 C 114.86477159185422 107.1258254192701 148.81186315023479 C 0.0 **** -0.24
11272 H 114.47619514403208 108.08193756505709 149.16322821787855 H 0.0 **** 0.06
11273 H 114.23494186372842 106.31844319472295 149.1860849544079 H 0.0 **** 0.06
11274 H 115.88283802310808 106.991756575667 149.17775900720122 H 0.0 **** 0.06
11275 H 114.86456828239399 107.1124234790975 147.7224101713467 H 0.0 **** 0.06
11276 C 87.23284994413993 55.85068741244447 3.4427234153805806 C 0.0 **** -0.24
11277 H 86.36539103463113 55.788514571509495 4.099029765146959 H 0.0 **** 0.06
11278 H 87.205802793808 55.02956906484678 2.7262210752766443 H 0.0 **** 0.06
11279 H 88.14420581403485 55.78279839561765 4.038101530751717 H 0.0 **** 0.06
11280 H 87.21728589875127 56.80044627159435 2.9086931441485717 H 0.0 **** 0.06
11281 C 40.106786006655256 73.05727517686383 4.05193906508552 C 0.0 **** -0.24
11282 H 40.43871129010921 73.67781448556234 4.883927065169587 H 0.0 **** 0.06
11283 H 40.910276873715574 72.38209584602498 3.7591101919977064 H 0.0 **** 0.06
11284 H 39.840398159865686 73.6938215758142 3.208273447508617 H 0.0 **** 0.06
11285 H 39.235991492527845 72.47605550655615 4.357085150378623 H 0.0 **** 0.06
11286 C 78.10160824040881 71.03848076637743 65.88183579101785 C 0.0 **** -0.24
11287 H 77.69384109388852 70.90793653553638 66.88429459152779 H 0.0 **** 0.06
11288 H 77.34805895551224 70.76310758683869 65.14409222805497 H 0.0 **** 0.06
11289 H 78.97829955098692 70.40246474808481 65.76192986374195 H 0.0 **** 0.06
11290 H 78.38706847618515 72.08130833741674 65.73914858160971 H 0.0 **** 0.06
11291 C 141.354562721119 102.2417654734191 33.10063941107441 C 0.0 **** -0.24
11292 H 141.93248218564707 101.48854400628966 33.63555900747173 H 0.0 **** 0.06
11293 H 140.5007875572439 101.76815155842812 32.616489335198565 H 0.0 **** 0.06
11294 H 141.98441537960753 102.71555667907765 32.34788912340224 H 0.0 **** 0.06
11295 H 141.001331337411 102.99520222742724 33.805314629918996 H 0.0 **** 0.06
11296 C 65.16464501955531 92.5275201895509 148.9373113722635 C 0.0 **** -0.24
11297 H 64.45207485270558 91.967923940839 149.54330912862667 H 0.0 **** 0.06
11298 H 65.05179456023993 93.59307897652172 149.1352070522487 H 0.0 **** 0.06
11299 H 64.97692833071375 92.33180700805212 147.8819193820242 H 0.0 **** 0.06
11300 H 66.17842107961658 92.2158097477909 149.19001714683864 H 0.0 **** 0.06
11301 C 64.49841477855938 97.23802301335658 103.2507195279452 C 0.0 **** -0.24
11302 H 64.51350518546326 97.38239831951493 102.17006900041548 H 0.0 **** 0.06
11303 H 63.682179393273856 96.56637769387794 103.51535100337583 H 0.0 **** 0.06
11304 H 64.35299743932276 98.19986267317309 103.74314695838552 H 0.0 **** 0.06
11305 H 65.44575810680249 96.80457056756471 103.5716386574349 H 0.0 **** 0.06
11306 C 35.81919163537728 48.72526584130382 2.226015319258039 C 0.0 **** -0.24
11307 H 36.10078356398597 49.13652612805777 3.1960748509842745 H 0.0 **** 0.06
11308 H 36.52192036404969 49.071729174762666 1.4673579363879696 H 0.0 **** 0.06
11309 H 34.81343326972333 49.0566399679161 1.969947478852248 H 0.0 **** 0.06
11310 H 35.843254842512636 47.636624579656484 2.2728943378815245 H 0.0 **** 0.06
11311 C 135.63622989324278 126.90914711421331 140.0628039841949 C 0.0 **** -0.24
11312 H 135.97309857860404 125.9363969646119 139.7049016112831 H 0.0 **** 0.06
11313 H 136.16196900701942 127.69606556338496 139.52203488260832 H 0.0 **** 0.06
11314 H 135.84536995581828 126.99680482753662 141.12864544474203 H 0.0 **** 0.06
11315 H 134.5636318938148 127.0060847493346 139.89303610880228 H 0.0 **** 0.06
11316 C 96.44112212381026 38.85215218061168 144.58852843089628 C 0.0 **** -0.24
11317 H 95.8874656204942 39.624688332594005 144.0539623538493 H 0.0 **** 0.06
11318 H 97.0197333105416 39.30954003606921 145.39054208145367 H 0.0 **** 0.06
11319 H 97.11511669726548 38.34442038380237 143.89735820408944 H 0.0 **** 0.06
11320 H 95.7415737721146 38.13009424082097 145.0098797393555 H 0.0 **** 0.06
11321 C 132.46537836841975 149.10315793706403 103.73056041889726 C 0.0 **** -0.24
11322 H 131.50565053990687 148.94725639327336 104.22249807884276 H 0.0 **** 0.06
11323 H 132.44597371882236 148.6417473617593 102.74246514040175 H 0.0 **** 0.06
11324 H 133.25767472853067 148.6497978066607 104.32695675096409 H 0.0 **** 0.06
11325 H 132.65301352299412 150.1718942957061 103.62905123824288 H 0.0 **** 0.06
11326 C 149.55079409021937 22.425260128238108 102.23325805110208 C 0.0 **** -0.24
11327 H 149.4647789933565 21.428730853731054 101.80073721762011 H 0.0 **** 0.06
11328 H 149.7288685706769 22.34236659364666 103.30552836866214 H 0.0 **** 0.06
11329 H 148.62583317388155 22.976027862595288 102.0599412306341 H 0.0 **** 0.06
11330 H 150.38164682128826 22.95364311095767 101.76551062620746 H 0.0 **** 0.06
11331 C 4.049545512022771 29.038416411495035 2.01683462687631 C 0.0 **** -0.24
11332 H 3.374697642783932 29.559183978761638 1.3377124229829747 H 0.0 **** 0.06
11333 H 3.979082097674681 29.481591989358236 3.010471793762637 H 0.0 **** 0.06
11334 H 5.071611340011096 29.126982363809788 1.650618921056953 H 0.0 **** 0.06
11335 H 3.77181872018976 27.98539522222245 2.0676451056448855 H 0.0 **** 0.06
11336 C 85.14570316432545 74.44460072615412 61.85844669589234 C 0.0 **** -0.24
11337 H 85.78416175272076 74.57314153106675 60.98541902669922 H 0.0 **** 0.06
11338 H 84.21351356912552 73.96535115182799 61.55874701032812 H 0.0 **** 0.06
11339 H 84.92841748769476 75.41897948830534 62.29662641420977 H 0.0 **** 0.06
11340 H 85.65573279469024 73.82099560419154 62.593141147245845 H 0.0 **** 0.06
11341 C 144.01611774443415 7.712311509852704 74.94436428029303 C 0.0 **** -0.24
11342 H 143.64108114658018 8.654341659870134 75.34525859999121 H 0.0 **** 0.06
11343 H 143.2282237885975 6.9600994205304545 74.98628778276787 H 0.0 **** 0.06
11344 H 144.8686717596316 7.38083132180661 75.5370438023935 H 0.0 **** 0.06
11345 H 144.3277652388862 7.856846884671924 73.90992972600117 H 0.0 **** 0.06
11346 C 2.9624668601969084 66.85627542660436 42.075637242287456 C 0.0 **** -0.24
11347 H 2.902625335700769 66.09804006401558 42.857197000566174 H 0.0 **** 0.06
11348 H 3.9842364471175387 67.2335878873923 42.014819694484146 H 0.0 **** 0.06
11349 H 2.284951660362598 67.67605740325689 42.31198466772233 H 0.0 **** 0.06
11350 H 2.6802548239968402 66.41496268284808 41.12000923147113 H 0.0 **** 0.06
11351 C 94.57674135529915 96.99098181560684 39.56362198322803 C 0.0 **** -0.24
11352 H 93.9284263915148 97.84635662758917 39.75380643090131 H 0.0 **** 0.06
11353 H 95.3469785532557 96.94045266772427 40.332523737994535 H 0.0 **** 0.06
11354 H 95.04507537632034 97.10192763650468 38.585935565287556 H 0.0 **** 0.06
11355 H 93.98394741038882 96.07602076389695 39.581289029795 H 0.0 **** 0.06
11356 C 86.14335960719079 17.89706436402848 49.589195498819834 C 0.0 **** -0.24
11357 H 86.03912734230622 17.048611494923655 50.266492994426216 H 0.0 **** 0.06
11358 H 85.19077362071157 18.423081067202105 49.51744668378123 H 0.0 **** 0.06
11359 H 86.43696562154062 17.53956068638923 48.60209412471798 H 0.0 **** 0.06
11360 H 86.90645243462995 18.57490647024008 49.97200734243606 H 0.0 **** 0.06
11361 C 101.51688241843095 72.59902541975265 33.75974579039445 C 0.0 **** -0.24
11362 H 102.54206626210097 72.81961951797774 33.46207513281388 H 0.0 **** 0.06
11363 H 101.51099327390759 72.21056859670274 34.7781858230729 H 0.0 **** 0.06
11364 H 101.09466249263386 71.85475651856386 33.08413374122034 H 0.0 **** 0.06
11365 H 100.92188099181351 73.51059028093485 33.713971865771214 H 0.0 **** 0.06
11366 C 115.08652441918666 24.84864667394912 10.17841259276394 C 0.0 **** -0.24
11367 H 116.16503840101059 24.84798197162496 10.02340420398287 H 0.0 **** 0.06
11368 H 114.64561934145131 25.700959586303746 9.661819057234801 H 0.0 **** 0.06
11369 H 114.87278471726226 24.920561742688903 11.245738277517582 H 0.0 **** 0.06
11370 H 114.66187323975045 23.925133968352036 9.784783142924077 H 0.0 **** 0.06
11371 C 49.81289003877174 33.96706589148067 87.2115583379045 C 0.0 **** -0.24
11372 H 49.25061808232377 33.115241143481256 87.5955093355326 H 0.0 **** 0.06
11373 H 49.22881703346269 34.4700237202409 86.44043794926068 H 0.0 **** 0.06
11374 H 50.754328960897425 33.61902584234315 86.78707471473724 H 0.0 **** 0.06
11375 H 50.016055811536546 34.66414931248528 88.02460437710755 H 0.0 **** 0.06
11376 C 126.35116351730338 116.64109036220232 123.83226559137468 C 0.0 **** -0.24
11377 H 127.15430583310958 117.36576446086993 123.70513065927271 H 0.0 **** 0.06
11378 H 125.73304572661259 116.62282380258254 122.93443697306556 H 0.0 **** 0.06
11379 H 125.74015773594012 116.92246432359464 124.68983722471846 H 0.0 **** 0.06
11380 H 126.77804471697515 115.65127644603221 123.99941343645183 H 0.0 **** 0.06
11381 C 39.0095348112479 84.05850967983565 70.9787337923463 C 0.0 **** -0.24
11382 H 39.904027274506745 83.97884139102919 71.59530546419714 H 0.0 **** 0.06
11383 H 38.95028271731687 85.05989701092824 70.55237117075916 H 0.0 **** 0.06
11384 H 38.12797935546658 83.8724592984469 71.5923898246083 H 0.0 **** 0.06
11385 H 39.05430276392488 83.3227979283341 70.17564628944886 H 0.0 **** 0.06
11386 C 88.54760650453014 143.5384307429498 21.307038603419272 C 0.0 **** -0.24
11387 H 89.1575493338627 143.98386541698795 20.52086165453575 H 0.0 **** 0.06
11388 H 88.31970403840293 142.50466681743188 21.04831659913546 H 0.0 **** 0.06
11389 H 87.61974265898846 144.10144838165215 21.409143036395186 H 0.0 **** 0.06
11390 H 89.095125256785 143.5659812263692 22.250170482406105 H 0.0 **** 0.06
11391 C 126.03987729310401 42.959447722334545 60.998264451649945 C 0.0 **** -0.24
11392 H 125.99418868168797 41.87226244384924 61.050591853273474 H 0.0 **** 0.06
11393 H 127.00256238938212 43.301745568433404 61.37855130387689 H 0.0 **** 0.06
11394 H 125.23776279240442 43.38501107140554 61.60217892218495 H 0.0 **** 0.06
11395 H 125.9242620197434 43.27867944738614 59.962941476037614 H 0.0 **** 0.06
11396 C 132.34533032028125 37.956395775567046 40.334357602471485 C 0.0 **** -0.24
11397 H 131.70548259865194 37.891653551142554 39.453911212233336 H 0.0 **** 0.06
11398 H 131.7693266614613 37.691492371599224 41.221457080802736 H 0.0 **** 0.06
11399 H 132.7211731579329 38.97459610825763 40.435864915399236 H 0.0 **** 0.06
11400 H 133.1835288883082 37.26855911923195 40.22471105944669 H 0.0 **** 0.06
11401 C 97.1660917755853 114.31652131141412 135.50939431242898 C 0.0 **** -0.24
11402 H 97.11506153751017 113.32088119798733 135.9497011951707 H 0.0 **** 0.06
11403 H 96.15699092912763 114.67931860607312 135.3137566595722 H 0.0 **** 0.06
11404 H 97.72424328928963 114.27177694154152 134.57506607550118 H 0.0 **** 0.06
11405 H 97.66821269609432 114.99298272049101 136.20098018834258 H 0.0 **** 0.06
11406 C 68.69376084630778 97.10774492254822 15.740855749264057 C 0.0 **** -0.24
11407 H 68.45974930159855 96.18348460794478 15.212021207288359 H 0.0 **** 0.06
11408 H 69.35661807151041 96.88827620786589 16.577643806927398 H 0.0 **** 0.06
11409 H 67.77360515026857 97.55632424464109 16.11257405210975 H 0.0 **** 0.06
11410 H 69.18737535275204 97.80086998793298 15.059041348257296 H 0.0 **** 0.06
11411 C 145.62984245281513 45.62716921730578 92.69811383207869 C 0.0 **** -0.24
11412 H 146.214024897918 44.7238694640361 92.87049094042995 H 0.0 **** 0.06
11413 H 144.64888304095876 45.35640232587215 92.30667618349375 H 0.0 **** 0.06
11414 H 146.14549364007945 46.261911023038664 91.97837351094724 H 0.0 **** 0.06
11415 H 145.51038148000936 46.16685617769947 93.63763900444046 H 0.0 **** 0.06
11416 C 87.0475293582665 2.1894788817930078 78.89580710235248 C 0.0 **** -0.24
11417 H 86.75736332822814 3.2394521186662644 78.92700554233429 H 0.0 **** 0.06
11418 H 86.73721508533747 1.7551372123434987 77.94454114899656 H 0.0 **** 0.06
11419 H 86.5659087830351 1.6547695715761108 79.71373375792861 H 0.0 **** 0.06
11420 H 88.12960322493987 2.108865030555222 78.99597202934733 H 0.0 **** 0.06
11421 C 82.64730439791738 121.68395900194895 23.112071901228973 C 0.0 **** -0.24
11422 H 81.84079681858277 120.95180749399287 23.087923603754746 H 0.0 **** 0.06
11423 H 83.20656499993886 121.57911397825467 24.041042048350306 H 0.0 **** 0.06
11424 H 82.22730532106195 122.68875142961798 23.051223768552603 H 0.0 **** 0.06
11425 H 83.31392128733381 121.5184593130524 22.26521164706392 H 0.0 **** 0.06
11426 C 23.72106853094244 64.56190305858155 112.95217995728626 C 0.0 **** -0.24
11427 H 24.026235895377624 63.73223373971197 113.58958969404563 H 0.0 **** 0.06
11428 H 24.178816532095205 65.48333332985685 113.31208064644278 H 0.0 **** 0.06
11429 H 22.636061928292385 64.65979103660005 112.97763730378085 H 0.0 **** 0.06
11430 H 24.044435947574165 64.3714348636345 111.92810822254899 H 0.0 **** 0.06
11431 C 5.343936692167794 85.419256928934 84.23593934757741 C 0.0 **** -0.24
11432 H 6.107280817502936 84.65828841074882 84.39849748374448 H 0.0 **** 0.06
11433 H 4.687912734344348 85.10791263005437 83.42226322991412 H 0.0 **** 0.06
11434 H 5.822382458112017 86.36350366222337 83.97709534470941 H 0.0 **** 0.06
11435 H 4.758124621942404 85.54564537969006 85.14632973438354 H 0.0 **** 0.06
11436 C 93.48231421096303 4.324640593364972 54.43173064981457 C 0.0 **** -0.24
11437 H 93.45871541433917 4.616531184845876 55.480947218765294 H 0.0 **** 0.06
11438 H 93.44454478927898 3.2377636525164277 54.35678747942873 H 0.0 **** 0.06
11439 H 94.40296407783303 4.688129809046224 53.97423755696187 H 0.0 **** 0.06
11440 H 92.62503507123988 4.75494600447189 53.91570531115232 H 0.0 **** 0.06
11441 C 71.5495960779631 59.41520808193934 110.13285436427338 C 0.0 **** -0.24
11442 H 71.61464516241088 60.373995844538655 109.61816208924114 H 0.0 **** 0.06
11443 H 71.50676050234902 59.58270618835638 111.20904346496144 H 0.0 **** 0.06
11444 H 72.42712238356312 58.81452396782714 109.89294047596258 H 0.0 **** 0.06
11445 H 70.6511521714172 58.889997440044695 109.80922989001584 H 0.0 **** 0.06
11446 C 66.58633933756113 13.691918463986099 142.45790167114674 C 0.0 **** -0.24
11447 H 66.33414456643885 12.837592781264988 143.08489198498816 H 0.0 **** 0.06
11448 H 65.6815231732009 14.077527406297634 141.98754547100648 H 0.0 **** 0.06
11449 H 67.29273725138398 13.381215170233844 141.68776470010525 H 0.0 **** 0.06
11450 H 67.03708765858386 14.472130501264076 143.07080916158625 H 0.0 **** 0.06
11451 C 98.41851699527294 13.977117435431296 134.00069363033586 C 0.0 **** -0.24
11452 H 98.66763942068462 13.641248657296046 135.00776001319983 H 0.0 **** 0.06
11453 H 98.96650539535608 14.893370759815411 133.7783738512695 H 0.0 **** 0.06
11454 H 97.34756144885131 14.169772174309117 133.9381568562605 H 0.0 **** 0.06
11455 H 98.691909985231 13.205249230546315 133.28186388730012 H 0.0 **** 0.06
11456 C 60.39579874876151 120.22300693977478 69.75712348505286 C 0.0 **** -0.24
11457 H 60.817994432496874 120.16088738185577 70.76031312979111 H 0.0 **** 0.06
11458 H 59.43011231733669 119.7172332181185 69.73744695499262 H 0.0 **** 0.06
11459 H 61.07142238219808 119.74429085370043 69.0482560083285 H 0.0 **** 0.06
11460 H 60.264246331033505 121.27027402307517 69.48358714307957 H 0.0 **** 0.06
11461 C 98.8358372030024 140.94781788533817 77.80581474250465 C 0.0 **** -0.24
11462 H 98.3132280656755 140.6047928298617 76.91330482242913 H 0.0 **** 0.06
11463 H 98.99376966688921 142.02480607148337 77.74311472533857 H 0.0 **** 0.06
11464 H 99.7992694901114 140.4435878956138 77.88018425807498 H 0.0 **** 0.06
11465 H 98.23682478889299 140.7192872529347 78.68787505619737 H 0.0 **** 0.06
11466 C 70.6095138487153 84.04338896715895 84.2230087279074 C 0.0 **** -0.24
11467 H 69.94121889158842 83.18488109502081 84.28765049123287 H 0.0 **** 0.06
11468 H 71.36182059101478 83.97908573969617 85.009550632554 H 0.0 **** 0.06
11469 H 70.0344989265462 84.96202322034324 84.34434905103181 H 0.0 **** 0.06
11470 H 71.10060449630654 84.04826381177672 83.24925786533892 H 0.0 **** 0.06
11471 C 134.74192901268574 131.58648627570065 138.9477042772222 C 0.0 **** -0.24
11472 H 135.47535793191258 130.78459291704254 139.03505164679007 H 0.0 **** 0.06
11473 H 133.8621335168025 131.21832279915986 138.41979043002385 H 0.0 **** 0.06
11474 H 135.17859061667298 132.41763927643694 138.39312979977845 H 0.0 **** 0.06
11475 H 134.45353007174594 131.92573677610602 139.94231154182083 H 0.0 **** 0.06
11476 C 69.6540507495485 78.06452701305757 5.252714438958122 C 0.0 **** -0.24
11477 H 69.24176930096519 77.61791155666467 6.157275718927451 H 0.0 **** 0.06
11478 H 68.83889568764552 78.39702493332831 4.608794491317667 H 0.0 **** 0.06
11479 H 70.25746942722822 77.32639532778447 4.725370187455582 H 0.0 **** 0.06
11480 H 70.27613359324248 78.91856152896092 5.5214345203118 H 0.0 **** 0.06
11481 C 71.52201326000831 18.581202360850227 111.36201369994497 C 0.0 **** -0.24
11482 H 70.95686845572344 17.660274466920214 111.2168287648562 H 0.0 **** 0.06
11483 H 71.30094533163728 19.274277458289987 110.54991617693032 H 0.0 **** 0.06
11484 H 72.58803021816001 18.355527836671 111.3673344332005 H 0.0 **** 0.06
11485 H 71.24154757647183 19.033753660944114 112.31319444444851 H 0.0 **** 0.06
11486 C 136.1266770268993 16.127185820705478 59.422250558355486 C 0.0 **** -0.24
11487 H 136.94385795393222 16.182982425460466 60.13996880305355 H 0.0 **** 0.06
11488 H 135.78063804715495 15.095890313599682 59.344590203783696 H 0.0 **** 0.06
11489 H 136.47544755946828 16.468003855541184 58.44726405732273 H 0.0 **** 0.06
11490 H 135.30520092000037 16.761137398441008 59.757026471211375 H 0.0 **** 0.06
11491 C 104.70582443464596 73.66102628524109 123.80590570271495 C 0.0 **** -0.24
11492 H 104.33411527014769 72.71508902177467 124.20002431599609 H 0.0 **** 0.06
11493 H 105.56978420848 73.98306681353469 124.38859425427874 H 0.0 **** 0.06
11494 H 103.92142150097962 74.41589395291194 123.87242170211603 H 0.0 **** 0.06
11495 H 104.99728572150937 73.53083049970652 122.76354258409545 H 0.0 **** 0.06
11496 C 51.15731579924292 64.22499965289867 26.48361361651986 C 0.0 **** -0.24
11497 H 51.66217273061318 63.49072450605499 25.855611241394072 H 0.0 **** 0.06
11498 H 50.28837269021233 63.76418626630644 26.953870350835345 H 0.0 **** 0.06
11499 H 50.83508749524563 65.06633411057126 25.869692814324623 H 0.0 **** 0.06
11500 H 51.84414979909192 64.57777434092904 27.252492366944907 H 0.0 **** 0.06
11501 C 100.26819851250247 143.01111406275726 118.75657398283806 C 0.0 **** -0.24
11502 H 100.13374689242976 141.93011363841993 118.70961277232288 H 0.0 **** 0.06
11503 H 101.3332958797197 143.2440956218236 118.76609768127742 H 0.0 **** 0.06
11504 H 99.80374538588485 143.39540160835332 119.66476937106353 H 0.0 **** 0.06
11505 H 99.80307613427226 143.4727955093466 117.88662408030342 H 0.0 **** 0.06
11506 C 27.340385764570954 62.66409150702489 98.15379531915312 C 0.0 **** -0.24
11507 H 28.354442248510395 62.4600491701065 97.80949941478798 H 0.0 **** 0.06
11508 H 27.375797159776766 63.08594859833667 99.15807371678295 H 0.0 **** 0.06
11509 H 26.768458518692057 61.73569233409221 98.1699114014998 H 0.0 **** 0.06
11510 H 26.863473918403145 63.373097822125445 97.47735862207946 H 0.0 **** 0.06
11511 C 136.65451509879117 24.409224770410503 48.51431822274142 C 0.0 **** -0.24
11512 H 136.9394110049952 23.91502028396448 49.44287932174706 H 0.0 **** 0.06
11513 H 137.52381358956504 24.48423197123168 47.861626481915366 H 0.0 **** 0.06
11514 H 136.27693877919776 25.407053200941917 48.73485163141581 H 0.0 **** 0.06
11515 H 135.876304449019 23.827641182641173 48.018779882600285 H 0.0 **** 0.06
11516 C 59.02892065683841 80.29601341543659 100.48228453773258 C 0.0 **** -0.24
11517 H 58.24744986880455 80.20533957956395 101.2380081759874 H 0.0 **** 0.06
11518 H 58.580058433836825 80.25427435108769 99.49007285449197 H 0.0 **** 0.06
11519 H 59.739609940644414 79.4768050419778 100.59540349484102 H 0.0 **** 0.06
11520 H 59.54732607312769 81.24660154984466 100.60837384164313 H 0.0 **** 0.06
11521 C 56.41678380869162 68.55399762282406 47.55979854055323 C 0.0 **** -0.24
11522 H 55.42071252974118 68.23549026993925 47.25235495551641 H 0.0 **** 0.06
11523 H 57.08679694401806 68.52846429424721 46.700181215061946 H 0.0 **** 0.06
11524 H 56.791692564228 67.88291602513885 48.33247401694388 H 0.0 **** 0.06
11525 H 56.36757243323885 69.5698016168646 47.95263309614228 H 0.0 **** 0.06
11526 C 96.40114443914044 11.772263708551861 125.67452857533311 C 0.0 **** -0.24
11527 H 95.35429973567828 11.724182249806063 125.97746403386952 H 0.0 **** 0.06
11528 H 96.83062907617575 12.718813046808975 126.00242913073117 H 0.0 **** 0.06
11529 H 96.46729189440164 11.699311386558236 124.58861744371194 H 0.0 **** 0.06
11530 H 96.94882824145202 10.946982440869135 126.12890148781133 H 0.0 **** 0.06
11531 C 122.31792048316544 71.18739990895659 105.65850122424462 C 0.0 **** -0.24
11532 H 121.61168084841165 70.60602055347243 106.25225129911564 H 0.0 **** 0.06
11533 H 122.07254824391805 71.08466776695181 104.60113984822664 H 0.0 **** 0.06
11534 H 123.32896710176931 70.81956918760383 105.83507642285082 H 0.0 **** 0.06
11535 H 122.25612376492461 72.23661257277288 105.94652278216506 H 0.0 **** 0.06
11536 C 42.633565531211275 14.19477603247941 17.22936794538242 C 0.0 **** -0.24
11537 H 42.79784952623781 13.769953267557923 18.219638550301426 H 0.0 **** 0.06
11538 H 42.515648532951246 13.38952160212392 16.50323405775208 H 0.0 **** 0.06
11539 H 43.48824817878504 14.81142888765612 16.95194174364252 H 0.0 **** 0.06
11540 H 41.732155378716 14.808121349731408 17.241728007507476 H 0.0 **** 0.06
11541 C 90.2999669290486 86.25624654417257 22.374347181702177 C 0.0 **** -0.24
11542 H 89.97295190458362 87.11674381144392 21.789274392110627 H 0.0 **** 0.06
11543 H 91.36595037664085 86.09128966035527 22.211037425537285 H 0.0 **** 0.06
11544 H 89.74272277443302 85.37281355716154 22.063421826156826 H 0.0 **** 0.06
11545 H 90.11955674859666 86.44680066180788 23.431608136206904 H 0.0 **** 0.06
11546 C 123.19487288715793 40.300940341466145 76.00413528553834 C 0.0 **** -0.24
11547 H 122.53442877240163 40.00257839329143 75.18944992742527 H 0.0 **** 0.06
11548 H 123.00368830163835 39.67202755554081 76.87461716850234 H 0.0 **** 0.06
11549 H 123.00617948731066 41.343512080130864 76.26052651280914 H 0.0 **** 0.06
11550 H 124.23250314275121 40.184394448595214 75.69238864613632 H 0.0 **** 0.06
11551 C 109.88756017124304 13.629089674269665 53.485429765558834 C 0.0 **** -0.24
11552 H 109.68227388697674 12.842300213089288 54.21184039076421 H 0.0 **** 0.06
11553 H 109.07508552388778 13.673123611492883 52.759160190671494 H 0.0 **** 0.06
11554 H 110.8238686791431 13.413722938103149 52.97044623513334 H 0.0 **** 0.06
11555 H 109.96714917877462 14.586690036305441 53.999766826146484 H 0.0 **** 0.06
11556 C 115.90836635026953 12.262941772896113 130.8018213413779 C 0.0 **** -0.24
11557 H 115.51811347719992 13.267424255449498 130.96222732974195 H 0.0 **** 0.06
11558 H 115.62522692376199 11.917124851598487 129.80811506027143 H 0.0 **** 0.06
11559 H 115.4953648244521 11.588981870662963 131.55278092524796 H 0.0 **** 0.06
11560 H 116.9955744290891 12.278250248239203 130.88647224746745 H 0.0 **** 0.06
11561 C 135.2117731585776 37.09486512660071 88.07595962611275 C 0.0 **** -0.24
11562 H 134.3120829704697 37.41880697309071 88.59990786638835 H 0.0 **** 0.06
11563 H 135.9916588244548 36.86347744079342 88.80310999488539 H 0.0 **** 0.06
11564 H 135.55442760322006 37.89116483609278 87.41604815693759 H 0.0 **** 0.06
11565 H 134.98832036614132 36.20469980102229 87.487204959315 H 0.0 **** 0.06
11566 C 53.71835315209718 72.05472266554602 111.74120468655421 C 0.0 **** -0.24
11567 H 52.63616389928323 71.98401786020452 111.85072973501529 H 0.0 **** 0.06
11568 H 54.11611210008397 72.72757623180485 112.50076598962805 H 0.0 **** 0.06
11569 H 53.9590039442506 72.4400238286737 110.75129275739882 H 0.0 **** 0.06
11570 H 54.160575188502946 71.06630105126433 111.8644031137621 H 0.0 **** 0.06
11571 C 97.70885320863519 146.09067333560623 15.319558504640817 C 0.0 **** -0.24
11572 H 97.49863068214513 146.58201339423155 14.369078650336334 H 0.0 **** 0.06
11573 H 97.6782891583524 146.8271452816554 16.12348602059741 H 0.0 **** 0.06
11574 H 98.69886633325925 145.63541439625257 15.280792234399165 H 0.0 **** 0.06
11575 H 96.96093040402239 145.3198284795719 15.504258681661973 H 0.0 **** 0.06
11576 C 22.35040218458566 117.02049404070556 2.269100567283516 C 0.0 **** -0.24
11577 H 22.692534382810805 116.3754389456252 1.4588080112845603 H 0.0 **** 0.06
11578 H 22.886073127046856 116.76900545871467 3.1838636935596014 H 0.0 **** 0.06
11579 H 21.280639782019414 116.8755039426834 2.42070125324733 H 0.0 **** 0.06
11580 H 22.54257822137148 118.06173471319585 2.008922277841549 H 0.0 **** 0.06
11581 C 103.90391087185273 71.3480667074342 119.7096344784871 C 0.0 **** -0.24
11582 H 103.12033186241288 71.20861684511098 120.45500900806191 H 0.0 **** 0.06
11583 H 104.87983705919751 71.28379055580156 120.1927640734255 H 0.0 **** 0.06
11584 H 103.79287041565894 72.32806746368608 119.24437104907172 H 0.0 **** 0.06
11585 H 103.822692295385 70.57276778239793 118.947413628619 H 0.0 **** 0.06
11586 C 99.99713123015128 87.70406627713895 112.91113465183346 C 0.0 **** -0.24
11587 H 99.8690986878472 87.23296112032814 111.93697447280297 H 0.0 **** 0.06
11588 H 100.90927018705908 87.33172740141916 113.37769630513819 H 0.0 **** 0.06
11589 H 99.141408558853 87.4680938278029 113.54357136013894 H 0.0 **** 0.06
11590 H 100.06880251700548 88.78439466713176 112.78521690061203 H 0.0 **** 0.06
11591 C 138.08174496368235 91.28020166758884 6.948314036995896 C 0.0 **** -0.24
11592 H 137.61117211734762 91.27724070419899 5.965140648540455 H 0.0 **** 0.06
11593 H 137.81969782172217 92.20003454518377 7.473137181653158 H 0.0 **** 0.06
11594 H 139.16354186675326 91.22354820842693 6.832688415195037 H 0.0 **** 0.06
11595 H 137.7313493489418 90.42254532989062 7.520893231154105 H 0.0 **** 0.06
11596 C 8.409598313906287 40.206043149833846 50.639645126375854 C 0.0 **** -0.24
11597 H 8.368042892383869 41.28111458068199 50.46532633357586 H 0.0 **** 0.06
11598 H 8.937394657151515 39.72461915758194 49.81642070920964 H 0.0 **** 0.06
11599 H 7.396841048274979 39.80919168502962 50.70452264907226 H 0.0 **** 0.06
11600 H 8.936179602927126 40.010671493467015 51.57371339997371 H 0.0 **** 0.06
11601 C 91.50912701556348 79.17904028469763 140.98412558450207 C 0.0 **** -0.24
11602 H 91.00814840350313 79.92996955610033 140.37376657699286 H 0.0 **** 0.06
11603 H 91.35452413734441 79.40575043376657 142.0391923858633 H 0.0 **** 0.06
11604 H 92.57734700625159 79.18533254788792 140.7634901267099 H 0.0 **** 0.06
11605 H 91.09787765344197 78.19521645026418 140.7598108921659 H 0.0 **** 0.06
11606 C 66.45433548053398 147.97119367801284 84.69147251898902 C 0.0 **** -0.24
11607 H 66.7949409884987 146.95703122225981 84.90082125810076 H 0.0 **** 0.06
11608 H 66.19244045312217 148.05591566383873 83.63656888300343 H 0.0 **** 0.06
11609 H 67.2494571508922 148.67844682537032 84.92760595917518 H 0.0 **** 0.06
11610 H 65.57858980536093 148.19189989659426 85.30127473213257 H 0.0 **** 0.06
11611 C 48.44707244001461 82.61459882746925 90.20373215610334 C 0.0 **** -0.24
11612 H 47.8538545871299 82.77671942980709 91.1029551123618 H 0.0 **** 0.06
11613 H 49.13784000212762 81.78683865447536 90.36804527281916 H 0.0 **** 0.06
11614 H 49.01150257271 83.51832460335808 89.97363905279559 H 0.0 **** 0.06
11615 H 47.7864249843018 82.37693856217157 89.37049750196317 H 0.0 **** 0.06
11616 C 107.5560474535661 31.654460687312792 54.52363146419094 C 0.0 **** -0.24
11617 H 108.29814032516853 32.22181779832172 55.08458291614831 H 0.0 **** 0.06
11618 H 107.92645945874287 30.643303121560365 54.35127760431702 H 0.0 **** 0.06
11619 H 107.37245931297517 32.14283930214994 53.56608133800597 H 0.0 **** 0.06
11620 H 106.62622558841517 31.60876263235052 55.091621352539164 H 0.0 **** 0.06
11621 C 133.529098327413 61.35367727152121 11.014806076853645 C 0.0 **** -0.24
11622 H 133.93974493071494 62.311678453999804 10.696421760461853 H 0.0 **** 0.06
11623 H 133.13763276163962 60.81942701841464 10.148815384015919 H 0.0 **** 0.06
11624 H 132.72585727535545 61.52394304413073 11.731229721605558 H 0.0 **** 0.06
11625 H 134.31396205925333 60.760356678427456 11.483689934817278 H 0.0 **** 0.06
11626 C 87.90597648619855 82.51957606166394 25.327571442107022 C 0.0 **** -0.24
11627 H 88.90982604481005 82.44116336323577 25.747322639248317 H 0.0 **** 0.06
11628 H 87.80286408286459 83.473372672756 24.810528575730082 H 0.0 **** 0.06
11629 H 87.17197531172324 82.45911978148462 26.13128271323506 H 0.0 **** 0.06
11630 H 87.74219558113754 81.7034314845348 24.62411617293995 H 0.0 **** 0.06
11631 C 108.44411896655987 8.863616857952252 133.35304480567063 C 0.0 **** -0.24
11632 H 108.32556777085335 9.272553748474763 132.34928599830943 H 0.0 **** 0.06
11633 H 107.54640056356078 8.30914675671545 133.62748802319925 H 0.0 **** 0.06
11634 H 108.59829374178571 9.678971771121724 134.061005291432 H 0.0 **** 0.06
11635 H 109.3049374988845 8.196319067339743 133.37443516172243 H 0.0 **** 0.06
11636 C 21.704317260969134 96.38991279361255 140.11225543275674 C 0.0 **** -0.24
11637 H 22.530607622926084 95.68443377031707 140.20016488686406 H 0.0 **** 0.06
11638 H 21.991412205119957 97.20482093080858 139.4475978436601 H 0.0 **** 0.06
11639 H 21.462611932012493 96.79187498080148 141.0964289111902 H 0.0 **** 0.06
11640 H 20.832637283817775 95.8785214925233 139.70483008931265 H 0.0 **** 0.06
11641 C 39.90361629895277 112.93147756731913 72.29546103983913 C 0.0 **** -0.24
11642 H 39.760535686575196 113.68081587673693 71.51686709994382 H 0.0 **** 0.06
11643 H 39.12105417104101 112.17676311332637 72.2207410727597 H 0.0 **** 0.06
11644 H 39.853746919693265 113.41139656594576 73.2734939275256 H 0.0 **** 0.06
11645 H 40.87756909917893 112.45986054337708 72.17065016774364 H 0.0 **** 0.06
11646 C 79.18945725447439 99.02606267021142 16.72968682559153 C 0.0 **** -0.24
11647 H 79.21730688026663 98.05546348625828 17.22399348374094 H 0.0 **** 0.06
11648 H 80.16187377457311 99.50851519874178 16.821377085521164 H 0.0 **** 0.06
11649 H 78.4281025378332 99.64954141080634 17.19964403751507 H 0.0 **** 0.06
11650 H 78.94758843356632 98.89065278301334 15.675534977650642 H 0.0 **** 0.06
11651 C 55.68307719499636 115.40444702608883 61.42870257358919 C 0.0 **** -0.24
11652 H 56.70089738524484 115.50628679071556 61.804645641422695 H 0.0 **** 0.06
11653 H 55.569853264474204 114.4325264709652 60.94743103355782 H 0.0 **** 0.06
11654 H 55.482178875635455 116.19369737444529 60.704259866219815 H 0.0 **** 0.06
11655 H 54.97993979407737 115.48460885316112 62.257360729068154 H 0.0 **** 0.06
11656 C 149.12448462396407 109.65812416254249 63.29847706712141 C 0.0 **** -0.24
11657 H 150.07263627151815 109.75205816696689 63.82812539245634 H 0.0 **** 0.06
11658 H 149.30967380252704 109.64165214556317 62.224444421035514 H 0.0 **** 0.06
11659 H 148.48533149576798 110.50608531658008 63.544827729417534 H 0.0 **** 0.06
11660 H 148.6323315114223 108.73238438590715 63.597837535328836 H 0.0 **** 0.06
11661 C 63.50157455657968 58.07295006209145 47.9284225690281 C 0.0 **** -0.24
11662 H 63.68816871314438 58.54985831849737 48.89135022473704 H 0.0 **** 0.06
11663 H 62.82363330242178 57.23102455906911 48.06589459931655 H 0.0 **** 0.06
11664 H 64.44336395087227 57.71793724001725 47.510795832053304 H 0.0 **** 0.06
11665 H 63.05099224316855 58.79544320808009 47.247866385250006 H 0.0 **** 0.06
11666 C 51.36633358642223 37.387233777824974 119.71000681940922 C 0.0 **** -0.24
11667 H 50.40806339219584 37.09578929615989 119.27987795800146 H 0.0 **** 0.06
11668 H 51.79121109298897 38.20607894862749 119.12862552593725 H 0.0 **** 0.06
11669 H 52.046408330488404 36.53583209543419 119.69036020848546 H 0.0 **** 0.06
11670 H 51.21895719673566 37.711207776818156 120.73993181989107 H 0.0 **** 0.06
11671 C 79.3842827947044 91.03204594872247 22.33722999065867 C 0.0 **** -0.24
11672 H 78.80729444016683 91.9075050399834 22.040775491624657 H 0.0 **** 0.06
11673 H 78.97307577017926 90.6223609148604 23.261394232669545 H 0.0 **** 0.06
11674 H 80.42342898154024 91.31930167766956 22.49775672525689 H 0.0 **** 0.06
11675 H 79.33200569190248 90.27895811631235 21.55079288940729 H 0.0 **** 0.06
11676 C 43.3701988339059 20.217984283650082 55.571949342079705 C 0.0 **** -0.24
11677 H 43.44655978743694 19.21458407633088 55.991633195862704 H 0.0 **** 0.06
11678 H 43.37917360772718 20.951160227409957 56.37889977303601 H 0.0 **** 0.06
11679 H 42.44016131277985 20.307521826771165 55.00994778684978 H 0.0 **** 0.06
11680 H 44.21490062767978 20.398671004088158 54.90731661257027 H 0.0 **** 0.06
11681 C 64.71918797281924 63.75228073637774 30.60393868692148 C 0.0 **** -0.24
11682 H 64.25349704838915 63.62062343227126 29.626293112059727 H 0.0 **** 0.06
11683 H 65.32954487842933 62.878832250803896 30.835590821401382 H 0.0 **** 0.06
11684 H 63.9444570849507 63.86678896783221 31.36253240226992 H 0.0 **** 0.06
11685 H 65.34727188273301 64.64260308794263 30.589338360486437 H 0.0 **** 0.06
11686 C 3.957645161711582 103.5263109701885 96.15561049371817 C 0.0 **** -0.24
11687 H 3.9494055492496614 102.50184888280442 95.78474800116865 H 0.0 **** 0.06
11688 H 4.927511358720892 103.98033475870959 95.94934006973102 H 0.0 **** 0.06
11689 H 3.778572945847884 103.52428153760123 97.23178036127145 H 0.0 **** 0.06
11690 H 3.1741236807033033 104.09812790109741 95.65848177104479 H 0.0 **** 0.06
11691 C 63.92932658734438 112.01677275679613 62.50697729101043 C 0.0 **** -0.24
11692 H 63.668447320500775 111.58087538747019 63.47239328843037 H 0.0 **** 0.06
11693 H 63.23928111160957 112.82863673103599 62.27785155957989 H 0.0 **** 0.06
11694 H 63.86207716583485 111.25122107750771 61.73391220339232 H 0.0 **** 0.06
11695 H 64.9471341707679 112.40439801149445 62.54736117729129 H 0.0 **** 0.06
11696 C 56.273508934498864 42.02737561872573 1.6256453770755002 C 0.0 **** -0.24
11697 H 56.52263551789207 41.242033521950134 0.9110411014156625 H 0.0 **** 0.06
11698 H 57.186508661993656 42.53520414471302 1.9392761033041097 H 0.0 **** 0.06
11699 H 55.78483125421678 41.58664395949472 2.4940365206884394 H 0.0 **** 0.06
11700 H 55.601906185102166 42.74592487646812 1.1556781445448792 H 0.0 **** 0.06
11701 C 96.69079369254206 122.59247968617167 103.4151690237878 C 0.0 **** -0.24
11702 H 96.78287160812422 122.72302891195794 104.49262852649386 H 0.0 **** 0.06
11703 H 95.66652003384067 122.30789792228701 103.16986460926157 H 0.0 **** 0.06
11704 H 97.37373502662169 121.80989751122819 103.0843159372636 H 0.0 **** 0.06
11705 H 96.93807359502799 123.52741596309671 102.91273367802066 H 0.0 **** 0.06
11706 C 59.079243261371715 89.17095950711237 5.813427484627791 C 0.0 **** -0.24
11707 H 58.93588357738591 88.42708625168748 5.030238468728509 H 0.0 **** 0.06
11708 H 59.360995323008154 90.12305272589447 5.36350663688475 H 0.0 **** 0.06
11709 H 59.86935020766268 88.84005364030537 6.488302914240599 H 0.0 **** 0.06
11710 H 58.1520230050578 89.29257576305443 6.372130906945642 H 0.0 **** 0.06
11711 C 2.6575429078689012 32.189567009040346 102.91684505969431 C 0.0 **** -0.24
11712 H 3.490039615644463 32.225552083010975 102.21303837617037 H 0.0 **** 0.06
11713 H 2.0670442345700053 31.29112654446717 102.73449218752464 H 0.0 **** 0.06
11714 H 2.0309511458259806 33.07110686573266 102.78289091532082 H 0.0 **** 0.06
11715 H 3.044939837546764 32.16964096388045 103.93629987282458 H 0.0 **** 0.06
11716 C 135.73229678866122 136.6195754598189 54.65864225901247 C 0.0 **** -0.24
11717 H 135.90971941378697 135.6139909337598 54.27638647787711 H 0.0 **** 0.06
11718 H 136.60675211851668 137.24117595574015 54.46273097239762 H 0.0 **** 0.06
11719 H 135.55200719031578 136.57225469379878 55.73240241610458 H 0.0 **** 0.06
11720 H 134.8619196945778 137.04826547170993 54.16174682091901 H 0.0 **** 0.06
11721 C 45.47369216611533 118.50411393683055 140.68168220280631 C 0.0 **** -0.24
11722 H 46.467428340881455 118.09300322172271 140.5041748057342 H 0.0 **** 0.06
11723 H 45.562601979061654 119.45919309329975 141.20051201719554 H 0.0 **** 0.06
11724 H 44.89684818745614 117.81078806866975 141.29295522853943 H 0.0 **** 0.06
11725 H 44.967620543363296 118.65453612568848 139.72689728269157 H 0.0 **** 0.06
11726 C 149.47017749475802 75.82115664068115 32.90527144269305 C 0.0 **** -0.24
11727 H 149.43105949618473 76.744711452172 32.326886787503156 H 0.0 **** 0.06
11728 H 148.47395591871705 75.58944013578697 33.28575484510867 H 0.0 **** 0.06
11729 H 150.15889780047817 75.94411254184826 33.74063881152159 H 0.0 **** 0.06
11730 H 149.8132250902531 75.00737221230243 32.26733203272039 H 0.0 **** 0.06
11731 C 100.96966521716897 103.44195572071291 3.6408942682814143 C 0.0 **** -0.24
11732 H 100.86768243755184 104.43953931370837 4.067601374937908 H 0.0 **** 0.06
11733 H 101.0827240612376 102.7137081290181 4.44367543877749 H 0.0 **** 0.06
11734 H 101.84757344026617 103.41097970657509 2.9954145007761497 H 0.0 **** 0.06
11735 H 100.08067371581093 103.203801095307 3.055907080387584 H 0.0 **** 0.06
11736 C 101.74169493508143 72.72918663993738 89.9316917676112 C 0.0 **** -0.24
11737 H 101.74373490605362 73.27433519729468 88.98725468074223 H 0.0 **** 0.06
11738 H 102.33217960912884 71.81888836204125 89.82602061478651 H 0.0 **** 0.06
11739 H 100.71709731289408 72.47036592061184 90.19885470257474 H 0.0 **** 0.06
11740 H 102.17375497840962 73.35535590917478 90.71236433212064 H 0.0 **** 0.06
11741 C 148.8393351273633 70.42066127152327 1.8466432740658547 C 0.0 **** -0.24
11742 H 148.10884433689938 69.76185149176689 1.3772123850694697 H 0.0 **** 0.06
11743 H 149.11983886562933 71.20906168260554 1.1469261935984605 H 0.0 **** 0.06
11744 H 149.72466621696154 69.8451318738076 2.118908396783013 H 0.0 **** 0.06
11745 H 148.40503177731364 70.8661187141116 2.741361515342419 H 0.0 **** 0.06
11746 C 102.7483869403635 76.60878437260796 137.7849243583915 C 0.0 **** -0.24
11747 H 102.22943934013571 77.36590369047711 137.1971385064762 H 0.0 **** 0.06
11748 H 103.81127191200935 76.84458564698014 137.82288131934897 H 0.0 **** 0.06
11749 H 102.60883123653 75.63162715106502 137.32277130354504 H 0.0 **** 0.06
11750 H 102.34320360683355 76.59266604917627 138.79642528769938 H 0.0 **** 0.06
11751 C 46.63019974483677 71.8423034987702 14.938799925525359 C 0.0 **** -0.24
11752 H 46.211985340854994 72.68029657722434 14.380931835732952 H 0.0 **** 0.06
11753 H 46.20738922582123 71.82831565912147 15.943021546616194 H 0.0 **** 0.06
11754 H 47.71327501750997 71.95298902803404 15.000994701469665 H 0.0 **** 0.06
11755 H 46.38863987980392 70.91023852715603 14.429321612584886 H 0.0 **** 0.06
11756 C 62.165810110934785 31.142954622666196 26.370910045471533 C 0.0 **** -0.24
11757 H 62.11694078276608 31.982605301620822 25.67753063093903 H 0.0 **** 0.06
11758 H 61.664902467720566 30.27951410549946 25.932337913544643 H 0.0 **** 0.06
11759 H 61.67212784484224 31.41381787812918 27.304346926749645 H 0.0 **** 0.06
11760 H 63.208504744425824 30.89638404583428 26.569827908942614 H 0.0 **** 0.06
11761 C 27.73387308487716 41.33198684634668 129.58082923022772 C 0.0 **** -0.24
11762 H 27.01393573474951 40.51883203027266 129.48816887628604 H 0.0 **** 0.06
11763 H 28.200872137657512 41.29437881773876 130.56463306121296 H 0.0 **** 0.06
11764 H 27.22097832285678 42.286188286361295 129.4568934055638 H 0.0 **** 0.06
11765 H 28.499160134052744 41.22799907068915 128.8115238512586 H 0.0 **** 0.06
11766 C 32.75353287589027 45.528264515018506 45.8711209981155 C 0.0 **** -0.24
11767 H 32.720830337810185 45.9134019692374 44.851982064048556 H 0.0 **** 0.06
11768 H 32.14979306936357 46.16335272185768 46.518857575425315 H 0.0 **** 0.06
11769 H 33.784388501557075 45.52372922917279 46.2244488525952 H 0.0 **** 0.06
11770 H 32.359336315794025 44.51154759426062 45.88824718110713 H 0.0 **** 0.06
11771 C 50.21881656750422 43.617006840244244 60.22633998667375 C 0.0 **** -0.24
11772 H 50.05788977898412 44.397591569774775 60.969515949116214 H 0.0 **** 0.06
11773 H 50.10740968890643 42.63967797128254 60.69593691283676 H 0.0 **** 0.06
11774 H 51.222726807613725 43.710315226891794 59.81371156912299 H 0.0 **** 0.06
11775 H 49.48539152338235 43.7216313003035 59.4266082049656 H 0.0 **** 0.06
11776 C 101.24358070173942 120.42175547247753 130.18019399018883 C 0.0 **** -0.24
11777 H 101.30617995776672 121.12037271846067 131.01416625483543 H 0.0 **** 0.06
11778 H 102.03851461016748 119.6806888558633 130.2672678430733 H 0.0 **** 0.06
11779 H 101.35316610231035 120.9646335320921 129.24133727119008 H 0.0 **** 0.06
11780 H 100.27562601689627 119.92036246786803 130.19861374863692 H 0.0 **** 0.06
11781 C 130.1285105783445 93.48497148693937 92.14036259476359 C 0.0 **** -0.24
11782 H 130.9894585813753 93.88636166628326 91.60750344155622 H 0.0 **** 0.06
11783 H 130.0606980301061 93.94924871404189 93.12468603391682 H 0.0 **** 0.06
11784 H 130.24157554579494 92.40711870586243 92.25378284856328 H 0.0 **** 0.06
11785 H 129.2205976582242 93.6970945014268 91.57522592006586 H 0.0 **** 0.06
11786 C 136.69474676753492 44.72477440166318 22.249812820989135 C 0.0 **** -0.24
11787 H 136.10056989698904 45.06401706365813 23.098100939879096 H 0.0 **** 0.06
11788 H 137.50207336559725 45.434241875064345 22.066035289912264 H 0.0 **** 0.06
11789 H 136.06178479840656 44.6573732094418 21.365686889216093 H 0.0 **** 0.06
11790 H 137.1165849705181 43.74411838252314 22.47064034906502 H 0.0 **** 0.06
11791 C 86.4063059456706 35.82340694944776 22.590860096655717 C 0.0 **** -0.24
11792 H 85.64570985571663 35.458718166389076 23.28150557556286 H 0.0 **** 0.06
11793 H 85.94544241626522 36.49271990591177 21.86454167450958 H 0.0 **** 0.06
11794 H 86.8604317050841 34.97898565143183 22.07202489820986 H 0.0 **** 0.06
11795 H 87.17394453821414 36.362280077670135 23.147115669346576 H 0.0 **** 0.06
11796 C 73.56185895763417 89.89304555428953 5.727921617120579 C 0.0 **** -0.24
11797 H 74.55600255535903 89.45055956571821 5.798300421248822 H 0.0 **** 0.06
11798 H 72.82943959777718 89.21221493892023 6.162249899336231 H 0.0 **** 0.06
11799 H 73.31789684068185 90.07089710992324 4.680031434736453 H 0.0 **** 0.06
11800 H 73.54675531045706 90.83889589401844 6.270219071750084 H 0.0 **** 0.06
11801 C 123.3651603699138 133.02473327251045 83.19219755109324 C 0.0 **** -0.24
11802 H 123.08226531718303 134.01740676618834 83.54156009224941 H 0.0 **** 0.06
11803 H 124.45151823184317 132.93403854321227 83.20004348618718 H 0.0 **** 0.06
11804 H 122.99580110662019 132.8776370068196 82.17765879900875 H 0.0 **** 0.06
11805 H 122.93254309951782 132.270735786243 83.84961641545753 H 0.0 **** 0.06
11806 C 42.411408715004725 79.82968947223705 127.4122677403681 C 0.0 **** -0.24
11807 H 41.44281394943664 79.80572197308351 127.9110454481897 H 0.0 **** 0.06
11808 H 43.11039248240647 80.42024306599521 128.00390327217008 H 0.0 **** 0.06
11809 H 42.300080269480716 80.27744898165952 126.424350785129 H 0.0 **** 0.06
11810 H 42.79115964336587 78.81255252707751 127.30887914886239 H 0.0 **** 0.06
11811 C 69.14290926144598 53.46527318984039 127.74056706934593 C 0.0 **** -0.24
11812 H 69.3268012512898 53.74021438725879 128.77878213778612 H 0.0 **** 0.06
11813 H 68.07302076804423 53.519438085152274 127.53449346308821 H 0.0 **** 0.06
11814 H 69.49570228374452 52.44885310941538 127.56652748064445 H 0.0 **** 0.06
11815 H 69.67470905967826 54.15253802023881 127.0826305159186 H 0.0 **** 0.06
11816 C 70.95037954659502 66.8721112660235 114.86224111388312 C 0.0 **** -0.24
11817 H 70.8288280195109 65.93220506934341 115.39998271017974 H 0.0 **** 0.06
11818 H 71.91023394039527 66.87339523883257 114.34408530699348 H 0.0 **** 0.06
11819 H 70.91732104955747 67.70148126221319 115.56791312383187 H 0.0 **** 0.06
11820 H 70.14503479413304 66.98126445295844 114.13525698199 H 0.0 **** 0.06
11821 C 51.145180231641575 4.281398109775722 31.810355370907473 C 0.0 **** -0.24
11822 H 51.27963444389053 4.3077699835384635 30.729036236737954 H 0.0 **** 0.06
11823 H 50.580515047463905 5.158377239330235 32.12766175097036 H 0.0 **** 0.06
11824 H 52.11973973127414 4.279761658462206 32.29801156965888 H 0.0 **** 0.06
11825 H 50.59912323605067 3.3785447930323187 32.08582618626144 H 0.0 **** 0.06
11826 C 109.85973337937206 28.213445361475053 95.2902946039508 C 0.0 **** -0.24
11827 H 109.81769329145739 29.053481901461964 95.98382018914197 H 0.0 **** 0.06
11828 H 110.21978434274199 27.327969793786025 95.81333645338867 H 0.0 **** 0.06
11829 H 110.53728067496728 28.452933340662895 94.471156869221 H 0.0 **** 0.06
11830 H 108.86295871008637 28.02118516809506 94.89229863601798 H 0.0 **** 0.06
11831 C 115.91111352389349 122.03724981225656 117.0877353880264 C 0.0 **** -0.24
11832 H 115.91101058677627 123.03037673095429 116.63819405853266 H 0.0 **** 0.06
11833 H 116.9076609119205 121.60138347545615 117.00407299424674 H 0.0 **** 0.06
11834 H 115.19227482249381 121.4035783563366 116.56846678324158 H 0.0 **** 0.06
11835 H 115.63517810067925 122.11435354354205 118.13935325410156 H 0.0 **** 0.06
11836 C 3.5970529140796543 34.72874188487463 114.7950121998731 C 0.0 **** -0.24
11837 H 2.7328031310618606 34.817732418976796 115.45364525471086 H 0.0 **** 0.06
11838 H 3.337671902071044 34.10911743067216 113.93620806968374 H 0.0 **** 0.06
11839 H 4.4225383192375745 34.26972442022071 115.33854442201255 H 0.0 **** 0.06
11840 H 3.894086238154536 35.72018323274737 114.45239906692802 H 0.0 **** 0.06
11841 C 42.44130436142919 14.41885727298449 146.27294754616062 C 0.0 **** -0.24
11842 H 42.29148138989828 13.908064701945833 145.32087161822153 H 0.0 **** 0.06
11843 H 41.478585849950605 14.55962470806687 146.76399751153295 H 0.0 **** 0.06
11844 H 42.904277421256666 15.389340963356865 146.09495083940894 H 0.0 **** 0.06
11845 H 43.08938246774949 13.817179949009237 146.90926948242674 H 0.0 **** 0.06
11846 C 49.26499460695892 35.97617665240386 83.26086276577732 C 0.0 **** -0.24
11847 H 50.335827633057065 35.783907179779064 83.19404537071325 H 0.0 **** 0.06
11848 H 49.06664535336448 36.63323091580998 84.10854714583503 H 0.0 **** 0.06
11849 H 48.73505573530238 35.033817458596715 83.39866123143202 H 0.0 **** 0.06
11850 H 48.924458109999335 36.45473242071607 82.34225578736404 H 0.0 **** 0.06
11851 C 108.78275827903184 15.317452724532089 136.5573112662178 C 0.0 **** -0.24
11852 H 108.33155671351699 15.010812108478277 137.50086738881575 H 0.0 **** 0.06
11853 H 109.62820820014639 14.666840246176392 136.33126180914385 H 0.0 **** 0.06
11854 H 109.12904357806002 16.348249138585672 136.63799434804923 H 0.0 **** 0.06
11855 H 108.04415984399532 15.244004309825904 135.76023780788773 H 0.0 **** 0.06
11856 C 118.19162830307707 47.09831632931714 115.05944031257208 C 0.0 **** -0.24
11857 H 117.48701340687299 47.929708028708276 115.03556187347611 H 0.0 **** 0.06
11858 H 117.68149278893563 46.18189741709253 114.76241400909596 H 0.0 **** 0.06
11859 H 118.58460848162449 46.984420614136724 116.06996881106427 H 0.0 **** 0.06
11860 H 119.0115267312083 47.29821218539938 114.37055813942614 H 0.0 **** 0.06
11861 C 16.760898315486486 62.1514767051558 59.35149914663262 C 0.0 **** -0.24
11862 H 16.917256676044133 61.26668091008946 59.96787071939613 H 0.0 **** 0.06
11863 H 17.67641421433808 62.38025985988003 58.80540536924113 H 0.0 **** 0.06
11864 H 16.496370072134994 62.996038750919695 59.9873098272071 H 0.0 **** 0.06
11865 H 15.954048326188968 61.961926555803885 58.64347349437949 H 0.0 **** 0.06
11866 C 133.9408180155947 147.3427455709706 126.1610154470844 C 0.0 **** -0.24
11867 H 134.5208808545808 148.1391673741726 126.62874180949859 H 0.0 **** 0.06
11868 H 133.75461256923612 147.59431866260783 125.11717878600216 H 0.0 **** 0.06
11869 H 132.99013647062554 147.23153542384662 126.68318344043229 H 0.0 **** 0.06
11870 H 134.49819474184372 146.40785305671142 126.21762505764256 H 0.0 **** 0.06
11871 C 107.63537415729785 89.62080955100393 40.29810576274096 C 0.0 **** -0.24
11872 H 107.88852653805166 88.64266542246385 40.70940308792697 H 0.0 **** 0.06
11873 H 106.57449239726866 89.64600398568334 40.04825254364242 H 0.0 **** 0.06
11874 H 108.22514062555304 89.79936252120645 39.399124213950515 H 0.0 **** 0.06
11875 H 107.85407308184416 90.39221623798997 41.03636315738353 H 0.0 **** 0.06
11876 C 87.77853910263428 0.09085398008067358 104.89467405859361 C 0.0 **** -0.24
11877 H 87.25371776331977 -0.8563814900485127 104.77344294243218 H 0.0 **** 0.06
11878 H 87.79030732043148 0.3682624549286473 105.94892618540811 H 0.0 **** 0.06
11879 H 87.26717948940555 0.8653070818141586 104.32105458237456 H 0.0 **** 0.06
11880 H 88.80200000462844 -0.012019484845925632 104.53426136388671 H 0.0 **** 0.06
11881 C 127.88921595732565 118.89117253736454 86.03141613211469 C 0.0 **** -0.24
11882 H 128.84538448020498 118.83806542500282 85.51162305457648 H 0.0 **** 0.06
11883 H 127.52021220811038 117.88248030230694 86.21760071391577 H 0.0 **** 0.06
11884 H 127.17010392274094 119.43246290589799 85.41625183006275 H 0.0 **** 0.06
11885 H 128.0196579367667 119.41085558444031 86.9804171274366 H 0.0 **** 0.06
11886 C 146.63014415282373 41.476087435161816 112.74630246877724 C 0.0 **** -0.24
11887 H 146.19336497471326 40.51808664504267 113.02967492058168 H 0.0 **** 0.06
11888 H 147.67290759842416 41.50797577118843 113.06252552930694 H 0.0 **** 0.06
11889 H 146.0787386327043 42.28336111708839 113.2285613683636 H 0.0 **** 0.06
11890 H 146.57405051799194 41.59329746553965 111.66421892988218 H 0.0 **** 0.06
11891 C 117.5256553205342 74.3026474443613 64.9593469290245 C 0.0 **** -0.24
11892 H 116.63498699462384 74.80800384037269 64.58522081419484 H 0.0 **** 0.06
11893 H 117.77023725844846 73.46626778162869 64.30557084311995 H 0.0 **** 0.06
11894 H 117.33773987387441 73.93405296413935 65.96792731201303 H 0.0 **** 0.06
11895 H 118.35941033964484 75.00426053590371 64.97964745255881 H 0.0 **** 0.06
11896 C 2.8171621640858575 78.18801221339938 141.63534333597474 C 0.0 **** -0.24
11897 H 1.8424306475267258 78.26199192720559 142.11663942362026 H 0.0 **** 0.06
11898 H 3.553011333467765 78.74358091225068 142.21776667860226 H 0.0 **** 0.06
11899 H 2.759277038742624 78.60518277245124 140.62940717295922 H 0.0 **** 0.06
11900 H 3.11561248652157 77.14132193321684 141.57715104211593 H 0.0 **** 0.06
11901 C 70.96911573150045 111.07527091962969 64.58445980058193 C 0.0 **** -0.24
11902 H 71.65321364879821 111.27167974403729 63.75787032589072 H 0.0 **** 0.06
11903 H 71.54104694486708 110.93095515514459 65.50121175212263 H 0.0 **** 0.06
11904 H 70.39066207233509 110.17621490525515 64.37001596185239 H 0.0 **** 0.06
11905 H 70.29322365113724 111.92175945680178 64.70575091803455 H 0.0 **** 0.06
11906 C 52.48678890841559 0.6628552790135132 79.49656989287757 C 0.0 **** -0.24
11907 H 52.652850343735594 0.14063491815943507 78.55454708886528 H 0.0 **** 0.06
11908 H 51.672876983757604 0.18205799157027514 80.03963236334346 H 0.0 **** 0.06
11909 H 52.22575258303385 1.7010037294215863 79.2948838513886 H 0.0 **** 0.06
11910 H 53.39584904263418 0.626460030144699 80.09660699954175 H 0.0 **** 0.06
11911 C 40.045655834872576 25.386650833988824 28.21858029459883 C 0.0 **** -0.24
11912 H 39.37433423326516 25.1481847067418 27.393706551724563 H 0.0 **** 0.06
11913 H 40.68105395092621 26.227754454997807 27.938158327757954 H 0.0 **** 0.06
11914 H 40.667540842217875 24.52014967720021 28.44146868642865 H 0.0 **** 0.06
11915 H 39.4605180497453 25.65044201506862 29.098910020782817 H 0.0 **** 0.06
11916 C 1.874444366253897 125.74126427477012 9.352532694162335 C 0.0 **** -0.24
11917 H 2.49735148060509 126.0081695499053 10.206541360545401 H 0.0 **** 0.06
11918 H 1.32170424086695 126.61834940212164 9.017478252677876 H 0.0 **** 0.06
11919 H 1.1731624081220104 124.959250742934 9.644436704545512 H 0.0 **** 0.06
11920 H 2.506024144436225 125.37795275538484 8.541726789895478 H 0.0 **** 0.06
11921 C 144.36482548725618 15.092228223686135 96.96162016263561 C 0.0 **** -0.24
11922 H 143.38442138772658 14.63071933768154 97.07983114111985 H 0.0 **** 0.06
11923 H 144.69590038956315 14.981788597649455 95.9288467152191 H 0.0 **** 0.06
11924 H 145.07787754975405 14.603102084992969 97.6256080219579 H 0.0 **** 0.06
11925 H 144.30047178985703 16.15115978658116 97.21209777561062 H 0.0 **** 0.06
11926 C 48.30748981769416 71.52380349336957 120.90678146046709 C 0.0 **** -0.24
11927 H 47.76750274017978 70.7700730460956 121.48057748975278 H 0.0 **** 0.06
11928 H 49.13873730706467 71.90553180558943 121.5001781377397 H 0.0 **** 0.06
11929 H 47.63288761584796 72.34187113562828 120.65550141291952 H 0.0 **** 0.06
11930 H 48.69226530932589 71.07459697207933 119.99058778664921 H 0.0 **** 0.06
11931 C 105.65355393208095 34.336129948368345 135.7311475513453 C 0.0 **** -0.24
11932 H 106.63976494625699 34.74541012152688 135.51103377105673 H 0.0 **** 0.06
11933 H 105.08124146532363 35.06190527423371 136.30980300858008 H 0.0 **** 0.06
11934 H 105.76194199213977 33.416620158964314 136.30473206242684 H 0.0 **** 0.06
11935 H 105.13239546736544 34.12371870030503 134.79764189948358 H 0.0 **** 0.06
11936 C 146.7269379134633 83.13085359872386 39.274846768863085 C 0.0 **** -0.24
11937 H 145.76679252832884 83.49832232986319 38.91227254940594 H 0.0 **** 0.06
11938 H 146.638756109064 82.86328463222671 40.328039685129994 H 0.0 **** 0.06
11939 H 147.4810867018894 83.90885999966565 39.1590361273317 H 0.0 **** 0.06
11940 H 147.02013811368684 82.25215668731309 38.699392248373734 H 0.0 **** 0.06
11941 C 3.5283875675494585 98.59795241581993 17.93246811089071 C 0.0 **** -0.24
11942 H 2.460946187960701 98.53263168405928 17.72164688724797 H 0.0 **** 0.06
11943 H 3.7732419326316347 99.61123328998396 18.253026596893363 H 0.0 **** 0.06
11944 H 4.091524573314587 98.35565530441168 17.03161835698407 H 0.0 **** 0.06
11945 H 3.785892509523876 97.89450983577166 18.723045212605655 H 0.0 **** 0.06
11946 C 18.03107283869707 35.49853146745136 9.473470152382333 C 0.0 **** -0.24
11947 H 18.391733525149135 36.11059641674143 10.300453144358642 H 0.0 **** 0.06
11948 H 17.228319956352834 36.02507836762095 8.956784876109126 H 0.0 **** 0.06
11949 H 17.656334958559086 34.551167071065834 9.860136262922715 H 0.0 **** 0.06
11950 H 18.849480479546543 35.309072148516236 8.77858339897056 H 0.0 **** 0.06
11951 C 89.2977232087074 21.30414236120049 96.05057376926517 C 0.0 **** -0.24
11952 H 90.34453857288271 21.55184272601082 95.87330949052014 H 0.0 **** 0.06
11953 H 88.78226840147094 21.20345619337448 95.0943148084939 H 0.0 **** 0.06
11954 H 88.83066725131864 22.097398973371583 96.63382769730572 H 0.0 **** 0.06
11955 H 89.23485606688627 20.364432832650238 96.59808281891169 H 0.0 **** 0.06
11956 C 113.39221953443895 111.1308553678598 30.0493097777523 C 0.0 **** -0.24
11957 H 113.50162615698137 112.21358227803336 29.983963557166426 H 0.0 **** 0.06
11958 H 112.61716550463 110.8867981820186 30.77513881267445 H 0.0 **** 0.06
11959 H 114.33769407510611 110.68894397758032 30.364864408004486 H 0.0 **** 0.06
11960 H 113.11431989615691 110.73479023541194 29.072375440134785 H 0.0 **** 0.06
11961 C 13.258876553341622 53.365635357087484 58.33246155602137 C 0.0 **** -0.24
11962 H 12.960475607211322 52.55898860839113 57.66265905439002 H 0.0 **** 0.06
11963 H 14.280149794412978 53.66927608295032 58.10155730009683 H 0.0 **** 0.06
11964 H 13.208032959866784 53.0178903884497 59.36447263453357 H 0.0 **** 0.06
11965 H 12.58850847998201 54.21394920773358 58.200606791340135 H 0.0 **** 0.06
11966 C 142.69063898276661 88.05812685256835 47.36159520788469 C 0.0 **** -0.24
11967 H 141.8163932323667 88.45065594073273 47.881753642928075 H 0.0 **** 0.06
11968 H 143.53186469002804 88.00955868575988 48.05241348723784 H 0.0 **** 0.06
11969 H 142.94142720199233 88.71342440979785 46.527871729306256 H 0.0 **** 0.06
11970 H 142.47065352560438 87.05883086551886 46.984629097044376 H 0.0 **** 0.06
11971 C 33.12050796120562 99.67421891354633 147.77402438588734 C 0.0 **** -0.24
11972 H 33.258894914871775 100.69528335268637 148.13041878711041 H 0.0 **** 0.06
11973 H 33.31361524499832 98.97661552224461 148.58847606567275 H 0.0 **** 0.06
11974 H 33.81405174872154 99.47908376523279 146.95548372806462 H 0.0 **** 0.06
11975 H 32.097232821905436 99.54902419440285 147.4214216088297 H 0.0 **** 0.06
11976 C 87.80460801447333 109.22012021737221 142.53385617557734 C 0.0 **** -0.24
11977 H 87.92008465752423 108.44692754431931 143.29346839342463 H 0.0 **** 0.06
11978 H 87.7209026310345 108.7541863951975 141.55139161589472 H 0.0 **** 0.06
11979 H 88.67336629423613 109.87797294052127 142.55032790804168 H 0.0 **** 0.06
11980 H 86.90463583339546 109.80059235251336 142.73921365096388 H 0.0 **** 0.06
11981 C 53.59379367960389 105.45701527066466 29.829853246204863 C 0.0 **** -0.24
11982 H 53.25805253686687 106.47035687978452 29.606870744678872 H 0.0 **** 0.06
11983 H 53.20383265257526 104.77139554384617 29.07756309564465 H 0.0 **** 0.06
11984 H 53.22863534345478 105.16253141985085 30.813968153613672 H 0.0 **** 0.06
11985 H 54.68282610594409 105.42439565399222 29.822519602094587 H 0.0 **** 0.06
11986 C 60.20722086099096 51.10221648788132 36.1042630225177 C 0.0 **** -0.24
11987 H 60.839952469802256 50.24219153115155 36.325116578256115 H 0.0 **** 0.06
11988 H 60.79736642371262 52.01572481901968 36.177803692755134 H 0.0 **** 0.06
11989 H 59.38561731302019 51.142080117027604 36.81869002745276 H 0.0 **** 0.06
11990 H 59.80692472075833 51.008495814781895 35.09406157161911 H 0.0 **** 0.06
11991 C 81.56433481898937 133.32869024300334 1.2663465872982727 C 0.0 **** -0.24
11992 H 81.40933187682808 133.62074837805625 2.3046628168490173 H 0.0 **** 0.06
11993 H 81.47656821960496 134.20617704004738 0.6259042248731284 H 0.0 **** 0.06
11994 H 80.81368973232853 132.59191542323296 0.9796789810676891 H 0.0 **** 0.06
11995 H 82.55946287404291 132.89590929747766 1.1565770706690266 H 0.0 **** 0.06
11996 C 103.24252113762479 10.56128623421835 142.47308969738933 C 0.0 **** -0.24
11997 H 102.3008512221167 10.28899100948152 141.9954773049902 H 0.0 **** 0.06
11998 H 103.30790945617578 10.077168499171215 143.44730058655082 H 0.0 **** 0.06
11999 H 103.28630941514636 11.642941146065347 142.59979690524327 H 0.0 **** 0.06
12000 H 104.07430266799408 10.235532839833475 141.84772681847798 H 0.0 **** 0.06
12001 C 17.8679299555144 143.91016978421308 74.090460193044 C 0.0 **** -0.24
12002 H 18.26376125843632 144.4048191109966 74.97698039962349 H 0.0 **** 0.06
12003 H 18.24819431498389 144.4074160828752 73.19718381861368 H 0.0 **** 0.06
12004 H 16.77955670242045 143.96170251186135 74.10087628645516 H 0.0 **** 0.06
12005 H 18.18247151269685 142.86581407292303 74.08667909752585 H 0.0 **** 0.06
12006 C 65.9472129510583 108.26454484926211 57.33260618806533 C 0.0 **** -0.24
12007 H 66.10032493641773 108.90754853042182 58.199266713187185 H 0.0 **** 0.06
12008 H 64.87858977001088 108.10471414305727 57.18530321414386 H 0.0 **** 0.06
12009 H 66.43816874926796 107.30650655965883 57.499280932973775 H 0.0 **** 0.06
12010 H 66.36932122830996 108.74080708588917 56.44760371766385 H 0.0 **** 0.06
12011 C 148.36063920780268 89.04438499995626 95.91162874161898 C 0.0 **** -0.24
12012 H 147.76595958059403 88.14309018934983 96.05897280775164 H 0.0 **** 0.06
12013 H 149.33496233182495 88.91799736235298 96.38286654889544 H 0.0 **** 0.06
12014 H 147.84695511628772 89.89485053293035 96.36110905825754 H 0.0 **** 0.06
12015 H 148.4927893861774 89.22210225966458 94.84465106276255 H 0.0 **** 0.06
12016 C 10.884879550497374 122.35668788347937 54.80844231324633 C 0.0 **** -0.24
12017 H 10.694129318243967 121.45210952411384 54.23089592705833 H 0.0 **** 0.06
12018 H 11.758065772426022 122.86871207025871 54.403619447793474 H 0.0 **** 0.06
12019 H 11.070036911974768 122.09051790155263 55.84913668650859 H 0.0 **** 0.06
12020 H 10.018252865200992 123.0139951624567 54.75035829459209 H 0.0 **** 0.06
12021 C 72.5640345940817 135.02875922238522 17.040515719534866 C 0.0 **** -0.24
12022 H 71.65221798093474 134.4429755227803 16.921930628992797 H 0.0 **** 0.06
12023 H 73.11025168737521 135.04355276553926 16.096803602076527 H 0.0 **** 0.06
12024 H 73.18604102208747 134.57892731704422 17.81427972659595 H 0.0 **** 0.06
12025 H 72.3065456388079 136.04812878616488 17.328200645781727 H 0.0 **** 0.06
12026 C 70.60804342097283 118.78048591841652 18.629184325938326 C 0.0 **** -0.24
12027 H 69.83244597949702 119.33601739447964 19.156303732342764 H 0.0 **** 0.06
12028 H 71.58832352959537 119.14729870869537 18.933954369706555 H 0.0 **** 0.06
12029 H 70.4866989053854 118.91841731626458 17.55498140954998 H 0.0 **** 0.06
12030 H 70.52417633647734 117.72074203513448 18.87083637275964 H 0.0 **** 0.06
12031 C 47.1761524614474 37.761599916673845 97.3664692635057 C 0.0 **** -0.24
12032 H 46.712817963829735 36.871776848898264 96.94133104801406 H 0.0 **** 0.06
12033 H 47.88859698567725 38.177057151375095 96.6530446996587 H 0.0 **** 0.06
12034 H 47.695890887494585 37.496053119796386 98.28687207706773 H 0.0 **** 0.06
12035 H 46.40638582632616 38.50251672272043 97.58501477375276 H 0.0 **** 0.06
12036 C 123.5260564879017 94.24308219757194 49.24494779832135 C 0.0 **** -0.24
12037 H 123.16564392027315 94.3765880422165 48.22517309864841 H 0.0 **** 0.06
12038 H 123.25404895994457 95.11311387960481 49.8431904644594 H 0.0 **** 0.06
12039 H 124.61015429123343 94.13283336335907 49.23602540522275 H 0.0 **** 0.06
12040 H 123.07296615905757 93.34972811247671 49.675384943823616 H 0.0 **** 0.06
12041 C 3.6173290002635667 68.1960519897004 71.36855658768802 C 0.0 **** -0.24
12042 H 3.078752546052243 67.43915110292403 70.79980367689156 H 0.0 **** 0.06
12043 H 4.66291135215792 67.90329164512868 71.46506780834692 H 0.0 **** 0.06
12044 H 3.1723506009434175 68.29067136881481 72.35872973177494 H 0.0 **** 0.06
12045 H 3.554272297002342 69.15274785135242 70.85017221374227 H 0.0 **** 0.06
12046 C 79.78674514424753 128.63598702721967 80.29020823597105 C 0.0 **** -0.24
12047 H 79.42426890983737 129.5098584387119 80.831359057257 H 0.0 **** 0.06
12048 H 80.24885472752638 127.94047069792657 80.99030339200081 H 0.0 **** 0.06
12049 H 80.52275707516387 128.94867161353025 79.54901979979584 H 0.0 **** 0.06
12050 H 78.95172386682148 128.1464370489401 79.78830904782896 H 0.0 **** 0.06
12051 C 59.02972911551451 97.30825383974087 109.43296653653489 C 0.0 **** -0.24
12052 H 58.31305858555635 97.85360836088012 108.82022660637226 H 0.0 **** 0.06
12053 H 58.50171493495168 96.77898569625751 110.22606472386259 H 0.0 **** 0.06
12054 H 59.73770169946596 98.00989579487293 109.87403781160624 H 0.0 **** 0.06
12055 H 59.567835565785174 96.59120869155413 108.81230461749458 H 0.0 **** 0.06
12056 C 106.73854244422368 24.899178850614675 10.966287950066487 C 0.0 **** -0.24
12057 H 107.2935187456235 24.587518009209262 11.850893111833415 H 0.0 **** 0.06
12058 H 105.80477947724306 25.371505171906648 11.270840143911727 H 0.0 **** 0.06
12059 H 106.52047878998881 24.02701942507386 10.34886531424823 H 0.0 **** 0.06
12060 H 107.33519543932631 25.609699888412848 10.3944326074662 H 0.0 **** 0.06
12061 C 92.9971943033097 97.46201547556927 119.22525300600874 C 0.0 **** -0.24
12062 H 92.53343785190444 96.70014688294712 119.85154341171177 H 0.0 **** 0.06
12063 H 94.05849944926183 97.53459783573366 119.46783033161465 H 0.0 **** 0.06
12064 H 92.51599021221546 98.42331614598447 119.40635557459895 H 0.0 **** 0.06
12065 H 92.881412514781 97.18858647067408 118.17610875062577 H 0.0 **** 0.06
12066 C 9.625495867304267 138.3128969455339 52.53568507464672 C 0.0 **** -0.24
12067 H 9.891070038259016 139.32447143956168 52.227015473661766 H 0.0 **** 0.06
12068 H 8.681721464738303 138.33583513500176 53.08044575282133 H 0.0 **** 0.06
12069 H 10.40791383347539 137.91180422799218 53.179358295292104 H 0.0 **** 0.06
12070 H 9.520947645057362 137.6805888456446 51.654009045987095 H 0.0 **** 0.06
12071 C 54.805096787978314 85.43916074410322 18.287961304704595 C 0.0 **** -0.24
12072 H 54.11898953047675 84.94665515987941 17.600092491194403 H 0.0 **** 0.06
12073 H 55.80041229565049 85.47580211968614 17.84456311842831 H 0.0 **** 0.06
12074 H 54.84341728067065 84.88217332445299 19.22449590813983 H 0.0 **** 0.06
12075 H 54.45696993366791 86.45422870361966 18.483548311025515 H 0.0 **** 0.06
12076 C 11.003462315029807 70.62623175172574 147.599441638586 C 0.0 **** -0.24
12077 H 10.817099790536538 70.13852133096402 146.6429365333283 H 0.0 **** 0.06
12078 H 11.68339860915357 70.01382318507532 148.1931132055121 H 0.0 **** 0.06
12079 H 10.062074488626884 70.74917168826666 148.13419970193135 H 0.0 **** 0.06
12080 H 11.453319008520467 71.60429680187248 147.42649590834102 H 0.0 **** 0.06
12081 C 144.6309092903445 126.08427083297661 98.61683608229025 C 0.0 **** -0.24
12082 H 144.15629835518388 127.05416727448912 98.46868133409158 H 0.0 **** 0.06
12083 H 145.47642633531058 125.9856388786487 97.93395596670449 H 0.0 **** 0.06
12084 H 143.90886062182744 125.2917412600249 98.41699833010719 H 0.0 **** 0.06
12085 H 144.9823444053305 126.00497213976493 99.64556469567087 H 0.0 **** 0.06
12086 C 89.5246544238957 149.46154531152075 40.330501697678244 C 0.0 **** -0.24
12087 H 89.89914960293365 149.3472660863747 41.34805323238311 H 0.0 **** 0.06
12088 H 90.13797492301896 150.1867849598715 39.795911298508855 H 0.0 **** 0.06
12089 H 88.49206725709473 149.80994761191454 40.35998182481703 H 0.0 **** 0.06
12090 H 89.56929469186358 148.49978539582514 39.817574152381695 H 0.0 **** 0.06
12091 C 44.793189455675744 72.47539790057124 24.370854730415175 C 0.0 **** -0.24
12092 H 44.13403168997395 73.17039968381322 23.850592250427404 H 0.0 **** 0.06
12093 H 45.80216394294331 72.55918221710424 23.965431242973757 H 0.0 **** 0.06
12094 H 44.4295525961861 71.45766214079379 24.232108159794123 H 0.0 **** 0.06
12095 H 44.80785246631383 72.71492638357228 25.434310230735804 H 0.0 **** 0.06
12096 C 81.85454107693772 145.96658182069507 67.36636206205965 C 0.0 **** -0.24
12097 H 82.17756872057907 146.99366822601613 67.19951151763449 H 0.0 **** 0.06
12098 H 82.68756644101506 145.28861805614554 67.18161806189998 H 0.0 **** 0.06
12099 H 81.03569273780215 145.72929358473465 66.68642587981515 H 0.0 **** 0.06
12100 H 81.51604280004506 145.85486263574253 68.3958158869822 H 0.0 **** 0.06
12101 C 37.91917620480365 149.43426728269216 128.45381037172066 C 0.0 **** -0.24
12102 H 38.20882627617743 149.15253815336993 127.44184397415884 H 0.0 **** 0.06
12103 H 38.39330152248216 148.75972375655664 129.1679096352452 H 0.0 **** 0.06
12104 H 36.83577032677266 149.36674857271638 128.55411202362697 H 0.0 **** 0.06
12105 H 38.24034884417577 150.45643941433602 128.6513697627673 H 0.0 **** 0.06
12106 C 28.46615486928866 39.38303034275711 110.44594908792153 C 0.0 **** -0.24
12107 H 29.35827909480608 39.90546552650595 110.10073129442132 H 0.0 **** 0.06
12108 H 27.644215647837783 40.09403685597255 110.5454440357499 H 0.0 **** 0.06
12109 H 28.666338641865877 38.921337238308666 111.41361818097168 H 0.0 **** 0.06
12110 H 28.194810449804095 38.61199651203619 109.72473585474866 H 0.0 **** 0.06
12111 C 87.93965715612148 47.781488094718966 112.06201846444809 C 0.0 **** -0.24
12112 H 88.77608063476737 47.67582192126956 112.75333527264787 H 0.0 **** 0.06
12113 H 88.22465324637795 48.44975680915721 111.247885963202 H 0.0 **** 0.06
12114 H 87.08134334985647 48.19706668111894 112.58941614382276 H 0.0 **** 0.06
12115 H 87.67888153598398 46.80464137229187 111.65609852119461 H 0.0 **** 0.06
12116 C 94.72735748238318 146.4769240150199 137.56443545262005 C 0.0 **** -0.24
12117 H 94.76149741212735 147.34654020769722 138.22064549743786 H 0.0 **** 0.06
12118 H 93.90445914739142 145.8276022789022 137.86376321115733 H 0.0 **** 0.06
12119 H 95.66759805652167 145.9305813324998 137.63759836752405 H 0.0 **** 0.06
12120 H 94.5766466231601 146.80403930335055 136.5362510022142 H 0.0 **** 0.06
12121 C 122.89672279020711 90.48418978745855 124.72832338181222 C 0.0 **** -0.24
12122 H 122.22495307108049 89.66937506440858 124.46163661798728 H 0.0 **** 0.06
12123 H 123.23223760714866 90.98953443470882 123.82205238395876 H 0.0 **** 0.06
12124 H 123.75903576339941 90.08459670734409 125.2627971606084 H 0.0 **** 0.06
12125 H 122.37042550254095 91.19419168214752 125.36655920848654 H 0.0 **** 0.06
12126 C 128.55398489772963 31.47104680759577 135.9248612320792 C 0.0 **** -0.24
12127 H 128.2862475223209 30.884375090197523 136.803492251685 H 0.0 **** 0.06
12128 H 129.12692731170233 30.85099266390756 135.23453205254157 H 0.0 **** 0.06
12129 H 129.15576166818812 32.32697324693606 136.23006956283854 H 0.0 **** 0.06
12130 H 127.64745339573076 31.8210947800643 135.43183333105992 H 0.0 **** 0.06
12131 C 51.4781420145743 101.84284336348833 103.57027635027957 C 0.0 **** -0.24
12132 H 51.67345380822735 101.12065985920589 104.36183096334032 H 0.0 **** 0.06
12133 H 50.55387162606587 102.38041478313431 103.78828735842411 H 0.0 **** 0.06
12134 H 51.378538413534386 101.32052145603922 102.61879307147156 H 0.0 **** 0.06
12135 H 52.30493087490299 102.55072890023473 103.51121931473618 H 0.0 **** 0.06
12136 C 42.304912036874924 132.78740860120587 127.10903752796173 C 0.0 **** -0.24
12137 H 42.38641667280018 133.26868768229227 128.08419134362487 H 0.0 **** 0.06
12138 H 42.680678485465734 131.76673547703138 127.1749875460282 H 0.0 **** 0.06
12139 H 42.8917356060135 133.34561203748643 126.37951678940243 H 0.0 **** 0.06
12140 H 41.25977680845358 132.77117051159442 126.79859720637072 H 0.0 **** 0.06
12141 C 54.51860731914175 82.38982639985149 134.19302566721464 C 0.0 **** -0.24
12142 H 53.539942930767126 82.76710674419313 133.89677571774502 H 0.0 **** 0.06
12143 H 54.51297229497314 82.16228026072466 135.25892832668066 H 0.0 **** 0.06
12144 H 55.27664564299498 83.14552145072453 133.98598849628127 H 0.0 **** 0.06
12145 H 54.74445682283154 81.48540060003529 133.62821379190672 H 0.0 **** 0.06
12146 C 37.58076666387524 82.97839481319346 141.98047872717194 C 0.0 **** -0.24
12147 H 37.40763270593611 84.04936864384308 141.87507868372984 H 0.0 **** 0.06
12148 H 37.32421803235429 82.66667780408312 142.9934386597912 H 0.0 **** 0.06
12149 H 38.63070893517215 82.75936052941677 141.786729700031 H 0.0 **** 0.06
12150 H 36.95881435102619 82.43816916297592 141.2656024370661 H 0.0 **** 0.06
12151 C 57.128150703918266 24.999828900582855 16.411400572382433 C 0.0 **** -0.24
12152 H 57.40314707448269 24.116171324573344 15.834612217021032 H 0.0 **** 0.06
12153 H 56.17795629831704 25.390678320287776 16.045627617277802 H 0.0 **** 0.06
12154 H 57.9012635778999 25.76020842584407 16.301255476957152 H 0.0 **** 0.06
12155 H 57.02980280724543 24.730519802705828 17.463216525801272 H 0.0 **** 0.06
12156 C 61.258574203494334 106.98810994619423 1.2033940643251526 C 0.0 **** -0.24
12157 H 61.35754873172334 105.90312721279078 1.1913127126263703 H 0.0 **** 0.06
12158 H 61.68306553149773 107.40166201148476 0.2875576411830707 H 0.0 **** 0.06
12159 H 61.79025881603195 107.39215050683991 2.0649450991919025 H 0.0 **** 0.06
12160 H 60.2041183156046 107.25548477228789 1.2676353615487983 H 0.0 **** 0.06
12161 C 90.53598814879612 103.00371953378279 54.918946135166266 C 0.0 **** -0.24
12162 H 91.15036166458651 102.12385558158505 54.7297132955329 H 0.0 **** 0.06
12163 H 90.50661689802796 103.2020272519904 55.990888719543406 H 0.0 **** 0.06
12164 H 89.5241045573444 102.8247892551549 54.554988655592155 H 0.0 **** 0.06
12165 H 90.96115440662257 103.86291499841441 54.401373681162596 H 0.0 **** 0.06
12166 C 15.068644758764748 17.998007201268706 147.26151930715676 C 0.0 **** -0.24
12167 H 14.236208848947491 18.56325029597977 146.8420289076272 H 0.0 **** 0.06
12168 H 15.043941815967742 16.977005195695284 146.8801203451433 H 0.0 **** 0.06
12169 H 14.987150275032754 17.9834270554949 148.3481689912883 H 0.0 **** 0.06
12170 H 16.00885459928989 18.47025058016189 146.97405941970587 H 0.0 **** 0.06
12171 C 49.04870020745432 71.4659104941409 97.75758510536826 C 0.0 **** -0.24
12172 H 48.02097586771083 71.11025755101284 97.83918899904485 H 0.0 **** 0.06
12173 H 49.681181206833344 70.90933606973441 98.4490141842518 H 0.0 **** 0.06
12174 H 49.084904519714314 72.52670787397243 98.00358228893278 H 0.0 **** 0.06
12175 H 49.404429879979034 71.3173489474181 96.73833472983165 H 0.0 **** 0.06
12176 C 142.05385319708418 38.03704558198052 67.75378058278224 C 0.0 **** -0.24
12177 H 141.83719350258124 37.534787316551984 68.69654231922061 H 0.0 **** 0.06
12178 H 141.1559605746836 38.5392086728817 67.39446382843008 H 0.0 **** 0.06
12179 H 142.37971636368673 37.30226061910545 67.01734541879624 H 0.0 **** 0.06
12180 H 142.84417110130164 38.77239529870954 67.90783227414403 H 0.0 **** 0.06
12181 C 54.618729053045826 120.16616026561566 104.04058406245758 C 0.0 **** -0.24
12182 H 54.58776560261835 120.6949222757287 104.9930784056337 H 0.0 **** 0.06
12183 H 55.32375032605408 120.66267642926148 103.37246936007364 H 0.0 **** 0.06
12184 H 53.62617666264508 120.17058966454285 103.59053895088903 H 0.0 **** 0.06
12185 H 54.9377518049871 119.13749015046189 104.20705251306168 H 0.0 **** 0.06
12186 C 146.7810852230357 130.48513579254748 28.725813551200638 C 0.0 **** -0.24
12187 H 147.26835523617524 129.56303214755937 29.044726288221447 H 0.0 **** 0.06
12188 H 146.0987526455392 130.82274031600318 29.506074361828418 H 0.0 **** 0.06
12189 H 146.22266244825335 130.30255126551052 27.80806502661943 H 0.0 **** 0.06
12190 H 147.53640475564777 131.25046099886814 28.546743109703456 H 0.0 **** 0.06
12191 C 46.48299970071341 43.46275077451379 142.47209636427718 C 0.0 **** -0.24
12192 H 47.49803126531478 43.73223538142035 142.7639224291436 H 0.0 **** 0.06
12193 H 46.31489463948115 42.40628938456321 142.6779469263887 H 0.0 **** 0.06
12194 H 46.34996111124822 43.65216143637234 141.40691618159343 H 0.0 **** 0.06
12195 H 45.770698475704776 44.061886037257565 143.03974273497954 H 0.0 **** 0.06
12196 C 105.66728903189049 100.78618498202181 104.9438937643498 C 0.0 **** -0.24
12197 H 105.04897163125666 100.30304909686643 104.18797527842601 H 0.0 **** 0.06
12198 H 105.23529877655237 100.61561327912958 105.93014282414946 H 0.0 **** 0.06
12199 H 105.70975979980601 101.85809484660635 104.74734603936945 H 0.0 **** 0.06
12200 H 106.67363853496774 100.37055705160321 104.9097099698319 H 0.0 **** 0.06
12201 C 12.202678526947295 16.507447528417913 131.20869654562594 C 0.0 **** -0.24
12202 H 11.85924202651438 17.456951678716138 131.6199589220126 H 0.0 **** 0.06
12203 H 12.092920992351026 15.725602387368212 131.9610289108267 H 0.0 **** 0.06
12204 H 13.251546347054386 16.59348340125385 130.92315032632118 H 0.0 **** 0.06
12205 H 11.606709259198908 16.25462919301455 130.33102801348457 H 0.0 **** 0.06
12206 C 37.603326417974586 124.91975515058535 90.74577700733704 C 0.0 **** -0.24
12207 H 37.74132461395283 123.93395193300056 90.30100176206389 H 0.0 **** 0.06
12208 H 37.8802905638525 124.88410762368123 91.80021176681896 H 0.0 **** 0.06
12209 H 36.559148341513435 125.21664595408504 90.65421591977605 H 0.0 **** 0.06
12210 H 38.233835431458715 125.64291010274536 90.22884203207747 H 0.0 **** 0.06
12211 C 18.486375096184517 104.86012449540497 95.64431105165636 C 0.0 **** -0.24
12212 H 18.88500995176721 103.87607893995455 95.39807321424516 H 0.0 **** 0.06
12213 H 18.571098137428166 105.02708487962532 96.71824993767828 H 0.0 **** 0.06
12214 H 17.437936074948887 104.91036896547588 95.3500397405713 H 0.0 **** 0.06
12215 H 19.050483859270138 105.62433929039476 95.1112805922927 H 0.0 **** 0.06
12216 C 59.359848937259514 123.12575070903408 101.14679416605432 C 0.0 **** -0.24
12217 H 58.384869322752536 122.63892706049116 101.1546652171775 H 0.0 **** 0.06
12218 H 59.40797303752163 123.85461153991166 101.95548349021901 H 0.0 **** 0.06
12219 H 59.505618200641905 123.63110485085365 100.19202037014367 H 0.0 **** 0.06
12220 H 60.14114086965995 122.37722952170553 101.28418225188874 H 0.0 **** 0.06
12221 C 107.29790332470378 32.60944884938118 41.45343075709471 C 0.0 **** -0.24
12222 H 108.29357331995533 32.47912218439737 41.028994991863584 H 0.0 **** 0.06
12223 H 106.58714795363454 32.8176035586618 40.65333456073233 H 0.0 **** 0.06
12224 H 107.30851526086758 33.44286618994212 42.15600346819721 H 0.0 **** 0.06
12225 H 107.00308243667041 31.698882823329484 41.97436992356924 H 0.0 **** 0.06
12226 C 100.6665868779547 120.88343532604621 84.26025399942702 C 0.0 **** -0.24
12227 H 100.43753653255428 120.82925169169341 85.32458315912054 H 0.0 **** 0.06
12228 H 99.78661199566673 121.22572692866815 83.71589002208898 H 0.0 **** 0.06
12229 H 100.95633733580325 119.89578205010842 83.90050938300553 H 0.0 **** 0.06
12230 H 101.4875962050755 121.581617695725 84.10039934888927 H 0.0 **** 0.06
12231 C 149.69568073138572 11.800009131896104 57.68549184928386 C 0.0 **** -0.24
12232 H 148.6832892315264 12.199255876648806 57.61021209759187 H 0.0 **** 0.06
12233 H 150.24890309548206 12.354485367744871 58.44409822656034 H 0.0 **** 0.06
12234 H 150.1971206371577 11.901231104501278 56.72258341888677 H 0.0 **** 0.06
12235 H 149.65058500417652 10.74705090662178 57.9640377946717 H 0.0 **** 0.06
12236 C 107.40948803421888 29.566909451079738 5.6175091255797724 C 0.0 **** -0.24
12237 H 108.32373324024549 30.040790748593963 5.260478742254037 H 0.0 **** 0.06
12238 H 106.60174041291548 30.299598065714576 5.628358350576747 H 0.0 **** 0.06
12239 H 107.56780874204206 29.185601309428137 6.626411076779476 H 0.0 **** 0.06
12240 H 107.14492477576825 28.74386492445049 4.954650600206293 H 0.0 **** 0.06
12241 C 81.45233810160471 83.2636217997041 119.86500634949077 C 0.0 **** -0.24
12242 H 81.18191955020984 84.31747452892147 119.79060367134223 H 0.0 **** 0.06
12243 H 80.57711437678375 82.6495031096654 119.65472529191074 H 0.0 **** 0.06
12244 H 81.81259280272059 83.05274750321614 120.87215335126287 H 0.0 **** 0.06
12245 H 82.23787037239697 83.03836699087925 119.14353506499366 H 0.0 **** 0.06
12246 C 139.70304134059637 15.507250784683407 57.12015900933069 C 0.0 **** -0.24
12247 H 140.1240515706147 16.51215000058525 57.15890759681453 H 0.0 **** 0.06
12248 H 138.75905501657354 15.529604343016018 56.57604449347059 H 0.0 **** 0.06
12249 H 139.53004757010194 15.147614318687687 58.13514043812643 H 0.0 **** 0.06
12250 H 140.4002869062179 14.840248977126322 56.612542307340505 H 0.0 **** 0.06
12251 C 31.41236332794506 68.20596688652641 6.438494939177701 C 0.0 **** -0.24
12252 H 31.14094447304754 68.65257983920586 5.481814653432281 H 0.0 **** 0.06
12253 H 31.840443729484463 68.97156363439271 7.086961082425546 H 0.0 **** 0.06
12254 H 32.145022130083476 67.41584391011227 6.275334800303142 H 0.0 **** 0.06
12255 H 30.52332961389473 67.78599036788405 6.9091872701650345 H 0.0 **** 0.06
12256 C 148.4913866439327 131.89521780098676 123.01574642544827 C 0.0 **** -0.24
12257 H 148.2938196689794 130.87996210064858 122.67141570398596 H 0.0 **** 0.06
12258 H 148.98601448388098 132.4581283823984 122.22415343500873 H 0.0 **** 0.06
12259 H 149.13491889173454 131.86227770284984 123.89455679099083 H 0.0 **** 0.06
12260 H 147.54940760581422 132.38065738974635 123.27309525765313 H 0.0 **** 0.06
12261 C 4.641477681866402 138.7993812894141 4.2981191905685705 C 0.0 **** -0.24
12262 H 4.082842246019261 139.12162296263824 3.4192749244658387 H 0.0 **** 0.06
12263 H 4.2698913690182465 139.32627755529995 5.177527204880704 H 0.0 **** 0.06
12264 H 5.699213309423161 139.02518155932097 4.159959527850589 H 0.0 **** 0.06
12265 H 4.514840281428906 137.72569478350812 4.436530662982392 H 0.0 **** 0.06
12266 C 146.3278700636632 22.430492425449472 100.0469930068333 C 0.0 **** -0.24
12267 H 145.62605347977714 22.78345638914635 99.29114287688549 H 0.0 **** 0.06
12268 H 145.82852879003147 22.387521870895796 101.01422630717695 H 0.0 **** 0.06
12269 H 147.17379095419196 23.116779058499674 100.10385292462894 H 0.0 **** 0.06
12270 H 146.6843675956597 21.436687053686057 99.77624243094812 H 0.0 **** 0.06
12271 C 13.608231505471167 5.689428875870334 85.87847776209571 C 0.0 **** -0.24
12272 H 14.590001310496454 6.0446391348683335 85.56655921886598 H 0.0 **** 0.06
12273 H 13.576671008009342 4.60232271614862 85.80906884126398 H 0.0 **** 0.06
12274 H 12.844157236021317 6.118130303629329 85.22975895375056 H 0.0 **** 0.06
12275 H 13.422870141636004 5.993649618741529 86.9091141797315 H 0.0 **** 0.06
12276 C 8.861487784742508 6.803114397987699 100.11866047347513 C 0.0 **** -0.24
12277 H 8.392573846266487 5.819066625942455 100.1423080837921 H 0.0 **** 0.06
12278 H 8.14274340379717 7.539892870603424 99.759826968462 H 0.0 **** 0.06
12279 H 9.722958684018238 6.77952883982217 99.45097708368263 H 0.0 **** 0.06
12280 H 9.187584813303033 7.0726584686324045 101.1233391362922 H 0.0 **** 0.06
12281 C 84.85206794503407 117.9766788222526 127.54577840600547 C 0.0 **** -0.24
12282 H 84.72241357231503 117.56813967879334 128.54827679408305 H 0.0 **** 0.06
12283 H 84.25542603026878 118.88347640896508 127.44391052264075 H 0.0 **** 0.06
12284 H 84.5260577443481 117.24258116813043 126.80979442433471 H 0.0 **** 0.06
12285 H 85.90401793567555 118.21266544785364 127.38333446358868 H 0.0 **** 0.06
12286 C 66.32954767990331 44.12004214695989 13.88474690274424 C 0.0 **** -0.24
12287 H 66.61894536976956 44.27344727849862 14.923556444693872 H 0.0 **** 0.06
12288 H 67.08807769097518 43.51900688162942 13.38144442658151 H 0.0 **** 0.06
12289 H 66.2411658689878 45.08550394619152 13.386771354871172 H 0.0 **** 0.06
12290 H 65.37139967156318 43.60199723445501 13.847192456856078 H 0.0 **** 0.06
12291 C 4.610696876473725 138.1023780936776 69.83565864521294 C 0.0 **** -0.24
12292 H 5.473754900357648 138.09665204890885 69.17029594301964 H 0.0 **** 0.06
12293 H 4.949682616542418 138.12408272957097 70.8711218463389 H 0.0 **** 0.06
12294 H 4.014809804428609 137.20580022445085 69.665778704875 H 0.0 **** 0.06
12295 H 4.003620773706501 138.98563228820404 69.63367555858807 H 0.0 **** 0.06
12296 C 7.968942249885686 124.5556428948368 6.922493089348642 C 0.0 **** -0.24
12297 H 8.906382085272696 124.14799797154275 7.299984323675538 H 0.0 **** 0.06
12298 H 8.083425426082613 125.62488125129157 6.743304816393302 H 0.0 **** 0.06
12299 H 7.180670788465534 124.39323010719987 7.657556128777493 H 0.0 **** 0.06
12300 H 7.705687934372122 124.05736899975501 5.990137079374577 H 0.0 **** 0.06
12301 C 144.194641012892 85.4011279404613 56.843211268061225 C 0.0 **** -0.24
12302 H 145.01333669169537 84.94368063176304 57.39921742764905 H 0.0 **** 0.06
12303 H 143.47499489638886 84.63343348496826 56.55780594991849 H 0.0 **** 0.06
12304 H 144.5875970483886 85.88213477192718 55.948112153424276 H 0.0 **** 0.06
12305 H 143.7023110991564 86.1457607156506 57.47008592330491 H 0.0 **** 0.06
12306 C 21.669844500231363 93.55086183136721 4.5599956510179425 C 0.0 **** -0.24
12307 H 22.7456052410148 93.38885417511085 4.487740170197128 H 0.0 **** 0.06
12308 H 21.3962950569896 94.43671796487878 3.986562039101358 H 0.0 **** 0.06
12309 H 21.39467285617303 93.69477765776618 5.605233095822655 H 0.0 **** 0.06
12310 H 21.143867062733676 92.68278522431763 4.161779317566044 H 0.0 **** 0.06
12311 C 111.06883781937688 49.07323786377583 60.15599061548389 C 0.0 **** -0.24
12312 H 110.55183103559943 49.314950166130345 61.08478749448024 H 0.0 **** 0.06
12313 H 111.94023728847691 49.71896965427342 60.04711497170072 H 0.0 **** 0.06
12314 H 110.39386543971438 49.227847195075796 59.31364522356762 H 0.0 **** 0.06
12315 H 111.38814584753823 48.030782228481556 60.17888505351644 H 0.0 **** 0.06
12316 C 31.83163105378719 134.0181890546869 22.130058933773213 C 0.0 **** -0.24
12317 H 31.098088459018186 134.77155115369396 21.842584935563004 H 0.0 **** 0.06
12318 H 32.724261569687144 134.12569551409982 21.513301582648573 H 0.0 **** 0.06
12319 H 31.407277515286808 133.02413820552525 21.984454966383637 H 0.0 **** 0.06
12320 H 32.096061668783804 134.149954830342 23.178378849873674 H 0.0 **** 0.06
12321 C 50.49316656043521 123.70023947546326 110.34825977274862 C 0.0 **** -0.24
12322 H 49.98678505756499 123.30602825731182 111.2292119651914 H 0.0 **** 0.06
12323 H 51.570211832341485 123.57519138205248 110.46252246514435 H 0.0 **** 0.06
12324 H 50.25940194446588 124.75896664166419 110.23858590919765 H 0.0 **** 0.06
12325 H 50.155781307586054 123.16044407200945 109.46352897079875 H 0.0 **** 0.06
12326 C 99.96953469252591 47.64014535857541 137.966238988818 C 0.0 **** -0.24
12327 H 99.99426919444059 48.71736469645646 138.1310182002159 H 0.0 **** 0.06
12328 H 100.91399169091477 47.20189703055732 138.28767768991167 H 0.0 **** 0.06
12329 H 99.81699722697908 47.43858075114207 136.9061401727649 H 0.0 **** 0.06
12330 H 99.15196643460601 47.20337798915162 138.5409893209429 H 0.0 **** 0.06
12331 C 121.9031421425834 90.32960568998502 40.74120973933408 C 0.0 **** -0.24
12332 H 121.40537323611223 89.69592977605404 40.00578706423184 H 0.0 **** 0.06
12333 H 122.4520435959739 91.1193471705324 40.22816093487347 H 0.0 **** 0.06
12334 H 122.59694357441002 89.72649492069033 41.327316790950746 H 0.0 **** 0.06
12335 H 121.15906670507094 90.77265480340847 41.401273084311185 H 0.0 **** 0.06
12336 C 126.74682032547132 25.82014517710195 25.749503132625563 C 0.0 **** -0.24
12337 H 127.03042308184966 26.233256067605225 26.717135463023993 H 0.0 **** 0.06
12338 H 127.17893003422373 26.427813040588433 24.954052019333574 H 0.0 **** 0.06
12339 H 125.66118452851569 25.820590342034336 25.658678267015716 H 0.0 **** 0.06
12340 H 127.11767629143098 24.797862679968773 25.66804839951247 H 0.0 **** 0.06
12341 C 110.70582494846178 107.96452183731769 134.1307531837409 C 0.0 **** -0.24
12342 H 110.09923279878979 108.83072594148781 134.396852663392 H 0.0 **** 0.06
12343 H 110.06994719718966 107.0796167566091 134.0776020326759 H 0.0 **** 0.06
12344 H 111.47531674701179 107.81390443066614 134.88755516070736 H 0.0 **** 0.06
12345 H 111.17530154014679 108.1339811961537 133.16231438916046 H 0.0 **** 0.06
12346 C 43.1899807476853 6.622668899366232 43.75124865485566 C 0.0 **** -0.24
12347 H 42.26536274748074 6.815593470171393 44.295934044461305 H 0.0 **** 0.06
12348 H 43.75702300043733 7.548831422409648 43.65797730373532 H 0.0 **** 0.06
12349 H 42.95329719817872 6.239479499845004 42.75901771471513 H 0.0 **** 0.06
12350 H 43.783359953753546 5.885936818406236 44.293944232101126 H 0.0 **** 0.06
12351 C 103.28136365225488 55.41030546913004 44.08366119293731 C 0.0 **** -0.24
12352 H 104.09491700179994 54.8314979576632 44.522109973539656 H 0.0 **** 0.06
12353 H 103.00727958914256 56.220695904470915 44.75868321527736 H 0.0 **** 0.06
12354 H 102.41979884768483 54.761345412393155 43.92370979458745 H 0.0 **** 0.06
12355 H 103.60599242711238 55.825009488822445 43.129480283411894 H 0.0 **** 0.06
12356 C 128.31228064382123 81.8580179628486 15.752540113380661 C 0.0 **** -0.24
12357 H 127.27221191476653 81.99366078499148 15.453450491330472 H 0.0 **** 0.06
12358 H 128.55407219083767 82.56011690953795 16.55095067723144 H 0.0 **** 0.06
12359 H 128.9630395099514 82.04174055032988 14.89740245937466 H 0.0 **** 0.06
12360 H 128.4575479791178 80.83826579325225 16.108314449433948 H 0.0 **** 0.06
12361 C 57.34824510580343 123.31716152649052 75.4020016182398 C 0.0 **** -0.24
12362 H 58.201089528647884 122.64613726114696 75.5103222308426 H 0.0 **** 0.06
12363 H 56.82986225969317 123.09644811122219 74.46866496228787 H 0.0 **** 0.06
12364 H 57.69840786353464 124.34902399743247 75.38941804724246 H 0.0 **** 0.06
12365 H 56.66550373152147 123.17471336164955 76.23936307038208 H 0.0 **** 0.06
12366 C 124.53818820547845 12.425821692592734 46.20382757506617 C 0.0 **** -0.24
12367 H 124.28015772412535 13.327582334639686 46.761100021393005 H 0.0 **** 0.06
12368 H 125.55420349648168 12.121637827642928 46.45729872447234 H 0.0 **** 0.06
12369 H 124.4746211978392 12.629101077520431 45.13556723515097 H 0.0 **** 0.06
12370 H 123.84367634362654 11.627814487797167 46.465069289135954 H 0.0 **** 0.06
12371 C 130.39884521022913 40.74397376743444 31.229498192585623 C 0.0 **** -0.24
12372 H 130.1362320978664 39.70763310908515 31.43948114099541 H 0.0 **** 0.06
12373 H 129.53937028106262 41.256033471624306 30.79476004732581 H 0.0 **** 0.06
12374 H 131.23162980381153 40.77245097673986 30.526525669719348 H 0.0 **** 0.06
12375 H 130.68810212710798 41.240506497533374 32.155655394815795 H 0.0 **** 0.06
12376 C 62.78042951562094 148.75766989249465 83.38315918892783 C 0.0 **** -0.24
12377 H 62.11516436658185 149.15550364159168 82.61689026085094 H 0.0 **** 0.06
12378 H 63.304424336114366 147.88455168004504 82.99179673427903 H 0.0 **** 0.06
12379 H 62.19609550463379 148.46938126534934 84.25679578591377 H 0.0 **** 0.06
12380 H 63.50577886491065 149.51994940089952 83.6666424098666 H 0.0 **** 0.06
12381 C 50.533072590500325 123.18663986230764 15.275746461141381 C 0.0 **** -0.24
12382 H 50.71456430737322 124.01946322809796 15.95538643517952 H 0.0 **** 0.06
12383 H 49.564290786397066 122.73994748000932 15.49840583944885 H 0.0 **** 0.06
12384 H 51.31583498778204 122.43915201976232 15.39973997608925 H 0.0 **** 0.06
12385 H 50.53782869909318 123.55034633760106 14.247602254372453 H 0.0 **** 0.06
12386 C 120.10252959655415 95.85764398917121 56.87979973963128 C 0.0 **** -0.24
12387 H 119.37929779975136 95.08330219102172 57.13519164203365 H 0.0 **** 0.06
12388 H 120.02306069837695 96.67791125676717 57.593116487606125 H 0.0 **** 0.06
12389 H 119.8997626648476 96.2272550877488 55.87440891670265 H 0.0 **** 0.06
12390 H 121.10935883828759 95.44039327034363 56.91693784473409 H 0.0 **** 0.06
12391 C 55.89019945906064 49.95807370702701 109.35858710916625 C 0.0 **** -0.24
12392 H 56.79284374097891 50.56888013833367 109.40345750005429 H 0.0 **** 0.06
12393 H 56.083286250092144 49.070160186682656 108.75641141883978 H 0.0 **** 0.06
12394 H 55.08362796934337 50.53647290183231 108.90781633121543 H 0.0 **** 0.06
12395 H 55.60395154652858 49.659675779449074 110.36704597703209 H 0.0 **** 0.06
12396 C 53.07150341473617 118.32731971139923 99.3577083991201 C 0.0 **** -0.24
12397 H 52.69549643662354 118.84672653952406 100.23943159901228 H 0.0 **** 0.06
12398 H 53.086627792323924 117.25323520254018 99.54808244902597 H 0.0 **** 0.06
12399 H 54.081143191672425 118.67217803586608 99.13648744861041 H 0.0 **** 0.06
12400 H 52.42175599155601 118.53702329491874 98.5082484747146 H 0.0 **** 0.06
12401 C 4.196826482081033 119.99131240109219 123.48769873047246 C 0.0 **** -0.24
12402 H 3.8564345308137824 120.82158891676849 124.10614735093748 H 0.0 **** 0.06
12403 H 3.7216890105715166 120.05008310546944 122.50683890968594 H 0.0 **** 0.06
12404 H 3.929562172620372 119.04893205580018 123.96499164759013 H 0.0 **** 0.06
12405 H 5.279438719084055 120.04631946259931 123.37033400617469 H 0.0 **** 0.06
12406 C 129.92324895534307 133.61956316261436 10.910207598176427 C 0.0 **** -0.24
12407 H 129.3789522294 133.75935245829953 11.8442062665372 H 0.0 **** 0.06
12408 H 130.98428529814345 133.8078223663503 11.077279060700178 H 0.0 **** 0.06
12409 H 129.54443885795754 134.3149872347829 10.161490870362563 H 0.0 **** 0.06
12410 H 129.78593260916588 132.59639792351743 10.559982515629514 H 0.0 **** 0.06
12411 C 140.51779480853475 145.74247574326378 84.03609363769294 C 0.0 **** -0.24
12412 H 140.2290511640277 145.94722247585068 85.06680133169473 H 0.0 **** 0.06
12413 H 140.74215242790947 144.68154376575404 83.92570124072293 H 0.0 **** 0.06
12414 H 141.40125270945373 146.32912629524668 83.7839810535882 H 0.0 **** 0.06
12415 H 139.69966458885506 146.01268646045696 83.36917793089927 H 0.0 **** 0.06
12416 C 17.705421496405677 109.15789192206385 103.19555311517274 C 0.0 **** -0.24
12417 H 17.34207570708199 109.79570756632633 104.00118920970289 H 0.0 **** 0.06
12418 H 17.13216717907588 109.35378606861495 102.2889608782454 H 0.0 **** 0.06
12419 H 17.58889764641728 108.11178396509304 103.48077383880485 H 0.0 **** 0.06
12420 H 18.758852416046636 109.36907935165318 103.0124885341387 H 0.0 **** 0.06
12421 C 9.326176344759197 134.32213151064676 35.80735844053403 C 0.0 **** -0.24
12422 H 8.749282694289022 135.06799823139187 36.352656501233824 H 0.0 **** 0.06
12423 H 10.003455507643437 134.8225639396983 35.11416448493185 H 0.0 **** 0.06
12424 H 8.649192016487738 133.67567043805388 35.24967326702904 H 0.0 **** 0.06
12425 H 9.904468953356591 133.72299364011351 36.51131439467605 H 0.0 **** 0.06
12426 C 10.367048695682506 97.3754749379113 89.72069963811539 C 0.0 **** -0.24
12427 H 10.793927349453085 98.36111828234678 89.53948639457758 H 0.0 **** 0.06
12428 H 9.757602805848343 97.08084259249067 88.86595874278572 H 0.0 **** 0.06
12429 H 9.74706100075855 97.40722345305102 90.6167692682654 H 0.0 **** 0.06
12430 H 11.171223824605057 96.65222126295264 89.86094591133197 H 0.0 **** 0.06
12431 C 7.101486692973197 58.977830147426246 18.99392152458276 C 0.0 **** -0.24
12432 H 6.941701702140023 58.19930583842164 18.247925450790063 H 0.0 **** 0.06
12433 H 7.860207565932882 59.67483764227683 18.635698500617593 H 0.0 **** 0.06
12434 H 7.4378882039153495 58.522769345967745 19.92594577526586 H 0.0 **** 0.06
12435 H 6.167600202087812 59.51270896150565 19.16602077245176 H 0.0 **** 0.06
12436 C 133.89275885177727 15.088846520290474 115.79082331011084 C 0.0 **** -0.24
12437 H 134.62397985211484 15.691927956542315 116.32961931529393 H 0.0 **** 0.06
12438 H 133.3500661616397 14.460298947404283 116.49608498874782 H 0.0 **** 0.06
12439 H 134.40600657534574 14.460232104503575 115.06296468129419 H 0.0 **** 0.06
12440 H 133.19207201158375 15.744400985721825 115.27334307565125 H 0.0 **** 0.06
12441 C 34.560268807459266 115.33249638373188 59.63131586987268 C 0.0 **** -0.24
12442 H 33.998721522689614 114.48521787135705 59.23770660338303 H 0.0 **** 0.06
12443 H 34.622088250502614 116.11181402700275 58.87121398151257 H 0.0 **** 0.06
12444 H 35.56514035555214 115.00773582448831 59.90159210150361 H 0.0 **** 0.06
12445 H 34.0556307514867 115.72443094635359 60.51439696176257 H 0.0 **** 0.06
12446 C 67.93379377333459 148.14788763592347 98.51175788171422 C 0.0 **** -0.24
12447 H 68.36978750719322 147.29765230287697 97.9877065402151 H 0.0 **** 0.06
12448 H 66.86707181445414 148.20047817869707 98.29454837134799 H 0.0 **** 0.06
12449 H 68.41847389928765 149.06613617774858 98.1787649287342 H 0.0 **** 0.06
12450 H 68.0807978350923 148.02748675867545 99.58498940941723 H 0.0 **** 0.06
12451 C 10.20566105613949 144.39728410916666 69.59359849507283 C 0.0 **** -0.24
12452 H 9.748221939832021 145.22256480579364 70.14026452645601 H 0.0 **** 0.06
12453 H 9.55213815316057 144.09802291546117 68.77487937672217 H 0.0 **** 0.06
12454 H 10.35592190628546 143.5542736870925 70.26741193987203 H 0.0 **** 0.06
12455 H 11.16713980911377 144.71744930057184 69.19240361195833 H 0.0 **** 0.06
12456 C 10.757652803443904 124.42773183631535 127.36757020304559 C 0.0 **** -0.24
12457 H 10.675950503067241 123.6007733125331 128.07202940699085 H 0.0 **** 0.06
12458 H 9.850014590399013 124.48355524715991 126.76607196743333 H 0.0 **** 0.06
12459 H 11.616575905691775 124.2657905124653 126.71534045639666 H 0.0 **** 0.06
12460 H 10.889375570594382 125.36075490792405 127.91629743622718 H 0.0 **** 0.06
12461 C 2.427618257754215 129.4119935288006 127.64608437079502 C 0.0 **** -0.24
12462 H 2.6477660467046142 128.76186042987456 126.7997006714777 H 0.0 **** 0.06
12463 H 1.3484204291547464 129.47886457004927 127.78256433996145 H 0.0 **** 0.06
12464 H 2.832683182485326 130.40565939143525 127.4552885775243 H 0.0 **** 0.06
12465 H 2.883149570510998 129.0010054939164 128.54730163685196 H 0.0 **** 0.06
12466 C 110.36939070069877 131.24032842096113 2.6043052746010176 C 0.0 **** -0.24
12467 H 109.38281394538592 131.55361167169315 2.944777547661431 H 0.0 **** 0.06
12468 H 110.92088760636801 130.80673279278727 3.4395768120533035 H 0.0 **** 0.06
12469 H 110.91194190972078 132.10349908377557 2.218761405592147 H 0.0 **** 0.06
12470 H 110.26241789781471 130.496679033398 1.8144597838651748 H 0.0 **** 0.06
12471 C 112.8622114239406 6.386346188500113 110.95361785079317 C 0.0 **** -0.24
12472 H 113.44174882979 7.297513356625984 111.0991830955642 H 0.0 **** 0.06
12473 H 111.92494141745318 6.627194679821002 110.45198210290803 H 0.0 **** 0.06
12474 H 112.65080114931651 5.931831031244599 111.92206309455852 H 0.0 **** 0.06
12475 H 113.43328156111944 5.686980327719425 110.3421411032613 H 0.0 **** 0.06
12476 C 54.39582571282685 119.80826842031199 86.04084957296905 C 0.0 **** -0.24
12477 H 54.94474047426142 120.6603652262125 86.44115456182814 H 0.0 **** 0.06
12478 H 55.076906946315276 119.1683425796832 85.47978918594748 H 0.0 **** 0.06
12479 H 53.60397010990515 120.16370200747316 85.38045786833354 H 0.0 **** 0.06
12480 H 53.95546394673194 119.24160281824642 86.86156761988744 H 0.0 **** 0.06
12481 C 148.2386954179387 28.357028754451605 59.025109012266185 C 0.0 **** -0.24
12482 H 147.8268780459182 29.33436624587369 59.27578479094208 H 0.0 **** 0.06
12483 H 147.79007287569073 27.59749803694286 59.666055514621135 H 0.0 **** 0.06
12484 H 149.31873092961365 28.368750712662873 59.17622295011128 H 0.0 **** 0.06
12485 H 148.02082473877704 28.127614914299492 57.982265244870064 H 0.0 **** 0.06
12486 C 26.678293346403983 80.43332654364094 83.81950766216818 C 0.0 **** -0.24
12487 H 26.742604433647877 79.34996478109328 83.71222810367644 H 0.0 **** 0.06
12488 H 26.092116622661834 80.84494664088767 82.99747162130141 H 0.0 **** 0.06
12489 H 27.680810334816663 80.85960779576617 83.79924855395598 H 0.0 **** 0.06
12490 H 26.19870293826314 80.677243203948 84.76673896307435 H 0.0 **** 0.06
12491 C 3.833033703039632 135.7357755962559 75.28922531280797 C 0.0 **** -0.24
12492 H 3.8586058654255453 135.8177134379727 76.37560725285923 H 0.0 **** 0.06
12493 H 3.7996075780147294 136.7341390658943 74.85040684834725 H 0.0 **** 0.06
12494 H 2.948420975276747 135.1762675809489 74.98709199554801 H 0.0 **** 0.06
12495 H 4.727001054861432 135.2168223156237 74.94319300983138 H 0.0 **** 0.06
12496 C 68.36368917698877 19.88238634601865 64.10580139872702 C 0.0 **** -0.24
12497 H 67.29162011596007 19.711502701765568 64.20598228161866 H 0.0 **** 0.06
12498 H 68.62503370835006 19.940502132072282 63.04903222460909 H 0.0 **** 0.06
12499 H 68.90762489385085 19.058725823370395 64.56975270589251 H 0.0 **** 0.06
12500 H 68.63003740416704 20.81687993553291 64.59868860909143 H 0.0 **** 0.06
12501 C 30.42111008031941 1.495875443126863 27.852224695441365 C 0.0 **** -0.24
12502 H 30.793868601913545 1.2311571430869606 26.86275170989429 H 0.0 **** 0.06
12503 H 29.76893453136296 2.366052181021928 27.773180359966013 H 0.0 **** 0.06
12504 H 31.261690745233352 1.7297628307082107 28.506221141836484 H 0.0 **** 0.06
12505 H 29.861474605419176 0.6581592583602003 28.266649793239267 H 0.0 **** 0.06
12506 C 33.08254531813955 35.752093744278696 64.89628105338545 C 0.0 **** -0.24
12507 H 32.749855118136026 35.979469153110756 65.90896023783426 H 0.0 **** 0.06
12508 H 33.43192783415404 36.66574389366525 64.41595332660307 H 0.0 **** 0.06
12509 H 32.25159262064676 35.335220458892366 64.32607424029248 H 0.0 **** 0.06
12510 H 33.89528838962022 35.027486834118676 64.93535756468367 H 0.0 **** 0.06
12511 C 46.882473355212 92.62850633295412 111.17039901771336 C 0.0 **** -0.24
12512 H 47.24130890497642 93.28220329174175 110.37485401590281 H 0.0 **** 0.06
12513 H 47.66138155209396 91.91131721301898 111.42910979567576 H 0.0 **** 0.06
12514 H 45.995867908381 92.09436642438723 110.82773613867188 H 0.0 **** 0.06
12515 H 46.63196328770064 93.22626054042593 112.04620953424858 H 0.0 **** 0.06
12516 C 51.96275930547752 140.58516743191578 88.08303475778274 C 0.0 **** -0.24
12517 H 51.62852203346242 139.89504136047034 88.85772691370373 H 0.0 **** 0.06
12518 H 51.13801261093231 140.7918058247615 87.40003695738544 H 0.0 **** 0.06
12519 H 52.78892453718046 140.13813359354853 87.53063343607793 H 0.0 **** 0.06
12520 H 52.29449250028287 141.5149245004529 88.54325459503382 H 0.0 **** 0.06
12521 C 7.778654884138206 10.430282194048345 103.54326739181137 C 0.0 **** -0.24
12522 H 8.024720237584404 10.352416059455855 102.48426399686878 H 0.0 **** 0.06
12523 H 6.697635966015497 10.502971593783322 103.66006128051164 H 0.0 **** 0.06
12524 H 8.250364735528336 11.319882823211138 103.96067129839268 H 0.0 **** 0.06
12525 H 8.14363390025332 9.546844383985864 104.06665292754322 H 0.0 **** 0.06
12526 C 60.23358387040963 5.585329572987668 76.45138262506015 C 0.0 **** -0.24
12527 H 60.062165528086354 4.99382788388602 77.35137708578901 H 0.0 **** 0.06
12528 H 59.293323212377686 5.712066394613899 75.9152444542733 H 0.0 **** 0.06
12529 H 60.95102816145145 5.073361812739041 75.81185850340353 H 0.0 **** 0.06
12530 H 60.62792996434288 6.563509230780419 76.72967610466691 H 0.0 **** 0.06
12531 C 129.46842570907347 16.164590201360056 47.501763230245274 C 0.0 **** -0.24
12532 H 130.03926293312074 15.713507589074112 48.312902425472004 H 0.0 **** 0.06
12533 H 128.55127648474792 15.59591815878153 47.34407068085986 H 0.0 **** 0.06
12534 H 130.06417290783088 16.15574722510624 46.58913430638958 H 0.0 **** 0.06
12535 H 129.21857842372492 17.192669322365276 47.7630812785371 H 0.0 **** 0.06
12536 C 8.83990622952436 147.20994728115306 132.34437658351814 C 0.0 **** -0.24
12537 H 9.52397007592856 147.9085714282394 132.82609583551587 H 0.0 **** 0.06
12538 H 9.249168910382565 146.20122132714414 132.4051755479579 H 0.0 **** 0.06
12539 H 8.712828173252205 147.4886979681176 131.29859951177198 H 0.0 **** 0.06
12540 H 7.873444219624162 147.24141130572298 132.84935059581196 H 0.0 **** 0.06
12541 C 51.77276851972127 141.56677106821067 49.8166016413615 C 0.0 **** -0.24
12542 H 51.496265124103076 141.76918069205726 48.78131581525855 H 0.0 **** 0.06
12543 H 50.92549280330111 141.78420491130342 50.46674843900965 H 0.0 **** 0.06
12544 H 52.61724682879067 142.1956229688775 50.096485748529545 H 0.0 **** 0.06
12545 H 52.05056585004047 140.5176637183964 49.91892906486734 H 0.0 **** 0.06
12546 C 52.37163238161463 21.311016875938407 35.181880227590625 C 0.0 **** -0.24
12547 H 52.3336428684957 20.409466226918035 35.793252212999846 H 0.0 **** 0.06
12548 H 52.26974867055452 21.040589490395988 34.13076737384796 H 0.0 **** 0.06
12549 H 53.32449887854449 21.81608780073583 35.33780731515003 H 0.0 **** 0.06
12550 H 51.55604218581158 21.976439768763093 35.465925136337034 H 0.0 **** 0.06
12551 C 86.7955034934651 72.4978566722736 111.87515278597864 C 0.0 **** -0.24
12552 H 86.82290481350304 71.41102205417585 111.79278660508454 H 0.0 **** 0.06
12553 H 85.76051884953917 72.83843314124258 111.83955851501706 H 0.0 **** 0.06
12554 H 87.35326115273284 72.93819414690475 111.0487426094477 H 0.0 **** 0.06
12555 H 87.24640303011905 72.801003392649 112.81991367938768 H 0.0 **** 0.06
12556 C 57.19841750024571 133.13710923025096 25.844605145973645 C 0.0 **** -0.24
12557 H 57.02804467258518 133.2431127342864 24.773825152709946 H 0.0 **** 0.06
12558 H 56.459568064821966 132.45527990137361 26.264977290375583 H 0.0 **** 0.06
12559 H 57.10734363394589 134.11227043993628 26.32439228446728 H 0.0 **** 0.06
12560 H 58.199300962205584 132.74009993862046 26.015720376729462 H 0.0 **** 0.06
12561 C 83.10391981512504 104.97708501139871 117.08733254737882 C 0.0 **** -0.24
12562 H 84.16212760820065 104.7972456586102 116.89350887359393 H 0.0 **** 0.06
12563 H 82.82172015132551 105.95085752138701 116.68535371486047 H 0.0 **** 0.06
12564 H 82.92478759785189 104.96142215173708 118.16239292091274 H 0.0 **** 0.06
12565 H 82.51019750779511 104.19953354513913 116.60734088060701 H 0.0 **** 0.06
12566 C 87.97296968398109 133.2869145198622 55.98391523391906 C 0.0 **** -0.24
12567 H 88.93574555814132 133.65379287742547 56.338334950831666 H 0.0 **** 0.06
12568 H 87.17179254178242 133.8570973365726 56.45456291603402 H 0.0 **** 0.06
12569 H 87.8683238868885 132.23298992995495 56.23952755941693 H 0.0 **** 0.06
12570 H 87.91619310932822 133.4050683438483 54.90141783880756 H 0.0 **** 0.06
12571 C 45.50346403349917 34.81686313124115 147.40665424045113 C 0.0 **** -0.24
12572 H 44.43170254630448 35.01683515454107 147.37602675364957 H 0.0 **** 0.06
12573 H 45.66878082448025 33.75019939295177 147.56191966548704 H 0.0 **** 0.06
12574 H 45.95435030823526 35.378227759688116 148.2247158447589 H 0.0 **** 0.06
12575 H 45.956310815534636 35.121961439005986 146.46318335841693 H 0.0 **** 0.06
12576 C 19.458917944677523 59.77156021137435 43.88265229193523 C 0.0 **** -0.24
12577 H 19.96551792080919 59.903694012888195 44.83882257800508 H 0.0 **** 0.06
12578 H 18.98337501234829 58.790928539734395 43.855340330028454 H 0.0 **** 0.06
12579 H 20.185952497357732 59.8462902730531 43.07317980406411 H 0.0 **** 0.06
12580 H 18.701975497935337 60.54658461271575 43.76294937682965 H 0.0 **** 0.06
12581 C 82.96743929605383 37.4802989154728 144.68117732706784 C 0.0 **** -0.24
12582 H 83.84648946753624 37.00925243536496 144.24163838393875 H 0.0 **** 0.06
12583 H 82.89387296794003 37.20407548229254 145.73269530996964 H 0.0 **** 0.06
12584 H 82.07423430240105 37.14480809149826 144.15399591912563 H 0.0 **** 0.06
12585 H 83.0544762299459 38.563615440468915 144.5943246694644 H 0.0 **** 0.06
12586 C 126.40878378261543 54.04149137825388 85.78345610374528 C 0.0 **** -0.24
12587 H 127.21345737075522 54.3233400756869 85.10348018061988 H 0.0 **** 0.06
12588 H 126.83047570651115 53.760105263168185 86.74781455293088 H 0.0 **** 0.06
12589 H 125.86034488737839 53.197526609596 85.36535716499367 H 0.0 **** 0.06
12590 H 125.7324099042485 54.885364756120424 85.91378847556796 H 0.0 **** 0.06
12591 C 39.82252968651895 0.25943494392913635 144.11438498128038 C 0.0 **** -0.24
12592 H 40.501777249796575 0.6329230821706915 144.88055456705203 H 0.0 **** 0.06
12593 H 38.962150963052196 -0.2115101204022949 144.59029536988515 H 0.0 **** 0.06
12594 H 40.340804285478 -0.4720775839184057 143.4941919833042 H 0.0 **** 0.06
12595 H 39.485386247749304 1.0884043978664124 143.49249800488033 H 0.0 **** 0.06
12596 C 62.935751796238094 136.64595385599563 120.30098180824888 C 0.0 **** -0.24
12597 H 62.27666458825024 136.54893873394036 119.43780533118041 H 0.0 **** 0.06
12598 H 63.810476738377645 137.235140549618 120.02524496423592 H 0.0 **** 0.06
12599 H 63.25298082356602 135.6550775562612 120.62779892777826 H 0.0 **** 0.06
12600 H 62.402182163763996 137.14267285225878 121.11182778551182 H 0.0 **** 0.06
12601 C 44.34811621452711 144.59026004823497 137.30473047007837 C 0.0 **** -0.24
12602 H 45.228306584330056 144.01954856990736 137.60239276155252 H 0.0 **** 0.06
12603 H 43.5652849221364 143.90609653719778 136.97731950277165 H 0.0 **** 0.06
12604 H 44.610333201898825 145.2609452290793 136.48530311256255 H 0.0 **** 0.06
12605 H 43.99031794409852 145.1744254861894 138.1525503926978 H 0.0 **** 0.06
12606 C 138.4014368171575 60.42667437478161 2.308136148712663 C 0.0 **** -0.24
12607 H 139.00379609679197 60.198964124984585 1.4284885843641462 H 0.0 **** 0.06
12608 H 138.6775478885869 59.753978441361994 3.120831283663847 H 0.0 **** 0.06
12609 H 137.34595754522195 60.294601990337554 2.0699453017559506 H 0.0 **** 0.06
12610 H 138.57851395606866 61.45784538668208 2.6127448996375904 H 0.0 **** 0.06
12611 C 98.89610580975439 29.91792904318975 134.10627483990544 C 0.0 **** -0.24
12612 H 98.93636672437484 29.537510371242156 135.12710743576946 H 0.0 **** 0.06
12613 H 97.86445810597036 29.904421474311192 133.7534050660878 H 0.0 **** 0.06
12614 H 99.51004774888607 29.29096603176211 133.46106937239477 H 0.0 **** 0.06
12615 H 99.27379159091623 30.940858194200956 134.08485202081494 H 0.0 **** 0.06
12616 C 43.07119323258976 58.56800043408013 68.63988448709115 C 0.0 **** -0.24
12617 H 42.32848467239825 59.33492352928107 68.41994939119223 H 0.0 **** 0.06
12618 H 42.783582312245684 58.03355729264942 69.54546881935816 H 0.0 **** 0.06
12619 H 44.04361801048921 59.03714193506211 68.78746756354995 H 0.0 **** 0.06
12620 H 43.128209855380646 57.86740796912255 67.80623958610471 H 0.0 **** 0.06
12621 C 120.11572997365408 82.34261491493123 26.755733878511982 C 0.0 **** -0.24
12622 H 120.20588319372104 81.39204199127835 26.22906032308459 H 0.0 **** 0.06
12623 H 119.06756537904027 82.52920203300937 26.990320169683095 H 0.0 **** 0.06
12624 H 120.49535035600877 83.14550374505245 26.123175261747775 H 0.0 **** 0.06
12625 H 120.69383828675194 82.30321903675679 27.678217036518973 H 0.0 **** 0.06
12626 C 117.12620853097363 122.92272929399815 17.67963816948533 C 0.0 **** -0.24
12627 H 117.94309640451158 122.46079546720051 17.126448532595546 H 0.0 **** 0.06
12628 H 116.9761988364169 122.38908721293757 18.61879297459577 H 0.0 **** 0.06
12629 H 116.21379646573368 122.87715822612034 17.08545304065631 H 0.0 **** 0.06
12630 H 117.37174818370411 123.96397656801116 17.88885308919042 H 0.0 **** 0.06
12631 C 140.78542061141678 89.685132759592 62.129446060953185 C 0.0 **** -0.24
12632 H 140.24657835197445 89.38262230968463 63.026847251905735 H 0.0 **** 0.06
12633 H 140.2934683936702 90.55089457893018 61.68500033022907 H 0.0 **** 0.06
12634 H 140.7901033087713 88.8631825458079 61.41435700294211 H 0.0 **** 0.06
12635 H 141.81153239125118 89.94383160394545 62.391579658735736 H 0.0 **** 0.06
12636 C 127.35276948976991 108.40294219518313 142.97961067940773 C 0.0 **** -0.24
12637 H 126.41295329667315 108.95448240280518 142.99593220417353 H 0.0 **** 0.06
12638 H 128.06289428265757 108.91446927310818 142.3293981502056 H 0.0 **** 0.06
12639 H 127.17573062819076 107.39558063449454 142.6026817542315 H 0.0 **** 0.06
12640 H 127.75938453844356 108.34745352148724 143.98871604653 H 0.0 **** 0.06
12641 C 15.318752863090765 103.61760297327426 38.86440548277777 C 0.0 **** -0.24
12642 H 15.461563113942361 103.27967570153753 37.83783113696593 H 0.0 **** 0.06
12643 H 14.468267856854254 103.0956035355968 39.30282802097186 H 0.0 **** 0.06
12644 H 15.128741491246387 104.69041393666315 38.87012920167308 H 0.0 **** 0.06
12645 H 16.21570623545415 103.40418596314548 39.444789207493784 H 0.0 **** 0.06
12646 C 4.5916473491683405 6.8633169180270315 130.80143792213107 C 0.0 **** -0.24
12647 H 4.494190285910236 7.8449658534346085 130.33843041637456 H 0.0 **** 0.06
12648 H 3.6976064575379723 6.646648711842062 131.38692087721398 H 0.0 **** 0.06
12649 H 5.464509303174452 6.855427262107668 131.4546325829898 H 0.0 **** 0.06
12650 H 4.711479782919156 6.106735944768204 130.02632316727065 H 0.0 **** 0.06
12651 C 98.49009352057358 53.528070713086095 85.74258864965076 C 0.0 **** -0.24
12652 H 98.21531005069384 54.53954407360666 86.0420568037121 H 0.0 **** 0.06
12653 H 97.59832354884657 52.90206308119778 85.71551028895229 H 0.0 **** 0.06
12654 H 99.20088391743181 53.117744753601855 86.46106492933914 H 0.0 **** 0.06
12655 H 98.94797240359654 53.55337328279498 84.75380293573629 H 0.0 **** 0.06
12656 C 95.00193996043757 47.483786130552275 88.98678712263452 C 0.0 **** -0.24
12657 H 95.82000910713623 48.181597252925414 88.80995112949856 H 0.0 **** 0.06
12658 H 94.69095444469684 47.543679093802496 90.02983186315774 H 0.0 **** 0.06
12659 H 95.33461459520842 46.47028392542312 88.7646107984543 H 0.0 **** 0.06
12660 H 94.1606336042137 47.73863021505619 88.34145338623026 H 0.0 **** 0.06
12661 C 106.89321493146024 27.264020875330687 0.352063328927823 C 0.0 **** -0.24
12662 H 106.26081948985795 26.618007089199466 0.9614816558967014 H 0.0 **** 0.06
12663 H 107.94177067089193 27.052174332736456 0.5659124807797191 H 0.0 **** 0.06
12664 H 106.67710372752047 28.306645280564567 0.5834996109852391 H 0.0 **** 0.06
12665 H 106.69188805105055 27.07658072938534 -0.70309457221828 H 0.0 **** 0.06
12666 C 88.0146391243182 70.51493162890145 8.052388981370918 C 0.0 **** -0.24
12667 H 88.26951366388175 71.43356428155849 8.582452718017699 H 0.0 **** 0.06
12668 H 87.06806251940691 70.12854398976188 8.42991354611172 H 0.0 **** 0.06
12669 H 88.79874809580787 69.77569253072446 8.211361004968012 H 0.0 **** 0.06
12670 H 87.92319167595167 70.72476066377851 6.986849863538126 H 0.0 **** 0.06
12671 C 68.58603572681616 140.2490087631066 91.5731656774346 C 0.0 **** -0.24
12672 H 68.71278927288581 140.2892745684183 92.65448923906527 H 0.0 **** 0.06
12673 H 67.52691821580686 140.14666146626786 91.33530303362156 H 0.0 **** 0.06
12674 H 69.13327988235547 139.39550457426031 91.17387018385753 H 0.0 **** 0.06
12675 H 68.97065775677254 141.16737114762395 91.12879428590055 H 0.0 **** 0.06
12676 C 96.16629531578634 10.991355127946917 61.140661271033736 C 0.0 **** -0.24
12677 H 96.69261065880714 11.889480044207232 60.81713494194119 H 0.0 **** 0.06
12678 H 95.3451542018834 10.784361405595462 60.45340993245853 H 0.0 **** 0.06
12679 H 95.77059081706469 11.143458643950225 62.14425227849094 H 0.0 **** 0.06
12680 H 96.85673515443703 10.147508334703218 61.145946005210135 H 0.0 **** 0.06
12681 C 12.723798274537636 132.35558051693323 16.839404186721026 C 0.0 **** -0.24
12682 H 12.318375619558232 132.38738762906405 17.850579370881803 H 0.0 **** 0.06
12683 H 13.730988312155986 131.93837006024253 16.864784979341835 H 0.0 **** 0.06
12684 H 12.758688114894923 133.36518421695249 16.429291307313235 H 0.0 **** 0.06
12685 H 12.087092269808565 131.72999461083225 16.213240272017174 H 0.0 **** 0.06
12686 C 80.75595463711802 123.16616665977132 47.2606591618468 C 0.0 **** -0.24
12687 H 81.66514882750457 122.69099650959255 47.628465798001315 H 0.0 **** 0.06
12688 H 80.53206149515961 124.04113489440137 47.87169677793541 H 0.0 **** 0.06
12689 H 79.92838085313662 122.46018464227312 47.317654332246775 H 0.0 **** 0.06
12690 H 80.90076281198336 123.47394977757442 46.22469938549099 H 0.0 **** 0.06
12691 C 71.88041475346458 120.61150421647358 31.285640597691895 C 0.0 **** -0.24
12692 H 71.4124949259294 119.81155986714629 30.71153122674238 H 0.0 **** 0.06
12693 H 72.05435875080387 120.27111175628681 32.30668759120135 H 0.0 **** 0.06
12694 H 71.22348677796444 121.48068151080327 31.298675798145624 H 0.0 **** 0.06
12695 H 72.83086868870618 120.88074068558399 30.825352090067895 H 0.0 **** 0.06
12696 C 16.830770730979452 107.00967175785374 40.82602370852875 C 0.0 **** -0.24
12697 H 17.83463288614189 106.61531785527919 40.67016724807799 H 0.0 **** 0.06
12698 H 16.14608854018519 106.18683838836486 41.033371373719376 H 0.0 **** 0.06
12699 H 16.505325714439948 107.53697389489108 39.92922970497898 H 0.0 **** 0.06
12700 H 16.837794952267245 107.69808771869648 41.66982139190294 H 0.0 **** 0.06
12701 C 41.2342774002872 5.406310748860761 38.566368606281145 C 0.0 **** -0.24
12702 H 40.777463777885 6.385808880485115 38.42115067422466 H 0.0 **** 0.06
12703 H 41.90670777414786 5.191869159390251 37.73607187610642 H 0.0 **** 0.06
12704 H 40.45389054612056 4.64566836016121 38.608842656860986 H 0.0 **** 0.06
12705 H 41.7964765993803 5.402561319499426 39.500383327416614 H 0.0 **** 0.06
12706 C 118.99595270647674 43.7717075847105 55.676850963674426 C 0.0 **** -0.24
12707 H 118.45517547452104 44.69153909374336 55.4505999454115 H 0.0 **** 0.06
12708 H 119.6960122835338 43.55521070762818 54.86965694137861 H 0.0 **** 0.06
12709 H 118.28819283747217 42.94889355213594 55.77412631488866 H 0.0 **** 0.06
12710 H 119.54393207318626 43.894185180848254 56.61108077186779 H 0.0 **** 0.06
12711 C 133.98975250187368 49.826611027901805 129.68127632749403 C 0.0 **** -0.24
12712 H 133.3501975982574 50.44774710886858 129.05492583199356 H 0.0 **** 0.06
12713 H 133.43047220101886 49.49709417334526 130.55726530824103 H 0.0 **** 0.06
12714 H 134.85837101844152 50.403554753040254 129.99957071212975 H 0.0 **** 0.06
12715 H 134.32027056978086 48.95637397317242 129.11301687158033 H 0.0 **** 0.06
12716 C 105.14220870886844 94.55031948258838 59.783708349269105 C 0.0 **** -0.24
12717 H 104.67747008265262 93.59595639351863 60.03325117596245 H 0.0 **** 0.06
12718 H 106.08679238251536 94.37004171108498 59.26939022330542 H 0.0 **** 0.06
12719 H 105.32751013718963 95.11271986538353 60.69866335458124 H 0.0 **** 0.06
12720 H 104.47675884192473 95.12012574943401 59.135255750730096 H 0.0 **** 0.06
12721 C 128.4038680038474 44.28031767324873 128.72340948109408 C 0.0 **** -0.24
12722 H 128.66550249587962 45.313287162393976 128.95366786905072 H 0.0 **** 0.06
12723 H 128.29863254761014 43.71669491368979 129.65080604849513 H 0.0 **** 0.06
12724 H 129.1902708190809 43.833936043768205 128.11426782264124 H 0.0 **** 0.06
12725 H 127.46244101313565 44.257041681355616 128.17501098230656 H 0.0 **** 0.06
12726 C 101.91079089630841 118.61054078591721 74.47103797010749 C 0.0 **** -0.24
12727 H 102.47383525300023 118.68955170691763 73.54078702025299 H 0.0 **** 0.06
12728 H 102.3566195880104 119.2624950765252 75.22187872872297 H 0.0 **** 0.06
12729 H 101.93567021573494 117.57970993683657 74.82329531208015 H 0.0 **** 0.06
12730 H 100.87742641741434 118.90975803072209 74.29663221777918 H 0.0 **** 0.06
12731 C 92.87723107413991 125.34713271908826 66.00425475333304 C 0.0 **** -0.24
12732 H 92.23399201515424 125.49630043122549 66.87219486369781 H 0.0 **** 0.06
12733 H 92.57731488212292 124.43786923027538 65.48280227380735 H 0.0 **** 0.06
12734 H 93.91284518507439 125.25526225944652 66.33186385195677 H 0.0 **** 0.06
12735 H 92.78352043372531 126.20027277719413 65.3326188199685 H 0.0 **** 0.06
12736 C 108.93421296448162 119.97169009040654 80.23554903520044 C 0.0 **** -0.24
12737 H 108.69705748526843 119.38817576766438 81.12482277085266 H 0.0 **** 0.06
12738 H 109.97023820512135 119.79105284432903 79.94935616002498 H 0.0 **** 0.06
12739 H 108.79490830549645 121.03169986145117 80.44829063354425 H 0.0 **** 0.06
12740 H 108.27464786204018 119.67583188818155 79.41972657637982 H 0.0 **** 0.06
12741 C 27.85730088264414 122.30560666973379 31.021673716877338 C 0.0 **** -0.24
12742 H 26.97439107627452 122.12913046373062 30.40785136277333 H 0.0 **** 0.06
12743 H 27.6522006296465 123.1099065372188 31.729115687625324 H 0.0 **** 0.06
12744 H 28.69324934376384 122.58748692674335 30.382782400442302 H 0.0 **** 0.06
12745 H 28.107363209336633 121.39564663266925 31.567913662261375 H 0.0 **** 0.06
12746 C 136.000382936049 17.385426010714383 11.64365620563408 C 0.0 **** -0.24
12747 H 135.5901746426488 17.058743421033483 10.688254136494763 H 0.0 **** 0.06
12748 H 135.37638234964783 18.179823292168635 12.054229882898262 H 0.0 **** 0.06
12749 H 137.01337070737378 17.75763749006171 11.49563317242206 H 0.0 **** 0.06
12750 H 136.020253505236 16.544570800950737 12.335948130383166 H 0.0 **** 0.06
12751 C 33.44972781788246 71.19025542708823 121.05382153018456 C 0.0 **** -0.24
12752 H 32.962695676563634 70.24743690206259 121.3027038396092 H 0.0 **** 0.06
12753 H 34.492143583072405 71.15639190725716 121.37408267403453 H 0.0 **** 0.06
12754 H 32.9388548417262 72.00729396356536 121.56284146994619 H 0.0 **** 0.06
12755 H 33.40606124467389 71.3478960803036 119.97618377240394 H 0.0 **** 0.06
12756 C 47.70688609644438 41.363367132031954 91.05504346711191 C 0.0 **** -0.24
12757 H 47.086409717932824 42.08337963445956 90.52166973677791 H 0.0 **** 0.06
12758 H 47.3283715751524 41.23932225085326 92.07028834159601 H 0.0 **** 0.06
12759 H 48.73416988732308 41.72631289606841 91.09159314733193 H 0.0 **** 0.06
12760 H 47.677798288639366 40.40440271275321 90.53722724138906 H 0.0 **** 0.06
12761 C 145.60529733951458 25.92970400841577 76.46786505961038 C 0.0 **** -0.24
12762 H 145.01519688880757 25.10006949562427 76.07758241373342 H 0.0 **** 0.06
12763 H 145.1151112319859 26.340241735265664 77.35088989229006 H 0.0 **** 0.06
12764 H 145.6915317247857 26.704484749997278 75.70629831766682 H 0.0 **** 0.06
12765 H 146.59943071897092 25.57309042857679 76.73704911573154 H 0.0 **** 0.06
12766 C 78.63150210792625 66.06232023583111 28.260429192922942 C 0.0 **** -0.24
12767 H 78.00847920795945 66.94598231017187 28.12338439361048 H 0.0 **** 0.06
12768 H 78.0220979103477 65.24671141299054 28.652721613132655 H 0.0 **** 0.06
12769 H 79.43359735746655 66.28817043655776 28.9629079268623 H 0.0 **** 0.06
12770 H 79.05971050238703 65.76724309622426 27.30236575859641 H 0.0 **** 0.06
12771 C 109.57012098993535 0.6466792499543885 26.729503889539814 C 0.0 **** -0.24
12772 H 108.51121801389264 0.6658534230100486 26.988510346958975 H 0.0 **** 0.06
12773 H 109.76626520726815 -0.1962487161044919 26.065318336850197 H 0.0 **** 0.06
12774 H 110.16363062401796 0.5395831373073747 27.637273248119442 H 0.0 **** 0.06
12775 H 109.83789115313822 1.575668793871671 26.227506877385196 H 0.0 **** 0.06
12776 C 103.180858275889 148.62697027004785 86.86246433706674 C 0.0 **** -0.24
12777 H 103.08114090948428 147.63468475081524 87.30187116721527 H 0.0 **** 0.06
12778 H 102.18977576037506 149.04911462697984 86.6909879912626 H 0.0 **** 0.06
12779 H 103.71421316793433 148.55281018520074 85.91549745601884 H 0.0 **** 0.06
12780 H 103.73698751832282 149.27084689866766 87.5435227939534 H 0.0 **** 0.06
12781 C 46.63688784495422 100.57184417976086 7.919105494749999 C 0.0 **** -0.24
12782 H 47.016393415864144 101.2707128685237 7.174168225896665 H 0.0 **** 0.06
12783 H 47.4703621118157 100.16254699609638 8.490655119716848 H 0.0 **** 0.06
12784 H 46.10648148378459 99.7608517710984 7.419020575739438 H 0.0 **** 0.06
12785 H 45.95519076979515 101.09226978345598 8.592086761520903 H 0.0 **** 0.06
12786 C 138.8548064493734 105.7747277708286 122.49510153269746 C 0.0 **** -0.24
12787 H 137.8078236721919 105.94141040071358 122.74680854483337 H 0.0 **** 0.06
12788 H 138.94811440384987 104.85300194935533 121.92088239677459 H 0.0 **** 0.06
12789 H 139.43954744963412 105.69293841167828 123.41093280526157 H 0.0 **** 0.06
12790 H 139.22360177262445 106.6124113807384 121.90290336093229 H 0.0 **** 0.06
12791 C 6.921657949330495 88.28393727036064 92.21163698214653 C 0.0 **** -0.24
12792 H 6.835524962032991 88.42919747066597 93.28847033319202 H 0.0 **** 0.06
12793 H 7.561501870974212 87.4242023485671 92.01111983167941 H 0.0 **** 0.06
12794 H 7.356077595809211 89.17494169859458 91.7579584886859 H 0.0 **** 0.06
12795 H 5.932134135213914 88.10728901551293 91.78921121969974 H 0.0 **** 0.06
12796 C 150.1744153978915 148.85474280375158 75.4867455760849 C 0.0 **** -0.24
12797 H 150.8458171912871 148.85234762270088 76.34497302305746 H 0.0 **** 0.06
12798 H 149.20652410878864 149.25818083461422 75.783846033815 H 0.0 **** 0.06
12799 H 150.04733585139 147.8355884235832 75.12277086177352 H 0.0 **** 0.06
12800 H 150.59927616242385 149.47303139542439 74.69594026882854 H 0.0 **** 0.06
12801 C 95.40634480949576 118.6112287671228 117.24280969253441 C 0.0 **** -0.24
12802 H 95.84361511513477 119.37114649263238 117.88903345211982 H 0.0 **** 0.06
12803 H 96.09640317954732 117.77215159465185 117.1506823306972 H 0.0 **** 0.06
12804 H 95.21824569092263 119.03701581623831 116.25647879160054 H 0.0 **** 0.06
12805 H 94.46696447751127 118.26388798121785 117.67383229263892 H 0.0 **** 0.06
12806 C 113.43899910724343 20.697225721444426 142.92952561980545 C 0.0 **** -0.24
12807 H 114.38724313357727 20.298503125722334 142.56700376455686 H 0.0 **** 0.06
12808 H 113.45826268352698 21.785561177717824 142.8741692662701 H 0.0 **** 0.06
12809 H 113.2864449513662 20.387684737074494 143.96352373260083 H 0.0 **** 0.06
12810 H 112.6265240613348 20.315812163137565 142.31197121783407 H 0.0 **** 0.06
12811 C 57.390067563828396 38.491634807895764 130.5720111514522 C 0.0 **** -0.24
12812 H 56.708118477260356 37.64876086733293 130.6852430154679 H 0.0 **** 0.06
12813 H 58.39999046040634 38.120414557766686 130.39523789184358 H 0.0 **** 0.06
12814 H 57.377405097285575 39.09265243895683 131.48122947025746 H 0.0 **** 0.06
12815 H 57.07460854954506 39.10226875693375 129.72622438095783 H 0.0 **** 0.06
12816 C 70.88998217355764 33.720093783950816 98.67364627844248 C 0.0 **** -0.24
12817 H 70.65995266237597 33.777314243650636 99.73695511386735 H 0.0 **** 0.06
12818 H 71.9632933199439 33.84702260753951 98.52677627414845 H 0.0 **** 0.06
12819 H 70.35479374884723 34.507213093612506 98.1432040114078 H 0.0 **** 0.06
12820 H 70.58243919457011 32.7475751040686 98.28801659464293 H 0.0 **** 0.06
12821 C 86.24002444889278 116.55619460162694 79.71828117995847 C 0.0 **** -0.24
12822 H 85.97934148137205 117.10934276816215 80.6194781096786 H 0.0 **** 0.06
12823 H 87.32240952578815 116.55896794773156 79.59031113789194 H 0.0 **** 0.06
12824 H 85.77127925218895 117.02703911477369 78.85442653213889 H 0.0 **** 0.06
12825 H 85.88723505270364 115.52836039071462 79.80799735251713 H 0.0 **** 0.06
12826 C 102.33074067528808 89.67597857828929 34.89434827474793 C 0.0 **** -0.24
12827 H 101.40198278762426 89.98637381605107 35.374679538537976 H 0.0 **** 0.06
12828 H 102.20465610871281 89.70143147350961 33.811468616111384 H 0.0 **** 0.06
12829 H 102.58051076021347 88.6632687744223 35.20745874204853 H 0.0 **** 0.06
12830 H 103.13321407963734 90.35433811773771 35.18237122049672 H 0.0 **** 0.06
12831 C 137.91958766221012 137.454142873157 3.710859622162843 C 0.0 **** -0.24
12832 H 137.70863465295113 138.49887551571408 3.484342543428852 H 0.0 **** 0.06
12833 H 137.0269321803867 136.8551521944293 3.523742188428713 H 0.0 **** 0.06
12834 H 138.20810154532026 137.35980728137693 4.758127996861049 H 0.0 **** 0.06
12835 H 138.7327679144548 137.1012205867231 3.07703220030632 H 0.0 **** 0.06
12836 C 139.83744416142773 43.39900716068732 120.28950829033103 C 0.0 **** -0.24
12837 H 139.04368749115312 42.67246886309347 120.46643193130176 H 0.0 **** 0.06
12838 H 140.76527755639162 42.87449480220913 120.06397688467679 H 0.0 **** 0.06
12839 H 139.97370882532837 44.01218922866725 121.17996443945636 H 0.0 **** 0.06
12840 H 139.5649312996076 44.035801622207615 119.4480220877792 H 0.0 **** 0.06
12841 C 126.5142717165796 118.56973881082394 119.09506886093654 C 0.0 **** -0.24
12842 H 127.5155064842065 118.70521944604377 119.5054850690821 H 0.0 **** 0.06
12843 H 126.50896565815381 117.70967611901278 118.42613802540517 H 0.0 **** 0.06
12844 H 126.22515301386525 119.46301520207317 118.54186353854153 H 0.0 **** 0.06
12845 H 125.80918833167706 118.40317176093367 119.90865799236401 H 0.0 **** 0.06
12846 C 113.69240949403235 3.1100944896535907 108.77190345944257 C 0.0 **** -0.24
12847 H 114.39674794769314 3.090821881855618 109.60377749241769 H 0.0 **** 0.06
12848 H 114.15638823068923 3.5961959965868004 107.91426746190467 H 0.0 **** 0.06
12849 H 112.80004272428829 3.6637627605277885 109.06558783922219 H 0.0 **** 0.06
12850 H 113.41531971851867 2.0896413724721583 108.5067559782924 H 0.0 **** 0.06
12851 C 11.821190844159283 23.24681623713667 84.54236874560584 C 0.0 **** -0.24
12852 H 11.656437557134169 22.46635349135562 83.80045790923 H 0.0 **** 0.06
12853 H 11.438269175494831 24.19511957641157 84.16329578289992 H 0.0 **** 0.06
12854 H 12.88812600614795 23.33976057705246 84.7420488599432 H 0.0 **** 0.06
12855 H 11.299802077797622 22.987236975710402 85.46354670552617 H 0.0 **** 0.06
12856 C 47.97935658050717 93.39779896941837 25.62814723921798 C 0.0 **** -0.24
12857 H 47.71696526338013 93.99775337300889 26.49893134324543 H 0.0 **** 0.06
12858 H 47.13895946774764 93.37794728546464 24.933367321561946 H 0.0 **** 0.06
12859 H 48.21295267482046 92.38171954700186 25.94387006569906 H 0.0 **** 0.06
12860 H 48.848272019057774 93.83434798124648 25.13515695141797 H 0.0 **** 0.06
12861 C 70.31000650917855 108.06764197284129 128.64642172233334 C 0.0 **** -0.24
12862 H 71.021236138172 108.73337547063714 129.13511671923098 H 0.0 **** 0.06
12863 H 70.1897552464621 108.36694059717236 127.60454624812348 H 0.0 **** 0.06
12864 H 69.34755601055521 108.12879064342492 129.15481269043613 H 0.0 **** 0.06
12865 H 70.68098493604194 107.04363137530287 128.69099515097153 H 0.0 **** 0.06
12866 C 113.28189872828123 56.033136217528025 129.54611927448764 C 0.0 **** -0.24
12867 H 112.92845791501237 56.04708176038595 128.51600057764313 H 0.0 **** 0.06
12868 H 113.47733361822456 55.00461727461459 129.8502828626337 H 0.0 **** 0.06
12869 H 112.52210143636283 56.46670655755325 130.1963571682454 H 0.0 **** 0.06
12870 H 114.20110957769755 56.615722760310575 129.6225515638387 H 0.0 **** 0.06
12871 C 111.02532086534303 58.528493367501554 95.97237649986715 C 0.0 **** -0.24
12872 H 111.26745180235797 57.571035191104826 96.43300206636607 H 0.0 **** 0.06
12873 H 110.85827279568527 58.38616360747771 94.90490910038915 H 0.0 **** 0.06
12874 H 111.85169734874567 59.223319982647936 96.12208076142088 H 0.0 **** 0.06
12875 H 110.12330270936324 58.934487174187666 96.43113328622644 H 0.0 **** 0.06
12876 C 71.58823437689705 53.82729817991137 60.294411177442925 C 0.0 **** -0.24
12877 H 71.354593472949 54.7622625126653 60.8037225848466 H 0.0 **** 0.06
12878 H 71.26702880306578 53.891433997974104 59.25469579960988 H 0.0 **** 0.06
12879 H 71.06759017609909 53.00612207502823 60.785784618667776 H 0.0 **** 0.06
12880 H 72.66326228341694 53.65068743038762 60.33319438547085 H 0.0 **** 0.06
12881 C 140.68747618064305 5.385443950658612 108.73567757493272 C 0.0 **** -0.24
12882 H 139.6110090387262 5.343878575826466 108.57178959850883 H 0.0 **** 0.06
12883 H 141.00121299351017 6.426293792588581 108.81971524671688 H 0.0 **** 0.06
12884 H 141.20120401217753 4.917995163436501 107.89584198556575 H 0.0 **** 0.06
12885 H 140.93602694396847 4.855400596366053 109.65410502218727 H 0.0 **** 0.06
12886 C 96.88170015091899 62.35324363728786 11.95484255938345 C 0.0 **** -0.24
12887 H 96.11667596663892 63.12870602886376 11.896527638255407 H 0.0 **** 0.06
12888 H 97.7353022037683 62.63878126388907 11.339904927836585 H 0.0 **** 0.06
12889 H 96.47034873980516 61.41121170192285 11.592720589981923 H 0.0 **** 0.06
12890 H 97.20183820241013 62.236736174759926 12.990220326987469 H 0.0 **** 0.06
12891 C 124.99800311175561 74.69240627193705 119.80104910524219 C 0.0 **** -0.24
12892 H 124.93804715028189 73.93454840234966 119.02067921050028 H 0.0 **** 0.06
12893 H 125.95520300345028 74.60781283049093 120.31688711371638 H 0.0 **** 0.06
12894 H 124.18718578294046 74.5448005971771 120.51367261667119 H 0.0 **** 0.06
12895 H 124.9122219240647 75.682950494388 119.35354576417657 H 0.0 **** 0.06
12896 C 67.67810507830345 125.02049941999586 47.034978430359956 C 0.0 **** -0.24
12897 H 68.06313972483849 124.10089010794472 46.59599384710049 H 0.0 **** 0.06
12898 H 66.97039977548364 125.48400030168713 46.34674179491674 H 0.0 **** 0.06
12899 H 68.50396723074019 125.70709615311742 47.2230585777271 H 0.0 **** 0.06
12900 H 67.17504080642608 124.79223927089042 47.974258527845336 H 0.0 **** 0.06
12901 C 97.12097698117434 35.49038018298296 39.14459271013796 C 0.0 **** -0.24
12902 H 98.11333845510497 35.50745816657172 39.595734095394434 H 0.0 **** 0.06
12903 H 97.01774517965369 36.33639910925234 38.46421068511996 H 0.0 **** 0.06
12904 H 96.3651671747639 35.558489258066174 39.92604143991956 H 0.0 **** 0.06
12905 H 96.99034992448254 34.56094204337978 38.591594744495524 H 0.0 **** 0.06
12906 C 42.803097779883586 148.6076982999574 149.12945559946814 C 0.0 **** -0.24
12907 H 42.60640346332343 149.51083318778632 148.55130577280877 H 0.0 **** 0.06
12908 H 41.94621590664133 148.3910184905941 149.7676607497581 H 0.0 **** 0.06
12909 H 43.688593093822334 148.75826146882272 149.7477009372275 H 0.0 **** 0.06
12910 H 42.971949640275824 147.77239726729914 148.44994790053644 H 0.0 **** 0.06
12911 C 60.985484582775314 38.973726776282774 133.9353548547613 C 0.0 **** -0.24
12912 H 60.40025492864578 38.090598659444616 134.19069471994638 H 0.0 **** 0.06
12913 H 62.014580309224186 38.67886728224688 133.7261362880298 H 0.0 **** 0.06
12914 H 60.96971963754589 39.67365978467312 134.77075878831877 H 0.0 **** 0.06
12915 H 60.55694699635268 39.45044781331315 133.0536530451917 H 0.0 **** 0.06
12916 C 118.95073456261566 90.2203282512944 36.08183735013562 C 0.0 **** -0.24
12917 H 118.62961286314378 89.204996860905 36.31809053811475 H 0.0 **** 0.06
12918 H 119.28346249538883 90.26333655863685 35.04484126277053 H 0.0 **** 0.06
12919 H 119.77181687778081 90.50340093471023 36.74061134640755 H 0.0 **** 0.06
12920 H 118.11602083188039 90.90687575084026 36.22541668186226 H 0.0 **** 0.06
12921 C 1.0312463974680668 145.85108778173463 132.3503149683628 C 0.0 **** -0.24
12922 H 0.6755307335902785 145.8173921804613 131.32035357550188 H 0.0 **** 0.06
12923 H 1.057391645433995 146.88679086750588 132.69099234690168 H 0.0 **** 0.06
12924 H 2.0331668855923226 145.42534747160155 132.40146175059945 H 0.0 **** 0.06
12925 H 0.3589312052857281 145.2756704622215 132.98557524728213 H 0.0 **** 0.06
12926 C 55.30814466847123 149.63559108175306 90.91375909283988 C 0.0 **** -0.24
12927 H 54.72665148855339 148.72686543666146 91.06609041414264 H 0.0 **** 0.06
12928 H 56.0059163219028 149.48689761009035 90.09010963530619 H 0.0 **** 0.06
12929 H 55.862332770754236 149.86871958978702 91.82302040531896 H 0.0 **** 0.06
12930 H 54.636608446563685 150.46056319420478 90.676441602666 H 0.0 **** 0.06
12931 C 55.441966463372836 38.452390726947556 42.47904989288527 C 0.0 **** -0.24
12932 H 54.79543976781997 37.963528699754185 43.207247395601144 H 0.0 **** 0.06
12933 H 56.45384456147171 38.05500279144966 42.56587772706773 H 0.0 **** 0.06
12934 H 55.455665897655734 39.52579371512881 42.667811199468346 H 0.0 **** 0.06
12935 H 55.0625954242322 38.26589701368817 41.47405376560326 H 0.0 **** 0.06
12936 C 28.73812771596753 64.70922201802148 150.3036120137626 C 0.0 **** -0.24
12937 H 28.39158951095345 63.805694393559875 150.8053266641456 H 0.0 **** 0.06
12938 H 29.825400848485316 64.76494150828296 150.36642919346738 H 0.0 **** 0.06
12939 H 28.300471192607525 65.58271395660513 150.78625273050835 H 0.0 **** 0.06
12940 H 28.435681391918862 64.68246180505653 149.25710421689746 H 0.0 **** 0.06
12941 C 106.92920364483119 86.435811341412 88.94390783490219 C 0.0 **** -0.24
12942 H 106.18383076023368 86.69333679807386 89.69563740418059 H 0.0 **** 0.06
12943 H 106.4277450222426 86.10932935746328 88.03263769881127 H 0.0 **** 0.06
12944 H 107.5609894305894 85.63146385559773 89.32017942863575 H 0.0 **** 0.06
12945 H 107.54424440424332 87.31009554957231 88.72737487268 H 0.0 **** 0.06
12946 C 110.5905119282698 7.645216132076143 103.34127457985657 C 0.0 **** -0.24
12947 H 109.59903386130465 7.198187629202955 103.2723599507462 H 0.0 **** 0.06
12948 H 111.13461529820061 7.194519906200213 104.17146066070016 H 0.0 **** 0.06
12949 H 110.4948930044571 8.718210390830208 103.5084895236342 H 0.0 **** 0.06
12950 H 111.13379730694884 7.468999374419944 102.41292112698315 H 0.0 **** 0.06
12951 C 83.28411440223917 128.9405828127814 69.94521715794275 C 0.0 **** -0.24
12952 H 82.61859226885969 129.70258912656325 70.35299677448313 H 0.0 **** 0.06
12953 H 82.70535687926449 128.05194247715082 69.69089135926524 H 0.0 **** 0.06
12954 H 84.03792701184275 128.68295532691567 70.68822460018505 H 0.0 **** 0.06
12955 H 83.772118113738 129.32627676096706 69.05012719639703 H 0.0 **** 0.06
12956 C 114.86813240131009 114.02189724573773 59.785105362455596 C 0.0 **** -0.24
12957 H 114.12134633791966 114.21575269564622 60.55468193586988 H 0.0 **** 0.06
12958 H 115.74986444849434 113.56996280347224 60.24048913026516 H 0.0 **** 0.06
12959 H 115.1473685816489 114.95938407304064 59.305010517441204 H 0.0 **** 0.06
12960 H 114.45395023717724 113.34248941079184 59.040239866246054 H 0.0 **** 0.06
12961 C 80.54510609659866 6.411397613760755 118.13334552381862 C 0.0 **** -0.24
12962 H 79.61678230569996 5.862363993876386 117.97578440804101 H 0.0 **** 0.06
12963 H 80.38027639537734 7.470001313973228 117.93121962297708 H 0.0 **** 0.06
12964 H 81.31210669015991 6.0278249293635895 117.45921895302921 H 0.0 **** 0.06
12965 H 80.87161099006488 6.284593896823253 119.16566711396813 H 0.0 **** 0.06
12966 C 35.973246914599365 37.8319815974485 39.081608453168855 C 0.0 **** -0.24
12967 H 36.53518237575718 37.76025512312373 40.01259358596485 H 0.0 **** 0.06
12968 H 35.66007674571666 36.836376205096876 38.76823358175882 H 0.0 **** 0.06
12969 H 36.603793247044116 38.275159130144125 38.3105711679758 H 0.0 **** 0.06
12970 H 35.09411327715223 38.4589769775468 39.2359826342458 H 0.0 **** 0.06
12971 C 41.943841133741415 123.07789200204292 2.745413528537142 C 0.0 **** -0.24
12972 H 41.4073868397214 123.91102543179733 3.199320959524073 H 0.0 **** 0.06
12973 H 43.011883634654566 123.18689923730932 2.9349211471950127 H 0.0 **** 0.06
12974 H 41.764121515773695 123.07178872091038 1.6703748825118225 H 0.0 **** 0.06
12975 H 41.59164275323778 122.14106306728877 3.1775516356968296 H 0.0 **** 0.06
12976 C 141.34704421185822 103.8524522672291 136.12965663329626 C 0.0 **** -0.24
12977 H 142.16267122490177 104.13501821775728 136.79570360243986 H 0.0 **** 0.06
12978 H 141.41129823200782 104.43429688516468 135.2097676328368 H 0.0 **** 0.06
12979 H 140.39366825557624 104.05108310609737 136.61981638181874 H 0.0 **** 0.06
12980 H 141.42076384155666 102.79053751568037 135.89497607829566 H 0.0 **** 0.06
12981 C 0.5292058532800468 55.72146109525167 141.12286987856777 C 0.0 **** -0.24
12982 H 0.7588527652486903 54.98932105306383 141.89732242991147 H 0.0 **** 0.06
12983 H -0.5459621112616162 55.73390803835011 140.9422253937832 H 0.0 **** 0.06
12984 H 1.0506500891295616 55.453326374879424 140.20429753790268 H 0.0 **** 0.06
12985 H 0.854728914491858 56.70903950691087 141.4504353200439 H 0.0 **** 0.06
12986 C 133.25334877108403 47.86922073074675 37.621400783780466 C 0.0 **** -0.24
12987 H 132.84963889810336 47.783820418551784 38.630924263831794 H 0.0 **** 0.06
12988 H 132.43910206646615 47.81901470636356 36.899411106085694 H 0.0 **** 0.06
12989 H 133.95213290476715 47.05262076906017 37.44061718289752 H 0.0 **** 0.06
12990 H 133.7730547119394 48.821763868886066 37.51833872985315 H 0.0 **** 0.06
12991 C 48.37811157524682 148.99714317117315 62.90960173799385 C 0.0 **** -0.24
12992 H 49.016870562144504 148.1505698164303 63.16328467047816 H 0.0 **** 0.06
12993 H 47.33569647316318 148.67902871136772 62.913399041573655 H 0.0 **** 0.06
12994 H 48.64260740110359 149.36590756440896 61.91868990796442 H 0.0 **** 0.06
12995 H 48.51945557083653 149.7905882091864 63.642734257056844 H 0.0 **** 0.06
12996 C 50.71239364567397 24.230648899906896 77.93517977972402 C 0.0 **** -0.24
12997 H 51.61453597077366 23.6479323664379 77.74719527357607 H 0.0 **** 0.06
12998 H 49.946052090539396 23.955329251417872 77.21105950578668 H 0.0 **** 0.06
12999 H 50.938899738306944 25.292067648040423 77.84009206832556 H 0.0 **** 0.06
13000 H 50.351979955366545 24.02431604121505 78.94368077613908 H 0.0 **** 0.06
13001 C 19.277265321321465 116.19607585023005 60.37046189740954 C 0.0 **** -0.24
13002 H 19.654497729469085 116.3672276565461 61.37794549473945 H 0.0 **** 0.06
13003 H 18.336165628507445 115.64837256702214 60.42286395932089 H 0.0 **** 0.06
13004 H 20.005281411256874 115.61437517759583 59.80439351807881 H 0.0 **** 0.06
13005 H 19.11394908371784 117.15378900130668 59.876516756813444 H 0.0 **** 0.06
13006 C 53.778252963257614 47.291773438062506 64.34133202568862 C 0.0 **** -0.24
13007 H 52.96325338786659 47.417404381236594 65.05427876224766 H 0.0 **** 0.06
13008 H 54.28043820315892 48.247881388377124 64.19155859649089 H 0.0 **** 0.06
13009 H 53.3771256320061 46.93894508288676 63.39118545696729 H 0.0 **** 0.06
13010 H 54.49063961147428 46.56357161635029 64.7280228902184 H 0.0 **** 0.06
13011 C 61.05005334140337 37.087507464028626 69.68050309230729 C 0.0 **** -0.24
13012 H 60.635738831593116 37.99169581834618 70.1276098219817 H 0.0 **** 0.06
13013 H 60.30315921355782 36.62711375619749 69.03393502123869 H 0.0 **** 0.06
13014 H 61.33127741918403 36.38827715410439 70.46838791890023 H 0.0 **** 0.06
13015 H 61.93171004079559 37.34471714136007 69.0923184454298 H 0.0 **** 0.06
13016 C 86.37824659787353 83.45317824382965 36.94774435970834 C 0.0 **** -0.24
13017 H 86.54510172175183 83.35218255473688 38.02028560948453 H 0.0 **** 0.06
13018 H 85.46316903656079 84.02201748202282 36.775719504849 H 0.0 **** 0.06
13019 H 86.2815191505627 82.46435145149084 36.500100708971814 H 0.0 **** 0.06
13020 H 87.2214716192595 83.97635465553998 36.4971553261605 H 0.0 **** 0.06
13021 C 114.0222437757604 18.9737288460611 73.37417125250357 C 0.0 **** -0.24
13022 H 113.12125580193891 18.429157263067566 73.09093290319754 H 0.0 **** 0.06
13023 H 114.51007789157357 19.35953485152195 72.47881875249396 H 0.0 **** 0.06
13024 H 114.70108382266385 18.302724692495545 73.89950453873621 H 0.0 **** 0.06
13025 H 113.75379337065131 19.803825725607936 74.0279311853904 H 0.0 **** 0.06
13026 C 78.6247208065358 103.96366142658816 78.10997338830434 C 0.0 **** -0.24
13027 H 78.12383607330496 104.37765685412059 78.98411679275466 H 0.0 **** 0.06
13028 H 79.27964861918777 104.71958955017125 77.67502998019282 H 0.0 **** 0.06
13029 H 77.88045821569422 103.65957532805125 77.37391678254701 H 0.0 **** 0.06
13030 H 79.21711052704028 103.09731675267237 78.40664805803513 H 0.0 **** 0.06
13031 C 140.36763056696833 107.00038496158768 61.13381958781082 C 0.0 **** -0.24
13032 H 140.99410563338665 107.85357409565134 60.87591508418075 H 0.0 **** 0.06
13033 H 140.734199108094 106.54586030871596 62.05504832384611 H 0.0 **** 0.06
13034 H 140.40350304113025 106.26716719532371 60.32709942894536 H 0.0 **** 0.06
13035 H 139.33954714293725 107.33420386326131 61.276339480354864 H 0.0 **** 0.06
13036 C 42.61515051628561 76.7407255689644 90.64599842518584 C 0.0 **** -0.24
13037 H 43.60355504579826 76.28101568450936 90.63729204726761 H 0.0 **** 0.06
13038 H 42.69636709557534 77.78164664693662 90.33009222627203 H 0.0 **** 0.06
13039 H 42.202850855412805 76.69708944926377 91.65360515806171 H 0.0 **** 0.06
13040 H 41.958966087764736 76.20373731115282 89.96048174527789 H 0.0 **** 0.06
13041 C 112.69131904356715 53.36607230066633 97.80839302974962 C 0.0 **** -0.24
13042 H 111.83531354972894 54.04114693367613 97.7671329536577 H 0.0 **** 0.06
13043 H 113.46837330364548 53.80336892260996 98.43569745464615 H 0.0 **** 0.06
13044 H 113.08052629382115 53.21208094067926 96.80154254836032 H 0.0 **** 0.06
13045 H 112.37905484442615 52.41018604608078 98.22833350494525 H 0.0 **** 0.06
13046 C 45.26632904221216 40.528857573847816 144.84682671668793 C 0.0 **** -0.24
13047 H 45.84131998613931 41.380175415384144 145.212714502849 H 0.0 **** 0.06
13048 H 45.703507323868465 40.16722347743074 143.91679426094365 H 0.0 **** 0.06
13049 H 44.23535474702598 40.83627806010648 144.66940304303012 H 0.0 **** 0.06
13050 H 45.28477874177767 39.732249493079706 145.59076735129253 H 0.0 **** 0.06
13051 C 9.427342812160362 74.45597570811427 54.933860325163764 C 0.0 **** -0.24
13052 H 8.482121512944218 74.40156443563225 54.394010732150974 H 0.0 **** 0.06
13053 H 9.478427281414355 75.39738435452625 55.481196267140774 H 0.0 **** 0.06
13054 H 10.254237018325313 74.40202462255431 54.224974032819844 H 0.0 **** 0.06
13055 H 9.494966927756224 73.62329348934199 55.633948022173 H 0.0 **** 0.06
13056 C 103.08805886828523 106.28967589012551 44.09463370720039 C 0.0 **** -0.24
13057 H 102.51532095878892 106.89958997711635 43.396125603331825 H 0.0 **** 0.06
13058 H 103.75569522795868 106.92939443163506 44.6719329087191 H 0.0 **** 0.06
13059 H 103.67468002390146 105.55728715402059 43.53890365718439 H 0.0 **** 0.06
13060 H 102.40585011273865 105.77148344103303 44.76881120302721 H 0.0 **** 0.06
13061 C 55.781010344757135 129.9232528920758 57.12149775375737 C 0.0 **** -0.24
13062 H 56.40911239382115 130.63077572282492 57.661005559886746 H 0.0 **** 0.06
13063 H 54.82765584326785 130.39398881928287 56.8795568553419 H 0.0 **** 0.06
13064 H 55.604665442614476 129.0460511842869 57.74456448235725 H 0.0 **** 0.06
13065 H 56.281252489688285 129.62047894388445 56.20196679038658 H 0.0 **** 0.06
13066 C 118.86823426517255 51.56099796828421 138.039827016008 C 0.0 **** -0.24
13067 H 118.4932119939432 51.8727139831514 137.06469372897413 H 0.0 **** 0.06
13068 H 118.43694910685399 52.196170210897094 138.8136395404777 H 0.0 **** 0.06
13069 H 119.95481149526226 51.65289052200556 138.0579160621576 H 0.0 **** 0.06
13070 H 118.58778541314312 50.52412357296117 138.22153107452 H 0.0 **** 0.06
13071 C 9.025287518813712 21.39653163958559 139.80888226263608 C 0.0 **** -0.24
13072 H 8.614707947683655 22.378353683396313 139.57599747234653 H 0.0 **** 0.06
13073 H 10.091983503133974 21.38632030011337 139.58746896635617 H 0.0 **** 0.06
13074 H 8.520962996474992 20.64017327489063 139.20708470402613 H 0.0 **** 0.06
13075 H 8.871612091374487 21.181402795869644 140.86653907990137 H 0.0 **** 0.06
13076 C 38.33562269947657 18.080058303483042 71.03741023033375 C 0.0 **** -0.24
13077 H 37.41563772376659 17.498991115540605 70.96854750395063 H 0.0 **** 0.06
13078 H 38.86083372215403 18.042445928904698 70.08228603598013 H 0.0 **** 0.06
13079 H 38.970562528286095 17.661690876073806 71.81844134133515 H 0.0 **** 0.06
13080 H 38.094492421074634 19.115015992319144 71.27952641627252 H 0.0 **** 0.06
13081 C 47.76132932485842 21.396976949901926 37.097316282472704 C 0.0 **** -0.24
13082 H 47.635838625805036 22.10843301324354 37.91388401387414 H 0.0 **** 0.06
13083 H 48.82473252419284 21.250740886333034 36.90438836399192 H 0.0 **** 0.06
13084 H 47.278956421843574 21.786134363726916 36.20030658507677 H 0.0 **** 0.06
13085 H 47.30685157163539 20.44555465486465 37.37175395163069 H 0.0 **** 0.06
13086 C 95.3385077080284 108.11506174934637 108.7468971453282 C 0.0 **** -0.24
13087 H 95.76573661847516 108.53142506801113 109.65865506006185 H 0.0 **** 0.06
13088 H 95.66910808586974 107.08242037118207 108.62989841446887 H 0.0 **** 0.06
13089 H 95.66890836754027 108.70207152998104 107.89003753029613 H 0.0 **** 0.06
13090 H 94.250935380074 108.1436237737429 108.8092598308761 H 0.0 **** 0.06
13091 C 3.911755327582341 99.70088110645808 134.1873335797867 C 0.0 **** -0.24
13092 H 4.336868096824219 99.61391597523131 135.18701236129544 H 0.0 **** 0.06
13093 H 4.5482582967406415 99.17591717036129 133.47402483030797 H 0.0 **** 0.06
13094 H 3.8473774386756077 100.75326964326787 133.91084426883444 H 0.0 **** 0.06
13095 H 2.914517478088783 99.26042163697193 134.17745285870885 H 0.0 **** 0.06
13096 C 96.758261537767 80.12338826068552 144.819079798284 C 0.0 **** -0.24
13097 H 96.12913459828701 79.30909814193714 145.18004436592554 H 0.0 **** 0.06
13098 H 97.7435638093798 80.05147411757869 145.27818787334962 H 0.0 **** 0.06
13099 H 96.30171456900814 81.0776048469663 145.08362296376885 H 0.0 **** 0.06
13100 H 96.85488593521154 80.05476391292714 143.73607154978538 H 0.0 **** 0.06
13101 C 10.851761739802157 100.05377310136103 36.80488921974231 C 0.0 **** -0.24
13102 H 9.983747527737904 100.65793058039404 37.067886433240375 H 0.0 **** 0.06
13103 H 11.762041390753438 100.62516490995048 36.98882092463944 H 0.0 **** 0.06
13104 H 10.799678943249404 99.78262312089787 35.750749508866846 H 0.0 **** 0.06
13105 H 10.862235268534448 99.14822564530327 37.41321862897598 H 0.0 **** 0.06
13106 C 128.77448010793677 61.16358390212531 9.444167118270911 C 0.0 **** -0.24
13107 H 128.13495095404198 60.37945404954368 9.848600418642832 H 0.0 **** 0.06
13108 H 129.77650917037752 61.06712760481511 9.862658980831782 H 0.0 **** 0.06
13109 H 128.36350455431884 62.13854726960028 9.706125147640563 H 0.0 **** 0.06
13110 H 128.82295575300887 61.06920668454222 8.359283925968356 H 0.0 **** 0.06
13111 C 40.316648484257016 91.4526229685764 59.19796591177459 C 0.0 **** -0.24
13112 H 39.63197569806724 91.14984198608073 59.99062810999345 H 0.0 **** 0.06
13113 H 39.91751535907241 92.32925156223143 58.68765566841029 H 0.0 **** 0.06
13114 H 40.43005516992376 90.63622555076893 58.484964053308374 H 0.0 **** 0.06
13115 H 41.28813884812584 91.69373093807567 59.63100973530055 H 0.0 **** 0.06
13116 C 19.6818578040197 5.395982454298547 57.11235742243812 C 0.0 **** -0.24
13117 H 19.129521610647288 4.54695259574558 57.51497077245861 H 0.0 **** 0.06
13118 H 20.716237017981058 5.103271096198824 56.931434246907 H 0.0 **** 0.06
13119 H 19.655589143867104 6.217553416936482 57.82838857002139 H 0.0 **** 0.06
13120 H 19.224676600646177 5.7145716585636706 56.17535808211153 H 0.0 **** 0.06
13121 C 101.19524838897054 123.95860962427436 63.28310543045947 C 0.0 **** -0.24
13122 H 101.93277026918722 123.22473327843663 62.95892731477775 H 0.0 **** 0.06
13123 H 100.25354895073708 123.78063137045349 62.76326948048367 H 0.0 **** 0.06
13124 H 101.55565128395212 124.96097179082683 63.050725691658926 H 0.0 **** 0.06
13125 H 101.04077865963153 123.86828118194249 64.35780041890027 H 0.0 **** 0.06
13126 C 18.9222215607939 70.96833671374208 91.92740734176787 C 0.0 **** -0.24
13127 H 19.460780860176783 70.16397064055886 92.42845283358531 H 0.0 **** 0.06
13128 H 19.566749888138787 71.422397938741 91.17453408947208 H 0.0 **** 0.06
13129 H 18.630525365315435 71.72152595021967 92.6588160916231 H 0.0 **** 0.06
13130 H 18.03011693243522 70.56428096062552 91.44676835232671 H 0.0 **** 0.06
13131 C 31.455025634737638 13.279033213254863 38.21495836485104 C 0.0 **** -0.24
13132 H 31.845582720108396 12.263209698501512 38.27234494722262 H 0.0 **** 0.06
13133 H 31.856680932784982 13.870434280239671 39.03876194759738 H 0.0 **** 0.06
13134 H 30.36667678421138 13.253586181781479 38.2832355530478 H 0.0 **** 0.06
13135 H 31.74814081821053 13.728739288839918 37.266849520662504 H 0.0 **** 0.06
13136 C 40.11524058307086 115.86035941354679 19.955779343216363 C 0.0 **** -0.24
13137 H 39.81607231373437 115.59073116022752 20.96846212750893 H 0.0 **** 0.06
13138 H 41.01061104005342 116.47989889478102 19.994509434060546 H 0.0 **** 0.06
13139 H 39.30913576458002 116.41563564877355 19.474896972138254 H 0.0 **** 0.06
13140 H 40.32294401174315 114.95553536520738 19.38542666628973 H 0.0 **** 0.06
13141 C 76.29115422977223 82.82285528762775 19.535725059718914 C 0.0 **** -0.24
13142 H 75.30772697372613 82.45286747289319 19.82578252742718 H 0.0 **** 0.06
13143 H 77.04400002650503 82.42464616745612 20.216414568955997 H 0.0 **** 0.06
13144 H 76.29746552878048 83.91204214162835 19.58277466972885 H 0.0 **** 0.06
13145 H 76.51465964234686 82.50122911998362 18.518030381017525 H 0.0 **** 0.06
13146 C 6.956319823467908 73.80597269961109 49.3737697959113 C 0.0 **** -0.24
13147 H 7.165513461174982 74.23991099811963 48.395247894053 H 0.0 **** 0.06
13148 H 7.807625121007419 73.20261278807362 49.692174673384244 H 0.0 **** 0.06
13149 H 6.068773900497774 73.17748394130984 49.30957825911328 H 0.0 **** 0.06
13150 H 6.7865946226574465 74.60412686633998 50.09649019061965 H 0.0 **** 0.06
13151 C 68.98642255552102 131.33474555194647 3.2632027131703865 C 0.0 **** -0.24
13152 H 68.30526634437149 130.57261656270214 3.642722318459903 H 0.0 **** 0.06
13153 H 69.41502116417882 130.99935504588873 2.3185435462191037 H 0.0 **** 0.06
13154 H 69.78468537453074 131.50026733710413 3.9858087232003356 H 0.0 **** 0.06
13155 H 68.4397054623567 132.26408283067255 3.1047883514471266 H 0.0 **** 0.06
13156 C 144.7440386303736 145.29889244818548 39.39123727113254 C 0.0 **** -0.24
13157 H 143.8883952209661 145.95617756014207 39.546672559296525 H 0.0 **** 0.06
13158 H 145.37135507671204 145.70289659572458 38.59587618704861 H 0.0 **** 0.06
13159 H 144.39302142209348 144.30687109758424 39.10972352896982 H 0.0 **** 0.06
13160 H 145.32247386742023 145.23222874991842 40.31205053591535 H 0.0 **** 0.06
13161 C 51.70364284797033 131.15149291719723 33.295495808118886 C 0.0 **** -0.24
13162 H 52.425752487903424 130.37580881738754 33.04216539205251 H 0.0 **** 0.06
13163 H 50.70264260737622 130.82063669756354 33.02011037868127 H 0.0 **** 0.06
13164 H 51.946261014836665 132.0653053439216 32.75205786386749 H 0.0 **** 0.06
13165 H 51.74027762869595 131.34546353685178 34.36708002990983 H 0.0 **** 0.06
13166 C 127.02626426338898 109.9013476422599 103.75936241496599 C 0.0 **** -0.24
13167 H 126.5025839692702 109.90316999585815 102.80331423705137 H 0.0 **** 0.06
13168 H 126.50910900074028 109.24155734079005 104.45600843381722 H 0.0 **** 0.06
13169 H 127.04650347114335 110.9139716371119 104.1630721234031 H 0.0 **** 0.06
13170 H 128.04672286763414 109.54912113430487 103.61330024429124 H 0.0 **** 0.06
13171 C 88.84534971236242 44.24264677341779 52.694919967867946 C 0.0 **** -0.24
13172 H 89.58335154087668 44.576999048783335 51.966538680639516 H 0.0 **** 0.06
13173 H 89.14400187717489 43.27447767303394 53.09654037537729 H 0.0 **** 0.06
13174 H 87.87246824718518 44.15090792823682 52.209795033777496 H 0.0 **** 0.06
13175 H 88.77928135127053 44.967762764157754 53.50607362549398 H 0.0 **** 0.06
13176 C 143.71267371391897 104.63196469290234 108.53499571921775 C 0.0 **** -0.24
13177 H 142.91812297697882 105.29950876038616 108.20163626407778 H 0.0 **** 0.06
13178 H 144.19158979219125 104.17593672302145 107.66727949655059 H 0.0 **** 0.06
13179 H 143.29006346134705 103.8515895341507 109.16801205134904 H 0.0 **** 0.06
13180 H 144.4511143030057 105.19868221511125 109.10188214513785 H 0.0 **** 0.06
13181 C 99.29851030485403 57.83767825475303 104.4887418817899 C 0.0 **** -0.24
13182 H 99.37740145334557 58.21560205092146 105.50763649926148 H 0.0 **** 0.06
13183 H 99.03556729170325 58.65487359687069 103.81654752477402 H 0.0 **** 0.06
13184 H 98.52581730961504 57.06864389416032 104.44582042044834 H 0.0 **** 0.06
13185 H 100.25333518595019 57.409296920087826 104.18516267446114 H 0.0 **** 0.06
13186 C 85.70910181368123 39.74198522831071 21.29602252595396 C 0.0 **** -0.24
13187 H 86.21133285791939 39.525079616463856 22.23817557868483 H 0.0 **** 0.06
13188 H 84.62937565742226 39.71073113766728 21.44276754612241 H 0.0 **** 0.06
13189 H 85.99650653224393 38.99966197146978 20.551705941882176 H 0.0 **** 0.06
13190 H 85.99974784894488 40.73376945785117 20.949441492770802 H 0.0 **** 0.06
13191 C 45.30648903399624 118.12061132967345 19.73318689770214 C 0.0 **** -0.24
13192 H 44.94105576682749 117.61700418095587 18.838067429917764 H 0.0 **** 0.06
13193 H 44.51262081487036 118.73845921659829 20.15345793029688 H 0.0 **** 0.06
13194 H 46.157966763668554 118.75064597987985 19.47335705119273 H 0.0 **** 0.06
13195 H 45.617191323619394 117.3768879823891 20.46722515771451 H 0.0 **** 0.06
13196 C 79.14437006469184 141.74664880839424 147.48092679195267 C 0.0 **** -0.24
13197 H 78.96681597200241 142.00962450505034 148.5238485630026 H 0.0 **** 0.06
13198 H 78.64956243259603 140.80124604543022 147.2551690433701 H 0.0 **** 0.06
13199 H 80.21635330114812 141.64544157660484 147.3101446578259 H 0.0 **** 0.06
13200 H 78.745106774665 142.5289177603875 146.83627917298915 H 0.0 **** 0.06
13201 C 116.16588183269643 85.82393141825423 132.69589816498197 C 0.0 **** -0.24
13202 H 117.209650774374 85.96108886001645 132.41343097315465 H 0.0 **** 0.06
13203 H 115.71403930881753 85.06272535583639 132.06019687225668 H 0.0 **** 0.06
13204 H 115.63008952828771 86.76589640091487 132.57394283107155 H 0.0 **** 0.06
13205 H 116.11043949727777 85.5079585363195 133.737957085835 H 0.0 **** 0.06
13206 C 77.43827391638129 12.744609925043633 52.678094739320485 C 0.0 **** -0.24
13207 H 77.67954310681421 13.732034707589456 53.071849696209625 H 0.0 **** 0.06
13208 H 77.31412720196599 12.8059659558768 51.596063509285884 H 0.0 **** 0.06
13209 H 76.51226267935377 12.389844336751736 53.13041878739429 H 0.0 **** 0.06
13210 H 78.24603422902406 12.052198243762717 52.9125788121014 H 0.0 **** 0.06
13211 C 18.429614648013143 72.01132701893043 33.26549336097391 C 0.0 **** -0.24
13212 H 18.47003167071125 71.08787828556285 32.68808590224852 H 0.0 **** 0.06
13213 H 19.157128151943454 71.96662015700363 34.07526113100539 H 0.0 **** 0.06
13214 H 17.42958780619989 72.13513878011574 33.68244598237965 H 0.0 **** 0.06
13215 H 18.658766839904814 72.85610889971775 32.61580548486922 H 0.0 **** 0.06
13216 C 53.621969862969564 86.16384952076957 125.98366566008755 C 0.0 **** -0.24
13217 H 54.61705834933872 85.71921624425583 125.94375716124338 H 0.0 **** 0.06
13218 H 53.57817064359199 87.01416667773076 125.30190697474265 H 0.0 **** 0.06
13219 H 53.41492497034555 86.50073585181039 126.99905448681537 H 0.0 **** 0.06
13220 H 52.88104147693964 85.42196775860367 125.68719975912646 H 0.0 **** 0.06
13221 C 19.275845712893357 122.94861588096067 94.53931498986643 C 0.0 **** -0.24
13222 H 18.563741905746923 123.25774672176756 95.30445992694062 H 0.0 **** 0.06
13223 H 19.446627466906676 123.77356267780105 93.84758898795475 H 0.0 **** 0.06
13224 H 18.873569001803247 122.09366176326229 93.99354445121669 H 0.0 **** 0.06
13225 H 20.21766534659298 122.66829944229967 95.0104783765683 H 0.0 **** 0.06
13226 C 35.961813146010485 114.15600247104302 68.12357701251216 C 0.0 **** -0.24
13227 H 35.05803958659669 113.62114342946055 67.83086613229378 H 0.0 **** 0.06
13228 H 35.913175063059015 115.18057667014497 67.75290926004146 H 0.0 **** 0.06
13229 H 36.83211378646109 113.65649864076155 67.70057568829417 H 0.0 **** 0.06
13230 H 36.041275003199445 114.16690711318856 69.21081544129584 H 0.0 **** 0.06
13231 C 70.83921209912337 70.32328877460611 121.82847708296148 C 0.0 **** -0.24
13232 H 70.5969386697165 69.33677213384615 122.22168558852067 H 0.0 **** 0.06
13233 H 70.12930894238508 71.05374923125788 122.21678819662228 H 0.0 **** 0.06
13234 H 70.78293982361619 70.3043062931329 120.74017079608277 H 0.0 **** 0.06
13235 H 71.84893960662617 70.59865560224475 122.13475635762163 H 0.0 **** 0.06
13236 C 33.85468761079633 140.8161939999374 72.63257423805027 C 0.0 **** -0.24
13237 H 33.004187718554164 141.4682045734944 72.43534948812157 H 0.0 **** 0.06
13238 H 34.08955445545487 140.24447853189218 71.73519558689628 H 0.0 **** 0.06
13239 H 33.60846357324982 140.13307335612146 73.44608848439043 H 0.0 **** 0.06
13240 H 34.71765869071589 141.4202581992874 72.91515500850255 H 0.0 **** 0.06
13241 C 35.66820228693338 39.12641671988479 124.70096280889156 C 0.0 **** -0.24
13242 H 35.928793468210316 38.10742693478005 124.41535901452757 H 0.0 **** 0.06
13243 H 35.79033196521305 39.78674679078412 123.84178235001967 H 0.0 **** 0.06
13244 H 36.322716196481906 39.45531305754716 125.50811596866113 H 0.0 **** 0.06
13245 H 34.632473766785814 39.155577248192884 125.03798735649413 H 0.0 **** 0.06
13246 C 72.50639872333133 105.70516827546687 99.44616733271516 C 0.0 **** -0.24
13247 H 72.04837498284272 106.56524388452722 98.95731797176109 H 0.0 **** 0.06
13248 H 71.75640810199286 105.1871903833982 100.0448237402095 H 0.0 **** 0.06
13249 H 73.31615871554635 106.04307857835822 100.0913570683498 H 0.0 **** 0.06
13250 H 72.90145651328939 105.02685246333145 98.69021199753581 H 0.0 **** 0.06
13251 C 59.21003423594972 108.51298180104102 118.95718145738182 C 0.0 **** -0.24
13252 H 58.18725121748004 108.21813680830236 119.19527780313403 H 0.0 **** 0.06
13253 H 59.90470603701799 107.79123511227478 119.38877426361908 H 0.0 **** 0.06
13254 H 59.407816763150976 109.50117388250543 119.37062179144759 H 0.0 **** 0.06
13255 H 59.33729846694857 108.53877824696018 117.87496482434453 H 0.0 **** 0.06
13256 C 132.55924026290828 117.42564524519689 136.11567381324735 C 0.0 **** -0.24
13257 H 131.67924377813634 118.06468124695546 136.03594492206705 H 0.0 **** 0.06
13258 H 133.11289106760537 117.45012000785552 135.17730648644826 H 0.0 **** 0.06
13259 H 132.24627360104125 116.40271817546285 136.32608431794182 H 0.0 **** 0.06
13260 H 133.19646391861264 117.78392332312829 136.92394437507903 H 0.0 **** 0.06
13261 C 16.817486641546935 110.40287791881873 92.477011148831 C 0.0 **** -0.24
13262 H 17.590531381294937 110.36431742644977 91.70973975548318 H 0.0 **** 0.06
13263 H 17.176427591845822 110.98941901671351 93.32345811333624 H 0.0 **** 0.06
13264 H 16.58454423740517 109.39172127734092 92.80897880165318 H 0.0 **** 0.06
13265 H 15.92033563871533 110.86654504929113 92.06695340812863 H 0.0 **** 0.06
13266 C 80.52373137605052 108.72457721373507 96.71064305179272 C 0.0 **** -0.24
13267 H 80.40543038519829 109.37896738267523 95.84763098575877 H 0.0 **** 0.06
13268 H 81.41638871743692 108.11119556869812 96.58243086944907 H 0.0 **** 0.06
13269 H 79.64964344772746 108.07910129438454 96.79903212727032 H 0.0 **** 0.06
13270 H 80.62371556986001 109.32765454842462 97.61354138668503 H 0.0 **** 0.06
13271 C 92.53047734449781 65.36051936775077 143.37084483789613 C 0.0 **** -0.24
13272 H 91.83545307241486 64.57202649559191 143.66079270011315 H 0.0 **** 0.06
13273 H 92.08326551669924 65.96611443358171 142.5822887537012 H 0.0 **** 0.06
13274 H 93.45507003625292 64.91286759530558 143.0068644598445 H 0.0 **** 0.06
13275 H 92.74564227968175 65.98920928133508 144.23406524744243 H 0.0 **** 0.06
13276 C 76.69113346483536 74.25319834045803 58.340508383665096 C 0.0 **** -0.24
13277 H 77.1070321648989 73.92096157194256 59.29160484490647 H 0.0 **** 0.06
13278 H 75.65586969770521 74.5628807442477 58.48432157582772 H 0.0 **** 0.06
13279 H 76.72887757430203 73.4344044717358 57.62128831728836 H 0.0 **** 0.06
13280 H 77.27375405983494 75.09419462357701 57.9628497768212 H 0.0 **** 0.06
13281 C 149.77804905171286 31.078071598115258 139.8376791022952 C 0.0 **** -0.24
13282 H 150.41645794776184 30.253628722438506 139.51788453930666 H 0.0 **** 0.06
13283 H 150.39866938165875 31.90278315782581 140.1874800707753 H 0.0 **** 0.06
13284 H 149.12874285162866 30.742464350610362 140.64599383022284 H 0.0 **** 0.06
13285 H 149.168810685521 31.41216715471306 138.99756347121007 H 0.0 **** 0.06
13286 C 76.78198183062206 53.71770369417787 71.75799382743945 C 0.0 **** -0.24
13287 H 77.66149417108167 54.36077487604199 71.74240686847648 H 0.0 **** 0.06
13288 H 76.49989614555464 53.51463886303358 72.79209338743308 H 0.0 **** 0.06
13289 H 77.00850445693875 52.7785420601264 71.25283996595302 H 0.0 **** 0.06
13290 H 75.95865200960162 54.21615730407969 71.24781696241513 H 0.0 **** 0.06
13291 C 115.71086754925291 78.57894557392356 101.40868860486248 C 0.0 **** -0.24
13292 H 115.79437833562444 78.23647496226138 100.37725789334735 H 0.0 **** 0.06
13293 H 114.66814788313305 78.53412940283096 101.72208080304083 H 0.0 **** 0.06
13294 H 116.0686081814297 79.6061655475672 101.4794010621562 H 0.0 **** 0.06
13295 H 116.31330295422306 77.93956329378577 102.05341439232032 H 0.0 **** 0.06
13296 C 55.28091130160598 129.08664419936002 28.48140637699788 C 0.0 **** -0.24
13297 H 55.28013822552634 127.99798049474515 28.53880183191444 H 0.0 **** 0.06
13298 H 56.02709577589498 129.48563693059418 29.168591227210243 H 0.0 **** 0.06
13299 H 54.2955746324041 129.46495558332083 28.754383746444205 H 0.0 **** 0.06
13300 H 55.52082735508104 129.3960085507406 27.46398685670539 H 0.0 **** 0.06
13301 C 7.113165352080927 98.7415463393547 140.37511320872594 C 0.0 **** -0.24
13302 H 7.814380663490482 98.51397904862813 139.57145859099046 H 0.0 **** 0.06
13303 H 6.893358443371454 97.83046513696647 140.93236223636544 H 0.0 **** 0.06
13304 H 6.191792165593739 99.14070849127486 139.95167668285345 H 0.0 **** 0.06
13305 H 7.555920645933185 99.47925749221443 141.04470600048748 H 0.0 **** 0.06
13306 C 97.57318798225035 99.9802917796722 37.16650018594183 C 0.0 **** -0.24
13307 H 98.34116808778484 99.2995042987402 37.534934006541704 H 0.0 **** 0.06
13308 H 96.6293785548481 99.77001457844437 37.670265777864415 H 0.0 **** 0.06
13309 H 97.45136488554508 99.84251865194295 36.092030461109914 H 0.0 **** 0.06
13310 H 97.87220116098004 101.00879760474271 37.36896592362598 H 0.0 **** 0.06
13311 C 143.82513994129062 28.63412349301433 1.926032859128643 C 0.0 **** -0.24
13312 H 143.3272093631286 27.742408126265786 1.5458364482842342 H 0.0 **** 0.06
13313 H 144.79873181022936 28.35888048112639 2.334186897067184 H 0.0 **** 0.06
13314 H 143.21719715147685 29.08427127295738 2.709309909816181 H 0.0 **** 0.06
13315 H 143.9609063146205 29.347860724143175 1.114157191338645 H 0.0 **** 0.06
13316 C 75.49383022434186 40.53159899257183 61.94813324542264 C 0.0 **** -0.24
13317 H 74.4156436902206 40.47864776958082 61.79470744601127 H 0.0 **** 0.06
13318 H 75.96372374280217 40.97365390687668 61.06944955667102 H 0.0 **** 0.06
13319 H 75.8875404807027 39.52669192869962 62.10423754199722 H 0.0 **** 0.06
13320 H 75.70638066560939 41.14533768000831 62.823359278383506 H 0.0 **** 0.06
13321 C 48.32633168918579 87.65436764512056 3.844535189991774 C 0.0 **** -0.24
13322 H 48.44126205898871 86.79131418776868 3.1898954650969245 H 0.0 **** 0.06
13323 H 49.0134954672146 87.56535732726971 4.686502305119461 H 0.0 **** 0.06
13324 H 47.30132321120588 87.69597186615363 4.2136438613797225 H 0.0 **** 0.06
13325 H 48.54924601933402 88.56482719929033 3.2880991283709022 H 0.0 **** 0.06
13326 C 101.60836769861496 73.6188316213431 68.46141996903847 C 0.0 **** -0.24
13327 H 100.63081610779895 73.23493849623006 68.75155167170061 H 0.0 **** 0.06
13328 H 102.15563497246168 72.84666498719673 67.9191112309297 H 0.0 **** 0.06
13329 H 102.1668193199864 73.90052244243194 69.35433853583544 H 0.0 **** 0.06
13330 H 101.48157661074997 74.49214142918035 67.82208714418101 H 0.0 **** 0.06
13331 C 1.2634419677589221 89.83485282689264 65.68208289059258 C 0.0 **** -0.24
13332 H 0.47125939795982674 89.36497711355335 66.26549106308978 H 0.0 **** 0.06
13333 H 0.8343581429377167 90.2957597757906 64.7918669766338 H 0.0 **** 0.06
13334 H 1.991958931440994 89.08091610596935 65.38595472188385 H 0.0 **** 0.06
13335 H 1.7544150772265752 90.5981870273323 66.28583183939624 H 0.0 **** 0.06
13336 C 47.95349473775376 20.44584546959939 106.83808837031205 C 0.0 **** -0.24
13337 H 48.96990577922526 20.77923689860134 106.63146990377663 H 0.0 **** 0.06
13338 H 47.97196709347625 19.68720179108439 107.62101304885226 H 0.0 **** 0.06
13339 H 47.51850069388516 20.022974817108462 105.93303033758394 H 0.0 **** 0.06
13340 H 47.35312298464821 21.293491970540316 107.16757528904247 H 0.0 **** 0.06
13341 C 146.63614950165567 99.20679265133899 47.380062992214974 C 0.0 **** -0.24
13342 H 145.98192032569582 99.32851529503492 48.242851631066756 H 0.0 **** 0.06
13343 H 147.23839806900668 100.10549419921685 47.250245264700084 H 0.0 **** 0.06
13344 H 146.0324669731759 99.04195532678582 46.48630204571805 H 0.0 **** 0.06
13345 H 147.2911022891782 98.34923509875071 47.53870544005602 H 0.0 **** 0.06
13346 C 102.74724352720678 39.83013876738889 49.761954762364965 C 0.0 **** -0.24
13347 H 103.31856679842782 39.03941098874418 49.27677464591727 H 0.0 **** 0.06
13348 H 102.38441321252618 39.47538759853168 50.72735224801096 H 0.0 **** 0.06
13349 H 101.89945514063957 40.10363364477578 49.1336133769134 H 0.0 **** 0.06
13350 H 103.38502998326054 40.7014749426198 49.91062954133433 H 0.0 **** 0.06
13351 C 125.83625860792222 62.16270260371046 52.081181785666644 C 0.0 **** -0.24
13352 H 125.82114951618178 61.09906526254544 52.31989462864783 H 0.0 **** 0.06
13353 H 125.02726300928441 62.665542826381795 52.61059589315275 H 0.0 **** 0.06
13354 H 125.70552592474121 62.2955546371298 51.0070906359943 H 0.0 **** 0.06
13355 H 126.79140463532909 62.58950143304163 52.38637728221494 H 0.0 **** 0.06
13356 C 84.88684621028841 80.31578855457336 120.44684153597176 C 0.0 **** -0.24
13357 H 85.89130009725476 80.31632599949263 120.87068301683108 H 0.0 **** 0.06
13358 H 84.82573858214899 79.56461773434967 119.65911077277254 H 0.0 **** 0.06
13359 H 84.66890236728528 81.29932672001658 120.02910155955796 H 0.0 **** 0.06
13360 H 84.1627657379686 80.08485125192088 121.22785299381222 H 0.0 **** 0.06
13361 C 101.097412344547 4.418282727388942 24.700930694144034 C 0.0 **** -0.24
13362 H 102.12885978934658 4.5856612774690575 25.009788337139668 H 0.0 **** 0.06
13363 H 100.5782611839988 3.8422219227200287 25.46702762769425 H 0.0 **** 0.06
13364 H 101.08484989463123 3.867532114065 23.760464626031165 H 0.0 **** 0.06
13365 H 100.5981394041539 5.377223216931839 24.567180546676497 H 0.0 **** 0.06
13366 C 131.1529638700934 55.19433308161885 85.12521238514567 C 0.0 **** -0.24
13367 H 130.44479421533705 55.87550106667803 84.6545783880673 H 0.0 **** 0.06
13368 H 130.6112125075455 54.37119961244022 85.59063393665684 H 0.0 **** 0.06
13369 H 131.72244108982687 55.73089363872995 85.88519331225717 H 0.0 **** 0.06
13370 H 131.8346751040599 54.800698003744884 84.3711310165167 H 0.0 **** 0.06
13371 C 22.399502058085176 31.10652478915523 52.19196189372991 C 0.0 **** -0.24
13372 H 21.54213683686757 30.437613559591 52.26957081160093 H 0.0 **** 0.06
13373 H 22.256889342727987 31.957771331181448 52.857332772446554 H 0.0 **** 0.06
13374 H 22.49252777627845 31.45915131571155 51.164533428708665 H 0.0 **** 0.06
13375 H 23.30553583563099 30.56965368169051 52.47569547934721 H 0.0 **** 0.06
13376 C 95.00325711323677 78.51524459106668 101.42625048235092 C 0.0 **** -0.24
13377 H 94.72085656329828 79.38925188583178 102.01510169047307 H 0.0 **** 0.06
13378 H 95.21788017310756 77.68153006522721 102.09551765648123 H 0.0 **** 0.06
13379 H 95.88930821818002 78.74656906556021 100.83546550190007 H 0.0 **** 0.06
13380 H 94.18275961403688 78.2466750655149 100.76058032332308 H 0.0 **** 0.06
13381 C 125.60281985296561 54.16652592649123 29.8235828354319 C 0.0 **** -0.24
13382 H 125.64739368175202 53.176265544142254 30.277488169206876 H 0.0 **** 0.06
13383 H 126.46761185508204 54.307860793698964 29.175748974702003 H 0.0 **** 0.06
13384 H 125.60599785555783 54.92418301663069 30.606595659967006 H 0.0 **** 0.06
13385 H 124.68958300498123 54.254486717517054 29.235259936306477 H 0.0 **** 0.06
13386 C 132.88301454695562 46.41604175240684 110.64769695335049 C 0.0 **** -0.24
13387 H 131.95494570318886 46.97113893090432 110.7819534398942 H 0.0 **** 0.06
13388 H 133.49752258703307 46.91178615941294 109.89547964700928 H 0.0 **** 0.06
13389 H 132.65498936720303 45.401705808611894 110.31993240136502 H 0.0 **** 0.06
13390 H 133.42397611771713 46.37894546713801 111.59291116411215 H 0.0 **** 0.06
13391 C 80.5514803643063 112.13398321652498 114.38588876052445 C 0.0 **** -0.24
13392 H 80.6241982731251 111.0778384995477 114.64725241630497 H 0.0 **** 0.06
13393 H 81.31018577632419 112.69598208953668 114.92999337098108 H 0.0 **** 0.06
13394 H 79.56173142334004 112.5063464511022 114.65237362289265 H 0.0 **** 0.06
13395 H 80.70764419743082 112.25370966839411 113.31362063571818 H 0.0 **** 0.06
13396 C 145.74509408529087 93.25356672231146 117.27715341517019 C 0.0 **** -0.24
13397 H 145.25538469534595 93.98109840525066 116.62907480513682 H 0.0 **** 0.06
13398 H 145.01566275745887 92.83428789105773 117.96882141084778 H 0.0 **** 0.06
13399 H 146.53862061751994 93.74567645029316 117.83949951988875 H 0.0 **** 0.06
13400 H 146.17116345694194 92.45546312654241 116.66905224630709 H 0.0 **** 0.06
13401 C 55.82191329077408 17.26270289481775 31.085087776662164 C 0.0 **** -0.24
13402 H 55.72916211452028 16.285402134626537 30.61081470412934 H 0.0 **** 0.06
13403 H 55.360610149951086 18.01934144818398 30.45058719520437 H 0.0 **** 0.06
13404 H 56.876810539291256 17.499657107680576 31.22400136584875 H 0.0 **** 0.06
13405 H 55.32280141747715 17.246327585228244 32.05353480175507 H 0.0 **** 0.06
13406 C 127.68439240835434 139.9965118480752 139.48312876322404 C 0.0 **** -0.24
13407 H 128.1502786860405 139.26212704129463 138.82668121318372 H 0.0 **** 0.06
13408 H 127.70428435794986 140.97612825099347 139.00395180846482 H 0.0 **** 0.06
13409 H 128.2329365588588 140.04151614744475 140.42447006495252 H 0.0 **** 0.06
13410 H 126.65243050455564 139.70691197345354 139.6772575007927 H 0.0 **** 0.06
13411 C 145.7456152203292 37.24280311773771 87.23797126389584 C 0.0 **** -0.24
13412 H 146.12229288649942 36.22882860958532 87.10154129607622 H 0.0 **** 0.06
13413 H 146.55270206665145 37.95520408054887 87.06592420903719 H 0.0 **** 0.06
13414 H 145.37012616705803 37.356211491203396 88.25502731005574 H 0.0 **** 0.06
13415 H 144.93816465694587 37.42888961958852 86.53039168895626 H 0.0 **** 0.06
13416 C 58.975123216855735 45.759558062198394 36.331977699469576 C 0.0 **** -0.24
13417 H 59.748281263623795 45.28935583586042 36.938832665175426 H 0.0 **** 0.06
13418 H 58.051202433108045 45.82336321398836 36.90707663355994 H 0.0 **** 0.06
13419 H 58.80457728445688 45.164443314320906 35.43464330335473 H 0.0 **** 0.06
13420 H 59.295424588969155 46.76193685848055 36.047841705615156 H 0.0 **** 0.06
13421 C 77.64710773675336 90.06614908369039 71.4040855193791 C 0.0 **** -0.24
13422 H 76.99636970225525 89.19459048441558 71.33202229560992 H 0.0 **** 0.06
13423 H 77.23180672447984 90.87954609945056 70.80804618057576 H 0.0 **** 0.06
13424 H 78.63927155391785 89.81166042588872 71.03154564139635 H 0.0 **** 0.06
13425 H 77.71957170719472 90.37930391094545 72.4455962055208 H 0.0 **** 0.06
13426 C 34.53507576123502 42.94224799524284 117.44716300884856 C 0.0 **** -0.24
13427 H 34.82027117369313 43.93063048813178 117.08665071789802 H 0.0 **** 0.06
13428 H 33.44783568308108 42.873682205850685 117.49765334477569 H 0.0 **** 0.06
13429 H 34.955589757854625 42.7835059433433 118.43996480582159 H 0.0 **** 0.06
13430 H 34.91689383614404 42.18336582453429 116.76471574537574 H 0.0 **** 0.06
13431 C 67.33367356128471 81.04383018339682 39.7988209036325 C 0.0 **** -0.24
13432 H 66.5563282335091 81.42499032371295 40.46025921063645 H 0.0 **** 0.06
13433 H 67.50539164399734 81.7561262502954 38.992027445169384 H 0.0 **** 0.06
13434 H 67.01796357910598 80.08756856686139 39.37972607919775 H 0.0 **** 0.06
13435 H 68.25535916357742 80.9050077688104 40.36437946896942 H 0.0 **** 0.06
13436 C 73.08902398499282 65.61803294688538 146.04618242529517 C 0.0 **** -0.24
13437 H 73.37019874439265 64.79264355925395 146.70069722239936 H 0.0 **** 0.06
13438 H 73.03363713258469 65.2618846078265 145.01667759159852 H 0.0 **** 0.06
13439 H 73.83358144085254 66.40999413113575 146.11861939205292 H 0.0 **** 0.06
13440 H 72.11540706725778 66.00521661235487 146.34949159741092 H 0.0 **** 0.06
13441 C 119.96802141515148 22.94471791424607 74.1064782134921 C 0.0 **** -0.24
13442 H 119.44132973468727 22.99498772448885 73.15335843437845 H 0.0 **** 0.06
13443 H 119.93523100606681 23.920829059629114 74.59121250302906 H 0.0 **** 0.06
13444 H 121.00494795496105 22.658181228296826 73.93367911466544 H 0.0 **** 0.06
13445 H 119.48764678888706 22.204250003765623 74.74750320822369 H 0.0 **** 0.06
13446 C 66.6271770065114 144.60575583132996 63.7587612619412 C 0.0 **** -0.24
13447 H 66.95704150397901 144.1026236238167 64.66786625618064 H 0.0 **** 0.06
13448 H 65.82355413524212 144.03147716379502 63.29751210391902 H 0.0 **** 0.06
13449 H 67.46290921000204 144.68601925501568 63.06413767713218 H 0.0 **** 0.06
13450 H 66.26486018255979 145.60324365996937 64.00895930752479 H 0.0 **** 0.06
13451 C 2.09043359222062 114.24533398832442 75.1959660316973 C 0.0 **** -0.24
13452 H 2.0898672416783484 113.33674547528996 74.59290374823742 H 0.0 **** 0.06
13453 H 1.139792865243237 114.33215265678562 75.72188256617052 H 0.0 **** 0.06
13454 H 2.2287383254843007 115.11032351121388 74.54758620770318 H 0.0 **** 0.06
13455 H 2.903870429278527 114.19986451880477 75.91986278615227 H 0.0 **** 0.06
13456 C 56.11707433262855 40.441245988777524 60.6361422651633 C 0.0 **** -0.24
13457 H 56.44093632479712 40.47435923899229 59.59578010949531 H 0.0 **** 0.06
13458 H 55.42138074903991 41.25952513522856 60.82629015331685 H 0.0 **** 0.06
13459 H 56.98336411717321 40.54238288496677 61.2887897714196 H 0.0 **** 0.06
13460 H 55.62224137519847 39.4898419427885 60.83181335920156 H 0.0 **** 0.06
13461 C 99.84355731958607 107.69690752382822 78.52723342841017 C 0.0 **** -0.24
13462 H 99.05452568627481 107.003524928131 78.23496785444826 H 0.0 **** 0.06
13463 H 99.62582343183108 108.68519472414427 78.12360140717819 H 0.0 **** 0.06
13464 H 100.79809508131017 107.34621641852574 78.13501169425207 H 0.0 **** 0.06
13465 H 99.89558520720314 107.75057362234803 79.61467148765394 H 0.0 **** 0.06
13466 C 41.15739962148368 70.94799467440029 50.1219507157237 C 0.0 **** -0.24
13467 H 41.27247216254008 71.39438318622692 49.13398912350499 H 0.0 **** 0.06
13468 H 42.10886624875255 70.98997160468261 50.65192493364307 H 0.0 **** 0.06
13469 H 40.84414167755236 69.90961746603742 50.01680941957841 H 0.0 **** 0.06
13470 H 40.40332236596615 71.5003872280532 50.68343667036345 H 0.0 **** 0.06
13471 C 69.53687483160559 107.02392837906012 60.09287675034889 C 0.0 **** -0.24
13472 H 70.31372067743564 106.29950634136998 60.33696631959603 H 0.0 **** 0.06
13473 H 69.27664435862906 106.93596191444254 59.03759455043607 H 0.0 **** 0.06
13474 H 69.90455609931531 108.0300252291745 60.2933139692033 H 0.0 **** 0.06
13475 H 68.65456802216943 106.83038135731096 60.70262482458412 H 0.0 **** 0.06
13476 C 1.020882899396895 74.91370420484891 83.00214886562374 C 0.0 **** -0.24
13477 H -0.04003798188711016 75.06979803998878 83.19870699566795 H 0.0 **** 0.06
13478 H 1.5321896539526563 74.6794845854965 83.93609536982491 H 0.0 **** 0.06
13479 H 1.4479656478528113 75.8184213792339 82.57073305127014 H 0.0 **** 0.06
13480 H 1.1423613961698607 74.08524233359098 82.30424028327613 H 0.0 **** 0.06
13481 C 30.9997684078391 103.0196759129864 8.37019362209844 C 0.0 **** -0.24
13482 H 31.49690419854136 103.68790484595414 7.666589610243022 H 0.0 **** 0.06
13483 H 31.538493512934565 102.07293098272487 8.41321446356622 H 0.0 **** 0.06
13484 H 29.97647648251501 102.84123531092669 8.0396515290183 H 0.0 **** 0.06
13485 H 30.987432849094546 103.47713967542498 9.358933822846979 H 0.0 **** 0.06
13486 C 7.427549868699543 70.10932745954065 146.66543143537478 C 0.0 **** -0.24
13487 H 7.414217259489249 70.14881173957187 145.57595094500857 H 0.0 **** 0.06
13488 H 6.453208929643381 70.4105732543149 147.05132678688472 H 0.0 **** 0.06
13489 H 8.192506451248732 70.7868303410512 147.0430419580846 H 0.0 **** 0.06
13490 H 7.648755395828687 69.0933671593736 146.98927273798847 H 0.0 **** 0.06
13491 C 95.91653420076636 111.904629914832 107.87110241363443 C 0.0 **** -0.24
13492 H 96.05868246284112 112.80917385491041 108.46187021107708 H 0.0 **** 0.06
13493 H 96.3797588573336 111.06018252465962 108.38179999568023 H 0.0 **** 0.06
13494 H 96.37651356668633 112.034377686323 106.89152241261966 H 0.0 **** 0.06
13495 H 94.84920900774384 111.71475169503323 107.74889049342151 H 0.0 **** 0.06
13496 C 104.84043486609116 106.7723683017857 67.35488384579497 C 0.0 **** -0.24
13497 H 104.77866988877949 107.35537401047186 66.43546775441115 H 0.0 **** 0.06
13498 H 103.83893972498046 106.47337076120267 67.66347486819996 H 0.0 **** 0.06
13499 H 105.29703558115236 107.37798987988545 68.13785944089705 H 0.0 **** 0.06
13500 H 105.44879835615765 105.88472505949487 67.18126695678518 H 0.0 **** 0.06
13501 C 76.82374882845097 56.05096970361613 106.39602373435245 C 0.0 **** -0.24
13502 H 75.77778376979857 56.356314775486766 106.37971587022106 H 0.0 **** 0.06
13503 H 77.32880127628539 56.43725237100968 105.51042550329647 H 0.0 **** 0.06
13504 H 76.8846495942612 54.96315659750108 106.40338511378793 H 0.0 **** 0.06
13505 H 77.3042678300639 56.44843238529057 107.29023478527158 H 0.0 **** 0.06
13506 C 49.856134763068184 6.763154776922235 75.43309077453478 C 0.0 **** -0.24
13507 H 49.742205080557156 5.756062137298272 75.83503847145147 H 0.0 **** 0.06
13508 H 49.742295467392665 7.48997038621453 76.23703240677295 H 0.0 **** 0.06
13509 H 49.094772171128994 6.938776103629394 74.67273976551652 H 0.0 **** 0.06
13510 H 50.84527513017426 6.86573234429855 74.98672695130895 H 0.0 **** 0.06
13511 C 104.72952338600987 75.51157462314082 53.55221997183881 C 0.0 **** -0.24
13512 H 105.15452950672073 76.16993755720756 54.30939993865532 H 0.0 **** 0.06
13513 H 103.67210520337454 75.74446546680105 53.42088002642738 H 0.0 **** 0.06
13514 H 104.83578479510493 74.4747750679604 53.87249283245974 H 0.0 **** 0.06
13515 H 105.25451130195034 75.65661256964087 52.60820241085098 H 0.0 **** 0.06
13516 C 133.57349423726052 8.71634088124 94.54273166435775 C 0.0 **** -0.24
13517 H 134.3751740801906 8.118808559055765 94.97633635081921 H 0.0 **** 0.06
13518 H 133.61326898775727 9.726906356198754 94.94922504958893 H 0.0 **** 0.06
13519 H 132.6120371839702 8.26432224406392 94.7847666632728 H 0.0 **** 0.06
13520 H 133.6954550672526 8.755609818639016 93.45955714099505 H 0.0 **** 0.06
13521 C 56.23905994951039 25.701177666740136 140.57801202705022 C 0.0 **** -0.24
13522 H 55.5090330075834 26.501648349636135 140.45599624498655 H 0.0 **** 0.06
13523 H 56.471710401934075 25.271702600863804 139.60339341886188 H 0.0 **** 0.06
13524 H 55.8265810794651 24.928578548605785 141.22728260727402 H 0.0 **** 0.06
13525 H 57.14804299780208 26.10445487289679 141.0238144261437 H 0.0 **** 0.06
13526 C 45.34832061998942 59.29904384154686 134.566369715103 C 0.0 **** -0.24
13527 H 45.63487181690688 59.70596043258918 135.5362175332219 H 0.0 **** 0.06
13528 H 45.535948167744266 60.041816071001406 133.79119374053093 H 0.0 **** 0.06
13529 H 44.28872588685499 59.043727798012426 134.57755905338522 H 0.0 **** 0.06
13530 H 45.935129642461064 58.40318385374317 134.36142931726795 H 0.0 **** 0.06
13531 C 124.74081956661121 18.14411537673334 41.10800426581679 C 0.0 **** -0.24
13532 H 124.37424975791652 17.205878380800755 40.69155210984147 H 0.0 **** 0.06
13533 H 124.82746776106774 18.885251973199388 40.31335143256331 H 0.0 **** 0.06
13534 H 125.7175433595184 17.981709716964644 41.56299051967599 H 0.0 **** 0.06
13535 H 124.04157177245571 18.501894411071305 41.86431451960101 H 0.0 **** 0.06
13536 C 54.399010067689986 39.255385291870624 2.9878598288617866 C 0.0 **** -0.24
13537 H 55.22655581912224 39.31008230992626 3.6948398373714326 H 0.0 **** 0.06
13538 H 53.51762285638026 39.7266758922886 3.4230313419556353 H 0.0 **** 0.06
13539 H 54.180507570665426 38.210861207964 2.765302896693413 H 0.0 **** 0.06
13540 H 54.671701458005046 39.772991302427386 2.0683817741758617 H 0.0 **** 0.06
13541 C 135.40280921652385 77.80583120919198 132.76018001068874 C 0.0 **** -0.24
13542 H 136.19909945457616 78.29827887647133 133.31937110367275 H 0.0 **** 0.06
13543 H 135.7640053305174 76.84984959381892 132.38021418954247 H 0.0 **** 0.06
13544 H 135.1001942340263 78.43838018518487 131.92611021619086 H 0.0 **** 0.06
13545 H 134.54866771853324 77.63730103744442 133.417311982064 H 0.0 **** 0.06
13546 C 32.09398706133234 70.45810431437422 96.1100949910803 C 0.0 **** -0.24
13547 H 31.301418043772088 70.7673708800408 95.42915960145939 H 0.0 **** 0.06
13548 H 32.96114515532557 71.10526300830827 95.97636777244509 H 0.0 **** 0.06
13549 H 32.37413330299358 69.42619216985518 95.89544657994082 H 0.0 **** 0.06
13550 H 31.74023312432014 70.53226507899325 97.1382753281481 H 0.0 **** 0.06
13551 C 142.27334564935256 49.79893526933269 25.25301774783935 C 0.0 **** -0.24
13552 H 141.77274039844778 50.28336588538642 26.091326666090822 H 0.0 **** 0.06
13553 H 141.52911104691702 49.33450458782684 24.605972550306717 H 0.0 **** 0.06
13554 H 142.95580738416152 49.035707088021155 25.628891743397844 H 0.0 **** 0.06
13555 H 142.83492127965573 50.54193926806745 24.687022747041453 H 0.0 **** 0.06
13556 C 130.8514797760262 140.50326349781585 36.89186993503405 C 0.0 **** -0.24
13557 H 130.65645911192323 139.4753949488329 36.58786561160613 H 0.0 **** 0.06
13558 H 130.58959408645688 141.17884055555348 36.07588212386435 H 0.0 **** 0.06
13559 H 131.9088326750015 140.6170512184326 37.13210670498255 H 0.0 **** 0.06
13560 H 130.25071516087849 140.74379646557287 37.76902115045665 H 0.0 **** 0.06
13561 C 47.34272343780805 127.24069911877591 60.319180676571364 C 0.0 **** -0.24
13562 H 48.08634452591997 126.56628654884099 59.893207803260964 H 0.0 **** 0.06
13563 H 47.17242776286234 126.9800732010474 61.36425293933462 H 0.0 **** 0.06
13564 H 46.40910690789521 127.14864193368278 59.764875610226824 H 0.0 **** 0.06
13565 H 47.70430328173576 128.26676977821174 60.25552155227655 H 0.0 **** 0.06
13566 C 122.0018543060704 124.9222769540575 75.87277594978924 C 0.0 **** -0.24
13567 H 122.35955034416845 124.01039313909861 75.39384488635196 H 0.0 **** 0.06
13568 H 122.60508466504653 125.1273164032887 76.7585431483988 H 0.0 **** 0.06
13569 H 120.95947274238925 124.79376117978323 76.16413972627693 H 0.0 **** 0.06
13570 H 122.08429378990381 125.7550898062653 75.17531274519231 H 0.0 **** 0.06
13571 C 143.7715746647905 130.87260811897156 49.80867203527882 C 0.0 **** -0.24
13572 H 144.29744256318915 131.6814895249546 49.3025275221796 H 0.0 **** 0.06
13573 H 142.69676602827616 131.0000178766487 49.67835456068657 H 0.0 **** 0.06
13574 H 144.0139975319117 130.89016795528735 50.87137392230271 H 0.0 **** 0.06
13575 H 144.07778630484887 129.91692875027172 49.3816815116557 H 0.0 **** 0.06
13576 C 100.14905135727105 113.89027011369679 70.89675923826928 C 0.0 **** -0.24
13577 H 99.59013309224683 113.88166893443663 71.83190726656005 H 0.0 **** 0.06
13578 H 99.64348564701885 113.25825185694025 70.16617813757495 H 0.0 **** 0.06
13579 H 101.15532123749867 113.50961885083895 71.07165356768229 H 0.0 **** 0.06
13580 H 100.20676848455368 114.90988296855788 70.5172295263965 H 0.0 **** 0.06
13581 C 88.72530023279444 85.58022500608789 52.29136552335535 C 0.0 **** -0.24
13582 H 89.73341145367414 85.64022330424541 51.88090058694826 H 0.0 **** 0.06
13583 H 88.39805009954853 84.5403191069434 52.30139413367192 H 0.0 **** 0.06
13584 H 88.04636211710806 86.16848265468477 51.67388478328121 H 0.0 **** 0.06
13585 H 88.72337993710718 85.97220447719175 53.30833842488602 H 0.0 **** 0.06
13586 C 135.92171200491612 65.10673085334412 47.66564813361248 C 0.0 **** -0.24
13587 H 134.89610190369206 64.95847354904731 48.00286936123274 H 0.0 **** 0.06
13588 H 136.46560312056647 64.16420670165974 47.73242523113345 H 0.0 **** 0.06
13589 H 136.4071585323381 65.85211362010637 48.29469156734376 H 0.0 **** 0.06
13590 H 135.9183851077442 65.45120401113098 46.631614937090546 H 0.0 **** 0.06
13591 C 112.77285030349127 148.05656337722797 126.19407216207468 C 0.0 **** -0.24
13592 H 111.83046414286777 147.9581762706218 125.65675872865259 H 0.0 **** 0.06
13593 H 113.6029059585802 147.93919891422038 125.49710036074013 H 0.0 **** 0.06
13594 H 112.83299080934835 147.28713786370307 126.96393642963994 H 0.0 **** 0.06
13595 H 112.82493745081315 149.041187929029 126.65979089801083 H 0.0 **** 0.06
13596 C 76.23081501999036 79.24134422235184 75.78480671624969 C 0.0 **** -0.24
13597 H 75.34414871253463 79.4570417790811 75.18851323732117 H 0.0 **** 0.06
13598 H 76.14817035461513 78.24052656863486 76.20973306384265 H 0.0 **** 0.06
13599 H 76.31279660964765 79.97171058884334 76.58948830387541 H 0.0 **** 0.06
13600 H 77.11591481345684 79.29600784608633 75.15163715133912 H 0.0 **** 0.06
13601 C 109.03090798064461 19.753061404045354 31.293110273235698 C 0.0 **** -0.24
13602 H 108.08277717039046 19.26739898108545 31.52522981811495 H 0.0 **** 0.06
13603 H 109.80203995265266 18.995350493528946 31.152457658503465 H 0.0 **** 0.06
13604 H 109.31323810660489 20.410442714567722 32.11606898030442 H 0.0 **** 0.06
13605 H 108.924465586832 20.339206717033676 30.380619094189 H 0.0 **** 0.06
13606 C 104.19863321718596 36.27945946631824 101.32731973166537 C 0.0 **** -0.24
13607 H 103.51270995129293 36.522181470196095 102.13866168817177 H 0.0 **** 0.06
13608 H 105.16854116622396 36.003602192570675 101.74200255434033 H 0.0 **** 0.06
13609 H 104.31389719342353 37.146817536473826 100.67785483506428 H 0.0 **** 0.06
13610 H 103.7984395118808 35.444345076121515 100.7513184444987 H 0.0 **** 0.06
13611 C 125.14350691494137 9.676510649995144 109.16943171233271 C 0.0 **** -0.24
13612 H 124.16051643238363 9.24255165913003 108.98871990351205 H 0.0 **** 0.06
13613 H 125.81841911534889 8.905933260493157 109.54300569390671 H 0.0 **** 0.06
13614 H 125.05805755536984 10.473700575258299 109.90846834615309 H 0.0 **** 0.06
13615 H 125.53711346474661 10.085035983647579 108.23879944777764 H 0.0 **** 0.06
13616 C 121.80570542617023 89.49996168700203 83.889088145572 C 0.0 **** -0.24
13617 H 121.35780565833814 88.77447839794557 84.56769352053036 H 0.0 **** 0.06
13618 H 121.70804132635463 89.14693221658727 82.86215074499916 H 0.0 **** 0.06
13619 H 122.86142548622986 89.62248961199909 84.13260113018202 H 0.0 **** 0.06
13620 H 121.29511917160995 90.4580554930444 83.99451337835785 H 0.0 **** 0.06
13621 C 104.54614923971806 25.044604701340063 65.7703673953153 C 0.0 **** -0.24
13622 H 103.85765323538627 24.242676996421437 66.03625022860064 H 0.0 **** 0.06
13623 H 104.34447355462257 25.91812321565709 66.39060026903337 H 0.0 **** 0.06
13624 H 104.41277359486932 25.304978894702344 64.72043944813839 H 0.0 **** 0.06
13625 H 105.57123573943247 24.711577140983565 65.93347105415165 H 0.0 **** 0.06
13626 C 102.484862229117 67.37045644888171 96.01838410928829 C 0.0 **** -0.24
13627 H 101.4157823830926 67.35377292361161 96.23050537241772 H 0.0 **** 0.06
13628 H 102.64390774857773 67.64185008483102 94.97439008199817 H 0.0 **** 0.06
13629 H 102.90784044207912 66.38359280756437 96.20645875251827 H 0.0 **** 0.06
13630 H 102.9707101372414 68.10334340682579 96.66213326989372 H 0.0 **** 0.06
13631 C 145.10049970906684 108.30787203340273 14.198017238503311 C 0.0 **** -0.24
13632 H 145.9368014900428 107.62967396098875 14.02615619519272 H 0.0 **** 0.06
13633 H 145.00741789531634 108.50637893953942 15.266170926646424 H 0.0 **** 0.06
13634 H 144.1812352809654 107.85173514350734 13.830564474756962 H 0.0 **** 0.06
13635 H 145.27878506820016 109.24354204813571 13.66820082400374 H 0.0 **** 0.06
13636 C 145.48141379160907 26.64014634866814 100.16670573047514 C 0.0 **** -0.24
13637 H 144.6054692195205 26.436692292657597 100.78291758358995 H 0.0 **** 0.06
13638 H 145.17916613499426 27.196626062906688 99.27920801984298 H 0.0 **** 0.06
13639 H 145.94162491037454 25.69842342488917 99.86653716461825 H 0.0 **** 0.06
13640 H 146.19847165482057 27.228923594040452 100.73853599332459 H 0.0 **** 0.06
13641 C 77.9563909425629 37.35442104889687 137.163765587093 C 0.0 **** -0.24
13642 H 77.34867563785548 36.450680983241995 137.20052780549676 H 0.0 **** 0.06
13643 H 77.46033389642668 38.1004307882543 136.54304556009617 H 0.0 **** 0.06
13644 H 78.93174415598929 37.11870799088612 136.73858100281205 H 0.0 **** 0.06
13645 H 78.0844307060396 37.74690290612311 138.17194277828574 H 0.0 **** 0.06
13646 C 107.19801871399915 108.53758892554312 40.81599333305496 C 0.0 **** -0.24
13647 H 108.21514531636313 108.1815591735771 40.98090782222752 H 0.0 **** 0.06
13648 H 107.22033373821682 109.41052660236305 40.163528513783305 H 0.0 **** 0.06
13649 H 106.74908837732147 108.809500505869 41.77204102025091 H 0.0 **** 0.06
13650 H 106.6085646047888 107.74905469509561 40.34883802555122 H 0.0 **** 0.06
13651 C 79.50760004270299 44.62135783988586 104.67455788444538 C 0.0 **** -0.24
13652 H 79.41006287122777 45.10392440516816 103.70217910706553 H 0.0 **** 0.06
13653 H 79.16000399429942 43.59023336587924 104.60389796647827 H 0.0 **** 0.06
13654 H 78.90751741728971 45.15814239978668 105.4084983580613 H 0.0 **** 0.06
13655 H 80.55389575734081 44.63175272317304 104.98194323298627 H 0.0 **** 0.06
13656 C 66.92166046048375 44.906127256471024 31.982303533362085 C 0.0 **** -0.24
13657 H 67.3171068883889 45.77066300281072 31.4470609439566 H 0.0 **** 0.06
13658 H 65.855631883096 44.80877633282532 31.777439322715935 H 0.0 **** 0.06
13659 H 67.07489164174159 45.04237299687813 33.053413159642545 H 0.0 **** 0.06
13660 H 67.44045452302808 44.00704944972105 31.65228650434581 H 0.0 **** 0.06
13661 C 72.28601535409302 67.14237270869262 132.85388496247208 C 0.0 **** -0.24
13662 H 72.11478869591514 67.05972447023717 133.92720699539353 H 0.0 **** 0.06
13663 H 72.15315547728972 68.17948196801382 132.54353971205063 H 0.0 **** 0.06
13664 H 71.57476181537965 66.5106225802696 132.32237895109955 H 0.0 **** 0.06
13665 H 73.30086152771077 66.82130617719619 132.62264277304627 H 0.0 **** 0.06
13666 C 27.666962638820273 53.76232732549616 121.71144135638659 C 0.0 **** -0.24
13667 H 27.352584036641915 52.89577597660414 121.1304858444228 H 0.0 **** 0.06
13668 H 28.28346645410808 53.433303545695196 122.5494485000194 H 0.0 **** 0.06
13669 H 26.78779063549249 54.284851038774036 122.08902056311135 H 0.0 **** 0.06
13670 H 28.24468705439849 54.43445744504305 121.07764245007886 H 0.0 **** 0.06
13671 C 82.55746892052079 27.187497791420427 49.85413866517099 C 0.0 **** -0.24
13672 H 83.08477609607874 26.62263837621782 50.62317799016455 H 0.0 **** 0.06
13673 H 81.526343318073 26.839345099339567 49.7918234472064 H 0.0 **** 0.06
13674 H 83.0497134353298 27.03951089861056 48.89346824097562 H 0.0 **** 0.06
13675 H 82.56870375264745 28.24686216715949 50.109877535714375 H 0.0 **** 0.06
13676 C 9.3764419124712 87.34443923534755 37.79001875087803 C 0.0 **** -0.24
13677 H 8.67497904065921 86.60423638336601 37.403557750256084 H 0.0 **** 0.06
13678 H 10.340008562751137 87.22449742004027 37.29450309486867 H 0.0 **** 0.06
13679 H 9.49918782948005 87.20341950155111 38.862861833198565 H 0.0 **** 0.06
13680 H 8.99025553129949 88.34532666443353 37.596480829863694 H 0.0 **** 0.06
13681 C 93.71416245125056 117.05411403498748 111.91612842345641 C 0.0 **** -0.24
13682 H 94.26721690215471 117.49633719303269 111.08779581099814 H 0.0 **** 0.06
13683 H 92.7702448968021 116.65242069705671 111.54961574439857 H 0.0 **** 0.06
13684 H 93.51717741037803 117.81745388389932 112.66948470478248 H 0.0 **** 0.06
13685 H 94.30432853709645 116.25093182004623 112.35908537343313 H 0.0 **** 0.06
13686 C 89.57808227915564 20.926501295104032 44.80780519958077 C 0.0 **** -0.24
13687 H 88.88937877969352 21.425000036492747 45.49044786189771 H 0.0 **** 0.06
13688 H 90.55534191358095 21.40685871306809 44.863067016215524 H 0.0 **** 0.06
13689 H 89.19423186362741 20.99759663611806 43.79004648589185 H 0.0 **** 0.06
13690 H 89.67160939250562 19.87738583651381 45.08808169085697 H 0.0 **** 0.06
13691 C 85.0540489099413 8.467361383821746 54.65313863001205 C 0.0 **** -0.24
13692 H 84.18444627410473 9.0029501359543 54.27099145344715 H 0.0 **** 0.06
13693 H 84.72295267718157 7.624489272128784 55.260432956978946 H 0.0 **** 0.06
13694 H 85.65621969201516 9.141179601468274 55.26221976158382 H 0.0 **** 0.06
13695 H 85.65060014812562 8.101702069054781 53.818339666386635 H 0.0 **** 0.06
13696 C 43.87617058517512 121.24532550367235 67.24936083598931 C 0.0 **** -0.24
13697 H 44.867870511141504 120.79248054145154 67.23658575830308 H 0.0 **** 0.06
13698 H 43.512844117516536 121.35218327559483 66.22648213504641 H 0.0 **** 0.06
13699 H 43.93179163561122 122.22658429471142 67.71994551720587 H 0.0 **** 0.06
13700 H 43.194606995339626 120.60867697581267 67.8126424470168 H 0.0 **** 0.06
13701 C 78.59267474028655 10.030567573971666 37.44634917908828 C 0.0 **** -0.24
13702 H 78.76925227700022 11.099318678970548 37.57392265066912 H 0.0 **** 0.06
13703 H 79.54648530215962 9.502907800149814 37.45071522500031 H 0.0 **** 0.06
13704 H 78.084613359046 9.857120447070201 36.4978254821687 H 0.0 **** 0.06
13705 H 77.9717149725664 9.665959410535919 38.26388957185295 H 0.0 **** 0.06
13706 C 123.54533940729924 5.356786909644196 64.5967004452884 C 0.0 **** -0.24
13707 H 124.01887010436205 6.219193124998629 65.06544522395494 H 0.0 **** 0.06
13708 H 122.47977956009755 5.550824323798711 64.47275614474148 H 0.0 **** 0.06
13709 H 123.68392422634822 4.4787830459044 65.22922239979786 H 0.0 **** 0.06
13710 H 123.99850997024352 5.177759089335748 63.6224731069821 H 0.0 **** 0.06
13711 C 67.63686551747065 88.05105830130003 141.78342400042035 C 0.0 **** -0.24
13712 H 68.3712103526328 88.59650412675262 142.37519672432282 H 0.0 **** 0.06
13713 H 67.44032765386021 88.59380237422329 140.85866120192097 H 0.0 **** 0.06
13714 H 66.71228923377987 87.95356500542982 142.3514505810097 H 0.0 **** 0.06
13715 H 68.02496073360328 87.0601407497071 141.54794791132818 H 0.0 **** 0.06
13716 C 9.67673657066922 10.207800000444252 129.00303570883295 C 0.0 **** -0.24
13717 H 9.890653517200292 9.302218678843985 129.57050507783444 H 0.0 **** 0.06
13718 H 10.343124188374532 11.006567098906089 129.32789280343204 H 0.0 **** 0.06
13719 H 8.641558435464333 10.506114623116844 129.17091400511552 H 0.0 **** 0.06
13720 H 9.831130331652503 10.01472025026726 127.94032580158265 H 0.0 **** 0.06
13721 C 101.9184695177506 31.66281066367415 111.08153613552192 C 0.0 **** -0.24
13722 H 102.39888951288434 31.376987998014485 110.14593659174223 H 0.0 **** 0.06
13723 H 102.14741644717259 32.7061435896513 111.30296843205515 H 0.0 **** 0.06
13724 H 102.28829069418963 31.030200835611325 111.88885615230616 H 0.0 **** 0.06
13725 H 100.83887844689909 31.54000027837457 110.98906856816025 H 0.0 **** 0.06
13726 C 52.05578532478043 82.02019058804781 126.62114624919559 C 0.0 **** -0.24
13727 H 51.529285649662 82.3150236058672 125.7128026423099 H 0.0 **** 0.06
13728 H 52.94825970171297 81.45303448481853 126.3554754966554 H 0.0 **** 0.06
13729 H 51.40154009536232 81.40252071654587 127.23486322283885 H 0.0 **** 0.06
13730 H 52.34371569405718 82.91161221206838 127.17948317018416 H 0.0 **** 0.06
13731 C 72.2897081269567 111.68741828191781 148.89169318406707 C 0.0 **** -0.24
13732 H 72.76257696848927 110.75788319682096 148.57275727511703 H 0.0 **** 0.06
13733 H 71.20646009623732 111.56898234611623 148.87080996233388 H 0.0 **** 0.06
13734 H 72.58045664042146 112.49247168535885 148.21629416933942 H 0.0 **** 0.06
13735 H 72.6094236708894 111.92805348602337 149.90496615182977 H 0.0 **** 0.06
13736 C 79.36002922938026 149.81638470335542 141.27203333595958 C 0.0 **** -0.24
13737 H 78.83209410895154 149.79481255383948 142.22504782147615 H 0.0 **** 0.06
13738 H 80.40145717356313 150.09248687624157 141.4397233505137 H 0.0 **** 0.06
13739 H 78.89095288862721 150.5486898950166 140.61336342513454 H 0.0 **** 0.06
13740 H 79.31497737739045 148.83081197753256 140.80899747899298 H 0.0 **** 0.06
13741 C 22.66160723408042 142.07731631564033 12.451778385695292 C 0.0 **** -0.24
13742 H 22.99992395877257 142.65838039412847 11.593921281695259 H 0.0 **** 0.06
13743 H 23.439302238118756 142.07491219129344 13.21635292861302 H 0.0 **** 0.06
13744 H 22.456351037899907 141.05392345070348 12.138699483675708 H 0.0 **** 0.06
13745 H 21.753999694630323 142.52309223629317 12.857138495169465 H 0.0 **** 0.06
13746 C 127.58391465781722 118.35919308723427 63.51024873005525 C 0.0 **** -0.24
13747 H 128.04399897159695 119.23381758711818 63.97026927094291 H 0.0 **** 0.06
13748 H 128.06487562331023 117.45542940508082 63.88763358545903 H 0.0 **** 0.06
13749 H 127.70483589399376 118.41190654360318 62.428434135967805 H 0.0 **** 0.06
13750 H 126.5225269553923 118.33495810338994 63.75752651069298 H 0.0 **** 0.06
13751 C 56.18826622077687 24.491433466801695 41.61908986467503 C 0.0 **** -0.24
13752 H 55.96615276276131 24.428704066314083 42.683871569299555 H 0.0 **** 0.06
13753 H 57.0115792192629 25.189047880217245 41.46006979534505 H 0.0 **** 0.06
13754 H 55.3058306043625 24.841533057341117 41.083637589971005 H 0.0 **** 0.06
13755 H 56.47035254783991 23.505958166718045 41.24858990905423 H 0.0 **** 0.06
13756 C 134.496305917197 0.7498907054419419 97.78549917460661 C 0.0 **** -0.24
13757 H 134.33361680900447 1.1096814744517758 98.8015145997051 H 0.0 **** 0.06
13758 H 135.55726505275447 0.5435181125541817 97.6387592352124 H 0.0 **** 0.06
13759 H 134.17274528175818 1.5100556527463027 97.073870561444 H 0.0 **** 0.06
13760 H 133.92396941896246 -0.16332594376618204 97.62736723322557 H 0.0 **** 0.06
13761 C 89.38977147442375 9.626445470168534 4.92407952068703 C 0.0 **** -0.24
13762 H 89.53154267841882 10.454489908301298 4.22929046491825 H 0.0 **** 0.06
13763 H 88.81847368387065 8.836497029284203 4.434951893762019 H 0.0 **** 0.06
13764 H 88.84648606179513 9.977841302776454 5.801696430440074 H 0.0 **** 0.06
13765 H 90.3607136119893 9.237495738424599 5.229279325374733 H 0.0 **** 0.06
13766 C 24.31157132937949 125.2060243770095 80.53935672735216 C 0.0 **** -0.24
13767 H 23.636346592968266 125.14819075117049 79.68565226438218 H 0.0 **** 0.06
13768 H 23.94308896044734 124.56256806073037 81.33788986591829 H 0.0 **** 0.06
13769 H 24.361181273165244 126.23563035949564 80.89355279510634 H 0.0 **** 0.06
13770 H 25.306130421103205 124.87791941247008 80.23737522954437 H 0.0 **** 0.06
13771 C 68.03606595989021 70.83034531252541 12.614310588685612 C 0.0 **** -0.24
13772 H 67.93835637358174 71.88740463089464 12.367385680595163 H 0.0 **** 0.06
13773 H 69.01954228044045 70.4758050432985 12.307007837457974 H 0.0 **** 0.06
13774 H 67.26450100879123 70.2636310858193 12.093416180560013 H 0.0 **** 0.06
13775 H 67.92112284535546 70.6973992295008 13.69056332086771 H 0.0 **** 0.06
13776 C 105.28825150700469 111.73205257285662 69.17165645093638 C 0.0 **** -0.24
13777 H 106.18955324558947 111.43325788456121 69.70640627548772 H 0.0 **** 0.06
13778 H 104.6071779524644 110.88320411542509 69.10416108281379 H 0.0 **** 0.06
13779 H 105.55394996347302 112.06527305835078 68.16906337535966 H 0.0 **** 0.06
13780 H 104.80064339733623 112.54671715753585 69.70733306985113 H 0.0 **** 0.06
13781 C 24.61674164447536 138.84659317499577 69.861521124423 C 0.0 **** -0.24
13782 H 24.342433818049273 139.6123329612727 70.58642887223382 H 0.0 **** 0.06
13783 H 24.93901446311918 139.3219189444874 68.93491163937384 H 0.0 **** 0.06
13784 H 23.754192386749608 138.20915137331482 69.66234963968228 H 0.0 **** 0.06
13785 H 25.430691316318757 138.2417259484084 70.26216820435715 H 0.0 **** 0.06
13786 C 138.4281143411709 145.93928001163522 87.20839671353478 C 0.0 **** -0.24
13787 H 138.25492568488673 146.24092405627394 88.24177421997285 H 0.0 **** 0.06
13788 H 138.9935750421835 145.0068741436106 87.19309891563633 H 0.0 **** 0.06
13789 H 138.9926495286533 146.7163926954219 86.69339343917302 H 0.0 **** 0.06
13790 H 137.47085234047339 145.7932921579204 86.70769969764127 H 0.0 **** 0.06
13791 C 114.12609264819194 57.47111072613106 93.97793754708175 C 0.0 **** -0.24
13792 H 113.40615742752273 57.908924068146774 93.28676012771069 H 0.0 **** 0.06
13793 H 113.59550755479465 56.92610351696888 94.75888895185473 H 0.0 **** 0.06
13794 H 114.72470455984488 58.26253224899622 94.42874596438567 H 0.0 **** 0.06
13795 H 114.77914748165797 56.786594164303864 93.43545714224062 H 0.0 **** 0.06
13796 C 132.33631323344486 129.6203190679518 96.90004786061405 C 0.0 **** -0.24
13797 H 132.60958069905965 129.85019886401327 97.93018798577792 H 0.0 **** 0.06
13798 H 132.132793722113 130.5472275755385 96.36310657944595 H 0.0 **** 0.06
13799 H 131.44562953975208 128.99254454829244 96.89222666201594 H 0.0 **** 0.06
13800 H 133.15869715741093 129.09283830773816 96.41541370872604 H 0.0 **** 0.06
13801 C 39.67997076672998 74.52131677289766 100.71227867958511 C 0.0 **** -0.24
13802 H 39.79772143827148 75.4758061387155 100.19938560213092 H 0.0 **** 0.06
13803 H 39.133835584849805 74.67461903338491 101.6429425589434 H 0.0 **** 0.06
13804 H 40.662693505471566 74.10377150969592 100.93203642311794 H 0.0 **** 0.06
13805 H 39.125687420731936 73.83203110850447 100.0744779531226 H 0.0 **** 0.06
13806 C 24.272010663827757 96.16883421801754 17.082170883141778 C 0.0 **** -0.24
13807 H 24.544433690128898 97.06510009400421 17.639734931746545 H 0.0 **** 0.06
13808 H 23.410153360144335 95.69552520811425 17.554513046921166 H 0.0 **** 0.06
13809 H 25.11160426005634 95.4751204909534 17.078667889933094 H 0.0 **** 0.06
13810 H 24.019935533876748 96.4411328908472 16.057486039198892 H 0.0 **** 0.06
13811 C 61.34235533819728 74.41540865449001 133.58051142093262 C 0.0 **** -0.24
13812 H 60.668198312040616 73.55967344712126 133.542748395541 H 0.0 **** 0.06
13813 H 60.98835364121521 75.18714948907396 132.89755290219463 H 0.0 **** 0.06
13814 H 62.34435815134543 74.1012795790394 133.28698493618137 H 0.0 **** 0.06
13815 H 61.36867054194363 74.81197716626247 134.59550571243258 H 0.0 **** 0.06
13816 C 0.2795695518918535 90.6899850749386 102.95656244553138 C 0.0 **** -0.24
13817 H -0.5362366723394416 90.04524788419026 102.62537557103465 H 0.0 **** 0.06
13818 H 0.19684726936742436 91.65941305736071 102.46536402584732 H 0.0 **** 0.06
13819 H 1.2333316786316288 90.22951224279755 102.69654109200374 H 0.0 **** 0.06
13820 H 0.22106370568147327 90.82259377161901 104.03610143109981 H 0.0 **** 0.06
13821 C 124.00370523634186 25.983595995840403 110.01311171140199 C 0.0 **** -0.24
13822 H 122.98823453122381 26.25695738494693 109.72544818921202 H 0.0 **** 0.06
13823 H 124.68742679243232 26.786613238670043 109.73868757342123 H 0.0 **** 0.06
13824 H 124.29210621441663 25.06707881673333 109.4986541227386 H 0.0 **** 0.06
13825 H 124.04423261180145 25.823619435485853 111.0910818212993 H 0.0 **** 0.06
13826 C 98.36270483707918 143.4053002483985 5.96919394049317 C 0.0 **** -0.24
13827 H 99.2605146154682 142.9340597685983 5.570079331851559 H 0.0 **** 0.06
13828 H 98.5658987730049 144.45755664423504 6.174158022190149 H 0.0 **** 0.06
13829 H 98.06841490668614 142.90517951426997 6.892202712238664 H 0.0 **** 0.06
13830 H 97.55621730537734 143.32661465408492 5.240077402061345 H 0.0 **** 0.06
13831 C 58.530665361476366 112.24801105627573 110.62327599253166 C 0.0 **** -0.24
13832 H 59.40724560566764 111.7838265078121 110.17227795118288 H 0.0 **** 0.06
13833 H 58.05129397245733 111.53950284783242 111.2992735498342 H 0.0 **** 0.06
13834 H 57.828469225084405 112.53405280323462 109.84019286200714 H 0.0 **** 0.06
13835 H 58.83436935602808 113.13382935338969 111.18054728052698 H 0.0 **** 0.06
13836 C 28.043703062000276 135.302356852703 5.781883327920863 C 0.0 **** -0.24
13837 H 28.131476235518676 134.59873765254176 4.954324654563923 H 0.0 **** 0.06
13838 H 27.782245537021595 134.7618731408397 6.692416060229789 H 0.0 **** 0.06
13839 H 27.267168174894664 136.03348183411222 5.556496275497395 H 0.0 **** 0.06
13840 H 28.99530634931571 135.81559607122895 5.924168999406707 H 0.0 **** 0.06
13841 C 82.5539999278123 40.089691409730634 45.974987667977956 C 0.0 **** -0.24
13842 H 83.59399496344173 40.074857073688335 46.30004724561215 H 0.0 **** 0.06
13843 H 82.40090120284776 40.919253048804634 45.28398637464184 H 0.0 **** 0.06
13844 H 81.90403889865362 40.213580551010324 46.8413874818813 H 0.0 **** 0.06
13845 H 82.31615200562234 39.15139381448499 45.474273720492164 H 0.0 **** 0.06
13846 C 97.83163078066033 25.36869513982016 149.4115742035305 C 0.0 **** -0.24
13847 H 98.52352688250662 24.535899681130154 149.5355136024976 H 0.0 **** 0.06
13848 H 96.905063163238 25.007168051901665 148.96592850485672 H 0.0 **** 0.06
13849 H 98.28015240871886 26.118661620471073 148.75948821406416 H 0.0 **** 0.06
13850 H 97.61946175857835 25.81174883034089 150.38415077361958 H 0.0 **** 0.06
13851 C 41.50684285957999 75.18160128586277 77.63761601221248 C 0.0 **** -0.24
13852 H 41.16429835292115 76.19792500576716 77.44187675217368 H 0.0 **** 0.06
13853 H 42.02189405380267 75.15115955636224 78.59734098422065 H 0.0 **** 0.06
13854 H 42.18957868436553 74.87001332844153 76.8478963296548 H 0.0 **** 0.06
13855 H 40.6489015456354 74.50854169829233 77.66378923657669 H 0.0 **** 0.06
13856 C 147.80006977023933 19.811011992164367 65.23485758789334 C 0.0 **** -0.24
13857 H 147.1402982368912 19.23164018807222 65.87988338643986 H 0.0 **** 0.06
13858 H 148.81854520621098 19.433156782176297 65.32375475001092 H 0.0 **** 0.06
13859 H 147.77291387053583 20.858696631495917 65.53528554414002 H 0.0 **** 0.06
13860 H 147.46723248749072 19.721048665675994 64.20020089417255 H 0.0 **** 0.06
13861 C 49.16885165660622 138.44178244270321 104.66604778006382 C 0.0 **** -0.24
13862 H 48.45110476417082 137.6923349857518 105.00031026410028 H 0.0 **** 0.06
13863 H 48.9078625795039 139.41078755974345 105.09372913087805 H 0.0 **** 0.06
13864 H 49.14576603767759 138.50682390303464 103.57798980101842 H 0.0 **** 0.06
13865 H 50.169449827730915 138.15744427175815 104.9915022056972 H 0.0 **** 0.06
13866 C 73.56721066189735 134.74644533231347 49.21132337087673 C 0.0 **** -0.24
13867 H 72.49751813402483 134.94850352717245 49.26939124327177 H 0.0 **** 0.06
13868 H 74.07671071025553 135.2460852784928 50.03480019559882 H 0.0 **** 0.06
13869 H 73.95649702440576 135.11799089307542 48.26293972404815 H 0.0 **** 0.06
13870 H 73.73689455238474 133.67151075834803 49.277357773099226 H 0.0 **** 0.06
13871 C 100.97661336426066 140.0807333962144 69.77214244942192 C 0.0 **** -0.24
13872 H 100.55383427655856 140.7720829234909 69.04329805507669 H 0.0 **** 0.06
13873 H 100.27097364234591 139.94241103123497 70.59189364622895 H 0.0 **** 0.06
13874 H 101.91014273343745 140.48855303321423 70.16061454145515 H 0.0 **** 0.06
13875 H 101.16980831544969 139.12133343839471 69.29257503722982 H 0.0 **** 0.06
13876 C 98.22638028650037 114.05186613149768 38.369840165725215 C 0.0 **** -0.24
13877 H 99.0990933938182 113.60123255659424 38.842550118068786 H 0.0 **** 0.06
13878 H 97.47637651715384 113.28253699729625 38.18289483268993 H 0.0 **** 0.06
13879 H 98.52206006931138 114.50885090385607 37.42484127111011 H 0.0 **** 0.06
13880 H 97.80955929224055 114.81453780293388 39.02751003578646 H 0.0 **** 0.06
13881 C 32.483566255006885 2.148203703622812 38.277192820259415 C 0.0 **** -0.24
13882 H 31.691031751610026 2.87423459537996 38.098560086249734 H 0.0 **** 0.06
13883 H 32.60467021312538 2.0002980249880693 39.35076035952909 H 0.0 **** 0.06
13884 H 33.41727463657488 2.518659737439009 37.85370317516015 H 0.0 **** 0.06
13885 H 32.22092348678052 1.2008284073868367 37.80638998461609 H 0.0 **** 0.06
13886 C 103.43013050938289 139.24046556098781 128.99866491385524 C 0.0 **** -0.24
13887 H 102.86690165102753 139.54144220378276 129.8819722189391 H 0.0 **** 0.06
13888 H 103.07583749339774 139.80058578727366 128.1330141221503 H 0.0 **** 0.06
13889 H 103.28892997349992 138.1737617653414 128.82375660889454 H 0.0 **** 0.06
13890 H 104.48893513628231 139.44510529876047 129.15615716927562 H 0.0 **** 0.06
13891 C 49.416649704965465 20.158501949524634 2.531328500567554 C 0.0 **** -0.24
13892 H 50.026582129390974 19.26533521480033 2.396317014822273 H 0.0 **** 0.06
13893 H 49.73159542336158 20.92413933149257 1.8234351335960355 H 0.0 **** 0.06
13894 H 49.53840628562543 20.530445773403443 3.548470868955974 H 0.0 **** 0.06
13895 H 48.368540361889714 19.911743766639205 2.358245472500812 H 0.0 **** 0.06
13896 C 70.36253852904304 148.6117536144714 76.04795806688102 C 0.0 **** -0.24
13897 H 69.59289283846479 149.36255693995952 75.86924780623572 H 0.0 **** 0.06
13898 H 69.9366971408084 147.61749887870658 75.91624594029739 H 0.0 **** 0.06
13899 H 70.73964204844532 148.71454563272528 77.06664020944879 H 0.0 **** 0.06
13900 H 71.18053185268747 148.75480731787079 75.34217125074231 H 0.0 **** 0.06
13901 C 132.23317738088406 50.869418162673554 109.02910169050078 C 0.0 **** -0.24
13902 H 131.1787887420657 51.13691963198039 108.96282174873646 H 0.0 **** 0.06
13903 H 132.3793223710769 49.86755359888264 108.62526320290537 H 0.0 **** 0.06
13904 H 132.5473002232955 50.89002231919069 110.07283432195148 H 0.0 **** 0.06
13905 H 132.82584301472303 51.58306637109446 108.45685509900092 H 0.0 **** 0.06
13906 C 21.10702947744022 10.08176093193213 121.61030476866296 C 0.0 **** -0.24
13907 H 22.161497945700027 9.808265822050089 121.65931695816147 H 0.0 **** 0.06
13908 H 20.495945839266525 9.224923994523579 121.89301435840173 H 0.0 **** 0.06
13909 H 20.858708607994984 10.386228397326619 120.59275041953816 H 0.0 **** 0.06
13910 H 20.914149196889852 10.909401517751284 122.29367200617224 H 0.0 **** 0.06
13911 C 69.5289905644091 74.8441730818615 18.844352415738285 C 0.0 **** -0.24
13912 H 70.2649024769257 75.64664691679135 18.78951720000626 H 0.0 **** 0.06
13913 H 69.64272673991948 74.30981065829965 19.786839188717778 H 0.0 **** 0.06
13914 H 69.68223884438899 74.15435682993149 18.013703855220086 H 0.0 **** 0.06
13915 H 68.52614341506498 75.26668338738514 18.784459932354792 H 0.0 **** 0.06
13916 C 92.09972501497899 39.555808190423875 94.64991043050355 C 0.0 **** -0.24
13917 H 91.9681110302009 40.275314803006154 95.45730403526765 H 0.0 **** 0.06
13918 H 93.16362460916002 39.37022089951239 94.49810943912608 H 0.0 **** 0.06
13919 H 91.66586129874545 39.95405826615428 93.73334805204593 H 0.0 **** 0.06
13920 H 91.60227905460245 38.621628794893866 94.9109676353323 H 0.0 **** 0.06
13921 C 38.55295741286335 19.90492365999222 63.14327696843132 C 0.0 **** -0.24
13922 H 39.27209039339243 20.68221948146828 62.88437263125901 H 0.0 **** 0.06
13923 H 37.829043423449434 19.796654710968994 62.33470049833406 H 0.0 **** 0.06
13924 H 38.034416195144786 20.180699305805035 64.06131360643023 H 0.0 **** 0.06
13925 H 39.077604596099206 18.961119595706236 63.29122188369578 H 0.0 **** 0.06
13926 C 102.5718442161117 40.964000059072035 21.004692127407942 C 0.0 **** -0.24
13927 H 101.90110795154811 40.109984715073125 21.10267256379565 H 0.0 **** 0.06
13928 H 103.59206501966857 40.65148523867623 21.228697717478063 H 0.0 **** 0.06
13929 H 102.26892422160023 41.744852728137545 21.70116037029912 H 0.0 **** 0.06
13930 H 102.5246517589776 41.347125319469725 19.98479143074958 H 0.0 **** 0.06
13931 C 30.000929844257662 67.79261589379644 10.63347159101383 C 0.0 **** -0.24
13932 H 30.751791223613886 67.3310387686074 11.27499496628559 H 0.0 **** 0.06
13933 H 29.243020470101698 67.05414835242311 10.370858610687137 H 0.0 **** 0.06
13934 H 30.47710142285618 68.16402759165872 9.726190238448766 H 0.0 **** 0.06
13935 H 29.53163355178029 68.62211160741123 11.162317816479224 H 0.0 **** 0.06
13936 C 113.40106572868412 96.26765714000554 65.22246972824507 C 0.0 **** -0.24
13937 H 113.70809404181371 95.3757091067284 64.67606803061132 H 0.0 **** 0.06
13938 H 112.84137544923486 95.97453433983374 66.1102159015633 H 0.0 **** 0.06
13939 H 112.77183478066088 96.886007606845 64.5824575481615 H 0.0 **** 0.06
13940 H 114.28378895279367 96.83278746158447 65.51895050893815 H 0.0 **** 0.06
13941 C 117.82118307711072 142.8238260379406 124.7703794605901 C 0.0 **** -0.24
13942 H 117.51990901006106 142.06877289632138 124.04423748038647 H 0.0 **** 0.06
13943 H 117.46797933071842 142.53556186464425 125.76164756254946 H 0.0 **** 0.06
13944 H 117.38791842893475 143.78472168269036 124.49552907844446 H 0.0 **** 0.06
13945 H 118.90767670329059 142.9042912275845 124.78088654511049 H 0.0 **** 0.06
13946 C 137.26631499088188 54.36060630227743 64.8812948146192 C 0.0 **** -0.24
13947 H 136.63055408279192 53.73171682718116 64.25903398857457 H 0.0 **** 0.06
13948 H 136.7933242690702 55.33276152016916 65.01775897998806 H 0.0 **** 0.06
13949 H 138.23365918067668 54.4909605532705 64.39600059758752 H 0.0 **** 0.06
13950 H 137.4079961984483 53.886043400175694 65.8521959243323 H 0.0 **** 0.06
13951 C 127.44453388399214 30.85905634456835 70.83057010579611 C 0.0 **** -0.24
13952 H 127.8770119111297 31.560535998324077 71.54448225722288 H 0.0 **** 0.06
13953 H 127.99875475319382 29.920024816395703 70.8618521683109 H 0.0 **** 0.06
13954 H 127.49996811172247 31.28152586225417 69.82772215830485 H 0.0 **** 0.06
13955 H 126.40155798143911 30.674013145389104 71.08973184131662 H 0.0 **** 0.06
13956 C 65.45716729061066 102.67906309507661 78.64512470822783 C 0.0 **** -0.24
13957 H 66.21419962344439 102.50627702256595 79.40991454529396 H 0.0 **** 0.06
13958 H 64.74635916398933 101.8529636917322 78.64409928150508 H 0.0 **** 0.06
13959 H 65.9372239494471 102.74791720222201 77.66896785658261 H 0.0 **** 0.06
13960 H 64.93327960731825 103.6105906172801 78.85853427056892 H 0.0 **** 0.06
13961 C 120.29670725693181 90.79182812334633 66.69857033217494 C 0.0 **** -0.24
13962 H 120.48445681407846 91.03177797090311 67.74485644867065 H 0.0 **** 0.06
13963 H 121.18170639385526 90.31993345047434 66.2709601673487 H 0.0 **** 0.06
13964 H 120.07199988160916 91.7065918188018 66.15024975554817 H 0.0 **** 0.06
13965 H 119.45050006700218 90.10816296077653 66.62960059063587 H 0.0 **** 0.06
13966 C 88.15269316646653 106.8264412089402 44.28899817861881 C 0.0 **** -0.24
13967 H 88.9392559855938 106.47309192080769 44.95565828022828 H 0.0 **** 0.06
13968 H 87.64674185428076 105.9723948253631 43.83950123373788 H 0.0 **** 0.06
13969 H 88.59130419463904 107.44356623920743 43.50562310712007 H 0.0 **** 0.06
13970 H 87.43387649439698 107.41698444041748 44.857610341181726 H 0.0 **** 0.06
13971 C 46.32416015170247 49.3405970118192 130.69745827303066 C 0.0 **** -0.24
13972 H 47.15355604395455 49.99767143987772 130.4369950107119 H 0.0 **** 0.06
13973 H 46.14991370487262 48.635149613469025 129.88466331254656 H 0.0 **** 0.06
13974 H 45.42623965638771 49.936170880440855 130.86256139054737 H 0.0 **** 0.06
13975 H 46.568160518690746 48.792181920835006 131.60806589642718 H 0.0 **** 0.06
13976 C 87.33466755058956 110.32146618416668 122.06919414867089 C 0.0 **** -0.24
13977 H 86.79772720189428 109.61272421002015 121.4386417211188 H 0.0 **** 0.06
13978 H 87.28956280330452 111.31391129851197 121.62075492242458 H 0.0 **** 0.06
13979 H 88.37529261743761 110.01014067914484 122.1607604511177 H 0.0 **** 0.06
13980 H 86.87444140079938 110.34855090796408 123.05762009159004 H 0.0 **** 0.06
13981 C 71.52043683988167 73.30142936275189 12.059825108105912 C 0.0 **** -0.24
13982 H 72.23172773421264 72.91348253636943 12.790240794309796 H 0.0 **** 0.06
13983 H 71.9212984197509 73.16494782072755 11.055882762264844 H 0.0 **** 0.06
13984 H 71.3535975411839 74.36238267827764 12.24436012567773 H 0.0 **** 0.06
13985 H 70.57717474084605 72.76380845683406 12.151748042044318 H 0.0 **** 0.06
13986 C 40.106906391767865 109.72121223879405 86.68646689127276 C 0.0 **** -0.24
13987 H 40.63746108313387 109.10028014873377 85.96489393694175 H 0.0 **** 0.06
13988 H 39.46274529200717 110.42385632396484 86.15699518910414 H 0.0 **** 0.06
13989 H 40.82741258422527 110.27298518497138 87.29017702388103 H 0.0 **** 0.06
13990 H 39.4989786141866 109.08855351317767 87.3332908564589 H 0.0 **** 0.06
13991 C 8.77885162464969 69.49218252322261 57.717126187718975 C 0.0 **** -0.24
13992 H 9.397558246056334 70.10692795557347 57.06302476560279 H 0.0 **** 0.06
13993 H 9.035899578387344 69.69771860125208 58.75689625978896 H 0.0 **** 0.06
13994 H 8.954789936859335 68.43893951949991 57.5000977505797 H 0.0 **** 0.06
13995 H 7.728045871589018 69.72764414591035 57.549467116488245 H 0.0 **** 0.06
13996 C 8.399017045493451 140.89622115511267 20.953929067473695 C 0.0 **** -0.24
13997 H 7.7415669290523965 140.28063602635885 21.56790201396643 H 0.0 **** 0.06
13998 H 7.866314920892023 141.79466485156243 20.6402622052548 H 0.0 **** 0.06
13999 H 8.70868419009787 140.33136242174837 20.075329437126243 H 0.0 **** 0.06
14000 H 9.278020029113634 141.17807185042906 21.53310641783068 H 0.0 **** 0.06
14001 C 65.92729108740858 93.20151511032695 144.93817653434957 C 0.0 **** -0.24
14002 H 65.70573916941079 94.25582920514083 144.76980179115913 H 0.0 **** 0.06
14003 H 66.92302240643872 93.10480575920688 145.3731661855632 H 0.0 **** 0.06
14004 H 65.8918196755814 92.66749107507148 143.98893179743766 H 0.0 **** 0.06
14005 H 65.18999547147789 92.77988508530122 145.62035886400815 H 0.0 **** 0.06
14006 C 128.85754303234032 16.185235978454017 60.350648735616375 C 0.0 **** -0.24
14007 H 129.45278390183617 15.308280238411783 60.60828895175169 H 0.0 **** 0.06
14008 H 129.07653668253286 16.483873665900774 59.32529864392913 H 0.0 **** 0.06
14009 H 129.10349359700342 17.0023399826475 61.02823992481538 H 0.0 **** 0.06
14010 H 127.79876457779885 15.944452291235791 60.44059230894061 H 0.0 **** 0.06
14011 C 83.38796541221029 110.91362696141105 140.69738190096533 C 0.0 **** -0.24
14012 H 83.80306003651623 111.91819959575828 140.77966655285758 H 0.0 **** 0.06
14013 H 82.46042841564824 110.85699165233932 141.26718980678197 H 0.0 **** 0.06
14014 H 84.10251461122527 110.19283252131488 141.09332919161938 H 0.0 **** 0.06
14015 H 83.18647700086947 110.68936731616076 139.65048435549056 H 0.0 **** 0.06
14016 C 28.035460512236632 23.08963674471113 131.64230760175485 C 0.0 **** -0.24
14017 H 28.41394861045857 22.611227813657194 130.7394919478043 H 0.0 **** 0.06
14018 H 28.407484942055106 24.11317943890259 131.6948403159695 H 0.0 **** 0.06
14019 H 28.373517059276395 22.53406134970345 132.5171208620318 H 0.0 **** 0.06
14020 H 26.945537596942053 23.10046493476517 131.61764400464017 H 0.0 **** 0.06
14021 C 111.47533177254788 106.86787172662717 29.921620119479314 C 0.0 **** -0.24
14022 H 110.79466456537806 106.1688434260242 29.434525557561642 H 0.0 **** 0.06
14023 H 112.0826711394079 106.3328775063835 30.651662282116774 H 0.0 **** 0.06
14024 H 110.89889214410248 107.64394505448887 30.425283731042498 H 0.0 **** 0.06
14025 H 112.12284412657412 107.32501808178513 29.17350218831467 H 0.0 **** 0.06
14026 C 62.02089503820952 19.800306988940804 12.283535055862323 C 0.0 **** -0.24
14027 H 61.29584912367784 19.103879563029523 12.704423089300882 H 0.0 **** 0.06
14028 H 62.94245652159668 19.759303526426663 12.864798901733629 H 0.0 **** 0.06
14029 H 61.614799501523294 20.81132586792728 12.317280116211926 H 0.0 **** 0.06
14030 H 62.23066284391439 19.52677657353047 11.249359020568953 H 0.0 **** 0.06
14031 C 35.55860779621932 136.87468744291408 146.32096140188366 C 0.0 **** -0.24
14032 H 35.255343564704745 135.90940111821985 145.91337255779186 H 0.0 **** 0.06
14033 H 36.164521000881926 137.40347919281993 145.58554183543845 H 0.0 **** 0.06
14034 H 36.14036827064765 136.7183074298643 147.22897158863933 H 0.0 **** 0.06
14035 H 34.672397559072124 137.46445190725018 146.5542032446321 H 0.0 **** 0.06
14036 C 67.6089724875905 62.984446093208206 34.41088548403688 C 0.0 **** -0.24
14037 H 68.12644162261662 62.789526606889055 33.47231288694342 H 0.0 **** 0.06
14038 H 66.81672466968544 63.71587841037507 34.24420396316263 H 0.0 **** 0.06
14039 H 68.31652519743957 63.37467942086296 35.14228454576614 H 0.0 **** 0.06
14040 H 67.17399225023807 62.056644370890425 34.784877070067324 H 0.0 **** 0.06
14041 C 100.03644606961603 59.425627591087334 16.428854516706167 C 0.0 **** -0.24
14042 H 99.75058320763111 59.89184400506301 15.486311605350778 H 0.0 **** 0.06
14043 H 99.96311964117228 60.1576056694106 17.23394572691177 H 0.0 **** 0.06
14044 H 101.062062606377 59.063627807105604 16.358723564724357 H 0.0 **** 0.06
14045 H 99.36912450490765 58.58840554224628 16.636817747414142 H 0.0 **** 0.06
14046 C 54.74580353591256 14.055048590333172 85.59871787192361 C 0.0 **** -0.24
14047 H 55.80685061742628 14.303417698414478 85.58357365533423 H 0.0 **** 0.06
14048 H 54.58158103220512 13.128743604281112 85.04835206736236 H 0.0 **** 0.06
14049 H 54.177742379866515 14.860866306488447 85.13300031240148 H 0.0 **** 0.06
14050 H 54.41776289182843 13.928066665055496 86.63076265660541 H 0.0 **** 0.06
14051 C 112.97303989898072 131.2533473941881 49.32054683767642 C 0.0 **** -0.24
14052 H 112.47871209869609 131.29498875398951 50.29130093615183 H 0.0 **** 0.06
14053 H 113.69337197259458 132.06813561341067 49.24500639498035 H 0.0 **** 0.06
14054 H 112.22944487409026 131.34979908069616 48.52955190232102 H 0.0 **** 0.06
14055 H 113.4917998859556 130.2992811497245 49.218125040479336 H 0.0 **** 0.06
14056 C 99.20870765128838 54.186047356889375 53.49633352184007 C 0.0 **** -0.24
14057 H 98.91326507803583 53.831507622153055 54.48321330311447 H 0.0 **** 0.06
14058 H 99.44596918287104 55.2483892037273 53.547969060080916 H 0.0 **** 0.06
14059 H 98.38938242147151 54.03028181267811 52.794241817801435 H 0.0 **** 0.06
14060 H 100.08591044518892 53.633066063167234 53.15978568455472 H 0.0 **** 0.06
14061 C 105.0595014340334 88.08904858938678 140.0917803569776 C 0.0 **** -0.24
14062 H 105.01502675743893 87.65569644012162 141.09093820289058 H 0.0 **** 0.06
14063 H 105.49641050200495 89.0860598759257 140.1482378166342 H 0.0 **** 0.06
14064 H 104.05231260294164 88.15682956374326 139.67950628024772 H 0.0 **** 0.06
14065 H 105.67344038398824 87.45830376388257 139.44936196444834 H 0.0 **** 0.06
14066 C 63.81608023552239 9.954921171239931 125.78101019214347 C 0.0 **** -0.24
14067 H 63.17112198598387 10.408228198867334 126.535152191437 H 0.0 **** 0.06
14068 H 63.208285873730205 9.605494420490828 124.9470255372678 H 0.0 **** 0.06
14069 H 64.35175164257784 9.113567132888221 126.22001359655289 H 0.0 **** 0.06
14070 H 64.53247520147782 10.695137965616794 125.42485035478961 H 0.0 **** 0.06
14071 C 34.849751246501 134.01199287224523 1.5826122797202515 C 0.0 **** -0.24
14072 H 34.493733801765586 134.97893724858056 1.2266296275347486 H 0.0 **** 0.06
14073 H 35.894757085388505 134.09759561520082 1.8829928805481018 H 0.0 **** 0.06
14074 H 34.75896951858698 133.27486424735747 0.7849779389228502 H 0.0 **** 0.06
14075 H 34.25013215999081 133.69766914757147 2.4375240129803046 H 0.0 **** 0.06
14076 C 139.4372099036102 53.943806359348926 85.44437364004995 C 0.0 **** -0.24
14077 H 139.74584056071444 53.59456010240068 86.42936177626842 H 0.0 **** 0.06
14078 H 138.3774364841553 54.20037085899271 85.46636202710545 H 0.0 **** 0.06
14079 H 139.60443713292682 53.156196340034654 84.70995279403604 H 0.0 **** 0.06
14080 H 140.01898910424788 54.824505965364025 85.17233752229373 H 0.0 **** 0.06
14081 C 69.30594065366235 33.52390486468262 12.82458737659283 C 0.0 **** -0.24
14082 H 68.86689277811341 34.49570248716447 12.601527330993633 H 0.0 **** 0.06
14083 H 70.05630368068184 33.28336966521234 12.070474862744504 H 0.0 **** 0.06
14084 H 68.5273055695055 32.7620050027702 12.81741501815651 H 0.0 **** 0.06
14085 H 69.77540175478421 33.55482995342327 13.807777792461025 H 0.0 **** 0.06
14086 C 0.5657540963516077 97.7715666230811 22.670037244058477 C 0.0 **** -0.24
14087 H 1.5826747678225352 97.3920038166126 22.775346079736806 H 0.0 **** 0.06
14088 H 0.15805942287057206 97.99543925735443 23.656244935757407 H 0.0 **** 0.06
14089 H -0.05276659568616893 97.01915700303954 22.182085040784678 H 0.0 **** 0.06
14090 H 0.5785762521733666 98.67922820554841 22.06707745402209 H 0.0 **** 0.06
14091 C 124.41462818164217 113.025893734686 137.35942924316143 C 0.0 **** -0.24
14092 H 123.58325145672308 112.97313130521594 136.65700321551813 H 0.0 **** 0.06
14093 H 125.26831548677808 113.49963010298511 136.87611746556135 H 0.0 **** 0.06
14094 H 124.68770450081377 112.01839347394817 137.67486080407417 H 0.0 **** 0.06
14095 H 124.1182615636227 113.61149473881953 138.23016445324723 H 0.0 **** 0.06
14096 C 54.31968706779071 90.3735938587083 140.5470399776069 C 0.0 **** -0.24
14097 H 54.205224248858826 90.83641950362065 139.56650329124247 H 0.0 **** 0.06
14098 H 54.023410443105945 91.08210453469057 141.32018501320897 H 0.0 **** 0.06
14099 H 55.36204214675479 90.08921055197247 140.6942355698606 H 0.0 **** 0.06
14100 H 53.68915999556583 89.48627736482555 140.60446416991678 H 0.0 **** 0.06
14101 C 49.2003195710588 35.62564328727828 139.37857297375737 C 0.0 **** -0.24
14102 H 49.397834152603025 36.68638230622622 139.53308253858077 H 0.0 **** 0.06
14103 H 50.1424270048777 35.07689726701591 139.3741126752636 H 0.0 **** 0.06
14104 H 48.692413205345446 35.48631773943649 138.424272707661 H 0.0 **** 0.06
14105 H 48.56708127189805 35.253735220532434 140.18458610117628 H 0.0 **** 0.06
14106 C 87.60885476255052 45.941064755227856 136.3160080296234 C 0.0 **** -0.24
14107 H 87.43527499528071 46.49273304925222 137.23952934191792 H 0.0 **** 0.06
14108 H 86.73312164980244 46.027424717053435 135.67121501637814 H 0.0 **** 0.06
14109 H 87.78710553421618 44.89077678721034 136.54771117427418 H 0.0 **** 0.06
14110 H 88.47904436190231 46.352572090789806 135.80428323087213 H 0.0 **** 0.06
14111 C 56.63682263902726 98.97523320178944 97.75563300865201 C 0.0 **** -0.24
14112 H 56.880160662952576 98.62750212185392 98.75999311037086 H 0.0 **** 0.06
14113 H 55.871332056062215 99.74867037055387 97.81580431445151 H 0.0 **** 0.06
14114 H 56.26379943357405 98.13994513400685 97.16305135844985 H 0.0 **** 0.06
14115 H 57.530468848158975 99.38312073483647 97.28587178497114 H 0.0 **** 0.06
14116 C 25.53833263355736 105.87356148922872 147.4551332361175 C 0.0 **** -0.24
14117 H 24.481471344643893 105.96500869438186 147.70417556277945 H 0.0 **** 0.06
14118 H 25.63992021966459 105.4774981699468 146.44454761055488 H 0.0 **** 0.06
14119 H 26.020391422534317 105.19802028027807 148.16108213370052 H 0.0 **** 0.06
14120 H 26.010682990372317 106.85469940318957 147.5101881414723 H 0.0 **** 0.06
14121 C 101.65803454324089 90.86669127354523 74.23100184686598 C 0.0 **** -0.24
14122 H 100.94404138608718 90.05318909433882 74.35775926365727 H 0.0 **** 0.06
14123 H 102.59500121891523 90.46990287452834 73.83767631992134 H 0.0 **** 0.06
14124 H 101.84175215347597 91.34264400519768 75.1944105519076 H 0.0 **** 0.06
14125 H 101.25340017647562 91.6002328588622 73.5345298725598 H 0.0 **** 0.06
14126 C 107.20815867762161 69.95839327795413 85.87451943630045 C 0.0 **** -0.24
14127 H 107.16115462422516 69.05973097189698 85.25895775384097 H 0.0 **** 0.06
14128 H 106.99821592093303 70.83232602825402 85.25656706838542 H 0.0 **** 0.06
14129 H 108.20414614505802 70.05004638603917 86.30743761039061 H 0.0 **** 0.06
14130 H 106.46998483886392 69.89078965954535 86.67232488877177 H 0.0 **** 0.06
14131 C 95.99644028564624 28.687003849431107 145.71773397203208 C 0.0 **** -0.24
14132 H 95.69686608122649 28.97107455336743 144.70912274785016 H 0.0 **** 0.06
14133 H 95.82510632334493 29.523345233091845 146.3955003404928 H 0.0 **** 0.06
14134 H 97.05425591114478 28.42678870499276 145.72155672438439 H 0.0 **** 0.06
14135 H 95.40925508896977 27.829058173841474 146.04255266395518 H 0.0 **** 0.06
14136 C 138.35418693702343 75.74461312929463 147.45357652891653 C 0.0 **** -0.24
14137 H 138.80116896262797 76.24063414865424 146.59186967007847 H 0.0 **** 0.06
14138 H 138.9514198117236 74.871697200705 147.72062002248495 H 0.0 **** 0.06
14139 H 137.3401196301735 75.43041643792552 147.20664856941147 H 0.0 **** 0.06
14140 H 138.32488428762542 76.43622456926454 148.29617577718585 H 0.0 **** 0.06
14141 C 94.62280728924236 95.16988862830058 2.5813528397147536 C 0.0 **** -0.24
14142 H 93.91143385688702 95.96855725313861 2.791813656355032 H 0.0 **** 0.06
14143 H 95.15692225307191 95.39340930883583 1.657635778710386 H 0.0 **** 0.06
14144 H 94.08720962069714 94.2269838719126 2.472159284245407 H 0.0 **** 0.06
14145 H 95.33397794559994 95.09075980326477 3.4034351961942093 H 0.0 **** 0.06
14146 C 48.08895466454031 23.370437278075627 13.123874996123526 C 0.0 **** -0.24
14147 H 48.83538935448149 23.998069044542518 13.609848320600882 H 0.0 **** 0.06
14148 H 48.47509043568827 22.355852020300425 13.025827025946825 H 0.0 **** 0.06
14149 H 47.86469744678138 23.771852283465535 12.135053365415729 H 0.0 **** 0.06
14150 H 47.179089636991804 23.35722501660163 13.72494869875132 H 0.0 **** 0.06
14151 C 126.13664300693995 32.871613536352584 62.97356250564509 C 0.0 **** -0.24
14152 H 125.25093927393661 33.48771690325601 63.13366272520456 H 0.0 **** 0.06
14153 H 126.01966968668862 32.302428970901225 62.05072411255752 H 0.0 **** 0.06
14154 H 126.25809074642102 32.18576523987771 63.81140438118169 H 0.0 **** 0.06
14155 H 127.0152162827114 33.51236448933461 62.89683762232602 H 0.0 **** 0.06
14156 C 78.72739173311152 50.1855899527653 62.658499514369055 C 0.0 **** -0.24
14157 H 79.73435736986272 50.505051466796544 62.391460184978996 H 0.0 **** 0.06
14158 H 78.36873285043951 50.78074711363385 63.49904653253043 H 0.0 **** 0.06
14159 H 78.74242631877922 49.13187564115864 62.93911604585014 H 0.0 **** 0.06
14160 H 78.06405039336435 50.32468558947227 61.80437529411654 H 0.0 **** 0.06
14161 C 18.29903469347431 18.002913516287123 54.548180849387066 C 0.0 **** -0.24
14162 H 17.302797892891874 18.10076767033621 54.116717884785956 H 0.0 **** 0.06
14163 H 19.02987729220922 17.882916786665533 53.74903922873399 H 0.0 **** 0.06
14164 H 18.327200735360293 17.131473870569636 55.20218933193449 H 0.0 **** 0.06
14165 H 18.533601928117776 18.897694333391627 55.12408184495682 H 0.0 **** 0.06
14166 C 128.59634263006762 117.24648119351367 77.79658145775635 C 0.0 **** -0.24
14167 H 128.20896463681837 117.8394631795794 78.625427739773 H 0.0 **** 0.06
14168 H 127.84371451064465 116.5206868995533 77.48844343174666 H 0.0 **** 0.06
14169 H 129.4977905983709 116.72289695116966 78.11414651689206 H 0.0 **** 0.06
14170 H 128.8334908707277 117.90344496547205 76.95994845174809 H 0.0 **** 0.06
14171 C 6.4375461173250415 28.487978055583284 102.04953328779207 C 0.0 **** -0.24
14172 H 6.358688451837509 28.96140544662552 103.0287551721844 H 0.0 **** 0.06
14173 H 6.056150547747478 29.166978870254184 101.28679296285809 H 0.0 **** 0.06
14174 H 5.85406035015933 27.56780373672251 102.04344776571642 H 0.0 **** 0.06
14175 H 7.482293692498899 28.257512695058523 101.8410825645221 H 0.0 **** 0.06
14176 C 123.27732042246623 120.29798640582011 117.79414174302887 C 0.0 **** -0.24
14177 H 124.03840877481235 121.03095398502744 118.06287126089596 H 0.0 **** 0.06
14178 H 122.98641387347277 120.44078863285937 116.7530267551276 H 0.0 **** 0.06
14179 H 122.4053256770996 120.42828982248263 118.43604883504925 H 0.0 **** 0.06
14180 H 123.67882583985124 119.29358996502988 117.92566605446844 H 0.0 **** 0.06
14181 C 75.91166871844052 25.831580159610326 28.19825951120555 C 0.0 **** -0.24
14182 H 76.64620087150271 26.63585831832728 28.248614985052726 H 0.0 **** 0.06
14183 H 76.0932203349789 25.230035590714053 27.307019552889855 H 0.0 **** 0.06
14184 H 74.91050662938252 26.25834808034554 28.150919828770554 H 0.0 **** 0.06
14185 H 75.99827274919787 25.204802579235277 29.085364387258977 H 0.0 **** 0.06
14186 C 107.80663628946492 90.55582598052104 15.682627477296975 C 0.0 **** -0.24
14187 H 108.63482804527409 91.24914668270507 15.827047972501283 H 0.0 **** 0.06
14188 H 107.49988449042287 90.15103577938785 16.64752008389975 H 0.0 **** 0.06
14189 H 108.12374590478855 89.74183273604744 15.030353767963959 H 0.0 **** 0.06
14190 H 106.96808671737391 91.08128872394364 15.225588084822867 H 0.0 **** 0.06
14191 C 31.243603439408425 72.80532842016183 99.38798673165522 C 0.0 **** -0.24
14192 H 31.491035846177525 73.69010205354351 99.97489841193769 H 0.0 **** 0.06
14193 H 31.103758373115866 73.08975652084861 98.34498696940229 H 0.0 **** 0.06
14194 H 30.32471571753593 72.36132665608164 99.77027622243331 H 0.0 **** 0.06
14195 H 32.05515336578839 72.08210633670916 99.46194606660387 H 0.0 **** 0.06
14196 C 125.53341678094276 108.65534212009045 81.75890100052038 C 0.0 **** -0.24
14197 H 125.23883395511095 109.38354967332445 82.51410307675846 H 0.0 **** 0.06
14198 H 125.5035690922792 107.65405184464042 82.1906213354878 H 0.0 **** 0.06
14199 H 126.54524919004402 108.87415769130125 81.41739344120856 H 0.0 **** 0.06
14200 H 124.84573927872154 108.7079376121384 80.91494552512924 H 0.0 **** 0.06
14201 C 148.75493445230558 32.118492189925874 127.65862773763635 C 0.0 **** -0.24
14202 H 148.15198243878294 32.215282747377714 128.56182536961313 H 0.0 **** 0.06
14203 H 149.39160192182538 31.23662547082518 127.7394680764784 H 0.0 **** 0.06
14204 H 149.37528041558372 33.006099529993044 127.53932754612084 H 0.0 **** 0.06
14205 H 148.0992984315124 32.01475471776083 126.79414614548757 H 0.0 **** 0.06
14206 C 47.42617509676106 70.31935687207597 11.313024166102338 C 0.0 **** -0.24
14207 H 47.802912734389 71.34126855432848 11.319162796671861 H 0.0 **** 0.06
14208 H 48.15072635918571 69.66184526709226 11.794331211796845 H 0.0 **** 0.06
14209 H 47.26813262702147 69.99539384180866 10.284557831828664 H 0.0 **** 0.06
14210 H 46.481593643170726 70.27777825142101 11.855752085675363 H 0.0 **** 0.06
14211 C 10.904793861859467 83.84195949432223 21.593322080617696 C 0.0 **** -0.24
14212 H 10.597683706259438 84.13423096609465 22.597999770188466 H 0.0 **** 0.06
14213 H 10.317458501565113 84.39464459427789 20.859857801202025 H 0.0 **** 0.06
14214 H 10.741130536835108 82.77280166178512 21.460448801689438 H 0.0 **** 0.06
14215 H 11.96228772525712 84.06677559593761 21.456783037904273 H 0.0 **** 0.06
14216 C 65.5935181367414 70.35773703165131 28.617875140321345 C 0.0 **** -0.24
14217 H 65.92977030045708 69.34496391865059 28.39966761301028 H 0.0 **** 0.06
14218 H 66.03869293170685 70.69578152767491 29.553801320997167 H 0.0 **** 0.06
14219 H 64.50681537870554 70.36817835599578 28.708388228775505 H 0.0 **** 0.06
14220 H 65.89647466226647 71.02364305345111 27.80967466493871 H 0.0 **** 0.06
14221 C 48.68565903635431 109.97681966659758 55.232174545754916 C 0.0 **** -0.24
14222 H 48.26111927789188 109.203462164305 55.87165685180581 H 0.0 **** 0.06
14223 H 49.35659815923481 110.60438788772649 55.81943627043698 H 0.0 **** 0.06
14224 H 47.88306687521157 110.58820949962171 54.82001951614954 H 0.0 **** 0.06
14225 H 49.24269338016023 109.51072239866761 54.4195968264722 H 0.0 **** 0.06
14226 C 74.8205668322924 118.10100507800219 132.8929327539157 C 0.0 **** -0.24
14227 H 74.08100458570601 117.5744422102059 132.29009223076216 H 0.0 **** 0.06
14228 H 75.38701925462851 117.38070064587502 133.48352878921693 H 0.0 **** 0.06
14229 H 74.31499239360274 118.79993312399166 133.5594667493612 H 0.0 **** 0.06
14230 H 75.49825299306141 118.64900596255559 132.23863773962216 H 0.0 **** 0.06
14231 C 119.0941040828599 54.72526832180529 103.69297395428002 C 0.0 **** -0.24
14232 H 119.02353582121825 54.41641144934846 102.64994325330522 H 0.0 **** 0.06
14233 H 118.25611830423068 54.30627617023373 104.25263367343267 H 0.0 **** 0.06
14234 H 119.064295502264 55.8131500355467 103.75325915743296 H 0.0 **** 0.06
14235 H 120.0312590375224 54.362813000411336 104.11687991029704 H 0.0 **** 0.06
14236 C 25.647021648871487 146.1289539118908 35.84172123027881 C 0.0 **** -0.24
14237 H 25.251501444089968 145.11292016643517 35.8136190525025 H 0.0 **** 0.06
14238 H 25.226171608994832 146.70535611510581 35.0178740193962 H 0.0 **** 0.06
14239 H 26.73259686077961 146.09807943933586 35.74713941484609 H 0.0 **** 0.06
14240 H 25.3776223658773 146.59724006115385 36.78843850267381 H 0.0 **** 0.06
14241 C 3.873007867739176 31.15169225265754 6.246910014696418 C 0.0 **** -0.24
14242 H 4.1433410093221426 31.43402852176615 7.264489354708914 H 0.0 **** 0.06
14243 H 4.029010381494572 30.08121351811201 6.112939935212005 H 0.0 **** 0.06
14244 H 4.4953857485988635 31.701096081589412 5.540572496087876 H 0.0 **** 0.06
14245 H 2.824846877818203 31.391626983533627 6.070152202799694 H 0.0 **** 0.06
14246 C 42.91046043608287 48.61680697304547 76.1336920903373 C 0.0 **** -0.24
14247 H 42.878847750543684 47.953618017058886 76.99850741931145 H 0.0 **** 0.06
14248 H 42.15280538877488 49.39353595430424 76.24343929943824 H 0.0 **** 0.06
14249 H 42.71353497085556 48.043433614166105 75.22838120430443 H 0.0 **** 0.06
14250 H 43.896527972966624 49.07734924466743 76.06513445036757 H 0.0 **** 0.06
14251 C 136.14277072707895 38.839870944575694 49.21102352696197 C 0.0 **** -0.24
14252 H 135.5290986737453 39.73809181821056 49.1494173308362 H 0.0 **** 0.06
14253 H 136.32814677888084 38.5983786746441 50.25767088330595 H 0.0 **** 0.06
14254 H 137.09183100881577 39.0122786977643 48.703411832632625 H 0.0 **** 0.06
14255 H 135.6208459591743 38.009952281483876 48.733390742335075 H 0.0 **** 0.06
14256 C 90.20998010457927 122.00228457511369 87.689278902481 C 0.0 **** -0.24
14257 H 89.26783034166468 121.76100364146035 87.1960133977195 H 0.0 **** 0.06
14258 H 90.41054873487451 121.26492221982798 88.46741611003135 H 0.0 **** 0.06
14259 H 90.14248635321186 122.99360705614654 88.13528310203614 H 0.0 **** 0.06
14260 H 91.0169328228418 121.9868925700238 86.95694095680801 H 0.0 **** 0.06
14261 C 136.5953788978239 8.967442260252653 146.51797633837361 C 0.0 **** -0.24
14262 H 136.33526887804885 9.34796818719127 145.5297960352272 H 0.0 **** 0.06
14263 H 136.8308307717568 9.8031066925721 147.17838221464325 H 0.0 **** 0.06
14264 H 137.4624260292781 8.311861345718626 146.43751257367217 H 0.0 **** 0.06
14265 H 135.75343548699394 8.40841376803047 146.9246972180842 H 0.0 **** 0.06
14266 C 43.33636170276692 110.87263035985478 131.54950370142205 C 0.0 **** -0.24
14267 H 43.76705631650911 109.93582699630599 131.19635347722087 H 0.0 **** 0.06
14268 H 43.421742898066384 111.62819666530157 130.7682770331149 H 0.0 **** 0.06
14269 H 43.8706570147496 111.20578915205374 132.43860784667663 H 0.0 **** 0.06
14270 H 42.28485515071618 110.71907396579729 131.79276672829678 H 0.0 **** 0.06
14271 C 30.659022103569683 106.22222904779403 52.18866410753799 C 0.0 **** -0.24
14272 H 30.64416388526179 105.32091279656095 52.800179172936 H 0.0 **** 0.06
14273 H 30.247672197303707 106.00059294826747 51.203485338381995 H 0.0 **** 0.06
14274 H 31.685374938099436 106.57363626455873 52.08392967313972 H 0.0 **** 0.06
14275 H 30.057546773026054 106.9952522917601 52.66849223148711 H 0.0 **** 0.06
14276 C 11.610743900960443 128.4452607476247 65.68076605136248 C 0.0 **** -0.24
14277 H 11.208966104055435 127.83480126526851 64.87236312727607 H 0.0 **** 0.06
14278 H 11.846138185010062 129.44022523565118 65.30224167675792 H 0.0 **** 0.06
14279 H 12.516556183164234 127.98095531705698 66.07093148760728 H 0.0 **** 0.06
14280 H 10.871315131612064 128.52506117252202 66.47752791380861 H 0.0 **** 0.06
14281 C 116.45938058550946 45.91954999668738 72.71892518813145 C 0.0 **** -0.24
14282 H 116.3717103871876 46.993341666095546 72.54717552159262 H 0.0 **** 0.06
14283 H 117.26058779227098 45.51725501474024 72.09839696988891 H 0.0 **** 0.06
14284 H 115.51963172744915 45.43266239024743 72.460209146384 H 0.0 **** 0.06
14285 H 116.68656678026953 45.737720247603846 73.76934789234359 H 0.0 **** 0.06
14286 C 32.13566663920049 119.0190641066069 93.19252276055661 C 0.0 **** -0.24
14287 H 32.808476417669645 119.48929461506798 93.91016318586661 H 0.0 **** 0.06
14288 H 32.56864084290081 119.08231311104684 92.19352054023717 H 0.0 **** 0.06
14289 H 31.173918787546782 119.5332882328827 93.20564353576496 H 0.0 **** 0.06
14290 H 31.991927273056312 117.97273274255939 93.46059388309968 H 0.0 **** 0.06
14291 C 102.66924551614277 99.49854365545305 80.89966730878075 C 0.0 **** -0.24
14292 H 103.0586217881898 98.6885789992369 80.28389234033256 H 0.0 **** 0.06
14293 H 102.71880792857252 99.21227293233339 81.95025577509489 H 0.0 **** 0.06
14294 H 101.63278824805118 99.69710636831483 80.6255766493727 H 0.0 **** 0.06
14295 H 103.26597840016531 100.39668550855647 80.73786622486921 H 0.0 **** 0.06
14296 C 32.30583503240241 51.48566591613999 123.87242174503405 C 0.0 **** -0.24
14297 H 33.02209221855113 51.26029905503296 123.08147424181692 H 0.0 **** 0.06
14298 H 32.58779688059419 52.41731134115943 124.36236029224915 H 0.0 **** 0.06
14299 H 32.305000445374766 50.67625203249068 124.60310839946078 H 0.0 **** 0.06
14300 H 31.310175964619923 51.587073244067284 123.44255083846593 H 0.0 **** 0.06
14301 C 91.79638001749015 60.14583378640236 107.89558764531088 C 0.0 **** -0.24
14302 H 91.57578562434406 60.88806969966801 107.12743368768909 H 0.0 **** 0.06
14303 H 92.87112807241871 60.12221974137235 108.079697752366 H 0.0 **** 0.06
14304 H 91.46402949023978 59.16472498732412 107.55672317941989 H 0.0 **** 0.06
14305 H 91.27463766435926 60.40842423721779 108.81549830958002 H 0.0 **** 0.06
14306 C 7.255818830427216 38.33908850836121 45.03055686193228 C 0.0 **** -0.24
14307 H 6.584467454480375 38.889016839978694 44.371684634211675 H 0.0 **** 0.06
14308 H 8.244308451733673 38.79909326210013 45.00816446121976 H 0.0 **** 0.06
14309 H 7.327922979716362 37.30412187888217 44.69616554360125 H 0.0 **** 0.06
14310 H 6.8662203114676 38.36446519721815 46.04839354484973 H 0.0 **** 0.06
14311 C 68.35549480707195 40.118367227364274 143.84454197671778 C 0.0 **** -0.24
14312 H 67.60971338101533 39.448984359541356 144.27174342280023 H 0.0 **** 0.06
14313 H 68.13280804788187 41.14400122772196 144.1383207675839 H 0.0 **** 0.06
14314 H 68.33509370120274 40.03867904985222 142.75761646154433 H 0.0 **** 0.06
14315 H 69.34436409818792 39.841804272341335 144.21048725494288 H 0.0 **** 0.06
14316 C 131.2720191135193 83.9624020458476 112.11269456525923 C 0.0 **** -0.24
14317 H 130.65102915929643 83.62420210023237 111.28353551197762 H 0.0 **** 0.06
14318 H 132.1332817990396 83.30104400131782 112.21497683668673 H 0.0 **** 0.06
14319 H 130.68959336990594 83.94647763582307 113.03393240201194 H 0.0 **** 0.06
14320 H 131.61537594520948 84.97857315018916 111.91805678183209 H 0.0 **** 0.06
14321 C 1.6162190462712829 65.55811526689642 33.56047056554246 C 0.0 **** -0.24
14322 H 2.2401352024449466 65.29653940318262 34.41467379310427 H 0.0 **** 0.06
14323 H 1.0901857985552965 66.49001556998194 33.76747377162778 H 0.0 **** 0.06
14324 H 0.8905684161896943 64.7626581694576 33.3847528101287 H 0.0 **** 0.06
14325 H 2.2425027985629526 65.68086465377634 32.67724425979753 H 0.0 **** 0.06
14326 C 52.55072597368897 73.02359116664547 28.7124116684476 C 0.0 **** -0.24
14327 H 52.404793300173864 72.16000026521385 28.064522906814062 H 0.0 **** 0.06
14328 H 53.60588143081307 73.10833199997796 28.97270082077918 H 0.0 **** 0.06
14329 H 51.96059204821569 72.90124700236811 29.62080935146514 H 0.0 **** 0.06
14330 H 52.23168722578839 73.9269337550711 28.190995340532965 H 0.0 **** 0.06
14331 C 127.66711050862361 28.53926758969299 21.850745048923187 C 0.0 **** -0.24
14332 H 127.62803088175963 28.007480687236537 22.801340626174323 H 0.0 **** 0.06
14333 H 126.70236864353426 29.007831021971995 21.656191898457365 H 0.0 **** 0.06
14334 H 127.89801323460466 27.835451140169106 21.050795776693064 H 0.0 **** 0.06
14335 H 128.44179273054286 29.30498058262335 21.895011993618823 H 0.0 **** 0.06
14336 C 69.35180468592432 88.00297854892875 33.22918863165802 C 0.0 **** -0.24
14337 H 69.93258961462138 87.33307972058384 32.595745752121815 H 0.0 **** 0.06
14338 H 69.60655373601278 87.82714041324415 34.27485463789827 H 0.0 **** 0.06
14339 H 68.28854162423875 87.81624652128174 33.076429611440716 H 0.0 **** 0.06
14340 H 69.57978331225974 89.03735274910998 32.96820527264754 H 0.0 **** 0.06
14341 C 98.16893805919187 44.64215241294818 62.48808480724571 C 0.0 **** -0.24
14342 H 97.82947367021441 43.89296483712013 61.772701416711996 H 0.0 **** 0.06
14343 H 98.24428482942793 45.60973316508236 61.99108896722801 H 0.0 **** 0.06
14344 H 99.14598027088346 44.3553420965784 62.87645296764583 H 0.0 **** 0.06
14345 H 97.45656869343952 44.710026438228624 63.309376127059934 H 0.0 **** 0.06
14346 C 132.8001811393117 70.80364605525008 95.89756390550467 C 0.0 **** -0.24
14347 H 133.612032400693 70.12157463481732 95.6451266092522 H 0.0 **** 0.06
14348 H 132.20913242755225 71.00982855973065 95.00589152400207 H 0.0 **** 0.06
14349 H 133.21584865929526 71.73482773972715 96.28215934966939 H 0.0 **** 0.06
14350 H 132.16592142624665 70.34804537305757 96.65721848203206 H 0.0 **** 0.06
14351 C 100.02592887757017 12.111976095800514 72.36757332022255 C 0.0 **** -0.24
14352 H 99.83169313474139 12.534074188869852 73.35331930218321 H 0.0 **** 0.06
14353 H 100.87372513184697 12.626884779254027 71.91416942469334 H 0.0 **** 0.06
14354 H 99.14475010805046 12.238150311074634 71.73868738494421 H 0.0 **** 0.06
14355 H 100.25397146703195 11.051157002792792 72.46460869382427 H 0.0 **** 0.06
14356 C 146.52628433279125 3.2392029906225943 115.07111576428207 C 0.0 **** -0.24
14357 H 147.4715111438838 3.70549176810443 115.34851714373735 H 0.0 **** 0.06
14358 H 146.03643672556092 3.8399653828359988 114.30368210827953 H 0.0 **** 0.06
14359 H 145.88282316772944 3.1737293455218776 115.94797115810701 H 0.0 **** 0.06
14360 H 146.71617517301172 2.238494028805537 114.68330586516822 H 0.0 **** 0.06
14361 C 142.38578057679996 41.29311010894216 95.09738210152938 C 0.0 **** -0.24
14362 H 142.75467537946025 42.292833148320796 95.32636015200893 H 0.0 **** 0.06
14363 H 142.54538722872218 41.08040117557222 94.04014744296515 H 0.0 **** 0.06
14364 H 141.32070979602975 41.23915964599672 95.32293268405303 H 0.0 **** 0.06
14365 H 142.9230098296228 40.56077835138011 95.70025805957695 H 0.0 **** 0.06
14366 C 11.197334867529364 138.50652098916987 48.52506406183437 C 0.0 **** -0.24
14367 H 11.032418835778323 138.51462285082587 47.44730872213779 H 0.0 **** 0.06
14368 H 11.922394376857824 137.73090633566488 48.77587111401829 H 0.0 **** 0.06
14369 H 10.256175914291774 138.30436148263095 49.035690947354965 H 0.0 **** 0.06
14370 H 11.580752331674724 139.4769399551631 48.84009192928528 H 0.0 **** 0.06
14371 C 66.0723775200995 141.84615586496403 106.23417466375916 C 0.0 **** -0.24
14372 H 65.66227597154716 141.035525793229 105.63176027630645 H 0.0 **** 0.06
14373 H 67.15525440664051 141.7414520707681 106.2969538536819 H 0.0 **** 0.06
14374 H 65.64424973861705 141.806091157776 107.23594355825945 H 0.0 **** 0.06
14375 H 65.8255764595756 142.80213255154757 105.77187247859423 H 0.0 **** 0.06
14376 C 4.960796351016555 63.31392765802559 149.27452613691025 C 0.0 **** -0.24
14377 H 5.635976017661935 63.844453509944884 149.94624277171908 H 0.0 **** 0.06
14378 H 5.399754698596638 62.35374567038633 149.0030383617343 H 0.0 **** 0.06
14379 H 4.801535557349574 63.90883824962995 148.3747995692956 H 0.0 **** 0.06
14380 H 4.006667400358992 63.14919863171917 149.77442887885968 H 0.0 **** 0.06
14381 C 130.41456513300278 49.13509165198056 136.9161597555266 C 0.0 **** -0.24
14382 H 129.67623731117487 48.50931423936514 137.41843774053936 H 0.0 **** 0.06
14383 H 131.39865818462698 48.67224495097764 136.9978073263891 H 0.0 **** 0.06
14384 H 130.4361807138743 50.11879767358471 137.38383877820272 H 0.0 **** 0.06
14385 H 130.1478408823407 49.23787307029707 135.86461631184469 H 0.0 **** 0.06
14386 C 73.90102326648821 34.69490138813807 32.8564352618989 C 0.0 **** -0.24
14387 H 73.31897866869414 35.25469958748447 33.58891022162958 H 0.0 **** 0.06
14388 H 73.33906009842444 33.81376221729947 32.544166623918656 H 0.0 **** 0.06
14389 H 74.84581519347114 34.384754992509194 33.30192474741248 H 0.0 **** 0.06
14390 H 74.09823073798735 35.326072410609825 31.989808557460627 H 0.0 **** 0.06
14391 C 69.995808847373 114.88227933541022 37.224335256130104 C 0.0 **** -0.24
14392 H 70.52078103936 115.27493824094763 36.35326253734402 H 0.0 **** 0.06
14393 H 68.95930923735757 114.67189561706012 36.95932061569198 H 0.0 **** 0.06
14394 H 70.02388928925795 115.61774455284014 38.027993682786956 H 0.0 **** 0.06
14395 H 70.47979123746937 113.9635954987459 37.55585680725997 H 0.0 **** 0.06
14396 C 0.7204341776629519 108.70724673478594 102.83565111564666 C 0.0 **** -0.24
14397 H 1.4310485538198634 109.46959916027203 103.15462206088743 H 0.0 **** 0.06
14398 H 0.6658253057494505 107.92309884190473 103.59195958556772 H 0.0 **** 0.06
14399 H 1.0496483115223327 108.27818628870727 101.88945998349594 H 0.0 **** 0.06
14400 H -0.26274649367309166 109.1579055307248 102.7079059554167 H 0.0 **** 0.06
14401 C 47.96855923507033 90.80296294596616 82.34066914594617 C 0.0 **** -0.24
14402 H 47.43226075319292 90.55902203725174 81.42339314042128 H 0.0 **** 0.06
14403 H 47.26062374607949 91.14874730286306 83.09433354694141 H 0.0 **** 0.06
14404 H 48.69625050398393 91.58957090852374 82.13763745989033 H 0.0 **** 0.06
14405 H 48.4854018162535 89.91532665325241 82.70681676360294 H 0.0 **** 0.06
14406 C 83.99041010009012 28.548021861699695 148.1506410654175 C 0.0 **** -0.24
14407 H 84.29913439037895 27.65566981388009 148.6952497530589 H 0.0 **** 0.06
14408 H 82.92020047713683 28.70646478609101 148.29105033121564 H 0.0 **** 0.06
14409 H 84.20295920121657 28.418925945851285 147.08954229726558 H 0.0 **** 0.06
14410 H 84.53790692338109 29.411808692962076 148.5282440786029 H 0.0 **** 0.06
14411 C 44.55999306998173 31.881913878147053 29.312531811754447 C 0.0 **** -0.24
14412 H 44.4789054494172 31.38713346517674 30.28137116637683 H 0.0 **** 0.06
14413 H 45.53624416026989 31.670422997605648 28.87683709941811 H 0.0 **** 0.06
14414 H 44.44584380005139 32.958270444095035 29.44537386732643 H 0.0 **** 0.06
14415 H 43.77799897197639 31.512807825536683 28.64987398815576 H 0.0 **** 0.06
14416 C 12.569097184529198 76.81130132501481 24.16267447026069 C 0.0 **** -0.24
14417 H 13.207345728489372 77.5108698305703 24.702967174967576 H 0.0 **** 0.06
14418 H 11.905076725068398 77.36500946383629 23.498811822748856 H 0.0 **** 0.06
14419 H 11.975302255656175 76.23685135816072 24.874089485184967 H 0.0 **** 0.06
14420 H 13.188203052360336 76.13377774891285 23.57512856450822 H 0.0 **** 0.06
14421 C 66.5884280758633 140.0644733206388 65.94168447406133 C 0.0 **** -0.24
14422 H 66.48439102936646 139.5279830881029 66.88594931339163 H 0.0 **** 0.06
14423 H 65.8262568769768 139.7192981653658 65.24284280997153 H 0.0 **** 0.06
14424 H 67.57691291369662 139.87500119658802 65.52448969355726 H 0.0 **** 0.06
14425 H 66.46569645550284 141.13345920397182 66.11648328210897 H 0.0 **** 0.06
14426 C 17.450511729226292 48.570273080430354 108.04955842708925 C 0.0 **** -0.24
14427 H 17.58830426866202 48.925852147593815 107.02913244978494 H 0.0 **** 0.06
14428 H 18.416414379652473 48.533510379373865 108.55449911733517 H 0.0 **** 0.06
14429 H 17.012049010369488 47.57277890263353 108.03155082916861 H 0.0 **** 0.06
14430 H 16.78666712806202 49.25031404616183 108.58453988452781 H 0.0 **** 0.06
14431 C 67.71756562371542 80.21455785547676 28.701346411804025 C 0.0 **** -0.24
14432 H 67.54848508069396 81.08747208744967 28.071390086310032 H 0.0 **** 0.06
14433 H 67.56537013010669 80.4857408412084 29.746576455471654 H 0.0 **** 0.06
14434 H 68.73814296835558 79.85920239794379 28.562325433424007 H 0.0 **** 0.06
14435 H 67.01699894774531 79.42610513967577 28.42453209345075 H 0.0 **** 0.06
14436 C 3.6988247474641014 92.632859112055 128.72067497293884 C 0.0 **** -0.24
14437 H 3.4480767042625757 93.19785634638154 127.82271448400006 H 0.0 **** 0.06
14438 H 3.4101162759672263 93.20475995796207 129.60303451235663 H 0.0 **** 0.06
14439 H 4.772045964444402 92.44522457424685 128.74371760309924 H 0.0 **** 0.06
14440 H 3.165261667461806 91.68208546498718 128.71159649193632 H 0.0 **** 0.06
14441 C 126.51404360281764 127.23717603333262 111.9889890895664 C 0.0 **** -0.24
14442 H 125.72687454665262 126.89212419919198 111.31914614810707 H 0.0 **** 0.06
14443 H 126.94815736184998 126.3828315353795 112.50931806559318 H 0.0 **** 0.06
14444 H 126.09277562211297 127.93108844829055 112.71650564491945 H 0.0 **** 0.06
14445 H 127.28768540855532 127.74258105078235 111.4102588958955 H 0.0 **** 0.06
14446 C 121.93731327810964 93.29256077339471 78.72319334524056 C 0.0 **** -0.24
14447 H 121.35255858726221 94.15303018104049 79.05000043209031 H 0.0 **** 0.06
14448 H 122.93441737190464 93.34489598833463 79.16038087319086 H 0.0 **** 0.06
14449 H 122.01638079156085 93.2989400988105 77.63574259083134 H 0.0 **** 0.06
14450 H 121.44612340670348 92.37507687109124 79.0468911561081 H 0.0 **** 0.06
14451 C 116.12725671995561 41.99341524108604 73.5337207871033 C 0.0 **** -0.24
14452 H 116.992877927582 42.64344099694412 73.65583088339852 H 0.0 **** 0.06
14453 H 115.98493028312875 41.404116055450146 74.43986986889189 H 0.0 **** 0.06
14454 H 116.29156310860729 41.32559686365815 72.68793150027628 H 0.0 **** 0.06
14455 H 115.24055520310763 42.59941663306202 73.35129226025734 H 0.0 **** 0.06
14456 C 52.248606734507945 86.7868335595808 33.54805086820991 C 0.0 **** -0.24
14457 H 51.42490399277946 87.38744443889411 33.93419314351027 H 0.0 **** 0.06
14458 H 52.984708045823794 86.63234406549651 34.336631441109404 H 0.0 **** 0.06
14459 H 52.714886626422754 87.30526828288876 32.71109511553777 H 0.0 **** 0.06
14460 H 51.867712117704 85.82247563232741 33.211308272296804 H 0.0 **** 0.06
14461 C 7.756242001378865 111.21346507974144 49.08136610394584 C 0.0 **** -0.24
14462 H 8.485206901798279 110.71217420453772 48.44499899341852 H 0.0 **** 0.06
14463 H 6.7638664541413505 110.81045442383984 48.883812059365 H 0.0 **** 0.06
14464 H 7.7642436463901845 112.28266608623463 48.86938103754133 H 0.0 **** 0.06
14465 H 8.014379030049923 111.04947742660042 50.12812483881507 H 0.0 **** 0.06
14466 C 73.1403368178783 126.98734920861563 10.08525093789686 C 0.0 **** -0.24
14467 H 72.36810048255802 126.86354397664923 9.326254378067944 H 0.0 **** 0.06
14468 H 73.12395909600437 126.13406275714217 10.763083126128947 H 0.0 **** 0.06
14469 H 72.95413920950966 127.90226797641728 10.648398885746758 H 0.0 **** 0.06
14470 H 74.11615744242918 127.05051301130544 9.603282120108162 H 0.0 **** 0.06
14471 C 70.69714198567249 113.02163519896237 40.65464446496709 C 0.0 **** -0.24
14472 H 71.36160644135464 112.20489793426805 40.37137826988679 H 0.0 **** 0.06
14473 H 71.03894173092749 113.45737004015581 41.593942393129495 H 0.0 **** 0.06
14474 H 69.68354316551135 112.63957113592994 40.77754678514039 H 0.0 **** 0.06
14475 H 70.70659733267793 113.78412273323511 39.87611969274033 H 0.0 **** 0.06
14476 C 73.84246618747201 80.39008259987023 61.08163613916912 C 0.0 **** -0.24
14477 H 74.63237477744755 80.08212033555938 60.39716107194144 H 0.0 **** 0.06
14478 H 73.25284065831451 79.51918186011315 61.37100646406451 H 0.0 **** 0.06
14479 H 73.19767193569695 81.11783252845893 60.58967590453325 H 0.0 **** 0.06
14480 H 74.28582913910608 80.83969321087866 61.970258153893525 H 0.0 **** 0.06
14481 C 45.75247016977855 25.96916211874226 91.48431948154884 C 0.0 **** -0.24
14482 H 46.54401186831629 26.435909836519926 90.89624986957386 H 0.0 **** 0.06
14483 H 45.29863750574367 25.164094847854955 90.9069876352683 H 0.0 **** 0.06
14484 H 44.99539918222749 26.714081361744945 91.72911801237883 H 0.0 **** 0.06
14485 H 46.17479972223546 25.564763309708596 92.40433080978462 H 0.0 **** 0.06
14486 C 129.31997532718756 49.44002884196023 52.70512936448867 C 0.0 **** -0.24
14487 H 128.7429691850589 49.955599351528974 53.47280927469453 H 0.0 **** 0.06
14488 H 130.01838640358642 48.748888724169746 53.178146097506755 H 0.0 **** 0.06
14489 H 129.87584528978184 50.171153404598144 52.117184653695546 H 0.0 **** 0.06
14490 H 128.6449138981082 48.88573848616295 52.053959102093245 H 0.0 **** 0.06
14491 C 126.63962640485731 45.280330972015264 73.3893678211698 C 0.0 **** -0.24
14492 H 126.23944431883594 45.71656368122197 72.4741958150313 H 0.0 **** 0.06
14493 H 126.50187783761845 45.9780408921977 74.21527803168829 H 0.0 **** 0.06
14494 H 127.70255569232685 45.0755902012248 73.2587460166394 H 0.0 **** 0.06
14495 H 126.11561417874485 44.34992510349335 73.60735997246456 H 0.0 **** 0.06
14496 C 26.93952460948342 37.19822059288134 115.15683320026417 C 0.0 **** -0.24
14497 H 27.277084098145707 37.23081305879518 116.19316704569874 H 0.0 **** 0.06
14498 H 27.75414413484078 37.50596834060329 114.5002626527938 H 0.0 **** 0.06
14499 H 26.094165419854022 37.874069823133965 115.02914166654031 H 0.0 **** 0.06
14500 H 26.634310441720224 36.18191716228094 114.90540095430103 H 0.0 **** 0.06
14501 C 40.4213990801035 132.7912752088855 4.402985933836362 C 0.0 **** -0.24
14502 H 39.572128238495964 132.17676230346714 4.700385298691913 H 0.0 **** 0.06
14503 H 40.66641214382136 132.59182630194658 3.359143865345402 H 0.0 **** 0.06
14504 H 41.280416501810265 132.55110050596014 5.030726104370956 H 0.0 **** 0.06
14505 H 40.167440943821276 133.84471040149845 4.522618953576 H 0.0 **** 0.06
14506 C 68.74563581825973 116.98060864205553 81.45286328837588 C 0.0 **** -0.24
14507 H 68.09663884488245 117.68529026776412 81.9745023242086 H 0.0 **** 0.06
14508 H 69.65689531672032 116.82889631444158 82.0316179769161 H 0.0 **** 0.06
14509 H 69.00019442012447 117.3815754832462 80.47107968474705 H 0.0 **** 0.06
14510 H 68.22719940691249 116.02989577497442 81.33429616084086 H 0.0 **** 0.06
14511 C 130.90503030991002 40.11945502006688 22.776449651933348 C 0.0 **** -0.24
14512 H 130.96172518552072 39.03325106933143 22.69452765848864 H 0.0 **** 0.06
14513 H 131.2754212212812 40.429222188590956 23.753518404381865 H 0.0 **** 0.06
14514 H 129.8694523036527 40.43856355908903 22.662360272724996 H 0.0 **** 0.06
14515 H 131.5133337676009 40.573830676201794 21.99489535347712 H 0.0 **** 0.06
14516 C 37.620181049956784 140.69439708185334 79.66733116551552 C 0.0 **** -0.24
14517 H 36.96751940301177 139.82620792020265 79.76482413428226 H 0.0 **** 0.06
14518 H 37.01814423665634 141.60380126178745 79.67958889708187 H 0.0 **** 0.06
14519 H 38.1668519914437 140.6328702541385 78.72582500501788 H 0.0 **** 0.06
14520 H 38.32538531363168 140.71314468941964 80.49719374013995 H 0.0 **** 0.06
14521 C 47.84664275612893 123.56322709634019 139.71087120859067 C 0.0 **** -0.24
14522 H 47.15411599756621 123.24243740381574 138.93264878117975 H 0.0 **** 0.06
14523 H 47.284277380243964 123.95259872465734 140.55955807895646 H 0.0 **** 0.06
14524 H 48.49845892951659 124.3429754664103 139.31785516435087 H 0.0 **** 0.06
14525 H 48.44927748103706 122.71372491122618 140.03276547976046 H 0.0 **** 0.06
14526 C 147.48321838706218 130.45167945466102 2.841397863754622 C 0.0 **** -0.24
14527 H 146.7518613256871 129.6535113103701 2.971024133928765 H 0.0 **** 0.06
14528 H 147.10143316944115 131.36885063276026 3.289841349572825 H 0.0 **** 0.06
14529 H 147.66141595619948 130.61327558079557 1.7784219512981423 H 0.0 **** 0.06
14530 H 148.41762326975086 130.17022376323285 3.328028864224649 H 0.0 **** 0.06
14531 C 134.7341687287846 49.995357897044556 114.52153120269362 C 0.0 **** -0.24
14532 H 135.47365662647974 49.38554402657604 114.00342296937488 H 0.0 **** 0.06
14533 H 133.816475196803 50.03098455947395 113.93347181132698 H 0.0 **** 0.06
14534 H 135.12236042241213 51.00602355490142 114.64929909340465 H 0.0 **** 0.06
14535 H 134.52328713636683 49.56020017486409 115.49836444950897 H 0.0 **** 0.06
14536 C 50.31068531275767 75.42248460811271 101.93635348172523 C 0.0 **** -0.24
14537 H 50.62807064082321 76.46448073851997 101.98638481203619 H 0.0 **** 0.06
14538 H 49.5532706661202 75.237333008891 102.69773801402596 H 0.0 **** 0.06
14539 H 51.16839308844075 74.77319644321335 102.1099729154256 H 0.0 **** 0.06
14540 H 49.893079336504 75.21767780308016 100.95012027521494 H 0.0 **** 0.06
14541 C 64.13789928938438 89.73069929856669 103.23802124822004 C 0.0 **** -0.24
14542 H 63.49985683027545 90.50239174462666 103.67037541471188 H 0.0 **** 0.06
14543 H 63.73480748840274 88.74856393654667 103.4828305089855 H 0.0 **** 0.06
14544 H 65.14482872839038 89.82239332856537 103.64492760790142 H 0.0 **** 0.06
14545 H 64.17066833595206 89.85182125191116 102.1554704967445 H 0.0 **** 0.06
14546 C 29.136378471811327 116.16010402794743 3.691721124176098 C 0.0 **** -0.24
14547 H 28.52323760547219 116.88553401305799 4.2272639619974655 H 0.0 **** 0.06
14548 H 29.340449510096704 115.3091289762693 4.340549998483482 H 0.0 **** 0.06
14549 H 30.07657296052571 116.62703317766076 3.3968329976607663 H 0.0 **** 0.06
14550 H 28.604407123173274 115.82082792635717 2.803153918851933 H 0.0 **** 0.06
14551 C 79.35676205146629 102.17381228181718 37.75923734453906 C 0.0 **** -0.24
14552 H 80.06812336389805 102.3261361770357 36.94721763017466 H 0.0 **** 0.06
14553 H 78.35290153631564 102.41826988027276 37.412250277351376 H 0.0 **** 0.06
14554 H 79.61872979041863 102.81737225822296 38.59792731972979 H 0.0 **** 0.06
14555 H 79.3873287188622 101.13131844428892 38.077030962901546 H 0.0 **** 0.06
14556 C 85.81391286139052 75.5981158373212 116.02716201013145 C 0.0 **** -0.24
14557 H 85.1426511880517 75.6706908397777 116.88249884151448 H 0.0 **** 0.06
14558 H 86.84742556633665 75.61287730241243 116.37385075855373 H 0.0 **** 0.06
14559 H 85.64161069918438 76.44152625306573 115.35818717067762 H 0.0 **** 0.06
14560 H 85.62261695471369 74.66628046853923 115.49408299046313 H 0.0 **** 0.06
14561 C 102.1342439682253 26.147568494320495 130.22641601864996 C 0.0 **** -0.24
14562 H 102.40571342630085 26.986088965039635 129.5843488318639 H 0.0 **** 0.06
14563 H 101.07919597318929 26.220119810353886 130.4911187413396 H 0.0 **** 0.06
14564 H 102.73938147080382 26.174300190152344 131.13341908174743 H 0.0 **** 0.06
14565 H 102.31380170609427 25.211692603803208 129.69697118535183 H 0.0 **** 0.06
14566 C 94.08134837438337 99.88962782988528 92.6096411046097 C 0.0 **** -0.24
14567 H 93.92949560311916 98.81088403020067 92.56753351036753 H 0.0 **** 0.06
14568 H 93.2220699332317 100.35751803526551 93.08975857842654 H 0.0 **** 0.06
14569 H 94.189963684487 100.27977448841506 91.59727318129876 H 0.0 **** 0.06
14570 H 94.98242913448274 100.10742813971564 93.18213035064286 H 0.0 **** 0.06
14571 C 149.61595816121633 132.75667173281715 78.14243472233636 C 0.0 **** -0.24
14572 H 149.80524145831583 133.54779497276547 78.86710657264621 H 0.0 **** 0.06
14573 H 148.844593419481 133.08130580736653 77.44372043560944 H 0.0 **** 0.06
14574 H 149.27997514532498 131.85942928738737 78.66352966650777 H 0.0 **** 0.06
14575 H 150.5332229603656 132.53785665329565 77.59590226454591 H 0.0 **** 0.06
14576 C 118.7865139329185 85.17883771510003 147.17496901986027 C 0.0 **** -0.24
14577 H 119.68348709936842 84.56207586838806 147.1184318760304 H 0.0 **** 0.06
14578 H 118.56162800815585 85.3970621038541 148.21904992091 H 0.0 **** 0.06
14579 H 117.94936857914232 84.64332157421401 146.72690026123627 H 0.0 **** 0.06
14580 H 118.95164797292446 86.11150890837354 146.63520546799074 H 0.0 **** 0.06
14581 C 104.25754543601822 94.63740711955599 79.62970489737694 C 0.0 **** -0.24
14582 H 103.2707850449029 94.46777836664538 80.05921445276293 H 0.0 **** 0.06
14583 H 104.72426072909111 93.6788057209618 79.40029974533968 H 0.0 **** 0.06
14584 H 104.87598264142532 95.18112681582502 80.34487260631947 H 0.0 **** 0.06
14585 H 104.16050748403869 95.2229915944585 78.71585156200632 H 0.0 **** 0.06
14586 C 128.4368592622733 134.22049736988353 27.3545856505049 C 0.0 **** -0.24
14587 H 128.61698518841024 135.26942697773293 27.58988505724622 H 0.0 **** 0.06
14588 H 127.97916671336098 134.14311224843902 26.368294840249888 H 0.0 **** 0.06
14589 H 127.76776098346953 133.79140626774154 28.101165748678767 H 0.0 **** 0.06
14590 H 129.3828240296231 133.67995449139727 27.359924297605204 H 0.0 **** 0.06
14591 C 12.355633849210193 101.24832703863058 147.33164263818492 C 0.0 **** -0.24
14592 H 11.65064341875319 102.06954782834151 147.20095443844673 H 0.0 **** 0.06
14593 H 12.0683650627183 100.41684882622822 146.68772872700265 H 0.0 **** 0.06
14594 H 12.344248915969672 100.92339865571954 148.37235462433256 H 0.0 **** 0.06
14595 H 13.357817118311658 101.58524178231643 147.06722890338682 H 0.0 **** 0.06
14596 C 122.24368939925 23.365765908069505 32.24910582717058 C 0.0 **** -0.24
14597 H 121.8247581653236 23.001268806726813 33.186366687917825 H 0.0 **** 0.06
14598 H 122.01332778873365 22.66005943463483 31.449620702495395 H 0.0 **** 0.06
14599 H 123.3251515873331 23.462574060793827 32.34714264243263 H 0.0 **** 0.06
14600 H 121.81192916436527 24.33770500978622 32.01164647769855 H 0.0 **** 0.06
14601 C 48.88578163902993 59.13185848528683 42.808784614326115 C 0.0 **** -0.24
14602 H 49.86305560733645 58.90440122631762 42.38451439091726 H 0.0 **** 0.06
14603 H 48.96476153385102 60.00583729123129 43.455508446374196 H 0.0 **** 0.06
14604 H 48.535854904903374 58.27908438310543 43.39117719890501 H 0.0 **** 0.06
14605 H 48.179527788554324 59.33675532680458 42.0043343300036 H 0.0 **** 0.06
14606 C 133.58202143244563 15.229049174681144 50.62934957248392 C 0.0 **** -0.24
14607 H 133.6323342600246 14.22355856693548 51.047783271052694 H 0.0 **** 0.06
14608 H 134.18999813682564 15.903938261914355 51.23309669351568 H 0.0 **** 0.06
14609 H 132.5478205706434 15.572249768735894 50.62997098228435 H 0.0 **** 0.06
14610 H 133.95953668526053 15.215941524088109 49.60695830571771 H 0.0 **** 0.06
14611 C 36.04997009027139 99.09806289208134 63.024355647507335 C 0.0 **** -0.24
14612 H 36.57062541238861 98.94881960992711 63.970421169920826 H 0.0 **** 0.06
14613 H 36.70653359423949 98.8162873530743 62.201065054167216 H 0.0 **** 0.06
14614 H 35.77228765412704 100.14778076999394 62.92471953013592 H 0.0 **** 0.06
14615 H 35.15210116450751 98.48085353802637 63.001193768545036 H 0.0 **** 0.06
14616 C 5.882881481700423 54.083132224558625 23.487006892409994 C 0.0 **** -0.24
14617 H 5.368035783420282 54.7045336160557 22.75485549402739 H 0.0 **** 0.06
14618 H 6.883834149725118 54.48011680206466 23.661567924160586 H 0.0 **** 0.06
14619 H 5.956916608123009 53.06290760062856 23.110148815735513 H 0.0 **** 0.06
14620 H 5.32386234441654 54.08611024479018 24.423017703487666 H 0.0 **** 0.06
14621 C 115.36000270242376 122.65958700644278 108.01964157415532 C 0.0 **** -0.24
14622 H 114.49553994152735 123.08258698330279 108.53151621051077 H 0.0 **** 0.06
14623 H 116.23668087920235 123.27763262131437 108.21610152941142 H 0.0 **** 0.06
14624 H 115.168954767117 122.63092856014974 106.94696135224544 H 0.0 **** 0.06
14625 H 115.53920357256361 121.64847595472806 108.38447297781622 H 0.0 **** 0.06
14626 C 66.46726920082214 74.23648669897287 56.477154705995304 C 0.0 **** -0.24
14627 H 66.06484490998884 74.17045815892966 55.4656644915741 H 0.0 **** 0.06
14628 H 65.8178121786997 73.69096463178879 57.162268389070405 H 0.0 **** 0.06
14629 H 66.5179016648942 75.28251580659061 56.78006221267428 H 0.0 **** 0.06
14630 H 67.46671956296963 73.80253459762226 56.49940367635439 H 0.0 **** 0.06
14631 C 30.14569288125631 106.03061198027542 74.906610123092 C 0.0 **** -0.24
14632 H 30.01000255257486 106.93371356246963 74.31164361437159 H 0.0 **** 0.06
14633 H 30.884003896546602 106.21678035230836 75.68721674775637 H 0.0 **** 0.06
14634 H 30.492446969301398 105.22110734569385 74.26456626162663 H 0.0 **** 0.06
14635 H 29.196318106602092 105.75084666062982 75.36301386861348 H 0.0 **** 0.06
14636 C 118.15184717232557 18.213342111036212 5.3126531676446405 C 0.0 **** -0.24
14637 H 117.92230099298752 19.047110200687655 5.976011140895622 H 0.0 **** 0.06
14638 H 118.04835569529598 18.535890689143883 4.27577975359668 H 0.0 **** 0.06
14639 H 117.46174408360207 17.393753392178752 5.509041775337408 H 0.0 **** 0.06
14640 H 119.17378408695185 17.87953101147596 5.489987722045356 H 0.0 **** 0.06
14641 C 42.01936399120842 121.43888648231102 138.39935614019046 C 0.0 **** -0.24
14642 H 41.507277579035474 120.59172545792286 137.94271054319753 H 0.0 **** 0.06
14643 H 41.72050324804934 122.3576275189554 137.89495487406845 H 0.0 **** 0.06
14644 H 43.09669658395319 121.30550101730036 138.30406571771567 H 0.0 **** 0.06
14645 H 41.75194853638601 121.49889226967558 139.45352533952138 H 0.0 **** 0.06
14646 C 29.993403915215474 36.08627310330496 20.45585687058199 C 0.0 **** -0.24
14647 H 29.31382552411562 35.73605276151744 21.232253274400826 H 0.0 **** 0.06
14648 H 29.824881007054486 37.149068861687 20.27760214301461 H 0.0 **** 0.06
14649 H 29.810499314823943 35.530101320320284 19.536420445266337 H 0.0 **** 0.06
14650 H 31.023032298989577 35.92957126475716 20.777035013376263 H 0.0 **** 0.06
14651 C 124.4447781896247 127.84897289235639 59.72975303756806 C 0.0 **** -0.24
14652 H 124.15123302602363 128.67171469473277 59.079347338048805 H 0.0 **** 0.06
14653 H 123.66556747366248 127.08683993554811 59.72511648820931 H 0.0 **** 0.06
14654 H 124.58442757860091 128.2203109708952 60.74542749117343 H 0.0 **** 0.06
14655 H 125.37846302816551 127.41651085358689 59.369753452101705 H 0.0 **** 0.06
14656 C 77.69353520967843 21.070393935313547 14.812989778642219 C 0.0 **** -0.24
14657 H 78.39697392508099 21.88976574965679 14.663854606777136 H 0.0 **** 0.06
14658 H 76.7699706636915 21.45930685897909 15.242302912271583 H 0.0 **** 0.06
14659 H 78.129817466809 20.33765902167943 15.493244797891208 H 0.0 **** 0.06
14660 H 77.47919033795435 20.596294087251835 13.856246856331829 H 0.0 **** 0.06
14661 C 48.809818364966816 74.11340799689569 60.500978477082356 C 0.0 **** -0.24
14662 H 49.011593067486444 74.0752277128004 59.43078097347241 H 0.0 **** 0.06
14663 H 47.823417746700784 73.69295630520973 60.69985462800551 H 0.0 **** 0.06
14664 H 48.8380198344459 75.14989310845239 60.83935671074299 H 0.0 **** 0.06
14665 H 49.5651518569091 73.53643068857814 61.0341285215208 H 0.0 **** 0.06
14666 C 147.38935432309128 4.375072912992692 104.23900757852974 C 0.0 **** -0.24
14667 H 146.87902092667852 3.491465887447447 103.85462240223742 H 0.0 **** 0.06
14668 H 148.01883324205969 4.799202862040119 103.45581436320842 H 0.0 **** 0.06
14669 H 148.0074165917268 4.095215609533739 105.09145603136827 H 0.0 **** 0.06
14670 H 146.6504260933767 5.112795421708796 104.5512319235963 H 0.0 **** 0.06
14671 C 114.85811411558231 133.02091580852698 22.813349285100806 C 0.0 **** -0.24
14672 H 114.4332131747208 132.87283489649235 23.80626656605933 H 0.0 **** 0.06
14673 H 114.91590766528489 132.06355588352125 22.297427500036058 H 0.0 **** 0.06
14674 H 115.8580410886905 133.44578112846105 22.906853449955065 H 0.0 **** 0.06
14675 H 114.2256376035754 133.70384769439016 22.24573585748704 H 0.0 **** 0.06
14676 C 132.33762466646692 15.231134191630872 4.7902352882450145 C 0.0 **** -0.24
14677 H 133.09070765151986 14.820939204494522 4.1184246576555665 H 0.0 **** 0.06
14678 H 132.08632118982942 14.490002958509308 5.550092909251589 H 0.0 **** 0.06
14679 H 131.4430747264543 15.485619989545484 4.221187054217296 H 0.0 **** 0.06
14680 H 132.7290346558507 16.12700391043066 5.271691549895195 H 0.0 **** 0.06
14681 C 145.2539476593397 117.3132597217233 93.26707082975327 C 0.0 **** -0.24
14682 H 144.42410186071163 117.39596112613349 93.96979549555878 H 0.0 **** 0.06
14683 H 146.03457487595625 118.02189246535453 93.542085798411 H 0.0 **** 0.06
14684 H 144.90066307373797 117.53372565921855 92.26018989163887 H 0.0 **** 0.06
14685 H 145.65410552353586 116.29987427024265 93.29720535850966 H 0.0 **** 0.06
14686 C 142.0600858040693 31.706967236390568 61.663867495888155 C 0.0 **** -0.24
14687 H 142.35613464498908 30.811611437009788 61.116491400142536 H 0.0 **** 0.06
14688 H 140.974634534511 31.730875239708297 61.76204816577973 H 0.0 **** 0.06
14689 H 142.3958131986542 32.591596794760136 61.122554137474765 H 0.0 **** 0.06
14690 H 142.51470944128408 31.693472912277343 62.65432634259179 H 0.0 **** 0.06
14691 C 120.77161740422797 129.94999307989454 136.7040400469587 C 0.0 **** -0.24
14692 H 120.40449632046263 130.96979500605605 136.81982704018532 H 0.0 **** 0.06
14693 H 119.92605681393268 129.27102238690702 136.58880284799812 H 0.0 **** 0.06
14694 H 121.34667749833851 129.66845202457273 137.58583423197115 H 0.0 **** 0.06
14695 H 121.40798203138299 129.89226185134547 135.82070111554881 H 0.0 **** 0.06
14696 C 75.56920005407875 143.99394588155997 47.387455004093965 C 0.0 **** -0.24
14697 H 75.98727802821503 144.73525748746187 46.705877112239136 H 0.0 **** 0.06
14698 H 75.10358159648041 143.19402705640275 46.81157149462223 H 0.0 **** 0.06
14699 H 74.82093149916483 144.46765855201292 48.02407421040465 H 0.0 **** 0.06
14700 H 76.36492563477907 143.58139331274577 48.00672361855618 H 0.0 **** 0.06
14701 C 47.43797445769029 132.85853155469061 24.863515676974778 C 0.0 **** -0.24
14702 H 47.95149867568264 132.69765239903037 25.810820916741882 H 0.0 **** 0.06
14703 H 46.65806959376735 133.6085184904373 24.995638673759515 H 0.0 **** 0.06
14704 H 46.9899955799565 131.92283105292344 24.53009709072441 H 0.0 **** 0.06
14705 H 48.15233398135467 133.20512427637132 24.11750602667354 H 0.0 **** 0.06
14706 C 23.040081357973072 101.38051385745501 129.03207947170526 C 0.0 **** -0.24
14707 H 22.83795302572127 101.22999147187437 130.09273994870807 H 0.0 **** 0.06
14708 H 23.19654524911455 100.4151159108919 128.5515565142296 H 0.0 **** 0.06
14709 H 23.932989097841876 101.9946197250386 128.91519391196317 H 0.0 **** 0.06
14710 H 22.19058418701446 101.8832065643185 128.56844154538473 H 0.0 **** 0.06
14711 C 148.0429227889489 103.70066014860711 17.301176542665104 C 0.0 **** -0.24
14712 H 148.88048900952944 103.85558548494558 16.62125784220504 H 0.0 **** 0.06
14713 H 148.40865394824633 103.67952011827336 18.328008719698204 H 0.0 **** 0.06
14714 H 147.55766929994172 102.75248380771032 17.068055996195028 H 0.0 **** 0.06
14715 H 147.32676939835073 104.51430828893209 17.18644857278514 H 0.0 **** 0.06
14716 C 38.42707534856544 25.3113016014876 68.70810656003827 C 0.0 **** -0.24
14717 H 37.57649922768141 24.988328500384426 68.10740851482117 H 0.0 **** 0.06
14718 H 38.61710791657296 26.369836321533597 68.52882360779708 H 0.0 **** 0.06
14719 H 39.30817263670079 24.731958980036325 68.43025188812663 H 0.0 **** 0.06
14720 H 38.2071229399929 25.15461986067905 69.76361317499858 H 0.0 **** 0.06
14721 C 24.822552924840892 11.600264174811002 52.66201673301575 C 0.0 **** -0.24
14722 H 25.382035814108434 12.506715615001838 52.89286118678426 H 0.0 **** 0.06
14723 H 24.31715263521366 11.246596569301857 53.56176910315 H 0.0 **** 0.06
14724 H 25.507884354661513 10.831514777579741 52.304383267206205 H 0.0 **** 0.06
14725 H 24.083536809701286 11.816530835185404 51.89037665776989 H 0.0 **** 0.06
14726 C 94.58634243392865 88.60737275916848 51.98145185893293 C 0.0 **** -0.24
14727 H 95.52498092718864 88.55945916798329 52.53370140244759 H 0.0 **** 0.06
14728 H 94.35244663579877 89.64695364237576 51.75224055498346 H 0.0 **** 0.06
14729 H 93.78680747937878 88.17967378076317 52.586446840432856 H 0.0 **** 0.06
14730 H 94.68279086759932 88.04297738278453 51.053692159430994 H 0.0 **** 0.06
14731 C 53.37344369417005 72.59642765312057 90.09363270631835 C 0.0 **** -0.24
14732 H 53.95088366603929 73.51993600798855 90.04963400041805 H 0.0 **** 0.06
14733 H 52.52057973171233 72.67014324984282 89.42008278488154 H 0.0 **** 0.06
14734 H 53.01985854026714 72.43719946080367 91.1130656177584 H 0.0 **** 0.06
14735 H 54.003576440731564 71.75931522736644 89.79373775875962 H 0.0 **** 0.06
14736 C 80.2803663012199 64.80253553018139 109.33456015786128 C 0.0 **** -0.24
14737 H 80.88658616604515 63.967757719620806 108.98283019750941 H 0.0 **** 0.06
14738 H 79.7548100634757 64.51200287291016 110.24366403674837 H 0.0 **** 0.06
14739 H 79.55697572640659 65.07392771233282 108.5668363929578 H 0.0 **** 0.06
14740 H 80.92550921439542 65.65599369021521 109.54351297589396 H 0.0 **** 0.06
14741 C 117.94309280798156 94.69187722597178 29.87243547311266 C 0.0 **** -0.24
14742 H 118.79375250073927 95.37220666725688 29.915810941350117 H 0.0 **** 0.06
14743 H 117.68893850905685 94.49481691113768 28.830378203783255 H 0.0 **** 0.06
14744 H 117.08926270822163 95.1470213013008 30.37591096654154 H 0.0 **** 0.06
14745 H 118.20078183096057 93.75613477674648 30.3684988961017 H 0.0 **** 0.06
14746 C 108.95502196996522 98.21779986765397 52.966285309086004 C 0.0 **** -0.24
14747 H 108.79128465280549 97.14043024566745 52.96932699600137 H 0.0 **** 0.06
14748 H 108.33665795647148 98.68106365268308 53.73513126005315 H 0.0 **** 0.06
14749 H 108.68775859996894 98.6230885379119 51.990914185086694 H 0.0 **** 0.06
14750 H 110.00557035764471 98.42586024308049 53.169930737122115 H 0.0 **** 0.06
14751 C 15.067446298092428 4.8732693079123806 18.23703298664185 C 0.0 **** -0.24
14752 H 14.00967279639687 4.674601778334363 18.059756431758956 H 0.0 **** 0.06
14753 H 15.653568767013056 4.00292614496999 17.941317366796852 H 0.0 **** 0.06
14754 H 15.226902786316764 5.07588695310352 19.296231840569476 H 0.0 **** 0.06
14755 H 15.377769816749009 5.73741576629493 17.64962112437928 H 0.0 **** 0.06
14756 C 13.734618013479668 20.958637753530276 98.13499397909054 C 0.0 **** -0.24
14757 H 12.808387014647494 20.79267776315111 98.68506024696329 H 0.0 **** 0.06
14758 H 13.948554068389512 22.02725453597374 98.09966620370713 H 0.0 **** 0.06
14759 H 13.628691118480425 20.574873703667876 97.12041666717265 H 0.0 **** 0.06
14760 H 14.552269460760684 20.439694199910406 98.63612591289038 H 0.0 **** 0.06
14761 C 91.9888884359768 20.13195607221158 147.48687453531974 C 0.0 **** -0.24
14762 H 92.73683235225036 20.92267528565546 147.5425206899 H 0.0 **** 0.06
14763 H 91.29574891453709 20.34443720252196 146.67235449821297 H 0.0 **** 0.06
14764 H 91.44070594947377 20.08342296885789 148.4277539024364 H 0.0 **** 0.06
14765 H 92.48226652764609 19.177288831811154 147.30486905072962 H 0.0 **** 0.06
14766 C 123.50260055922118 131.83827935071292 142.45210294291516 C 0.0 **** -0.24
14767 H 124.36497803560016 131.78749284914815 141.78865871612408 H 0.0 **** 0.06
14768 H 122.62671524657938 131.43777424988693 141.94125063219957 H 0.0 **** 0.06
14769 H 123.31924318718549 132.87514509051863 142.73152725706174 H 0.0 **** 0.06
14770 H 123.69995372655697 131.2504735045069 143.34891982595113 H 0.0 **** 0.06
14771 C 78.6480396850317 37.103769344052374 46.984364451589386 C 0.0 **** -0.24
14772 H 78.31761974882852 36.08655733597563 47.19426889358661 H 0.0 **** 0.06
14773 H 79.20820293282985 37.117492985337485 46.04923649597728 H 0.0 **** 0.06
14774 H 79.28676601544899 37.452991016393675 47.79557119326293 H 0.0 **** 0.06
14775 H 77.78068815763795 37.75672784963455 46.89818482753461 H 0.0 **** 0.06
14776 C 119.61995310438668 104.99280129885413 6.978899537244331 C 0.0 **** -0.24
14777 H 119.53004854856111 105.74779668922726 7.760137418536175 H 0.0 **** 0.06
14778 H 119.15401508436095 104.06601891142704 7.313824387108156 H 0.0 **** 0.06
14779 H 120.67373574418873 104.81456219726489 6.766849021792979 H 0.0 **** 0.06
14780 H 119.12121315803397 105.3455513910436 6.075757051765407 H 0.0 **** 0.06
14781 C 146.4867871249679 35.473559944432374 58.69826975456836 C 0.0 **** -0.24
14782 H 147.11361921217915 36.26961985450153 58.29657380788656 H 0.0 **** 0.06
14783 H 146.71330465836536 34.53940869431981 58.18330201707248 H 0.0 **** 0.06
14784 H 145.43779667442573 35.727582892287735 58.54733981991255 H 0.0 **** 0.06
14785 H 146.68275215289623 35.35883843288719 59.7637584310539 H 0.0 **** 0.06
14786 C 27.597598108537234 25.56997062854169 59.78714855395498 C 0.0 **** -0.24
14787 H 26.523338086072023 25.39462809511184 59.74027806660851 H 0.0 **** 0.06
14788 H 27.83768640201059 26.109452067511377 60.70365654234885 H 0.0 **** 0.06
14789 H 27.906652694420707 26.162661669761157 58.92499708843579 H 0.0 **** 0.06
14790 H 28.12215787274146 24.61467184857017 59.77783356336229 H 0.0 **** 0.06
14791 C 116.67907736806107 123.20320180151398 130.26574246885423 C 0.0 **** -0.24
14792 H 115.96403870000215 123.60491691384473 129.54797847852808 H 0.0 **** 0.06
14793 H 116.19276857365945 123.08337984247763 131.23383334089036 H 0.0 **** 0.06
14794 H 117.52076917911059 123.88905483154687 130.36274765160243 H 0.0 **** 0.06
14795 H 117.03821519421977 122.23456368982502 129.9164263419455 H 0.0 **** 0.06
14796 C 12.448229855789663 10.391559652771264 134.26670050563322 C 0.0 **** -0.24
14797 H 11.520981033058689 9.818655278158786 134.26286917002508 H 0.0 **** 0.06
14798 H 12.268315269602283 11.371104678432602 134.71105038219287 H 0.0 **** 0.06
14799 H 12.802862500546468 10.515396164197313 133.24337763564137 H 0.0 **** 0.06
14800 H 13.200470657709303 9.860388340384304 134.8501637082569 H 0.0 **** 0.06
14801 C 81.86421754961938 57.98524663907344 85.41307301707853 C 0.0 **** -0.24
14802 H 82.38667039597868 58.937745467069476 85.31851336331077 H 0.0 **** 0.06
14803 H 82.33121966584345 57.248457238405905 84.75872454455428 H 0.0 **** 0.06
14804 H 80.82005325157152 58.11395135397203 85.12909330606902 H 0.0 **** 0.06
14805 H 81.92069967083289 57.64219450972479 86.44591253656974 H 0.0 **** 0.06
14806 C 105.5653278372987 42.80226242893042 102.38656895840776 C 0.0 **** -0.24
14807 H 105.26017542859671 41.77416835004436 102.58170752136084 H 0.0 **** 0.06
14808 H 106.04980686633746 43.2111616738793 103.27355598320824 H 0.0 **** 0.06
14809 H 104.68856785010064 43.401450334520476 102.14208942869416 H 0.0 **** 0.06
14810 H 106.26342218998502 42.8206889412221 101.54917881565311 H 0.0 **** 0.06
14811 C 91.80837848810725 102.42903209574476 26.040689149491953 C 0.0 **** -0.24
14812 H 92.25267556108369 101.5289391870441 25.61650248262552 H 0.0 **** 0.06
14813 H 91.67955026315099 103.17461438886477 25.25569307401549 H 0.0 **** 0.06
14814 H 92.46501937601067 102.82600026235968 26.815234515440523 H 0.0 **** 0.06
14815 H 90.83903472269083 102.18603062252618 26.47555857893272 H 0.0 **** 0.06
14816 C 133.46147229251483 106.53949510989798 65.50450488828332 C 0.0 **** -0.24
14817 H 133.8762301790688 107.43474830895462 65.96722194088625 H 0.0 **** 0.06
14818 H 134.16310989117076 106.15535406471884 64.76333765951331 H 0.0 **** 0.06
14819 H 132.5173108890466 106.78616884739796 65.01831889945981 H 0.0 **** 0.06
14820 H 133.29035840177298 105.78229843539305 66.26977198021288 H 0.0 **** 0.06
14821 C 124.16961599320754 21.554669611752388 110.41450840087676 C 0.0 **** -0.24
14822 H 124.63815663709059 22.386625024514643 109.88893696644776 H 0.0 **** 0.06
14823 H 123.10829397824753 21.521645577262632 110.16816213991164 H 0.0 **** 0.06
14824 H 124.28980580097382 21.69092582433447 111.48942102569721 H 0.0 **** 0.06
14825 H 124.64337372007785 20.620489130206323 110.11072233101088 H 0.0 **** 0.06
14826 C 65.8438338529752 39.22256383663141 83.58006080822095 C 0.0 **** -0.24
14827 H 65.60070884315479 39.23427852962273 82.51789441109763 H 0.0 **** 0.06
14828 H 65.25884540252326 38.448921541298546 84.07849198138608 H 0.0 **** 0.06
14829 H 65.60920526096453 40.19349519069986 84.01699585371436 H 0.0 **** 0.06
14830 H 66.90561631750967 39.01421594741839 83.70814517729366 H 0.0 **** 0.06
14831 C 86.86497552991602 148.2488376821161 58.220716352796344 C 0.0 **** -0.24
14832 H 86.45340504735987 148.87493340736333 59.01189480096626 H 0.0 **** 0.06
14833 H 86.96299420202172 147.22439232197414 58.58171576524563 H 0.0 **** 0.06
14834 H 87.84599589442371 148.62815115893417 57.93192945547506 H 0.0 **** 0.06
14835 H 86.20025922614047 148.26896221259935 57.357816198316996 H 0.0 **** 0.06
14836 C 76.04169470660977 19.666383314389833 2.2029371203144024 C 0.0 **** -0.24
14837 H 75.52715568222786 19.555251245215487 1.2485992710900007 H 0.0 **** 0.06
14838 H 77.03121261845338 19.212222801532505 2.137050288246172 H 0.0 **** 0.06
14839 H 75.46655320626263 19.172308511248815 2.9858546244016395 H 0.0 **** 0.06
14840 H 76.14349641661978 20.725253562839242 2.438493173509869 H 0.0 **** 0.06
14841 C 61.89800078098446 17.79816508580234 113.52252444606567 C 0.0 **** -0.24
14842 H 61.93360017474029 17.18512650274249 112.62157278921906 H 0.0 **** 0.06
14843 H 62.67404850480986 17.471977090424673 114.21444408016559 H 0.0 **** 0.06
14844 H 60.9212940059559 17.692547166539953 113.99482966242651 H 0.0 **** 0.06
14845 H 62.06148896796603 18.842663678261374 113.25769850870502 H 0.0 **** 0.06
14846 C 73.23977624266703 64.09002633851372 90.09746345712539 C 0.0 **** -0.24
14847 H 73.18261211401749 63.532601865011586 89.16314142476367 H 0.0 **** 0.06
14848 H 72.30417870418961 64.62635933092974 90.25879753498909 H 0.0 **** 0.06
14849 H 74.06327401781725 64.80206717601162 90.04594906258772 H 0.0 **** 0.06
14850 H 73.40962585041196 63.3990311517703 90.92277504853524 H 0.0 **** 0.06
14851 C 48.58893658566332 55.46078280765198 135.3962921279387 C 0.0 **** -0.24
14852 H 47.96768399123246 55.75650720191426 134.55128280473144 H 0.0 **** 0.06
14853 H 49.081752163868316 56.34110875854293 135.80994480925494 H 0.0 **** 0.06
14854 H 49.34168318878035 54.74615858683879 135.0615051723778 H 0.0 **** 0.06
14855 H 47.96458190419597 54.99919307647333 136.16103170527575 H 0.0 **** 0.06
14856 C 33.339279518711095 104.23136827101804 97.95725010274329 C 0.0 **** -0.24
14857 H 34.012761465675425 104.87665113675801 97.3928915399616 H 0.0 **** 0.06
14858 H 32.48067507948443 104.81019626180519 98.295789630663 H 0.0 **** 0.06
14859 H 33.86681948723904 103.8236542167834 98.81928217751188 H 0.0 **** 0.06
14860 H 33.0002234289974 103.4143290329422 97.31952416194032 H 0.0 **** 0.06
14861 C 22.40728667558622 68.68600312644912 127.95408694654276 C 0.0 **** -0.24
14862 H 22.30935868142157 69.77111945299878 127.99494245671791 H 0.0 **** 0.06
14863 H 21.7047732939445 68.23145275342101 128.6532782107069 H 0.0 **** 0.06
14864 H 23.424254892419214 68.4024391412621 128.2247741991092 H 0.0 **** 0.06
14865 H 22.190561202674814 68.33990533127474 126.94373114294632 H 0.0 **** 0.06
14866 C 94.65392680628906 141.77749741336436 63.32341101963084 C 0.0 **** -0.24
14867 H 94.56065448620228 142.07182761587862 64.36897044182223 H 0.0 **** 0.06
14868 H 93.66273175729043 141.7316412648032 62.87007985532216 H 0.0 **** 0.06
14869 H 95.12713382809983 140.79768008664502 63.26289170741077 H 0.0 **** 0.06
14870 H 95.26300467473087 142.50837939080986 62.793441121286975 H 0.0 **** 0.06
14871 C 104.02454253355742 99.72352686957385 90.157845358152 C 0.0 **** -0.24
14872 H 104.06404153593556 98.66844367106611 90.42992950306316 H 0.0 **** 0.06
14873 H 103.23683279283532 100.21624306352058 90.72857264206735 H 0.0 **** 0.06
14874 H 103.81415928925517 99.81623646116063 89.09193525901736 H 0.0 **** 0.06
14875 H 104.98296745234845 100.19146147960564 90.38100299655642 H 0.0 **** 0.06
14876 C 19.744620460208132 89.14738512872651 36.92306796945389 C 0.0 **** -0.24
14877 H 19.56701643733767 89.37194491349152 37.97459218796623 H 0.0 **** 0.06
14878 H 18.833835210976666 88.7456416982588 36.47801857638331 H 0.0 **** 0.06
14879 H 20.545398609692683 88.41233028916866 36.83883471144741 H 0.0 **** 0.06
14880 H 20.033119476572253 90.05975834933321 36.400386484206784 H 0.0 **** 0.06
14881 C 112.24469059119441 116.53660723730256 115.05585528861354 C 0.0 **** -0.24
14882 H 111.34530069963462 117.06920310487492 114.74850059261678 H 0.0 **** 0.06
14883 H 112.08064175037767 115.46274551914105 114.96182070879951 H 0.0 **** 0.06
14884 H 112.47389714540573 116.78040181217445 116.09343953142553 H 0.0 **** 0.06
14885 H 113.07892276935978 116.83407851301995 114.41966032161235 H 0.0 **** 0.06
14886 C 141.3125815020266 54.52655628874868 6.307730795539669 C 0.0 **** -0.24
14887 H 140.2466191962208 54.49847701659411 6.082037647498225 H 0.0 **** 0.06
14888 H 141.5653399158042 53.697828894809504 6.969011802062653 H 0.0 **** 0.06
14889 H 141.55578672845763 55.469913974567476 6.7966162395528045 H 0.0 **** 0.06
14890 H 141.88196768306923 54.439535657000306 5.381706868325978 H 0.0 **** 0.06
14891 C 99.55269391465808 14.317576875195869 54.9575583717353 C 0.0 **** -0.24
14892 H 98.53853620798688 14.695938882271946 55.08682875355183 H 0.0 **** 0.06
14893 H 99.92559639812478 14.607878877041188 53.97556399676225 H 0.0 **** 0.06
14894 H 99.54862064939348 13.23095600832572 55.039283274034005 H 0.0 **** 0.06
14895 H 100.19752565997946 14.737378907836252 55.72971882369356 H 0.0 **** 0.06
14896 C 3.0113371326383174 1.89204194768514 117.35872379712488 C 0.0 **** -0.24
14897 H 3.7429799088085076 1.9891706569641023 118.16033861548827 H 0.0 **** 0.06
14898 H 3.4922218819161515 1.4648670035748559 116.47802353323847 H 0.0 **** 0.06
14899 H 2.610187707535573 2.8751425643949595 117.11304761291775 H 0.0 **** 0.06
14900 H 2.2006393660707033 1.2396806537980076 117.68324707503963 H 0.0 **** 0.06
14901 C 115.40635826365818 126.96726800742044 127.1484155216627 C 0.0 **** -0.24
14902 H 116.1452774205118 126.23265000656602 127.46978662641011 H 0.0 **** 0.06
14903 H 115.12274187336303 127.59169664332285 127.99543505752463 H 0.0 **** 0.06
14904 H 114.52586411391101 126.4529694277283 126.76449955097405 H 0.0 **** 0.06
14905 H 115.83377072894191 127.59172281380523 126.36368418233161 H 0.0 **** 0.06
14906 C 145.80878967688565 141.62454350561663 19.898229720929237 C 0.0 **** -0.24
14907 H 146.86831521397397 141.65345204731014 19.642303078313688 H 0.0 **** 0.06
14908 H 145.31196912038456 140.8631308435468 19.29658481486932 H 0.0 **** 0.06
14909 H 145.36041540947522 142.59724388335286 19.69747625854272 H 0.0 **** 0.06
14910 H 145.69715893710892 141.38312330044812 20.955453613738115 H 0.0 **** 0.06
14911 C 7.145719285458 71.4010755316347 129.24012527522598 C 0.0 **** -0.24
14912 H 7.72832815081847 72.0704934370529 129.87311031930693 H 0.0 **** 0.06
14913 H 6.38882418852819 70.89800395906768 129.84321759566248 H 0.0 **** 0.06
14914 H 7.8063837543055286 70.65855310531553 128.79249440840692 H 0.0 **** 0.06
14915 H 6.6591016270971295 71.97742506913126 128.4530617699045 H 0.0 **** 0.06
14916 C 52.80693751067207 3.2583098283830907 70.655247969262 C 0.0 **** -0.24
14917 H 53.39823949459108 4.023292491668343 71.15994988697452 H 0.0 **** 0.06
14918 H 53.28268341478076 2.2866902248970575 70.78701917765682 H 0.0 **** 0.06
14919 H 52.7434642510555 3.4917673363593167 69.59236404968158 H 0.0 **** 0.06
14920 H 51.80459700255726 3.2335572001951505 71.08370838195867 H 0.0 **** 0.06
14921 C 137.42787922640048 27.21620588463678 2.3038317606355463 C 0.0 **** -0.24
14922 H 138.04070463432737 27.475706457118733 1.440631927126958 H 0.0 **** 0.06
14923 H 137.35325083691095 28.07636169791386 2.9681208643910395 H 0.0 **** 0.06
14924 H 137.8861161614837 26.383137331237684 2.8365391548724688 H 0.0 **** 0.06
14925 H 136.43185107792817 26.92828062381988 1.9673804894404725 H 0.0 **** 0.06
14926 C 146.264317045084 81.62125546043288 24.943961537819234 C 0.0 **** -0.24
14927 H 146.00776709926586 80.85755504814446 24.210863160909767 H 0.0 **** 0.06
14928 H 145.8437472791411 82.5780019444255 24.634333177681356 H 0.0 **** 0.06
14929 H 147.34857270314086 81.7060481236912 25.015329235502577 H 0.0 **** 0.06
14930 H 145.85758290740307 81.3423618145668 25.9161725079452 H 0.0 **** 0.06
14931 C 13.835270568449126 27.407489765216525 40.1260641900826 C 0.0 **** -0.24
14932 H 14.809675288194683 26.94484310619397 40.284295068443825 H 0.0 **** 0.06
14933 H 13.30365786633618 26.873510833065808 39.337734335782244 H 0.0 **** 0.06
14934 H 13.970642899123476 28.44844047630582 39.83329223926481 H 0.0 **** 0.06
14935 H 13.25724235508715 27.361781698786587 41.04919779424037 H 0.0 **** 0.06
14936 C 60.65373475283994 119.2609248512442 134.86898456046933 C 0.0 **** -0.24
14937 H 61.247514255284756 118.81119042461629 134.0736014398872 H 0.0 **** 0.06
14938 H 61.31749768160921 119.69009163975537 135.61987079936856 H 0.0 **** 0.06
14939 H 60.02802414494556 118.49599251305497 135.3312683681058 H 0.0 **** 0.06
14940 H 60.0209001182306 120.04389860774373 134.45281409639696 H 0.0 **** 0.06
14941 C 9.99280722404373 15.094265653205724 134.97621634318682 C 0.0 **** -0.24
14942 H 9.038476037450437 14.567533372402977 135.00272301114586 H 0.0 **** 0.06
14943 H 10.09459499935619 15.61361281460833 134.0236134680894 H 0.0 **** 0.06
14944 H 10.806516255082641 14.378287812174051 135.08927299554202 H 0.0 **** 0.06
14945 H 10.02992981528709 15.818148636831523 135.7909290906981 H 0.0 **** 0.06
14946 C 112.15202364985811 32.052668327486714 76.98087680576128 C 0.0 **** -0.24
14947 H 112.79390987945811 31.171205233705656 76.97834715175486 H 0.0 **** 0.06
14948 H 111.72174218810233 32.18599798519663 77.9741288380946 H 0.0 **** 0.06
14949 H 111.35148314063542 31.920283600323295 76.25263118520499 H 0.0 **** 0.06
14950 H 112.74032177789655 32.931576239824984 76.71842556428547 H 0.0 **** 0.06
14951 C 99.47403933095308 16.202818302873027 62.84057942806062 C 0.0 **** -0.24
14952 H 100.08612319496683 16.980532474050108 62.38401126324071 H 0.0 **** 0.06
14953 H 99.55176157508754 16.27012599285689 63.92581968680372 H 0.0 **** 0.06
14954 H 99.82342014917418 15.224474925601271 62.51041921193611 H 0.0 **** 0.06
14955 H 98.434311541049 16.33663305845704 62.5408574863545 H 0.0 **** 0.06
14956 C 44.22658848112482 144.9250258441245 63.49207957786763 C 0.0 **** -0.24
14957 H 43.46309427669959 144.811808536489 62.72238942785701 H 0.0 **** 0.06
14958 H 45.20646697027067 144.70623490392825 63.065260843904895 H 0.0 **** 0.06
14959 H 44.02277542402081 144.23324210330645 64.30927782224641 H 0.0 **** 0.06
14960 H 44.21449606207031 145.94696805998936 63.869077337783054 H 0.0 **** 0.06
14961 C 42.53820059749137 34.307406095122985 51.9933624916564 C 0.0 **** -0.24
14962 H 41.54246238010532 34.723274715981645 52.14360275409321 H 0.0 **** 0.06
14963 H 42.56248233300886 33.75156157340085 51.05668981404497 H 0.0 **** 0.06
14964 H 42.780161348334246 33.63818838352856 52.819797111218776 H 0.0 **** 0.06
14965 H 43.26811174511246 35.11670196673015 51.956329681402906 H 0.0 **** 0.06
14966 C 22.736220532586856 88.1974217604341 40.32579407787895 C 0.0 **** -0.24
14967 H 22.31397105754553 87.97121162800518 39.34682940496779 H 0.0 **** 0.06
14968 H 23.6516058141236 88.77654601957778 40.201962003959494 H 0.0 **** 0.06
14969 H 22.961363237745445 87.26750142331453 40.84777051913417 H 0.0 **** 0.06
14970 H 22.016613534545314 88.77400574669142 40.90637579617871 H 0.0 **** 0.06
14971 C 142.12584290602229 16.017666374484037 48.50552199238511 C 0.0 **** -0.24
14972 H 143.07073454051624 16.46686962596297 48.81098019659032 H 0.0 **** 0.06
14973 H 141.51057055749686 16.767186768044695 48.00743805126544 H 0.0 **** 0.06
14974 H 141.60160562375273 15.641530468178843 49.38371873269848 H 0.0 **** 0.06
14975 H 142.32186295606041 15.193778067407465 47.81842030714178 H 0.0 **** 0.06
14976 C 75.8201703241665 77.87770027185711 54.61944460453421 C 0.0 **** -0.24
14977 H 76.84570842646701 77.52658753445355 54.735401247032314 H 0.0 **** 0.06
14978 H 75.22700024616279 77.55633032997233 55.47576412086762 H 0.0 **** 0.06
14979 H 75.3948852689191 77.46119145405045 53.705853042135146 H 0.0 **** 0.06
14980 H 75.81293494138066 78.96607432500386 54.559988276526624 H 0.0 **** 0.06
14981 C 83.02383703812428 134.91277399812017 11.661902744008039 C 0.0 **** -0.24
14982 H 83.09590402542159 134.59125756583714 12.701338672489328 H 0.0 **** 0.06
14983 H 82.58496702398662 134.1129393511109 11.064425400133487 H 0.0 **** 0.06
14984 H 84.01851270324636 135.14576042534654 11.283549625272357 H 0.0 **** 0.06
14985 H 82.39382731117252 135.80034891262056 11.599196937070666 H 0.0 **** 0.06
14986 C 6.015001772153909 109.09669633945695 106.46639324378818 C 0.0 **** -0.24
14987 H 6.242457114992732 110.02138778024785 105.93477464193522 H 0.0 **** 0.06
14988 H 6.469003135150899 109.12652902898223 107.45626556436726 H 0.0 **** 0.06
14989 H 6.415042965360129 108.24975460516309 105.90810992874806 H 0.0 **** 0.06
14990 H 4.934152253407433 108.99092243821185 106.56391100498838 H 0.0 **** 0.06
14991 C 54.51866716392799 8.260959335625614 17.973001320247633 C 0.0 **** -0.24
14992 H 54.16967007772543 7.302522569142582 18.35739627892311 H 0.0 **** 0.06
14993 H 55.36715923037691 8.098311964627214 17.308334838311687 H 0.0 **** 0.06
14994 H 54.82412366422548 8.895948982849973 18.804324326148176 H 0.0 **** 0.06
14995 H 53.712269226206104 8.746181225316434 17.421567163222775 H 0.0 **** 0.06
14996 C 32.155999348916616 98.03760135559043 42.10646359474859 C 0.0 **** -0.24
14997 H 32.969898766478956 97.33983191238576 42.30008946709884 H 0.0 **** 0.06
14998 H 32.510864613610494 99.05871010998703 42.2512292407508 H 0.0 **** 0.06
14999 H 31.33393292091212 97.83746650497608 42.7938763699392 H 0.0 **** 0.06
15000 H 31.80853663298104 97.91501741128519 41.080484388396286 H 0.0 **** 0.06
15001 C 2.4907275971252716 138.9131494133566 126.9633295385278 C 0.0 **** -0.24
15002 H 2.9485485587151175 138.4322639024063 126.09814596064847 H 0.0 **** 0.06
15003 H 2.609617188379133 138.27471717460736 127.83834896643451 H 0.0 **** 0.06
15004 H 1.4292634100767998 139.07221417213225 126.76991621448875 H 0.0 **** 0.06
15005 H 2.974292127296536 139.8726271369631 127.14426403664262 H 0.0 **** 0.06
15006 C 77.8354704756634 14.857230758758206 82.58502561014785 C 0.0 **** -0.24
15007 H 78.0903940932705 15.91161726365015 82.68964164639574 H 0.0 **** 0.06
15008 H 78.03616131084402 14.534485289121626 81.5622391597228 H 0.0 **** 0.06
15009 H 76.77805228040776 14.715108315522954 82.80899094103316 H 0.0 **** 0.06
15010 H 78.43646095524956 14.266921509485897 83.27663960150767 H 0.0 **** 0.06
15011 C 23.267621076904703 84.18845667052146 12.15402983273134 C 0.0 **** -0.24
15012 H 23.335084497995894 85.11998509175736 11.591861726871628 H 0.0 **** 0.06
15013 H 24.071645557178698 83.52024364885231 11.846337682193962 H 0.0 **** 0.06
15014 H 22.30624940984785 83.71525523238206 11.957728154950928 H 0.0 **** 0.06
15015 H 23.357928384863328 84.40040191829583 13.21942989263124 H 0.0 **** 0.06
15016 C 123.25405572011587 24.717669412648405 88.62180642266392 C 0.0 **** -0.24
15017 H 122.98134074163661 23.66311081886201 88.64515501111624 H 0.0 **** 0.06
15018 H 123.34631603224457 25.04630196145615 87.586136009951 H 0.0 **** 0.06
15019 H 124.2061412284942 24.858601552585753 89.13407180687342 H 0.0 **** 0.06
15020 H 122.48276240278923 25.30402483972651 89.12168284043601 H 0.0 **** 0.06
15021 C 5.131533108531361 144.30481404843093 101.21365324326877 C 0.0 **** -0.24
15022 H 4.9264972988881475 143.42991604184533 101.83064050457608 H 0.0 **** 0.06
15023 H 6.20111914536227 144.5151012856365 101.22550572695963 H 0.0 **** 0.06
15024 H 4.588577179101762 145.1627640788451 101.6096596485063 H 0.0 **** 0.06
15025 H 4.809598282141188 144.11107463014838 100.19119960928808 H 0.0 **** 0.06
15026 C 87.30741747122771 31.40544165823809 15.739623188187295 C 0.0 **** -0.24
15027 H 88.30080017052708 30.96153267816291 15.674284723484561 H 0.0 **** 0.06
15028 H 87.06639426196327 31.896228867848066 14.795911757529836 H 0.0 **** 0.06
15029 H 87.28986876138251 32.1385455598886 16.545526509876026 H 0.0 **** 0.06
15030 H 86.57412596572712 30.625035114006522 15.940895756098342 H 0.0 **** 0.06
15031 C 112.20796893641327 38.30376511390591 47.58356358211168 C 0.0 **** -0.24
15032 H 111.33888735655066 38.43469657957053 48.227335745305396 H 0.0 **** 0.06
15033 H 112.62540264551004 37.307523561609 47.73572276681122 H 0.0 **** 0.06
15034 H 112.9589132448913 39.05421834905758 47.82977092754274 H 0.0 **** 0.06
15035 H 111.9079703969164 38.416517309026744 46.54170356008848 H 0.0 **** 0.06
15036 C 66.05066940289427 30.629044271677465 25.347536499898155 C 0.0 **** -0.24
15037 H 66.11038276847185 31.70660755858666 25.49567868623228 H 0.0 **** 0.06
15038 H 66.11658220403507 30.405318283581273 24.282043784741518 H 0.0 **** 0.06
15039 H 65.10312820878059 30.259343248281304 25.738975267894943 H 0.0 **** 0.06
15040 H 66.87473576708737 30.14498105038416 25.872279230064805 H 0.0 **** 0.06
15041 C 81.30624870026803 48.864157416438104 118.18040733298326 C 0.0 **** -0.24
15042 H 80.51555204826441 49.252622519305035 118.82238798478832 H 0.0 **** 0.06
15043 H 81.21454017735026 47.780793298458676 118.10718715480763 H 0.0 **** 0.06
15044 H 82.27730882120431 49.11902105474368 118.60621749287358 H 0.0 **** 0.06
15045 H 81.2176974480632 49.30581468811613 117.18737256652267 H 0.0 **** 0.06
15046 C 16.810232431274414 108.08921556857796 17.82043401961569 C 0.0 **** -0.24
15047 H 15.899610772516127 108.0430069023695 17.22297402461816 H 0.0 **** 0.06
15048 H 17.67325612613351 108.18088728528103 17.160052367363548 H 0.0 **** 0.06
15049 H 16.90279009278325 107.18008494894464 18.414015568030756 H 0.0 **** 0.06
15050 H 16.766438573767942 108.9529692463088 18.483416029264802 H 0.0 **** 0.06
15051 C 93.11913199163317 44.921127309305064 55.33561172322953 C 0.0 **** -0.24
15052 H 93.21191393811779 43.83571525385091 55.29425140078678 H 0.0 **** 0.06
15053 H 93.09120738457926 45.321972166144036 54.322049625975694 H 0.0 **** 0.06
15054 H 93.97435048191346 45.33872286670456 55.86745172514213 H 0.0 **** 0.06
15055 H 92.20007234554316 45.18750060005979 55.85791348694508 H 0.0 **** 0.06
15056 C 121.32100848967313 79.41549279001566 90.68660217381733 C 0.0 **** -0.24
15057 H 120.99396532616201 78.56604928670575 90.08617730656565 H 0.0 **** 0.06
15058 H 120.45832883506945 80.02891384011315 90.94826597386597 H 0.0 **** 0.06
15059 H 122.03233105598754 80.0118927416689 90.11466090658996 H 0.0 **** 0.06
15060 H 121.79911565465879 79.05373212755251 91.59727240517546 H 0.0 **** 0.06
15061 C 36.205860119629506 90.8600262065071 145.0345809932993 C 0.0 **** -0.24
15062 H 35.58126073169581 91.57049393308506 145.57574611118895 H 0.0 **** 0.06
15063 H 36.69461106438383 90.19177789836043 145.74383567957642 H 0.0 **** 0.06
15064 H 36.96101305095928 91.40088255267445 144.46466176390635 H 0.0 **** 0.06
15065 H 35.585987000729546 90.27637919757744 144.353488493205 H 0.0 **** 0.06
15066 C 96.36965319668312 59.201577747702785 111.28262332967431 C 0.0 **** -0.24
15067 H 96.82164442936198 58.42553982121194 110.66466495167522 H 0.0 **** 0.06
15068 H 95.48376334425868 58.80192073227708 111.77553194240353 H 0.0 **** 0.06
15069 H 96.0857987441783 60.04620424851092 110.65399287724624 H 0.0 **** 0.06
15070 H 97.08761500816723 59.5318580779342 112.03341639677267 H 0.0 **** 0.06
15071 C 118.11057993198415 144.89510606218138 63.88873870976629 C 0.0 **** -0.24
15072 H 117.84745712122196 144.82387945974304 62.83368154663988 H 0.0 **** 0.06
15073 H 118.66549499223692 145.8170408433777 64.06380165526359 H 0.0 **** 0.06
15074 H 118.72846738503534 144.04050578037652 64.16771362824821 H 0.0 **** 0.06
15075 H 117.20130984778626 144.89695574918807 64.49104679482873 H 0.0 **** 0.06
15076 C 14.43834967781774 20.262219215945663 13.440537084194744 C 0.0 **** -0.24
15077 H 15.173155887540844 20.938427667522063 13.002494296763388 H 0.0 **** 0.06
15078 H 13.917842780056958 19.72786173452178 12.646299018498922 H 0.0 **** 0.06
15079 H 13.719481030299846 20.83696493490217 14.024373281241424 H 0.0 **** 0.06
15080 H 14.944959943890723 19.547635973814806 14.08986546155191 H 0.0 **** 0.06
15081 C 115.43669956752377 17.11995380070411 35.60861197587115 C 0.0 **** -0.24
15082 H 115.42590358577003 16.051622247432675 35.39083995982098 H 0.0 **** 0.06
15083 H 115.60582089210199 17.67592344906714 34.686393880957745 H 0.0 **** 0.06
15084 H 116.23580208332159 17.33852679956766 36.316411713401415 H 0.0 **** 0.06
15085 H 114.47965214870301 17.411819814881483 36.03933334555116 H 0.0 **** 0.06
15086 C 71.20852951880488 125.57224654342473 94.93729806956448 C 0.0 **** -0.24
15087 H 71.41360220723422 126.64250101803445 94.95246454837918 H 0.0 **** 0.06
15088 H 70.88180582141395 125.2508303437538 95.92722726193097 H 0.0 **** 0.06
15089 H 72.11366651737188 125.03279052711433 94.65937239069243 H 0.0 **** 0.06
15090 H 70.42374378239352 125.36326007402276 94.21052061047678 H 0.0 **** 0.06
15091 C 85.05074562193855 75.33555830195868 145.74456012807215 C 0.0 **** -0.24
15092 H 85.44424915866821 76.16768060488069 145.15983800396847 H 0.0 **** 0.06
15093 H 84.44345211124866 75.72226815503458 146.56267903704335 H 0.0 **** 0.06
15094 H 85.87948418733575 74.75370143327338 146.149578036237 H 0.0 **** 0.06
15095 H 84.43853330392275 74.69978147002408 145.10586823136632 H 0.0 **** 0.06
15096 C 49.555424641392904 134.5873852995486 114.81669763709179 C 0.0 **** -0.24
15097 H 50.08984869607741 134.09884760303282 114.00226696891811 H 0.0 **** 0.06
15098 H 49.205917550969446 133.83501033478205 115.52403716398042 H 0.0 **** 0.06
15099 H 48.70168170716164 135.13337642944913 114.41556403803789 H 0.0 **** 0.06
15100 H 50.22432644288128 135.28145748897145 115.32544477997517 H 0.0 **** 0.06
15101 C 130.79177261262544 3.68144139731816 89.71050325146285 C 0.0 **** -0.24
15102 H 130.18537570460802 3.190807080994631 90.4715198231373 H 0.0 **** 0.06
15103 H 131.8342948112355 3.3861819552660606 89.83090186647152 H 0.0 **** 0.06
15104 H 130.704778171493 4.76259788645228 89.8161918501342 H 0.0 **** 0.06
15105 H 130.44261745573033 3.3840157002134426 88.72132068879031 H 0.0 **** 0.06
15106 C 141.2938875336945 47.82969346920686 118.03619791303355 C 0.0 **** -0.24
15107 H 141.11879570230758 48.72095366404247 117.43431622310722 H 0.0 **** 0.06
15108 H 140.814878096858 47.949433957909804 119.0091217237284 H 0.0 **** 0.06
15109 H 142.36585496883123 47.688715861166145 118.1729955778183 H 0.0 **** 0.06
15110 H 140.87446046463444 46.96090254626645 117.52938065746311 H 0.0 **** 0.06
15111 C 7.907391609507442 60.776484752611736 142.09726896004304 C 0.0 **** -0.24
15112 H 8.035489357069423 60.50529480176937 143.14540038169923 H 0.0 **** 0.06
15113 H 6.959651463094616 60.381121437490776 141.7332567235486 H 0.0 **** 0.06
15114 H 8.725663301104134 60.357986051137175 141.5110925642589 H 0.0 **** 0.06
15115 H 7.91013173281479 61.86290373990215 142.0008282279215 H 0.0 **** 0.06
15116 C 79.68621847784041 22.391617103056632 54.11545237937949 C 0.0 **** -0.24
15117 H 79.47292406016885 21.71536728354033 53.28771803117465 H 0.0 **** 0.06
15118 H 78.78860701613718 22.957677166106293 54.362723732737265 H 0.0 **** 0.06
15119 H 80.48192037246591 23.079012610513843 53.826593536374446 H 0.0 **** 0.06
15120 H 80.00354323685391 21.814073241933528 54.98415117545014 H 0.0 **** 0.06
15121 C 97.64623063930549 104.06312131014879 62.00239805990303 C 0.0 **** -0.24
15122 H 98.46292992981213 104.30957129414692 61.32431241839873 H 0.0 **** 0.06
15123 H 96.69707755732333 104.13842263802808 61.47145019613873 H 0.0 **** 0.06
15124 H 97.64896648893607 104.75904599938256 62.84194904978091 H 0.0 **** 0.06
15125 H 97.7765942506762 103.0465830343103 62.373694100885174 H 0.0 **** 0.06
15126 C 85.19519126407846 115.81538748515975 116.6998642928465 C 0.0 **** -0.24
15127 H 84.247606463765 116.348227898138 116.77275180404375 H 0.0 **** 0.06
15128 H 86.01414632503169 116.53547327469705 116.66247927900174 H 0.0 **** 0.06
15129 H 85.20272920577011 115.20991458010754 115.7940546056884 H 0.0 **** 0.06
15130 H 85.31776081564354 115.17072951150946 117.57022415340204 H 0.0 **** 0.06
15131 C 83.0034753095308 20.775924807724266 110.00206084477331 C 0.0 **** -0.24
15132 H 82.04059651286333 20.54494400193846 109.54597446192467 H 0.0 **** 0.06
15133 H 83.74343132955535 20.946128509540983 109.21904403299125 H 0.0 **** 0.06
15134 H 83.32038935695223 19.939313001053392 110.6252716267026 H 0.0 **** 0.06
15135 H 82.9094820895204 21.67218195286813 110.61500038276215 H 0.0 **** 0.06
15136 C 118.67292902385519 33.1034269754049 49.51239964823591 C 0.0 **** -0.24
15137 H 119.32175792014228 33.863918157404754 49.94720502923708 H 0.0 **** 0.06
15138 H 118.92963048578672 32.965275693236975 48.46147666599147 H 0.0 **** 0.06
15139 H 117.63358056524045 33.42312952304212 49.593950754988015 H 0.0 **** 0.06
15140 H 118.80722956111201 32.16281793315328 50.046121918847604 H 0.0 **** 0.06
15141 C 101.8226124551449 57.97449564717817 58.09485389249306 C 0.0 **** -0.24
15142 H 101.1233496541532 58.07968642473804 58.92461345704791 H 0.0 **** 0.06
15143 H 101.67058251291397 58.79005676455739 57.38709723703843 H 0.0 **** 0.06
15144 H 101.65124480006975 57.02184568330557 57.594006965621105 H 0.0 **** 0.06
15145 H 102.84356419807455 58.007423995662464 58.47383635621799 H 0.0 **** 0.06
15146 C 88.64213481581032 16.5449107127734 35.900934228224344 C 0.0 **** -0.24
15147 H 88.51034012708158 17.198621879847167 35.03796875852774 H 0.0 **** 0.06
15148 H 89.21136828584432 15.66340254863482 35.60427089534059 H 0.0 **** 0.06
15149 H 87.66608375693741 16.23850369403297 36.27646389953813 H 0.0 **** 0.06
15150 H 89.18017635386946 17.08038270099658 36.68219313619571 H 0.0 **** 0.06
15151 C 98.94962621181453 76.13074543809863 43.91732949581696 C 0.0 **** -0.24
15152 H 98.63628368133685 77.17140177873232 43.8435171126965 H 0.0 **** 0.06
15153 H 98.07772459633395 75.5016009294152 44.099739166472986 H 0.0 **** 0.06
15154 H 99.65615905797294 76.02165961891451 44.74053610962582 H 0.0 **** 0.06
15155 H 99.42833751161474 75.82831942533284 42.98552559447248 H 0.0 **** 0.06
15156 C 125.31142822507152 101.77994790992281 45.91197003697761 C 0.0 **** -0.24
15157 H 124.92102008598008 102.2656368592874 45.01818920340287 H 0.0 **** 0.06
15158 H 126.18653469614165 102.32422197505264 46.26929334913979 H 0.0 **** 0.06
15159 H 125.59306658237088 100.75454179567194 45.674797987741314 H 0.0 **** 0.06
15160 H 124.54435963158309 101.77636386850084 46.6871864309761 H 0.0 **** 0.06
15161 C 145.79322847227974 148.33446566032245 68.94072617670201 C 0.0 **** -0.24
15162 H 145.20989101674752 149.24521954986943 69.07206242133421 H 0.0 **** 0.06
15163 H 146.7743421384327 148.58707919517008 68.53779952903466 H 0.0 **** 0.06
15164 H 145.27658233174196 147.66803351578372 68.24962309685912 H 0.0 **** 0.06
15165 H 145.91254942527024 147.8369859778379 69.90412693644652 H 0.0 **** 0.06
15166 C 124.61196588938223 123.32751301654696 87.73616455076103 C 0.0 **** -0.24
15167 H 125.62191335434174 123.63012813644445 87.46069464828403 H 0.0 **** 0.06
15168 H 124.22203723229343 122.63911930643553 86.9867566475088 H 0.0 **** 0.06
15169 H 123.9712449979723 124.20706585520122 87.7901088587916 H 0.0 **** 0.06
15170 H 124.63377623497031 122.83377368226718 88.70797589208672 H 0.0 **** 0.06
15171 C 65.82217754916205 112.0101040304499 30.296350510065018 C 0.0 **** -0.24
15172 H 66.15230919167115 111.6923517607998 29.3069193059713 H 0.0 **** 0.06
15173 H 64.96114518182743 112.67160027771422 30.195879143127463 H 0.0 **** 0.06
15174 H 66.63256142096922 112.53978848866359 30.796892045546407 H 0.0 **** 0.06
15175 H 65.54247206465288 111.13568169825805 30.883720837438247 H 0.0 **** 0.06
15176 C 150.32764378633533 58.70699820048942 115.03675501545746 C 0.0 **** -0.24
15177 H 151.06857851007885 59.45758558506762 115.31252087321116 H 0.0 **** 0.06
15178 H 150.8260851191353 57.75400808379557 114.85880118375582 H 0.0 **** 0.06
15179 H 149.81197175595133 59.022142343650344 114.13010404701157 H 0.0 **** 0.06
15180 H 149.60554480637285 58.59581054403391 115.8454946785273 H 0.0 **** 0.06
15181 C 149.02614063410863 71.72923134792491 57.61395397091344 C 0.0 **** -0.24
15182 H 148.9903269732526 72.81627630774258 57.537369724599685 H 0.0 **** 0.06
15183 H 148.1761506662156 71.37898839578914 58.198472033518414 H 0.0 **** 0.06
15184 H 149.9525196877734 71.43086768492998 58.10341122989155 H 0.0 **** 0.06
15185 H 148.98632737948245 71.2935408404807 56.615630792461445 H 0.0 **** 0.06
15186 C 111.90876408144617 84.68847826260932 43.08049260571718 C 0.0 **** -0.24
15187 H 112.78334232955068 84.09517006105823 42.81394477884777 H 0.0 **** 0.06
15188 H 111.16360049627748 84.04699041134835 43.550189343684934 H 0.0 **** 0.06
15189 H 111.48720629006375 85.13795949186539 42.18154815395229 H 0.0 **** 0.06
15190 H 112.20177927747797 85.4749064385194 43.776292372871836 H 0.0 **** 0.06
15191 C 17.246689520324708 44.30929062492919 107.57285166587587 C 0.0 **** -0.24
15192 H 18.229973345857502 44.09502431613333 107.99115817753307 H 0.0 **** 0.06
15193 H 17.198824466983865 43.938598145452204 106.54853944007544 H 0.0 **** 0.06
15194 H 17.076268430747007 45.38638009582667 107.57854795238592 H 0.0 **** 0.06
15195 H 16.4811861778432 43.8179725103019 108.17345105548753 H 0.0 **** 0.06
15196 C 130.47392804755154 79.55614878372234 47.76717832849701 C 0.0 **** -0.24
15197 H 131.43691043532385 80.01113165264712 47.999479858964435 H 0.0 **** 0.06
15198 H 129.68852267381573 80.30852586551424 47.84268083725338 H 0.0 **** 0.06
15199 H 130.27474932753861 78.74994988204332 48.47459880050887 H 0.0 **** 0.06
15200 H 130.49638378557458 79.15324153883068 46.75482119733934 H 0.0 **** 0.06
15201 C 49.445763429630915 55.35833699246703 79.11123253147096 C 0.0 **** -0.24
15202 H 48.78693200332286 55.575614401545664 79.95234143403061 H 0.0 **** 0.06
15203 H 50.42551141837849 55.0625318710897 79.4852935747204 H 0.0 **** 0.06
15204 H 49.546597695477914 56.24867193778391 78.49097000568338 H 0.0 **** 0.06
15205 H 49.02235456651597 54.54800030839161 78.51808258097128 H 0.0 **** 0.06
15206 C 13.399071447941594 78.22517578018933 17.096901708387946 C 0.0 **** -0.24
15207 H 12.953917844301458 77.30654520120774 17.481754520980843 H 0.0 **** 0.06
15208 H 12.654384146404709 79.02182113604964 17.111411415236603 H 0.0 **** 0.06
15209 H 13.738857740477613 78.06237241833433 16.073898854621547 H 0.0 **** 0.06
15210 H 14.246564022720065 78.50686965360467 17.72146905110364 H 0.0 **** 0.06
15211 C 148.39509543741377 133.7794919049648 133.96194033147253 C 0.0 **** -0.24
15212 H 148.2456502918365 133.04437498446939 134.75305774594054 H 0.0 **** 0.06
15213 H 149.2703694518082 134.38798431351015 134.19189231340772 H 0.0 **** 0.06
15214 H 147.51625568079993 134.4194294827362 133.89038600195204 H 0.0 **** 0.06
15215 H 148.54926517574106 133.2655419629669 133.01354399779544 H 0.0 **** 0.06
15216 C 24.078367674005847 66.9223560652068 120.97883637786158 C 0.0 **** -0.24
15217 H 24.786552446471603 67.54568335816862 120.4330902003825 H 0.0 **** 0.06
15218 H 24.178007272389834 65.8867129425231 120.64985028052722 H 0.0 **** 0.06
15219 H 23.063223086293192 67.26871578395384 120.78291567197134 H 0.0 **** 0.06
15220 H 24.28526099057018 66.98619152087377 122.04643631260943 H 0.0 **** 0.06
15221 C 99.43784714404586 21.026386669860756 121.84986437155918 C 0.0 **** -0.24
15222 H 99.92880189250464 21.86609346556608 122.34177942185813 H 0.0 **** 0.06
15223 H 98.3568872674328 21.148366645644103 121.91446385508654 H 0.0 **** 0.06
15224 H 99.72980161571519 20.097423843807547 122.33902295054382 H 0.0 **** 0.06
15225 H 99.73794777421837 20.99477183231383 120.80183162102652 H 0.0 **** 0.06
15226 C 142.32124092101233 138.18230100215794 126.20960558326935 C 0.0 **** -0.24
15227 H 141.5074825444293 138.88898364060537 126.3751183305399 H 0.0 **** 0.06
15228 H 142.21740495151002 137.3409392741841 126.89469974833972 H 0.0 **** 0.06
15229 H 143.27553025246587 138.68020599312308 126.38612763679646 H 0.0 **** 0.06
15230 H 142.28452484912194 137.82241102837975 125.18154303226221 H 0.0 **** 0.06
15231 C 76.93887195639712 31.08523275104062 13.541364832140374 C 0.0 **** -0.24
15232 H 76.54926924602061 30.88012275538827 12.543801233137742 H 0.0 **** 0.06
15233 H 77.8218914278755 31.720806717859887 13.461917374974831 H 0.0 **** 0.06
15234 H 77.20823714889914 30.147357996270898 14.026093401009518 H 0.0 **** 0.06
15235 H 76.17656566806497 31.594614844443583 14.130838739828874 H 0.0 **** 0.06
15236 C 37.90241578596038 107.17193722157283 73.84092449175796 C 0.0 **** -0.24
15237 H 38.22083488852482 106.16619101930182 73.56739511131782 H 0.0 **** 0.06
15238 H 38.43876496423929 107.90106764119456 73.23354250492069 H 0.0 **** 0.06
15239 H 38.11770849396448 107.34624958191556 74.89543563800257 H 0.0 **** 0.06
15240 H 36.82995909594975 107.27163242269715 73.66853231811206 H 0.0 **** 0.06
15241 C 60.06777759677442 103.81840291990592 35.891105581372074 C 0.0 **** -0.24
15242 H 61.12071333415925 103.55527190917074 35.788959133984804 H 0.0 **** 0.06
15243 H 59.93691397391848 104.46201173728925 36.76021134872798 H 0.0 **** 0.06
15244 H 59.47775188382626 102.91107964267569 36.01898285962886 H 0.0 **** 0.06
15245 H 59.73665546226363 104.34397705555885 34.9950322195138 H 0.0 **** 0.06
15246 C 13.856447904404291 78.05810582513138 52.563305713599064 C 0.0 **** -0.24
15247 H 13.42393585710633 77.8818142373153 53.54831083991827 H 0.0 **** 0.06
15248 H 14.913119403996319 78.30548202872481 52.66948891982348 H 0.0 **** 0.06
15249 H 13.336583757004206 78.88601461633161 52.08069841603958 H 0.0 **** 0.06
15250 H 13.753106098121663 77.15933390305221 51.95492918152097 H 0.0 **** 0.06
15251 C 110.88099719782694 40.628855110704464 60.69951639247475 C 0.0 **** -0.24
15252 H 110.65629728629405 41.264610340269485 59.84287951716871 H 0.0 **** 0.06
15253 H 111.63029584147417 39.88989063137673 60.41602474068537 H 0.0 **** 0.06
15254 H 109.97256109775132 40.12052347168145 61.02209237773391 H 0.0 **** 0.06
15255 H 111.26419070928337 41.242074434085154 61.51540504557843 H 0.0 **** 0.06
15256 C 130.70118121678615 127.7558893522764 94.28290770746719 C 0.0 **** -0.24
15257 H 131.46176955097553 127.33846472008193 94.94259743730714 H 0.0 **** 0.06
15258 H 130.9495732799827 127.52019662925954 93.24735188439752 H 0.0 **** 0.06
15259 H 130.66362552503438 128.83788425678233 94.4109197977794 H 0.0 **** 0.06
15260 H 129.7305223626812 127.32695426408313 94.53012124390568 H 0.0 **** 0.06
15261 C 88.08352760959303 1.643429988803561 54.732325813265504 C 0.0 **** -0.24
15262 H 88.79372391769553 1.7562568889101478 55.55170594027473 H 0.0 **** 0.06
15263 H 87.12012437797172 2.060985547251665 55.02750560338205 H 0.0 **** 0.06
15264 H 87.96521466274979 0.5848981517980576 54.49792033324411 H 0.0 **** 0.06
15265 H 88.45538894727233 2.170851462628093 53.85425793743008 H 0.0 **** 0.06
15266 C 114.875250508922 7.462065803712221 79.8846713531499 C 0.0 **** -0.24
15267 H 114.43052690219102 8.424293039746829 80.13592440377714 H 0.0 **** 0.06
15268 H 114.69848925833546 7.24517290446164 78.83051459696293 H 0.0 **** 0.06
15269 H 114.42378296774277 6.682080575682107 80.49728588515983 H 0.0 **** 0.06
15270 H 115.94789449852775 7.497455931198829 80.07312788921809 H 0.0 **** 0.06
15271 C 42.61948657919757 121.00134212593099 143.17662280032118 C 0.0 **** -0.24
15272 H 41.705320091674054 120.61044695342184 142.72901570888357 H 0.0 **** 0.06
15273 H 43.24751033941641 121.43591443965045 142.39787726849914 H 0.0 **** 0.06
15274 H 43.15838792469606 120.19108026367292 143.66792061811543 H 0.0 **** 0.06
15275 H 42.366409219537644 121.7676721541406 143.9092622890289 H 0.0 **** 0.06
15276 C 33.151750520519556 54.11200074398275 13.082294501372132 C 0.0 **** -0.24
15277 H 32.936305063465966 54.68989967581646 13.981201379109166 H 0.0 **** 0.06
15278 H 34.08074001278101 54.469810796543015 12.635395104611348 H 0.0 **** 0.06
15279 H 32.33610140076172 54.23041857935786 12.369843682641545 H 0.0 **** 0.06
15280 H 33.25581820060455 53.05928913873376 13.343119422972734 H 0.0 **** 0.06
15281 C 149.12975333053288 36.10707695842967 41.61853811882162 C 0.0 **** -0.24
15282 H 149.73134723065195 35.646808481087135 40.835484385617974 H 0.0 **** 0.06
15283 H 148.072094835499 35.99495105647088 41.378390659315755 H 0.0 **** 0.06
15284 H 149.37646708223804 37.16635656926928 41.6909226290897 H 0.0 **** 0.06
15285 H 149.34053070438236 35.619230342628896 42.570783413749496 H 0.0 **** 0.06
15286 C 106.3418449519677 97.8186449725383 58.731955659630586 C 0.0 **** -0.24
15287 H 107.20864738832974 97.90073879229405 59.3880354110988 H 0.0 **** 0.06
15288 H 105.88638546183692 96.8360134805005 58.852609991273226 H 0.0 **** 0.06
15289 H 106.65648931283631 97.95001012589796 57.69597754315808 H 0.0 **** 0.06
15290 H 105.6158165176095 98.5906427910947 58.99132729915121 H 0.0 **** 0.06
15291 C 110.70368476912944 17.32195748111056 56.33580321194262 C 0.0 **** -0.24
15292 H 111.27963189865903 18.1965503565103 56.03464268740265 H 0.0 **** 0.06
15293 H 111.17630095360744 16.85552032195099 57.200530812798945 H 0.0 **** 0.06
15294 H 110.66799298368079 16.609247163686888 55.511686354684855 H 0.0 **** 0.06
15295 H 109.68920998638868 17.627501172211538 56.59568111226497 H 0.0 **** 0.06
15296 C 127.8980364358581 19.56351992346623 109.17360492574741 C 0.0 **** -0.24
15297 H 128.84506170789018 20.0745941749301 109.34816363438674 H 0.0 **** 0.06
15298 H 127.95688966164423 18.547708756558535 109.56457354083975 H 0.0 **** 0.06
15299 H 127.69557948025948 19.53082093357449 108.10316275839975 H 0.0 **** 0.06
15300 H 127.09722721980206 20.102724224748243 109.67829864994147 H 0.0 **** 0.06
15301 C 50.36027814928116 124.9958570621373 4.962085554568716 C 0.0 **** -0.24
15302 H 50.46676456961353 125.035804786884 6.0459634496766945 H 0.0 **** 0.06
15303 H 49.72878398421068 124.14840466074332 4.691255143934836 H 0.0 **** 0.06
15304 H 51.34199279312867 124.87915858284146 4.504699228670443 H 0.0 **** 0.06
15305 H 49.90089092162066 125.9185085903377 4.60761127964874 H 0.0 **** 0.06
15306 C 71.35103180206998 146.16427341937472 19.52591890567855 C 0.0 **** -0.24
15307 H 71.46274944846535 147.08785355341922 18.95777509179755 H 0.0 **** 0.06
15308 H 71.30736570570411 146.39563254561003 20.590195049815 H 0.0 **** 0.06
15309 H 72.20105807535685 145.51171212305806 19.329683005374932 H 0.0 **** 0.06
15310 H 70.43093232461638 145.6625738270136 19.22534949019716 H 0.0 **** 0.06
15311 C 40.38621779494946 119.8094247878363 66.53170521183243 C 0.0 **** -0.24
15312 H 40.59695203905321 119.77469841172818 65.46278302346978 H 0.0 **** 0.06
15313 H 40.835069709708264 120.70544192437431 66.96143857760632 H 0.0 **** 0.06
15314 H 40.80422846498837 118.92607119998594 67.01376120177956 H 0.0 **** 0.06
15315 H 39.30788061037718 119.83205996460812 66.68848544512468 H 0.0 **** 0.06
15316 C 64.84904532158582 94.68750527774988 98.21040341979568 C 0.0 **** -0.24
15317 H 65.70598241343436 95.26135848461745 98.564020193869 H 0.0 **** 0.06
15318 H 65.08724834066459 93.6238292234229 98.23902314147722 H 0.0 **** 0.06
15319 H 64.61390654049784 94.98071464318276 97.1868788557361 H 0.0 **** 0.06
15320 H 63.98949905860417 94.88494444165048 98.85063733592995 H 0.0 **** 0.06
15321 C 12.322689310284595 136.55070886381188 60.043857654927194 C 0.0 **** -0.24
15322 H 12.445593700673754 137.55877345581231 60.440742775637005 H 0.0 **** 0.06
15323 H 11.290670168728454 136.22903128878264 60.18344458133244 H 0.0 **** 0.06
15324 H 12.990149096780925 135.8696974344849 60.57169128625452 H 0.0 **** 0.06
15325 H 12.565122837411742 136.54643762261546 58.9813336729877 H 0.0 **** 0.06
15326 C 61.65652594642029 127.37370005801745 47.4551424491744 C 0.0 **** -0.24
15327 H 60.89166565067839 127.53263748925794 48.21504974027174 H 0.0 **** 0.06
15328 H 62.59859373441708 127.80738343984932 47.79169039187545 H 0.0 **** 0.06
15329 H 61.347888227672314 127.85168007696991 46.524776183825765 H 0.0 **** 0.06
15330 H 61.78613578807315 126.30460722467082 47.288411329165314 H 0.0 **** 0.06
15331 C 59.1635589930258 87.99507476774036 111.38685871448205 C 0.0 **** -0.24
15332 H 58.81683561579486 87.6456757939245 110.41432041632301 H 0.0 **** 0.06
15333 H 58.307728867863915 88.29157851025387 111.99295177401434 H 0.0 **** 0.06
15334 H 59.82611529989653 88.84955287513726 111.24957148733439 H 0.0 **** 0.06
15335 H 59.70505154023333 87.19326193204547 111.88974788213527 H 0.0 **** 0.06
15336 C 118.63988159723495 142.0325148743716 137.07002973619933 C 0.0 **** -0.24
15337 H 119.49425914509227 141.86706071954302 136.41391130024772 H 0.0 **** 0.06
15338 H 118.7617882401476 142.98185209541387 137.59246741601564 H 0.0 **** 0.06
15339 H 118.57835395483907 141.22238467309236 137.7967400592463 H 0.0 **** 0.06
15340 H 117.72512504886085 142.058762009437 136.4770001692875 H 0.0 **** 0.06
15341 C 139.80654830617533 52.565894158931656 135.96918781559506 C 0.0 **** -0.24
15342 H 139.50617145816335 51.52131283124356 135.88211822268192 H 0.0 **** 0.06
15343 H 140.5440658114802 52.79737209690467 135.20052443892973 H 0.0 **** 0.06
15344 H 140.24147041613412 52.7381290507372 136.95374070211207 H 0.0 **** 0.06
15345 H 138.93412370933007 53.20666443046679 135.8394408239426 H 0.0 **** 0.06
15346 C 62.3980607965195 36.51256316940072 98.96370039704644 C 0.0 **** -0.24
15347 H 62.91282599663833 36.349034409952594 99.91039602498901 H 0.0 **** 0.06
15348 H 63.128814468157145 36.737751196310484 98.18695725716816 H 0.0 **** 0.06
15349 H 61.70661232358374 37.349153908892944 99.06642061632145 H 0.0 **** 0.06
15350 H 61.842253981638834 35.61455074895272 98.69241642831527 H 0.0 **** 0.06
15351 C 143.15736626913787 138.68426496381232 137.74143908839977 C 0.0 **** -0.24
15352 H 142.22733357639245 139.16686118097755 137.44109834207114 H 0.0 **** 0.06
15353 H 143.9455252050369 139.43362693592962 137.82267735156546 H 0.0 **** 0.06
15354 H 143.4376666108241 137.94046165847084 136.99633654218832 H 0.0 **** 0.06
15355 H 143.0177104113477 138.1975502899051 138.70683359920525 H 0.0 **** 0.06
15356 C 65.66161263576068 16.512831071726993 47.74869624340694 C 0.0 **** -0.24
15357 H 64.60820367375236 16.402766042377976 48.00839563304862 H 0.0 **** 0.06
15358 H 66.06367649515751 15.544966705896655 47.44887343969049 H 0.0 **** 0.06
15359 H 66.2119177892455 16.883483551800794 48.61358378877701 H 0.0 **** 0.06
15360 H 65.75990880285877 17.218631409650385 46.924472247291334 H 0.0 **** 0.06
15361 C 59.17281798238969 10.304363654101337 40.44791984521146 C 0.0 **** -0.24
15362 H 59.97269922662436 11.020720822388654 40.25826775027852 H 0.0 **** 0.06
15363 H 59.08670449474441 9.624419227289621 39.5994231832487 H 0.0 **** 0.06
15364 H 58.23205225889457 10.83842125947146 40.58292290177354 H 0.0 **** 0.06
15365 H 59.40078919398496 9.735865195121903 41.34902476568837 H 0.0 **** 0.06
15366 C 147.4968352654871 93.79363643356177 105.50430377677638 C 0.0 **** -0.24
15367 H 146.69432940288394 93.8606685884262 106.23855815872567 H 0.0 **** 0.06
15368 H 147.07648691197213 93.54861499689164 104.52816634036454 H 0.0 **** 0.06
15369 H 148.19941782740977 93.01607927408708 105.80423725918489 H 0.0 **** 0.06
15370 H 148.01689257513448 94.750299871561 105.44709385340853 H 0.0 **** 0.06
15371 C 79.68102588160697 18.26088579172253 36.18817599618245 C 0.0 **** -0.24
15372 H 79.49984190547718 19.05351576900611 36.9134894011668 H 0.0 **** 0.06
15373 H 79.92712099364998 18.701222541571582 35.222274758250336 H 0.0 **** 0.06
15374 H 78.78538098545542 17.64632534950161 36.09064029393065 H 0.0 **** 0.06
15375 H 80.51079049277284 17.641054121737483 36.52772403496937 H 0.0 **** 0.06
15376 C 103.05246301470176 26.386295217600576 114.30109421527244 C 0.0 **** -0.24
15377 H 103.77338195632494 27.156147060354044 114.02421962562711 H 0.0 **** 0.06
15378 H 102.646396350026 26.60685494495067 115.2890349056364 H 0.0 **** 0.06
15379 H 103.54777004577865 25.41614459921766 114.31983351332259 H 0.0 **** 0.06
15380 H 102.24250590713473 26.36847543784333 113.57129256114031 H 0.0 **** 0.06
15381 C 10.921072268115537 63.75702534754696 10.05955084466737 C 0.0 **** -0.24
15382 H 11.848371806512233 63.844076945195155 9.494532244878712 H 0.0 **** 0.06
15383 H 10.163910171167636 63.270834931577 9.443703499266093 H 0.0 **** 0.06
15384 H 10.573871478370634 64.7508680624023 10.344369735671506 H 0.0 **** 0.06
15385 H 11.09605204876329 63.16245378182754 10.956398784246346 H 0.0 **** 0.06
15386 C 9.190396435712188 42.9445806383641 10.335827063281272 C 0.0 **** -0.24
15387 H 9.519587908510601 42.86477991842436 11.37211530613601 H 0.0 **** 0.06
15388 H 9.54396613611388 42.07855910117591 9.774912895456652 H 0.0 **** 0.06
15389 H 9.597623156452045 43.85422786521052 9.89413280855613 H 0.0 **** 0.06
15390 H 8.101948460271188 42.97926898720468 10.302794245536639 H 0.0 **** 0.06
15391 C 34.961508672472405 119.15999380471207 16.051648917703687 C 0.0 **** -0.24
15392 H 35.626756621856714 119.00989437721567 15.201134470757268 H 0.0 **** 0.06
15393 H 33.963855905835885 118.80263725631512 15.798868984405544 H 0.0 **** 0.06
15394 H 34.91810026811498 120.22152120707649 16.296190905172693 H 0.0 **** 0.06
15395 H 35.34029522641811 118.60570586256863 16.91006553497482 H 0.0 **** 0.06
15396 C 47.779407599710055 33.731617842299414 95.75605557903314 C 0.0 **** -0.24
15397 H 48.69491277029476 33.290187724558706 95.3601511994218 H 0.0 **** 0.06
15398 H 46.91742191664383 33.28465623548729 95.26028294408867 H 0.0 **** 0.06
15399 H 47.78618272538728 34.806107907019566 95.57617606568064 H 0.0 **** 0.06
15400 H 47.71964143094718 33.54267834248736 96.82841764263898 H 0.0 **** 0.06
15401 C 53.137776566214654 70.97454313484434 31.903942537272428 C 0.0 **** -0.24
15402 H 54.148406301201135 71.30995450340026 32.13558928443865 H 0.0 **** 0.06
15403 H 52.82048839127799 70.23910099642137 32.64336161029007 H 0.0 **** 0.06
15404 H 53.12311670021808 70.52257092532153 30.911745618911084 H 0.0 **** 0.06
15405 H 52.45895900607053 71.82627489471236 31.924120736202156 H 0.0 **** 0.06
15406 C 10.47934120233407 4.2317485418056435 103.89293927997463 C 0.0 **** -0.24
15407 H 10.832064211375666 4.420670235920845 102.87908300185896 H 0.0 **** 0.06
15408 H 9.515476077426626 4.719189358046204 104.03839698515597 H 0.0 **** 0.06
15409 H 11.200109307517835 4.629143257158315 104.60727270896692 H 0.0 **** 0.06
15410 H 10.370475871976737 3.157576886617303 104.04494291254011 H 0.0 **** 0.06
15411 C 133.08660720293886 104.49910189985296 142.44920753010285 C 0.0 **** -0.24
15412 H 133.76119395804685 104.41499824359009 143.30162749268737 H 0.0 **** 0.06
15413 H 132.14745498832866 103.99660643224881 142.67826181458128 H 0.0 **** 0.06
15414 H 133.5456943699968 104.03304381162151 141.5769476256191 H 0.0 **** 0.06
15415 H 132.89499679210863 105.55166656786021 142.24071159992025 H 0.0 **** 0.06
15416 C 88.18346478420096 65.48880198832182 69.40701485549431 C 0.0 **** -0.24
15417 H 88.7666021484477 64.5891207358458 69.21068365804616 H 0.0 **** 0.06
15418 H 88.49090053613753 66.27761934508462 68.72065204304367 H 0.0 **** 0.06
15419 H 88.35122411916132 65.8136500738928 70.43440380355928 H 0.0 **** 0.06
15420 H 87.12443616577963 65.27256467060485 69.26298247719296 H 0.0 **** 0.06
15421 C 67.85053894414165 26.305118494142164 75.55612065776026 C 0.0 **** -0.24
15422 H 67.83716683577177 25.401667531382202 76.16654924660702 H 0.0 **** 0.06
15423 H 68.88103659688255 26.63487357044508 75.41881547652494 H 0.0 **** 0.06
15424 H 67.28229428386305 27.088824593960993 76.05546640786145 H 0.0 **** 0.06
15425 H 67.40308266758069 26.09401244455529 74.58498184562404 H 0.0 **** 0.06
15426 C 86.36029687399841 80.11865478306646 103.46630256010818 C 0.0 **** -0.24
15427 H 86.87438534595051 80.53690894236348 104.33131698883656 H 0.0 **** 0.06
15428 H 85.38651797742145 79.73479452347812 103.77253693424453 H 0.0 **** 0.06
15429 H 86.95572309081106 79.30802369243239 103.04684896267119 H 0.0 **** 0.06
15430 H 86.22404641043175 80.89563547039927 102.71408031479339 H 0.0 **** 0.06
15431 C 30.4648796679476 132.9522944442583 129.85406975140995 C 0.0 **** -0.24
15432 H 31.4619208343604 133.32074919038075 130.09832893309556 H 0.0 **** 0.06
15433 H 29.74251022441402 133.76168735652885 129.96124249023413 H 0.0 **** 0.06
15434 H 30.203331297503524 132.13803719615822 130.52914754896884 H 0.0 **** 0.06
15435 H 30.45412355185374 132.58934056716015 128.8261488953606 H 0.0 **** 0.06
15436 C 81.56134655756378 14.774396335510964 99.89482165725134 C 0.0 **** -0.24
15437 H 80.71396279153817 15.432506150785265 100.09047890120125 H 0.0 **** 0.06
15438 H 81.94314894984437 14.383973915604209 100.83789680396374 H 0.0 **** 0.06
15439 H 82.34689017601265 15.33643009373364 99.38887324817824 H 0.0 **** 0.06
15440 H 81.2397252542138 13.947761827985367 99.26118878445148 H 0.0 **** 0.06
15441 C 17.93604951616353 120.12371802598831 22.91944786609374 C 0.0 **** -0.24
15442 H 17.436048629592 119.6151942434244 23.74427038637127 H 0.0 **** 0.06
15443 H 18.41092614573204 119.38620005332861 22.272152012202106 H 0.0 **** 0.06
15444 H 18.692750029287403 120.79986668778126 23.317517971785584 H 0.0 **** 0.06
15445 H 17.20437542431089 120.69373864106414 22.34745312708194 H 0.0 **** 0.06
15446 C 76.82803852032299 116.53977428222164 93.57598760438087 C 0.0 **** -0.24
15447 H 76.75555988453512 117.62598876157868 93.60589344456935 H 0.0 **** 0.06
15448 H 75.85727194036367 116.10350657032068 93.81112418376871 H 0.0 **** 0.06
15449 H 77.56419245829484 116.20429653387474 94.30730736164628 H 0.0 **** 0.06
15450 H 77.13691654568792 116.22365021326526 92.57936358281772 H 0.0 **** 0.06
15451 C 21.111282225481034 30.564209383979545 79.31403521363298 C 0.0 **** -0.24
15452 H 21.30485843936117 30.230653740128943 80.33335574835304 H 0.0 **** 0.06
15453 H 20.05632528699249 30.420575178153932 79.07990583325386 H 0.0 **** 0.06
15454 H 21.71933140125276 29.984428542288896 78.61944550216988 H 0.0 **** 0.06
15455 H 21.363261537752066 31.620874344989005 79.22371316012647 H 0.0 **** 0.06
15456 C 132.48565820409544 78.29661402580861 51.458046856460015 C 0.0 **** -0.24
15457 H 132.17284484895848 79.03477629205149 52.19602499272327 H 0.0 **** 0.06
15458 H 132.1653066340563 78.61751203858218 50.46600457867699 H 0.0 **** 0.06
15459 H 132.0311635021417 77.33351564711083 51.693203423137334 H 0.0 **** 0.06
15460 H 133.57108923609061 78.20082937285045 51.4770005843162 H 0.0 **** 0.06
15461 C 12.205030058593621 130.8216161421332 149.14716344130042 C 0.0 **** -0.24
15462 H 11.394106059978526 130.38308387165517 148.56578560132692 H 0.0 **** 0.06
15463 H 13.140588346950125 130.72294593397686 148.59730224485838 H 0.0 **** 0.06
15464 H 12.287652151725183 130.3043260431433 150.10288725951125 H 0.0 **** 0.06
15465 H 11.99647172924871 131.8776133558735 149.32288151892635 H 0.0 **** 0.06
15466 C 12.84487811723946 132.3690171477808 91.59440413993929 C 0.0 **** -0.24
15467 H 12.241059201247026 131.46945681438115 91.47971165911184 H 0.0 **** 0.06
15468 H 13.870804521154213 132.15980196737243 91.29233049774797 H 0.0 **** 0.06
15469 H 12.830079105287695 132.68563322967685 92.63772564451222 H 0.0 **** 0.06
15470 H 12.435829618254928 133.16251849226225 90.96826321413533 H 0.0 **** 0.06
15471 C 25.39353684931504 130.5367515865391 145.67866044441539 C 0.0 **** -0.24
15472 H 26.374071966221237 130.89971913669737 145.3713838461503 H 0.0 **** 0.06
15473 H 24.858860244333584 130.15505382606133 144.80892414635287 H 0.0 **** 0.06
15474 H 24.827442605816913 131.35468289986832 146.12448906932423 H 0.0 **** 0.06
15475 H 25.515196719192744 129.73766234587245 146.41082421913094 H 0.0 **** 0.06
15476 C 16.776045651648815 63.50174436987675 138.29418806030338 C 0.0 **** -0.24
15477 H 17.42364548805753 62.885386049537175 137.67035926241175 H 0.0 **** 0.06
15478 H 15.997939467324187 62.87917041125077 138.73617100840238 H 0.0 **** 0.06
15479 H 16.317712149013687 64.27926015685058 137.68422655985626 H 0.0 **** 0.06
15480 H 17.36639804916379 63.96238046038097 139.0863167903838 H 0.0 **** 0.06
15481 C 55.50463976956375 98.3966891389982 22.472512592969593 C 0.0 **** -0.24
15482 H 54.693753192288455 99.12164467781139 22.405245277997352 H 0.0 **** 0.06
15483 H 56.36862933282302 98.76488318815329 21.918458720103303 H 0.0 **** 0.06
15484 H 55.17917180340743 97.44668924915835 22.04737927860421 H 0.0 **** 0.06
15485 H 55.77724867154117 98.25236769428814 23.517715048088263 H 0.0 **** 0.06
15486 C 60.342074360153035 24.022414168698447 42.28860946594321 C 0.0 **** -0.24
15487 H 59.63939876248109 24.264745214344984 43.085985261376806 H 0.0 **** 0.06
15488 H 60.107790603618554 23.037408057619103 41.88565593995 H 0.0 **** 0.06
15489 H 61.35700525959403 24.02181342524014 42.68686995092915 H 0.0 **** 0.06
15490 H 60.263445160514166 24.767697753827747 41.49716628598637 H 0.0 **** 0.06
15491 C 47.210451977968816 78.69031185317948 101.6548300712693 C 0.0 **** -0.24
15492 H 47.152437418714484 78.3959037606225 100.60716091873381 H 0.0 **** 0.06
15493 H 47.56256921821998 77.84751222858878 102.24968444615533 H 0.0 **** 0.06
15494 H 46.22286167014087 78.99294776199694 102.00323555608269 H 0.0 **** 0.06
15495 H 47.90454823535562 79.52455479210326 101.75996147930437 H 0.0 **** 0.06
15496 C 79.94229144319198 15.12514360144641 2.002604544672778 C 0.0 **** -0.24
15497 H 80.50451587862456 14.265005253668448 1.641273489096875 H 0.0 **** 0.06
15498 H 79.44558070511765 14.867676969359763 2.9387529873135634 H 0.0 **** 0.06
15499 H 79.19533210391452 15.408373004509173 1.2606622596705677 H 0.0 **** 0.06
15500 H 80.62243554997178 15.96003096709157 2.1695193196402727 H 0.0 **** 0.06
15501 C 1.1455270780697333 102.93915769472528 135.21471683026323 C 0.0 **** -0.24
15502 H 0.7492161928047949 103.17544214211739 136.20239888286613 H 0.0 **** 0.06
15503 H 1.470879257612495 101.89888784446345 135.19381002740153 H 0.0 **** 0.06
15504 H 1.99169661188958 103.59083739551136 134.9978939610034 H 0.0 **** 0.06
15505 H 0.36751070027045785 103.091908556477 134.4657293607358 H 0.0 **** 0.06
15506 C 68.79869720561243 19.98746217834514 109.22105790974209 C 0.0 **** -0.24
15507 H 68.06787574352069 20.20199721128131 108.44076294871755 H 0.0 **** 0.06
15508 H 68.44171073078383 19.162156780661263 109.83638799025638 H 0.0 **** 0.06
15509 H 68.93625790021613 20.872363074085058 109.84200309518528 H 0.0 **** 0.06
15510 H 69.74953280239079 19.714945014262412 108.76132907063518 H 0.0 **** 0.06
15511 C 144.4941805222038 43.308947087084505 75.47961150778696 C 0.0 **** -0.24
15512 H 144.5709649975206 43.867954172027254 76.41211335831824 H 0.0 **** 0.06
15513 H 143.95096005661884 42.3801675071998 75.65606129944356 H 0.0 **** 0.06
15514 H 145.49378564073925 43.08042209961059 75.1089628239225 H 0.0 **** 0.06
15515 H 143.96095492070498 43.9068842785007 74.74037740083403 H 0.0 **** 0.06
15516 C 64.05214725545183 1.91116965889276 29.73024755962757 C 0.0 **** -0.24
15517 H 64.65974169203585 1.7316008863341494 28.842581188434934 H 0.0 **** 0.06
15518 H 63.56470849337484 2.8831466340834027 29.645301990873094 H 0.0 **** 0.06
15519 H 64.69006863925108 1.8997782187119014 30.613833444367515 H 0.0 **** 0.06
15520 H 63.296695685107395 1.1309975260036822 29.816744993417274 H 0.0 **** 0.06
15521 C 119.04841477736478 85.41820424351674 123.28648519220633 C 0.0 **** -0.24
15522 H 119.60840989991617 84.69431068721383 122.69394144840334 H 0.0 **** 0.06
15523 H 119.58711336170755 86.36483405329771 123.3061897740908 H 0.0 **** 0.06
15524 H 118.9342026937323 85.04305805378493 124.30335214948815 H 0.0 **** 0.06
15525 H 118.06532336395337 85.56771329975442 122.8416495513697 H 0.0 **** 0.06
15526 C 18.679329967193112 57.55441264454072 64.3297856448616 C 0.0 **** -0.24
15527 H 18.959844575773147 56.511823303602256 64.48073768223395 H 0.0 **** 0.06
15528 H 18.30915412323141 57.68661881701114 63.31326420090386 H 0.0 **** 0.06
15529 H 19.5507390919582 58.190936978389445 64.4851993320867 H 0.0 **** 0.06
15530 H 17.898398167166384 57.82622572524707 65.04032746277508 H 0.0 **** 0.06
15531 C 134.33463195812288 141.90871022561942 21.418074281193327 C 0.0 **** -0.24
15532 H 133.62285487057903 141.46827019861195 20.718995967499637 H 0.0 **** 0.06
15533 H 135.04236229255105 142.5329219221252 20.870486755289363 H 0.0 **** 0.06
15534 H 134.87464251089426 141.1153916371206 21.93535343201276 H 0.0 **** 0.06
15535 H 133.79951812621442 142.51863088217857 22.14519423340363 H 0.0 **** 0.06
15536 C 60.38110696736277 143.97000474941237 87.7095476691747 C 0.0 **** -0.24
15537 H 59.498269494781994 143.83234289330838 88.33414250391138 H 0.0 **** 0.06
15538 H 60.994094194590105 144.77220328283207 88.12052413890703 H 0.0 **** 0.06
15539 H 60.07289213144236 144.23061627702853 86.69702274060234 H 0.0 **** 0.06
15540 H 60.95800060665971 143.04647551275113 87.68750471165362 H 0.0 **** 0.06
15541 C 64.00622706033147 106.86732619634898 87.89728299924955 C 0.0 **** -0.24
15542 H 65.00881030475375 106.46373802452723 87.75407711189958 H 0.0 **** 0.06
15543 H 63.95214106162658 107.86803758057812 87.46703195188147 H 0.0 **** 0.06
15544 H 63.783138366432524 106.91627348371037 88.96258109929101 H 0.0 **** 0.06
15545 H 63.2801676315963 106.21941127740399 87.40396714862233 H 0.0 **** 0.06
15546 C 53.984536829941874 111.86319436479435 38.74471641147152 C 0.0 **** -0.24
15547 H 54.80524323377216 112.49938800785021 38.413172846713934 H 0.0 **** 0.06
15548 H 53.03943782402544 112.39056223064055 38.61044976379441 H 0.0 **** 0.06
15549 H 54.11790493368258 111.61849068023248 39.79912268435429 H 0.0 **** 0.06
15550 H 53.97526658732255 110.94529789957487 38.157114830588675 H 0.0 **** 0.06
15551 C 37.627226993220006 111.75808728357745 0.19744115512721905 C 0.0 **** -0.24
15552 H 36.81976192809975 112.27846540506582 0.7115435049437835 H 0.0 **** 0.06
15553 H 38.57510226806028 112.25171321171987 0.4167137421192493 H 0.0 **** 0.06
15554 H 37.446510246477715 111.77874768134481 -0.8770164143846912 H 0.0 **** 0.06
15555 H 37.66844652885533 110.72422537187404 0.5392465901497125 H 0.0 **** 0.06
15556 C 56.221685514554736 81.45906607940323 150.3630420473861 C 0.0 **** -0.24
15557 H 55.2824273728135 81.1177267861002 150.79675055183154 H 0.0 **** 0.06
15558 H 56.30331905969787 81.09436499026575 149.33890407855017 H 0.0 **** 0.06
15559 H 57.05550252279811 81.0770511690984 150.95299402001706 H 0.0 **** 0.06
15560 H 56.246371899060165 82.5492293399985 150.3626338707695 H 0.0 **** 0.06
15561 C 138.73250821422968 58.89077652794987 49.13433592330597 C 0.0 **** -0.24
15562 H 139.3661328470246 59.59068627755346 49.679135568075964 H 0.0 **** 0.06
15563 H 137.69712375039344 59.01356429092533 49.45301865154876 H 0.0 **** 0.06
15564 H 139.05728198780267 57.87076459647159 49.341370132075454 H 0.0 **** 0.06
15565 H 138.8093539566706 59.08777252269857 48.06519010443334 H 0.0 **** 0.06
15566 C 119.89244777533247 55.901004674341266 90.28375260600195 C 0.0 **** -0.24
15567 H 120.28779709528487 56.367785490837136 89.3816217588191 H 0.0 **** 0.06
15568 H 120.68817555615948 55.80954443435341 91.02327395075712 H 0.0 **** 0.06
15569 H 119.50689075329956 54.91100668185052 90.03988738577385 H 0.0 **** 0.06
15570 H 119.08810836232908 56.51477310622961 90.68889319121291 H 0.0 **** 0.06
15571 C 136.23088703377707 128.96837466944282 106.50162738884895 C 0.0 **** -0.24
15572 H 136.4062964839484 129.99669349085283 106.8179380206657 H 0.0 **** 0.06
15573 H 136.4872481771367 128.86356587104373 105.4473131234101 H 0.0 **** 0.06
15574 H 135.18066275938781 128.71755839199605 106.64808428985306 H 0.0 **** 0.06
15575 H 136.85129318979384 128.29571316232818 107.0954516488198 H 0.0 **** 0.06
15576 C 56.60794789763506 19.561164879235093 147.3357680234215 C 0.0 **** -0.24
15577 H 56.61883056801301 20.62004455189225 147.591173258605 H 0.0 **** 0.06
15578 H 56.76954770990113 18.96853452636998 148.2364273731413 H 0.0 **** 0.06
15579 H 57.39903084291271 19.35207206075063 146.6157809098392 H 0.0 **** 0.06
15580 H 55.643048986325255 19.30291942699762 146.89988059874625 H 0.0 **** 0.06
15581 C 72.83800601052359 142.26801339475153 142.92861358277185 C 0.0 **** -0.24
15582 H 72.53718173593906 143.06058738653368 142.2433912023885 H 0.0 **** 0.06
15583 H 73.88792150632993 142.02668861199058 142.76716628324345 H 0.0 **** 0.06
15584 H 72.22884752991202 141.3829128024731 142.7481355170681 H 0.0 **** 0.06
15585 H 72.69477298455075 142.60351680308352 143.95637731709547 H 0.0 **** 0.06
15586 C 59.944256418409054 15.211097087862925 55.993859689202225 C 0.0 **** -0.24
15587 H 60.072507680795184 16.293041431695485 56.01614228245535 H 0.0 **** 0.06
15588 H 59.34536661462391 14.898707009600116 56.84827402600388 H 0.0 **** 0.06
15589 H 60.92066865185427 14.729180000511235 56.03743185690843 H 0.0 **** 0.06
15590 H 59.43876205774586 14.925482756754093 55.07079228789098 H 0.0 **** 0.06
15591 C 97.25198813551778 113.83505899885255 47.78241034132023 C 0.0 **** -0.24
15592 H 97.17832839327649 113.07610269830478 48.560796512501355 H 0.0 **** 0.06
15593 H 98.28672299494694 113.9142235851716 47.44813314504489 H 0.0 **** 0.06
15594 H 96.92407366478352 114.79553022053425 48.17965032673854 H 0.0 **** 0.06
15595 H 96.61860068522947 113.55409961224377 46.94012850143295 H 0.0 **** 0.06
15596 C 135.19227696867455 33.20660513785339 106.65056529842869 C 0.0 **** -0.24
15597 H 135.73920359409735 34.019710800947564 106.17282798003956 H 0.0 **** 0.06
15598 H 134.23033631999232 33.07502576154195 106.153967290049 H 0.0 **** 0.06
15599 H 135.02945520605243 33.445422348376326 107.70123597638369 H 0.0 **** 0.06
15600 H 135.77106191338675 32.28528914857981 106.57219191473749 H 0.0 **** 0.06
15601 C 135.08956279087133 146.24547368564225 66.79958395896057 C 0.0 **** -0.24
15602 H 135.39295859951469 145.52236348301352 66.0419691942717 H 0.0 **** 0.06
15603 H 134.2035210032785 146.78066503275528 66.45551169683068 H 0.0 **** 0.06
15604 H 135.9000423628509 146.95428978652257 66.9697488429905 H 0.0 **** 0.06
15605 H 134.86136202753391 145.72492408315628 67.72870932266102 H 0.0 **** 0.06
15606 C 1.4261489216184984 60.53137002099011 53.30644746457476 C 0.0 **** -0.24
15607 H 1.4996795486594472 61.55820268989953 53.666786827932896 H 0.0 **** 0.06
15608 H 0.9823135754520571 60.527167477790215 52.310670368395364 H 0.0 **** 0.06
15609 H 0.8003033026392004 59.95317679934513 53.986359480566406 H 0.0 **** 0.06
15610 H 2.421829751965266 60.08982490126772 53.26352802814603 H 0.0 **** 0.06
15611 C 77.7354274847231 26.594501336044317 72.44254071510318 C 0.0 **** -0.24
15612 H 77.5115381837148 27.5006166145275 73.00687946382419 H 0.0 **** 0.06
15613 H 78.81189446257031 26.420005097979242 72.44874030181393 H 0.0 **** 0.06
15614 H 77.39162374328642 26.712744042295412 71.41565752743747 H 0.0 **** 0.06
15615 H 77.22666766905562 25.74651915158259 72.90142867813836 H 0.0 **** 0.06
15616 C 57.71618285872033 44.276734246808616 102.80410696418541 C 0.0 **** -0.24
15617 H 57.97422823400352 43.811782824849544 103.75595583251045 H 0.0 **** 0.06
15618 H 56.95919236371752 45.044319272047474 102.96927098679704 H 0.0 **** 0.06
15619 H 57.324978176966894 43.520613238866886 102.1242096466331 H 0.0 **** 0.06
15620 H 58.60509524016015 44.73190989312485 102.36936183332999 H 0.0 **** 0.06
15621 C 57.62005770694921 51.00665550100982 149.6663045912492 C 0.0 **** -0.24
15622 H 57.44812195318988 52.06886237739204 149.48753324473955 H 0.0 **** 0.06
15623 H 56.67037157569837 50.51702236447328 149.88349150031155 H 0.0 **** 0.06
15624 H 58.2935557254506 50.8862831796893 150.5148453429639 H 0.0 **** 0.06
15625 H 58.06726791228962 50.55745434714905 148.78042718282595 H 0.0 **** 0.06
15626 C 61.46499655268731 123.33597166119618 71.01488447813816 C 0.0 **** -0.24
15627 H 62.43308235922834 122.8440403536493 71.11748078630642 H 0.0 **** 0.06
15628 H 61.279636747524606 123.55629053382724 69.96332095557375 H 0.0 **** 0.06
15629 H 61.46748589521039 124.2647732229337 71.58537457188454 H 0.0 **** 0.06
15630 H 60.68196413666986 122.67886839485904 71.39288448576791 H 0.0 **** 0.06
15631 C 61.270563841568176 121.72020800253885 123.54142292725084 C 0.0 **** -0.24
15632 H 61.96357274519143 122.11624307122587 122.79906764101457 H 0.0 **** 0.06
15633 H 60.269757772819176 121.66748390437603 123.11303424992923 H 0.0 **** 0.06
15634 H 61.2587366823401 122.3752485352692 124.41316345103013 H 0.0 **** 0.06
15635 H 61.59255928152122 120.72242108334963 123.84066983212671 H 0.0 **** 0.06
15636 C 15.117575818805165 39.87001714469608 142.32906390129614 C 0.0 **** -0.24
15637 H 14.597154439793883 39.026301756398425 141.87793271597096 H 0.0 **** 0.06
15638 H 15.946911505453386 39.50377522397517 142.93474672500884 H 0.0 **** 0.06
15639 H 14.425492880133277 40.42780631908306 142.9595033566198 H 0.0 **** 0.06
15640 H 15.50157762273858 40.522621584918824 141.54441265601156 H 0.0 **** 0.06
15641 C 43.01469810217543 137.11050100286303 27.546697858982157 C 0.0 **** -0.24
15642 H 42.11261278571156 136.55066254401305 27.794046751997996 H 0.0 **** 0.06
15643 H 43.47801170262851 137.4755747663934 28.46301992002384 H 0.0 **** 0.06
15644 H 42.75546200047154 137.9547635254932 26.908219274274842 H 0.0 **** 0.06
15645 H 43.7129038171132 136.4585622980726 27.021449156497397 H 0.0 **** 0.06
15646 C 109.43629201103008 40.148796871465194 81.83666279643627 C 0.0 **** -0.24
15647 H 109.76964383123473 41.03570147594547 82.37510801511814 H 0.0 **** 0.06
15648 H 109.19926764246023 39.359410002168076 82.54989578762594 H 0.0 **** 0.06
15649 H 110.22838531838661 39.80924778032521 81.16932173753128 H 0.0 **** 0.06
15650 H 108.54788502894948 40.39114899120847 81.2532727238143 H 0.0 **** 0.06
15651 C 94.32792137303616 59.08472630239217 136.75706841695072 C 0.0 **** -0.24
15652 H 94.36728407020513 58.1402979218891 137.29993773777136 H 0.0 **** 0.06
15653 H 93.89061540892403 59.852774143738785 137.39700558903547 H 0.0 **** 0.06
15654 H 93.71631932206023 58.96448490649571 135.8637032244011 H 0.0 **** 0.06
15655 H 95.33626498435606 59.381789094585415 136.47114308852872 H 0.0 **** 0.06
15656 C 63.31230642272733 136.52374627476146 138.0399357126964 C 0.0 **** -0.24
15657 H 63.9842829141716 136.3415258633535 137.20245094961956 H 0.0 **** 0.06
15658 H 63.88292672107028 136.9037960730495 138.88765272348857 H 0.0 **** 0.06
15659 H 62.821636944980696 135.59186813075925 138.3218135063455 H 0.0 **** 0.06
15660 H 62.55970175007734 137.25694903215285 137.7497815982385 H 0.0 **** 0.06
15661 C 26.463172951249902 141.30536480269214 2.579620237440537 C 0.0 **** -0.24
15662 H 26.31315925601055 140.33311566010582 3.0486191352349294 H 0.0 **** 0.06
15663 H 27.05349315075061 141.94033727571764 3.2409375118369894 H 0.0 **** 0.06
15664 H 25.49661237612645 141.7724143007384 2.3935614723725678 H 0.0 **** 0.06
15665 H 26.99198094612555 141.17454560098122 1.634744067025764 H 0.0 **** 0.06
15666 C 94.12507967180704 97.29606706649898 83.84261767157139 C 0.0 **** -0.24
15667 H 94.53530925044936 96.28792768758026 83.89520230246845 H 0.0 **** 0.06
15668 H 94.92266783078594 98.0215202841928 84.00323910818264 H 0.0 **** 0.06
15669 H 93.36146145992006 97.41740266487653 84.61173042605346 H 0.0 **** 0.06
15670 H 93.67899250933152 97.45519306875124 82.86099776810124 H 0.0 **** 0.06
15671 C 80.11739820357106 103.63028189431354 12.070376465770607 C 0.0 **** -0.24
15672 H 79.0294685172191 103.667931853318 12.132352180170528 H 0.0 **** 0.06
15673 H 80.52018759768109 103.25018121460384 13.008887328571575 H 0.0 **** 0.06
15674 H 80.50515166159106 104.63138459518773 11.886506788315558 H 0.0 **** 0.06
15675 H 80.41138514730154 102.97014532454433 11.254246649974448 H 0.0 **** 0.06
15676 C 10.42183131476645 17.57338444575305 54.689326921202806 C 0.0 **** -0.24
15677 H 9.8336284969713 17.390979894590686 53.789142738479725 H 0.0 **** 0.06
15678 H 11.303535950737341 16.932384874910042 54.68316438964851 H 0.0 **** 0.06
15679 H 9.817557477773619 17.352011612678353 55.56937959137073 H 0.0 **** 0.06
15680 H 10.731144248420605 18.61836717851199 54.71426860721024 H 0.0 **** 0.06
15681 C 126.03018928504608 141.82133985641468 116.66702320988134 C 0.0 **** -0.24
15682 H 126.44136356208796 142.49745247173263 117.41623406624655 H 0.0 **** 0.06
15683 H 126.36383891061652 142.13049367137978 115.67617339738013 H 0.0 **** 0.06
15684 H 124.94116296202364 141.8501947401882 116.70971473801484 H 0.0 **** 0.06
15685 H 126.37437892326679 140.8064782835764 116.86717559711684 H 0.0 **** 0.06
15686 C 1.0008322088163482 109.21041621179027 80.77123353591158 C 0.0 **** -0.24
15687 H 1.354255794912035 109.81558910791357 81.60690695846172 H 0.0 **** 0.06
15688 H 0.04040261157012992 109.59524756045774 80.42611129467164 H 0.0 **** 0.06
15689 H 0.8832796682397088 108.17693048536306 81.09463124527899 H 0.0 **** 0.06
15690 H 1.7242403152031898 109.25737501173505 79.95804965850894 H 0.0 **** 0.06
15691 C 39.02624084178987 147.0658185153186 38.475652157161726 C 0.0 **** -0.24
15692 H 39.81361145174 147.50062556620085 37.860354817325685 H 0.0 **** 0.06
15693 H 39.45651299019508 146.68979793888366 39.404077653702885 H 0.0 **** 0.06
15694 H 38.554712944371715 146.24399275469526 37.935358346728236 H 0.0 **** 0.06
15695 H 38.27955350774411 147.82668627602516 38.70183956180176 H 0.0 **** 0.06
15696 C 149.69521358732771 66.42908265543224 58.697378887453 C 0.0 **** -0.24
15697 H 148.66936647531867 66.67160713229899 58.97505508603126 H 0.0 **** 0.06
15698 H 150.33164028946504 67.2978492142008 58.86608931551778 H 0.0 **** 0.06
15699 H 149.73021407411738 66.1511144019999 57.64397483321055 H 0.0 **** 0.06
15700 H 150.04784374144663 65.59551322713224 59.30571391733072 H 0.0 **** 0.06
15701 C 47.86498606868284 19.729189901508533 11.163103504085 C 0.0 **** -0.24
15702 H 48.340731152580844 19.913121532194026 10.198513775033582 H 0.0 **** 0.06
15703 H 47.440489449922154 18.724735071951415 11.171266816170075 H 0.0 **** 0.06
15704 H 47.07311421233223 20.46116324086509 11.322434863339872 H 0.0 **** 0.06
15705 H 48.60770514057185 19.817520931467755 11.956129040357403 H 0.0 **** 0.06
15706 C 85.8728076889081 118.46704030626033 48.092577416762865 C 0.0 **** -0.24
15707 H 86.87938408677996 118.44800555311339 48.50975615374777 H 0.0 **** 0.06
15708 H 85.30145948156394 119.2677068000143 48.56162736493377 H 0.0 **** 0.06
15709 H 85.38342442519831 117.51171910222835 48.28110297584783 H 0.0 **** 0.06
15710 H 85.92915424430726 118.64115804139455 47.01770412615775 H 0.0 **** 0.06
15711 C 95.41744196244422 34.59740445953713 27.175361365791872 C 0.0 **** -0.24
15712 H 94.5133902349392 34.63836461335819 27.783261225239386 H 0.0 **** 0.06
15713 H 95.84837941714473 35.59564365486284 27.09777330855917 H 0.0 **** 0.06
15714 H 95.16822848967807 34.230853248460505 26.17912927978076 H 0.0 **** 0.06
15715 H 96.1375069324674 33.92457072146357 27.640362074107237 H 0.0 **** 0.06
15716 C 135.1126637520264 33.51255225360221 12.574133685639879 C 0.0 **** -0.24
15717 H 135.89900928244998 33.71907645944428 13.3001212481621 H 0.0 **** 0.06
15718 H 135.55043595902188 33.42719293542319 11.579085043589885 H 0.0 **** 0.06
15719 H 134.38776668773266 34.32688205759436 12.583814706326677 H 0.0 **** 0.06
15720 H 134.61432498749647 32.57903670889576 12.83296111658774 H 0.0 **** 0.06
15721 C 94.72273177535746 116.65464236919063 100.42825977140507 C 0.0 **** -0.24
15722 H 93.85981094384644 116.57009581868091 101.08885647549137 H 0.0 **** 0.06
15723 H 94.56180550907501 116.04551283002318 99.53831288774585 H 0.0 **** 0.06
15724 H 95.61481562108969 116.30752676216879 100.94997872405021 H 0.0 **** 0.06
15725 H 94.85605724171177 117.69691889754488 100.13648677048886 H 0.0 **** 0.06
15726 C 79.32145191117334 137.3722908136965 132.08291632486757 C 0.0 **** -0.24
15727 H 78.3022666104453 137.7399700609332 131.96570386123918 H 0.0 **** 0.06
15728 H 79.45443845447966 136.98498183059698 133.09349232195856 H 0.0 **** 0.06
15729 H 80.02452534560604 138.18758734004558 131.91071636984393 H 0.0 **** 0.06
15730 H 79.5049825372477 136.57570995948515 131.36176866860623 H 0.0 **** 0.06
15731 C 147.29285981920336 37.5788438781301 54.747370920196985 C 0.0 **** -0.24
15732 H 146.66154724028206 38.307995295948984 54.24019629823496 H 0.0 **** 0.06
15733 H 147.2318415642078 36.62121593937704 54.22816183945773 H 0.0 **** 0.06
15734 H 146.95323099872664 37.45742439261332 55.77587908731792 H 0.0 **** 0.06
15735 H 148.3255599669101 37.928644011342556 54.74458123808692 H 0.0 **** 0.06
15736 C 16.087289484805886 66.37624106729467 105.14482224969487 C 0.0 **** -0.24
15737 H 17.066175328152916 66.83592593221178 105.00871268882383 H 0.0 **** 0.06
15738 H 16.206322486614987 65.40421775068839 105.62466945683605 H 0.0 **** 0.06
15739 H 15.6084408073718 66.24518523139236 104.17482391525107 H 0.0 **** 0.06
15740 H 15.46844107091919 67.01765664358649 105.77210063616991 H 0.0 **** 0.06
15741 C 112.96958513011892 6.672487531337936 66.66956230240785 C 0.0 **** -0.24
15742 H 112.92718385292018 7.643697493924066 67.1619146156462 H 0.0 **** 0.06
15743 H 113.39545227764457 6.788690966407188 65.67260320428963 H 0.0 **** 0.06
15744 H 111.96292749933723 6.26162004476717 66.58965721384695 H 0.0 **** 0.06
15745 H 113.59262635229565 5.995585857073877 67.25499656805778 H 0.0 **** 0.06
15746 C 141.92188367082656 27.11781973131331 22.791471202130424 C 0.0 **** -0.24
15747 H 142.51071591537604 27.70640915634211 22.08668710375065 H 0.0 **** 0.06
15748 H 141.095343401736 27.722587886527805 23.16529491194143 H 0.0 **** 0.06
15749 H 142.55392358059353 26.81023066749958 23.623946407348853 H 0.0 **** 0.06
15750 H 141.52793616380384 26.235565210951933 22.287405938374263 H 0.0 **** 0.06
15751 C 58.80620937065507 107.47789831655278 67.86917345377759 C 0.0 **** -0.24
15752 H 58.15845124994837 108.34452040093198 68.00103724836953 H 0.0 **** 0.06
15753 H 58.99067966618151 107.01207908382644 68.83687568733552 H 0.0 **** 0.06
15754 H 59.75304600838902 107.79479372421572 67.43151013655103 H 0.0 **** 0.06
15755 H 58.322427731249036 106.75937357813662 67.20675814110416 H 0.0 **** 0.06
15756 C 46.38574250117142 59.75844520264056 52.28814626198269 C 0.0 **** -0.24
15757 H 46.815661114061214 58.874195243411705 52.760379826277614 H 0.0 **** 0.06
15758 H 45.55307359579328 59.46100324013017 51.65126932589365 H 0.0 **** 0.06
15759 H 47.14607680133926 60.25350110585741 51.685325531830046 H 0.0 **** 0.06
15760 H 46.02857782650952 60.4435352815441 53.05717062465092 H 0.0 **** 0.06
15761 C 15.991639963100596 148.26478317321397 95.67788263069117 C 0.0 **** -0.24
15762 H 16.318326344316347 147.29960921078126 95.28976313332042 H 0.0 **** 0.06
15763 H 16.856030640798053 148.8211090455974 96.04118799005558 H 0.0 **** 0.06
15764 H 15.289635950650279 148.1076597562694 96.49792845287915 H 0.0 **** 0.06
15765 H 15.502782553698779 148.82890855316617 94.88424641985873 H 0.0 **** 0.06
15766 C 59.44634056712093 42.05789446586114 100.31883557800796 C 0.0 **** -0.24
15767 H 58.358155986816314 42.08274870149066 100.253367230601 H 0.0 **** 0.06
15768 H 59.74210161431475 41.60967300437149 101.26777732338287 H 0.0 **** 0.06
15769 H 59.83660159655605 43.073758878418644 100.25850066786856 H 0.0 **** 0.06
15770 H 59.84611947409323 41.46488033786345 99.49592393385035 H 0.0 **** 0.06
15771 C 63.102268903457656 90.56413489017709 133.3301615137054 C 0.0 **** -0.24
15772 H 62.979143018936014 91.46037765714586 132.72211348596042 H 0.0 **** 0.06
15773 H 63.20203534392144 90.84809421927838 134.37816116507523 H 0.0 **** 0.06
15774 H 63.9977089563383 90.02937828396323 133.01176709489212 H 0.0 **** 0.06
15775 H 62.23173124171734 89.92058456972605 133.20877124250066 H 0.0 **** 0.06
15776 C 44.28474191954136 33.95426019259247 105.94878212685477 C 0.0 **** -0.24
15777 H 44.821287346380316 33.082320159669365 105.57562124700148 H 0.0 **** 0.06
15778 H 44.798697496801324 34.861484917974565 105.62998521204868 H 0.0 **** 0.06
15779 H 44.25026199631566 33.92077025014896 107.03842385615472 H 0.0 **** 0.06
15780 H 43.269587695268015 33.95292611422141 105.55334242056166 H 0.0 **** 0.06
15781 C 108.71463149457757 96.73492372612003 71.38955216458396 C 0.0 **** -0.24
15782 H 108.57722702308102 96.49044270417642 70.3362471162643 H 0.0 **** 0.06
15783 H 107.79449384120203 96.51948809352706 71.93462256950738 H 0.0 **** 0.06
15784 H 108.95596180044764 97.79331810374077 71.48787056923277 H 0.0 **** 0.06
15785 H 109.52812559436917 96.13658677812617 71.79820566263254 H 0.0 **** 0.06
15786 C 53.94524384344511 133.56240925591806 136.09828232115996 C 0.0 **** -0.24
15787 H 53.43715346271307 134.52153630109143 136.00064553495702 H 0.0 **** 0.06
15788 H 53.590066064037586 132.88255656775965 135.32226128984712 H 0.0 **** 0.06
15789 H 53.733427008592756 133.1371488464511 137.07892530901262 H 0.0 **** 0.06
15790 H 55.01934226494079 133.70801104347686 135.9893275832992 H 0.0 **** 0.06
15791 C 148.83795015861614 22.709934654256855 34.304711498523496 C 0.0 **** -0.24
15792 H 148.5909943512516 23.764836749549552 34.4223672065551 H 0.0 **** 0.06
15793 H 149.81034658360915 22.617163721844726 33.82128185340544 H 0.0 **** 0.06
15794 H 148.07895317715156 22.224840529294873 33.691588568897 H 0.0 **** 0.06
15795 H 148.87273662323565 22.23337187233833 35.28541449820815 H 0.0 **** 0.06
15796 C 54.75210024569533 88.81602920297328 43.318088666148384 C 0.0 **** -0.24
15797 H 55.018775207748774 87.83636167941953 43.715699685778446 H 0.0 **** 0.06
15798 H 55.62469912118955 89.26395447861702 42.842443166839814 H 0.0 **** 0.06
15799 H 54.412219472052 89.45777149841675 44.13089883239016 H 0.0 **** 0.06
15800 H 53.9549017026945 88.70552829112435 42.584279122713525 H 0.0 **** 0.06
15801 C 43.21849097127905 55.87871245200573 126.66117802427479 C 0.0 **** -0.24
15802 H 43.07097024386677 56.65140157808905 125.90632793871734 H 0.0 **** 0.06
15803 H 44.10271975115792 55.29111678034111 126.41120736498013 H 0.0 **** 0.06
15804 H 42.34569523509407 55.22792078354581 126.69033654759684 H 0.0 **** 0.06
15805 H 43.35616326772569 56.34659292815118 127.63598758677838 H 0.0 **** 0.06
15806 C 3.325863269561893 99.6523256570795 2.961765707311173 C 0.0 **** -0.24
15807 H 3.542609270641833 98.59028437568958 3.077307808363628 H 0.0 **** 0.06
15808 H 4.187855239115436 100.23569673074273 3.285348025870775 H 0.0 **** 0.06
15809 H 2.4598006575273246 99.91480167670552 3.5709417461195017 H 0.0 **** 0.06
15810 H 3.1126377884995122 99.8676805381357 1.9151952995727868 H 0.0 **** 0.06
15811 C 71.76314676960533 18.459866010839875 76.97023066359547 C 0.0 **** -0.24
15812 H 72.44200618328642 17.92388199622718 76.30691285375521 H 0.0 **** 0.06
15813 H 70.86357178753534 18.737804006166044 76.42122265047769 H 0.0 **** 0.06
15814 H 72.25380354366335 19.357896795187685 77.34392984535778 H 0.0 **** 0.06
15815 H 71.49360603644455 17.817483029792015 77.80915462861493 H 0.0 **** 0.06
15816 C 34.39912388412267 112.85968907685609 141.50879897500604 C 0.0 **** -0.24
15817 H 34.54538246779373 112.35394699682834 140.5542467933786 H 0.0 **** 0.06
15818 H 35.280954045135786 113.45667046186045 141.74170514155364 H 0.0 **** 0.06
15819 H 34.24399458396911 112.11853515381605 142.29284122263695 H 0.0 **** 0.06
15820 H 33.52616443959204 113.50960369491972 141.44640274245515 H 0.0 **** 0.06
15821 C 94.30647844001666 118.19367085103856 9.890448618059168 C 0.0 **** -0.24
15822 H 95.38430698906403 118.19197859674257 10.05076148016218 H 0.0 **** 0.06
15823 H 93.8948082074325 117.22422239223827 10.173494263065038 H 0.0 **** 0.06
15824 H 94.09613124026586 118.38542055007598 8.837901887407554 H 0.0 **** 0.06
15825 H 93.85034800243558 118.97438160925772 10.500032294171831 H 0.0 **** 0.06
15826 C 18.44388414862553 12.940469266067709 106.12242807317655 C 0.0 **** -0.24
15827 H 18.342070995507186 13.94239385897859 106.5371624543089 H 0.0 **** 0.06
15828 H 17.45637122738313 12.542556747795828 105.88863041574577 H 0.0 **** 0.06
15829 H 18.934254510493105 12.293479561498401 106.84918365948728 H 0.0 **** 0.06
15830 H 19.04278223663144 12.982721416203248 105.21182531854349 H 0.0 **** 0.06
15831 C 112.24786026875438 114.3948002379124 93.35916826520457 C 0.0 **** -0.24
15832 H 111.43879464229093 114.9999286529726 93.76978358827189 H 0.0 **** 0.06
15833 H 111.82935702862068 113.51791421701982 92.86494317835496 H 0.0 **** 0.06
15834 H 112.9088856776857 114.07745341661827 94.16511730519572 H 0.0 **** 0.06
15835 H 112.81173698794066 114.98525410043261 92.63708948737754 H 0.0 **** 0.06
15836 C 50.50886099560596 97.404918720419 22.397120679643223 C 0.0 **** -0.24
15837 H 51.13208714961084 97.34445614443295 21.504182849099095 H 0.0 **** 0.06
15838 H 50.719061228539374 96.55392079427929 23.04482344178078 H 0.0 **** 0.06
15839 H 49.45773535938068 97.39110266354697 22.10775322763709 H 0.0 **** 0.06
15840 H 50.72723470060308 98.33027453171853 22.92936968180186 H 0.0 **** 0.06
15841 C 106.82864038939668 6.070788586940324 60.40165286244658 C 0.0 **** -0.24
15842 H 107.49457006589539 6.4760776462659635 59.63934652326245 H 0.0 **** 0.06
15843 H 106.59954574270513 5.0315233047489585 60.16820959021331 H 0.0 **** 0.06
15844 H 105.90601757787395 6.651580713721444 60.423565663684826 H 0.0 **** 0.06
15845 H 107.31570109895539 6.126830168982963 61.375026213121515 H 0.0 **** 0.06
15846 C 28.731584429857477 88.55811593093854 39.99486028669588 C 0.0 **** -0.24
15847 H 28.858311398011594 88.72281498001934 38.92514819491632 H 0.0 **** 0.06
15848 H 29.552704138268055 89.031113946128 40.53481661601292 H 0.0 **** 0.06
15849 H 28.73034581099705 87.48750358185595 40.19988992574477 H 0.0 **** 0.06
15850 H 27.786123093066394 88.99171488718764 40.319119829231596 H 0.0 **** 0.06
15851 C 114.05973996371762 149.993592498558 148.30451021538886 C 0.0 **** -0.24
15852 H 113.29309321478337 149.2397597783624 148.12283327823437 H 0.0 **** 0.06
15853 H 114.22973994890083 150.08718442102952 149.37770036076853 H 0.0 **** 0.06
15854 H 113.72869673472252 150.9507292566348 147.9029108508786 H 0.0 **** 0.06
15855 H 114.98670113616532 149.6938052717032 147.8149276244386 H 0.0 **** 0.06
15856 C 0.9584790232419778 96.18778601194472 62.85260937977199 C 0.0 **** -0.24
15857 H 1.9330904291200568 96.61651152822293 63.08423730218689 H 0.0 **** 0.06
15858 H 0.609977386316018 95.59995950626947 63.70160648254854 H 0.0 **** 0.06
15859 H 1.0439440119837968 95.54555675226464 61.97652960757959 H 0.0 **** 0.06
15860 H 0.24908668935046308 96.98902758945997 62.647585225213476 H 0.0 **** 0.06
15861 C 130.20190889178383 60.972260587824664 105.10607812614283 C 0.0 **** -0.24
15862 H 129.25235333874042 60.43811256364869 105.14974335229864 H 0.0 **** 0.06
15863 H 130.8550190506968 60.492751067034945 104.3777600771031 H 0.0 **** 0.06
15864 H 130.67412369833113 60.95231475831578 106.08808872201426 H 0.0 **** 0.06
15865 H 130.02349681828852 62.005886915750736 104.81014026335306 H 0.0 **** 0.06
15866 C 17.139186074889324 66.7270584120029 71.77042194290549 C 0.0 **** -0.24
15867 H 16.877892497964865 67.63989653480292 71.23455187101492 H 0.0 **** 0.06
15868 H 17.92734249020728 66.94351009318854 72.49159225521063 H 0.0 **** 0.06
15869 H 17.491020150550554 65.97861677416148 71.0609260982338 H 0.0 **** 0.06
15870 H 16.26076936196796 66.34943775117569 72.29303477347037 H 0.0 **** 0.06
15871 C 142.72539413035665 81.97406449409802 28.187218367933156 C 0.0 **** -0.24
15872 H 142.32018078109485 81.22931032904611 27.50126727210334 H 0.0 **** 0.06
15873 H 143.56836494993775 82.48063003302877 27.716579378884383 H 0.0 **** 0.06
15874 H 143.06029484745739 81.48106405012904 29.100466196769368 H 0.0 **** 0.06
15875 H 141.95186137354042 82.70321875093224 28.430252652568186 H 0.0 **** 0.06
15876 C 144.96412207904137 72.94931304201401 105.24152362861741 C 0.0 **** -0.24
15877 H 144.93583998723025 74.02719318484299 105.08281321897113 H 0.0 **** 0.06
15878 H 145.8984723674808 72.67980922341468 105.73424030713858 H 0.0 **** 0.06
15879 H 144.89960515296823 72.43953972020492 104.27961185805543 H 0.0 **** 0.06
15880 H 144.12351968944546 72.65205283571294 105.86791364143608 H 0.0 **** 0.06
15881 C 105.64010300452784 120.83141377863454 77.36608766032955 C 0.0 **** -0.24
15882 H 106.17586567164156 121.72620253363128 77.68261873941422 H 0.0 **** 0.06
15883 H 105.65840000817249 120.0943537918091 78.16914201297308 H 0.0 **** 0.06
15884 H 106.11974833622796 120.41683903666409 76.47957222716495 H 0.0 **** 0.06
15885 H 104.60701973128928 121.0903478200256 77.13251406518998 H 0.0 **** 0.06
15886 C 89.23249011226494 106.30920848055301 84.29379599979526 C 0.0 **** -0.24
15887 H 89.28662728643107 107.38969963041852 84.16757611223167 H 0.0 **** 0.06
15888 H 89.69397520623593 106.02994104634878 85.24150731079958 H 0.0 **** 0.06
15889 H 89.76042864083465 105.82017261310484 83.4745485716868 H 0.0 **** 0.06
15890 H 88.18825226653718 105.99499620537732 84.29221794973058 H 0.0 **** 0.06
15891 C 57.52274320774113 53.47088535752877 25.275039584583823 C 0.0 **** -0.24
15892 H 58.56896114746429 53.16506673187372 25.261347208652893 H 0.0 **** 0.06
15893 H 57.0424361670043 53.16505420729341 24.344851975470988 H 0.0 **** 0.06
15894 H 57.461169420072636 54.5541344248975 25.378468805015473 H 0.0 **** 0.06
15895 H 57.01808853799095 52.996882517559655 26.117520737656548 H 0.0 **** 0.06
15896 C 74.77970303266027 149.48365771744596 32.89087773675834 C 0.0 **** -0.24
15897 H 75.24120220392018 150.22032296212635 32.23204894653571 H 0.0 **** 0.06
15898 H 75.46425081821658 149.2472309395859 33.70555570711841 H 0.0 **** 0.06
15899 H 74.5597928034568 148.57831808019813 32.32518425738236 H 0.0 **** 0.06
15900 H 73.85481320644584 149.89034592550993 33.29874041008655 H 0.0 **** 0.06
15901 C 29.650309967405455 23.744112157724118 2.2652908545136086 C 0.0 **** -0.24
15902 H 30.44866205702686 24.367645074522784 1.8641860207916103 H 0.0 **** 0.06
15903 H 29.020490477343266 24.340291667711085 2.925874610809032 H 0.0 **** 0.06
15904 H 30.083255810602147 22.915719703538656 2.825348257384654 H 0.0 **** 0.06
15905 H 29.048854569010388 23.352196162482812 1.4441283876943984 H 0.0 **** 0.06
15906 C 115.02945471753556 132.8306557018327 90.05078840792989 C 0.0 **** -0.24
15907 H 114.73825750473536 132.3125212690781 90.96468905358223 H 0.0 **** 0.06
15908 H 115.19242093489724 133.8859574938586 90.26828691900722 H 0.0 **** 0.06
15909 H 114.23859519514859 132.72980491186428 89.30772528434755 H 0.0 **** 0.06
15910 H 115.94994157128728 132.39294188851812 89.66350029565523 H 0.0 **** 0.06
15911 C 110.80123296464862 72.74390722971003 123.93127481467583 C 0.0 **** -0.24
15912 H 110.23408211790533 72.02727257072007 124.52438367992885 H 0.0 **** 0.06
15913 H 110.57962641825534 73.75467355050372 124.27557484500603 H 0.0 **** 0.06
15914 H 110.52297203387965 72.64812849496184 122.88190797699271 H 0.0 **** 0.06
15915 H 111.86725876621907 72.5462596835639 124.0444646037585 H 0.0 **** 0.06
15916 C 120.91045580505869 27.14250972286527 27.369946491608403 C 0.0 **** -0.24
15917 H 119.83069945137271 27.028845926610927 27.279839897876286 H 0.0 **** 0.06
15918 H 121.3167693804171 27.50991756036825 26.427771756734046 H 0.0 **** 0.06
15919 H 121.35910622903015 26.178959134691183 27.60905420874883 H 0.0 **** 0.06
15920 H 121.1349627658683 27.85453345876698 28.1648529955618 H 0.0 **** 0.06
15921 C 95.70700984949782 40.80403688779916 123.11614685161705 C 0.0 **** -0.24
15922 H 95.48214601802228 41.84137329256782 122.86760121110298 H 0.0 **** 0.06
15923 H 96.78284261664099 40.64124586388226 123.05832477496587 H 0.0 **** 0.06
15924 H 95.20005197088418 40.144843456334684 122.41180375621148 H 0.0 **** 0.06
15925 H 95.36043997647668 40.59082142136947 124.1282318465726 H 0.0 **** 0.06
15926 C 21.68635213650859 14.756526007855648 30.352910474600378 C 0.0 **** -0.24
15927 H 22.350833264102903 13.919352301508695 30.14021942409954 H 0.0 **** 0.06
15928 H 21.27025741918837 14.644536155605095 31.35390394454589 H 0.0 **** 0.06
15929 H 20.878001137210617 14.773558568849126 29.622321660858745 H 0.0 **** 0.06
15930 H 22.247674460237278 15.68901293142553 30.295023818677123 H 0.0 **** 0.06
15931 C 31.233064978220575 76.72836261915918 75.2088036321088 C 0.0 **** -0.24
15932 H 31.57434564028256 76.52747825494569 76.22417226199504 H 0.0 **** 0.06
15933 H 30.247032193708208 76.28809599294627 75.06388264460341 H 0.0 **** 0.06
15934 H 31.934824411301513 76.29200564188724 74.4975548754804 H 0.0 **** 0.06
15935 H 31.178190048384536 77.80551160513451 75.0501741910626 H 0.0 **** 0.06
15936 C 27.5808268364433 24.812589190229275 16.73535388074543 C 0.0 **** -0.24
15937 H 27.316605327935058 24.05450169527743 17.473481832740596 H 0.0 **** 0.06
15938 H 28.64045700190087 25.05363247228526 16.82556788873606 H 0.0 **** 0.06
15939 H 26.988043975378147 25.71024435523703 16.908712284356326 H 0.0 **** 0.06
15940 H 27.378729560844626 24.43105637015401 15.734586736826586 H 0.0 **** 0.06
15941 C 34.81576343489468 63.98397708535069 111.90220830951851 C 0.0 **** -0.24
15942 H 34.99453710687578 65.0542407170957 112.0091814111038 H 0.0 **** 0.06
15943 H 35.21871221011139 63.643368573295845 110.94841555961945 H 0.0 **** 0.06
15944 H 33.7440741341955 63.790109020651215 111.93387317109803 H 0.0 **** 0.06
15945 H 35.306472668621666 63.45090702097761 112.71633006044006 H 0.0 **** 0.06
15946 C 71.39437245205983 84.86889813388663 90.38697289115174 C 0.0 **** -0.24
15947 H 70.55576570704562 84.69865592727731 91.0620571804126 H 0.0 **** 0.06
15948 H 71.48045221207047 85.9354047980402 90.17685547966397 H 0.0 **** 0.06
15949 H 71.2263319487285 84.32789751758455 89.45578322004877 H 0.0 **** 0.06
15950 H 72.31278080795829 84.51420150909004 90.85332450850231 H 0.0 **** 0.06
15951 C 56.93336484517046 4.57375125129969 19.94393275221134 C 0.0 **** -0.24
15952 H 56.629658369263694 5.399596996731706 19.300273151526227 H 0.0 **** 0.06
15953 H 57.382388535761635 3.7874215687966917 19.338738758821506 H 0.0 **** 0.06
15954 H 56.05936235023927 4.179456351295947 20.46365450858235 H 0.0 **** 0.06
15955 H 57.659270579717784 4.93075219960248 20.674220816451253 H 0.0 **** 0.06
15956 C 68.66687716548948 26.628100436136805 49.0868225473086 C 0.0 **** -0.24
15957 H 68.81565561872053 27.152492467740075 48.14293619261389 H 0.0 **** 0.06
15958 H 69.60552755050925 26.168922089071458 49.39910164119374 H 0.0 **** 0.06
15959 H 67.91012537750333 25.854083767127122 48.95664791926106 H 0.0 **** 0.06
15960 H 68.33753077806679 27.33521452491442 49.84743089991173 H 0.0 **** 0.06
15961 C 83.58556029241021 45.46686646098445 142.74934517618712 C 0.0 **** -0.24
15962 H 83.23216137290981 46.34452532747946 142.20787162076212 H 0.0 **** 0.06
15963 H 84.07602862823937 45.780680554082224 143.6703435366545 H 0.0 **** 0.06
15964 H 84.29464801151578 44.91899391716821 142.12807647678454 H 0.0 **** 0.06
15965 H 82.73952427369721 44.82302362459123 142.98970103733944 H 0.0 **** 0.06
15966 C 15.811992347854158 124.06573040688562 32.129856230245764 C 0.0 **** -0.24
15967 H 15.842425902873714 125.15007927048083 32.01919523113882 H 0.0 **** 0.06
15968 H 16.690806708782162 123.62767691813929 31.65610422378296 H 0.0 **** 0.06
15969 H 14.911170100606768 123.67753978278324 31.65404448279866 H 0.0 **** 0.06
15970 H 15.802980203443468 123.80859543703343 33.18815335408097 H 0.0 **** 0.06
15971 C 26.077520597019152 121.31362215530504 49.9728961454164 C 0.0 **** -0.24
15972 H 25.280050426850607 120.6503243795845 49.638425129035255 H 0.0 **** 0.06
15973 H 26.762072416524724 120.76269756911825 50.617749915991794 H 0.0 **** 0.06
15974 H 25.646602128244034 122.1473058268113 50.52925697407254 H 0.0 **** 0.06
15975 H 26.619976520225187 121.69543612381017 49.10772323470108 H 0.0 **** 0.06
15976 C 28.250946509497403 69.3401627723662 56.85879120304247 C 0.0 **** -0.24
15977 H 27.41781754373251 70.02959139550003 56.72405529768558 H 0.0 **** 0.06
15978 H 28.2319494343244 68.94045218065722 57.873224580863635 H 0.0 **** 0.06
15979 H 29.189671993242065 69.86811343527762 56.694012532346065 H 0.0 **** 0.06
15980 H 28.16425259004371 68.52164788249038 56.1433479359536 H 0.0 **** 0.06
15981 C 106.22321200864832 52.517847846627404 26.607256372024253 C 0.0 **** -0.24
15982 H 106.11411655810434 53.56547902992618 26.327155386043756 H 0.0 **** 0.06
15983 H 107.04992312776596 52.07677635417207 26.049228420300608 H 0.0 **** 0.06
15984 H 105.30198848246016 51.983241594457766 26.37669870953227 H 0.0 **** 0.06
15985 H 106.42576524335516 52.44782322807379 27.676352369910596 H 0.0 **** 0.06
15986 C 133.75893913332132 134.15582474071604 148.85185705680857 C 0.0 **** -0.24
15987 H 133.28869706707388 133.71052922922703 147.97539098662025 H 0.0 **** 0.06
15988 H 134.84288616372322 134.0933845433664 148.7533961176381 H 0.0 **** 0.06
15989 H 133.44325688540727 133.61627989293757 149.74577462757875 H 0.0 **** 0.06
15990 H 133.4604590276095 135.2007439701197 148.93333033617415 H 0.0 **** 0.06
15991 C 103.60339436366921 75.43255920626062 3.2324284739534335 C 0.0 **** -0.24
15992 H 103.04908164626254 74.69349823973712 2.65268125587383 H 0.0 **** 0.06
15993 H 104.2365602256274 74.92266837196878 3.959300438837289 H 0.0 **** 0.06
15994 H 102.90257046687488 76.08354685608161 3.7543895863005616 H 0.0 **** 0.06
15995 H 104.22332056208263 76.02800626483317 2.562646591824034 H 0.0 **** 0.06
15996 C 60.52512110986467 92.14498067522965 55.155586359551165 C 0.0 **** -0.24
15997 H 60.32242615870186 91.09047730483564 54.96896944053796 H 0.0 **** 0.06
15998 H 59.85989904422519 92.50917205323401 55.93921622663726 H 0.0 **** 0.06
15999 H 60.356533657057355 92.71519953575398 54.24138000920675 H 0.0 **** 0.06
16000 H 61.56027753480342 92.26533130885872 55.473121143732925 H 0.0 **** 0.06
16001 C 98.65392505036961 38.338265072465575 49.445864604588365 C 0.0 **** -0.24
16002 H 98.72701906500485 39.21259392773304 50.09230933251594 H 0.0 **** 0.06
16003 H 98.70371223940418 38.65354128854558 48.40291125809365 H 0.0 **** 0.06
16004 H 97.70693753931685 37.83055116657633 49.62782534619282 H 0.0 **** 0.06
16005 H 99.47853374003996 37.65855155162879 49.66033725560099 H 0.0 **** 0.06
16006 C 71.54435535343976 36.52698670498529 16.61044222161553 C 0.0 **** -0.24
16007 H 70.67412935133729 36.00934378431299 17.011705138143725 H 0.0 **** 0.06
16008 H 72.25113916548958 36.72813061897642 17.416771142217215 H 0.0 **** 0.06
16009 H 71.23188902225053 37.468377447821695 16.158657162425357 H 0.0 **** 0.06
16010 H 72.02248178844377 35.90292079461142 15.855267179322198 H 0.0 **** 0.06
16011 C 20.49800116445853 28.5140927244068 41.12739096766224 C 0.0 **** -0.24
16012 H 21.386535073996235 28.96517807155481 41.56944865082268 H 0.0 **** 0.06
16013 H 19.76635728856514 28.311727747444728 41.910254414406936 H 0.0 **** 0.06
16014 H 20.771531052863494 27.581205722617504 40.63475751965464 H 0.0 **** 0.06
16015 H 20.06861885847389 29.19929806628231 40.39678988496924 H 0.0 **** 0.06
16016 C 50.50907054930764 16.95560865207483 148.9217343818852 C 0.0 **** -0.24
16017 H 49.43126576271261 16.96571807765895 149.0807629544104 H 0.0 **** 0.06
16018 H 50.99285133840645 16.43143161502431 149.74613906302488 H 0.0 **** 0.06
16019 H 50.87950674002886 17.980088956155726 148.87523008421232 H 0.0 **** 0.06
16020 H 50.733683181957375 16.44607894020757 147.9852179184727 H 0.0 **** 0.06
16021 C 26.624378283266758 40.75522702290044 103.48435764613677 C 0.0 **** -0.24
16022 H 26.867438593576836 41.5531850752385 104.18696220486814 H 0.0 **** 0.06
16023 H 26.168734947835553 39.92411520664945 104.02384706325748 H 0.0 **** 0.06
16024 H 27.535982724919656 40.41390778293919 102.99316824560785 H 0.0 **** 0.06
16025 H 25.925944170605767 41.129861792779764 102.7365561776327 H 0.0 **** 0.06
16026 C 83.58115817392061 61.18408851579335 57.8370378130723 C 0.0 **** -0.24
16027 H 83.93709004478612 60.30492217426156 57.29884772246666 H 0.0 **** 0.06
16028 H 84.32371022915561 61.480574859088264 58.57791282288443 H 0.0 **** 0.06
16029 H 82.64142516452087 60.94763175700916 58.336596191061375 H 0.0 **** 0.06
16030 H 83.42321187587389 62.00102991130693 57.132914806836 H 0.0 **** 0.06
16031 C 35.61612305312602 21.94755085065634 48.846846771338505 C 0.0 **** -0.24
16032 H 35.61992954990188 21.434922960027563 47.88489529550708 H 0.0 **** 0.06
16033 H 34.70662172549014 21.691432443502208 49.39027218495511 H 0.0 **** 0.06
16034 H 35.652803787207404 23.0246469324145 48.68412297804619 H 0.0 **** 0.06
16035 H 36.48597705696177 21.6367857026097 49.42598452477762 H 0.0 **** 0.06
16036 C 141.52064882429144 63.489102443460155 0.49968295505057725 C 0.0 **** -0.24
16037 H 141.36871047527916 64.20155867673586 -0.3114491896699576 H 0.0 **** 0.06
16038 H 140.78879159180698 63.67411122250914 1.286648815351235 H 0.0 **** 0.06
16039 H 142.52626053019637 63.60792404947978 0.9034700500803332 H 0.0 **** 0.06
16040 H 141.39774957778823 62.47476757171424 0.11992904768857571 H 0.0 **** 0.06
16041 C 63.898569515138504 11.387181899833564 73.61363057692034 C 0.0 **** -0.24
16042 H 62.904624510004425 10.95749261372778 73.73818147724035 H 0.0 **** 0.06
16043 H 64.64807088793799 10.674228533563493 73.95867218341125 H 0.0 **** 0.06
16044 H 63.973936854548 12.303843373463614 74.19738475456246 H 0.0 **** 0.06
16045 H 64.06706161349955 11.61187762438221 72.56020390859864 H 0.0 **** 0.06
16046 C 62.981522113884395 50.23807413669283 128.84998369704311 C 0.0 **** -0.24
16047 H 62.82586173342678 49.58310142419084 127.99240740550772 H 0.0 **** 0.06
16048 H 63.47846287106276 51.15175592434201 128.5229653786924 H 0.0 **** 0.06
16049 H 63.603882855375346 49.73011684398483 129.58704203832218 H 0.0 **** 0.06
16050 H 62.01879557874379 50.487778646546275 129.29654251572788 H 0.0 **** 0.06
16051 C 104.30896212992617 62.88900613663921 83.92767371944885 C 0.0 **** -0.24
16052 H 103.42064019768695 63.247027713230125 84.44902505558613 H 0.0 **** 0.06
16053 H 104.90479556048474 63.73939430765975 83.598093808568 H 0.0 **** 0.06
16054 H 104.00831471568524 62.296797139704864 83.06261871068159 H 0.0 **** 0.06
16055 H 104.900649328305 62.26985601780305 84.6027469837565 H 0.0 **** 0.06
16056 C 77.77328821688377 104.6848661536876 104.5503133273372 C 0.0 **** -0.24
16057 H 78.33608179528659 104.21594745467489 103.74401246801645 H 0.0 **** 0.06
16058 H 77.22453983669567 103.9215728037802 105.10228341010233 H 0.0 **** 0.06
16059 H 77.07098690371589 105.40606953027715 104.13172276811437 H 0.0 **** 0.06
16060 H 78.46112151316493 105.19653661628551 105.22477847910685 H 0.0 **** 0.06
16061 C 28.00046004143958 52.16715656371849 117.45262781486011 C 0.0 **** -0.24
16062 H 28.843134772300473 52.820185142755946 117.680720940273 H 0.0 **** 0.06
16063 H 27.52290317583015 52.500441730311906 116.53067501814215 H 0.0 **** 0.06
16064 H 27.28016078587956 52.20417573626074 118.27000842062645 H 0.0 **** 0.06
16065 H 28.357061350525626 51.14467662491259 117.32860055375838 H 0.0 **** 0.06
16066 C 131.29011465025158 8.86483711253345 78.38370782302638 C 0.0 **** -0.24
16067 H 132.253765744749 9.183586012613944 77.98475890726533 H 0.0 **** 0.06
16068 H 130.71650856341796 9.740244245160795 78.68878798490879 H 0.0 **** 0.06
16069 H 131.44998719820242 8.216753313672996 79.24451940845879 H 0.0 **** 0.06
16070 H 130.74148132099742 8.320291450333656 77.6147598394924 H 0.0 **** 0.06
16071 C 98.38606409695274 26.9863190598631 127.57990473675723 C 0.0 **** -0.24
16072 H 98.49195148318552 26.692230458836626 128.62484315339125 H 0.0 **** 0.06
16073 H 97.34411345700607 26.885766427257927 127.278275052752 H 0.0 **** 0.06
16074 H 99.00890329613492 26.342983049394086 126.95790343853245 H 0.0 **** 0.06
16075 H 98.70214401523333 28.02262669542798 127.46105841425597 H 0.0 **** 0.06
16076 C 128.21979988041167 31.072182891973668 95.88438695508552 C 0.0 **** -0.24
16077 H 128.1475639746902 32.14319875464485 95.6927244564599 H 0.0 **** 0.06
16078 H 128.71141485990796 30.90877227616845 96.84360860862398 H 0.0 **** 0.06
16079 H 128.80057408237192 30.599920338686637 95.09264655750746 H 0.0 **** 0.06
16080 H 127.21960005671997 30.639477553339788 95.90999736589544 H 0.0 **** 0.06
16081 C 56.23425477295666 24.89630933670623 24.04223075569837 C 0.0 **** -0.24
16082 H 56.69913356937444 25.16021732719409 24.991605667517888 H 0.0 **** 0.06
16083 H 56.367395998341394 23.830582098428543 23.855615216185583 H 0.0 **** 0.06
16084 H 56.69956279831601 25.466923607378362 23.238348122468267 H 0.0 **** 0.06
16085 H 55.16925008245019 25.12792544271656 24.08321277239719 H 0.0 **** 0.06
16086 C 145.37161034132237 2.374210335988977 100.76567915631462 C 0.0 **** -0.24
16087 H 146.36957046550515 2.3823255275723625 101.20505058474484 H 0.0 **** 0.06
16088 H 145.14651081991613 3.3602192883593602 100.3595153644145 H 0.0 **** 0.06
16089 H 144.6397700900064 2.1193229896120727 101.5321931945858 H 0.0 **** 0.06
16090 H 145.33406672581603 1.6336184112408887 99.96623397719388 H 0.0 **** 0.06
16091 C 98.22238298323094 134.24379644352007 52.38233122191724 C 0.0 **** -0.24
16092 H 98.85190674483835 134.96090230169426 52.90992342658345 H 0.0 **** 0.06
16093 H 98.84272657806326 133.44559634709793 51.97646934662836 H 0.0 **** 0.06
16094 H 97.7007454029814 134.74923524345468 51.56899219396345 H 0.0 **** 0.06
16095 H 97.49337568057973 133.82274103782862 53.07469975248094 H 0.0 **** 0.06
16096 C 150.29418763257087 75.1258085502709 14.983274087282645 C 0.0 **** -0.24
16097 H 150.7744788170496 74.47578805735407 15.71495040725599 H 0.0 **** 0.06
16098 H 150.48190097746402 76.16709314248658 15.244812946540357 H 0.0 **** 0.06
16099 H 149.22060269692423 74.93809377728672 14.980441481248882 H 0.0 **** 0.06
16100 H 150.7027287663954 74.92047403370293 13.993109750981148 H 0.0 **** 0.06
16101 C 14.719455054276864 33.50100267660817 16.537234182390534 C 0.0 **** -0.24
16102 H 14.384990572084092 34.39868907678725 16.01765925537464 H 0.0 **** 0.06
16103 H 15.047282620136002 33.764183017648065 17.543441774587194 H 0.0 **** 0.06
16104 H 15.548915819740664 33.053053746280995 15.99132574136297 H 0.0 **** 0.06
16105 H 13.896573629381095 32.78846513191809 16.597433061291014 H 0.0 **** 0.06
16106 C 93.61180693303035 57.41943239642883 142.21759413959933 C 0.0 **** -0.24
16107 H 92.93170318018795 58.260321363606536 142.35158703181835 H 0.0 **** 0.06
16108 H 93.16520453710334 56.69589230875614 141.53583720893263 H 0.0 **** 0.06
16109 H 93.7973855955986 56.94424556292067 143.1810377187667 H 0.0 **** 0.06
16110 H 94.55380604250749 57.777362225256766 141.8023961261188 H 0.0 **** 0.06
16111 C 81.80332547800451 8.2233503277061 14.542434758517828 C 0.0 **** -0.24
16112 H 81.93219967898479 7.999179426217864 13.483309955018228 H 0.0 **** 0.06
16113 H 80.85990835857092 8.749411772818007 14.689172572185186 H 0.0 **** 0.06
16114 H 82.62689672273868 8.850324913226842 14.883999913541373 H 0.0 **** 0.06
16115 H 81.79364705497558 7.2936845754178705 15.111272516764615 H 0.0 **** 0.06
16116 C 88.16159245596938 134.06433940675154 109.00681889460691 C 0.0 **** -0.24
16117 H 88.92731493973857 134.15172742204882 108.2351713428771 H 0.0 **** 0.06
16118 H 87.19787838020855 133.86507125408951 108.53887889605227 H 0.0 **** 0.06
16119 H 88.10682832372301 134.99483919290918 109.57137314467519 H 0.0 **** 0.06
16120 H 88.41617997160326 133.24588869435848 109.67948231504084 H 0.0 **** 0.06
16121 C 44.248517711595525 66.98002195123621 12.63190619085998 C 0.0 **** -0.24
16122 H 44.3493587607951 67.42945396198589 11.64363170400884 H 0.0 **** 0.06
16123 H 44.77142154972029 66.02379145748456 12.650966752308193 H 0.0 **** 0.06
16124 H 43.19332469565171 66.82283863167693 12.852175421487289 H 0.0 **** 0.06
16125 H 44.68085723383757 67.64694041637722 13.37895829320422 H 0.0 **** 0.06
16126 C 145.48396304482745 129.7850433615293 42.71057360515121 C 0.0 **** -0.24
16127 H 145.1008410663826 130.51194052495757 43.42652160185622 H 0.0 **** 0.06
16128 H 144.7490308615337 128.99351934022866 42.5671098084471 H 0.0 **** 0.06
16129 H 146.41150357561963 129.3558654328883 43.09052147217605 H 0.0 **** 0.06
16130 H 145.67647868433588 130.28077380229357 41.7592747401504 H 0.0 **** 0.06
16131 C 24.383415870439222 124.97079962542561 33.470297079275326 C 0.0 **** -0.24
16132 H 24.12488056265937 125.56633263436042 32.594889514805516 H 0.0 **** 0.06
16133 H 23.516045384958616 124.89347461093554 34.12564870668203 H 0.0 **** 0.06
16134 H 25.202219578106877 125.45131028855486 34.006313398451454 H 0.0 **** 0.06
16135 H 24.69105957575036 123.97370208549988 33.15405609877706 H 0.0 **** 0.06
16136 C 119.35999748472243 90.07107820523584 90.76468922322704 C 0.0 **** -0.24
16137 H 118.92831569735698 89.31867019560565 91.42545282755653 H 0.0 **** 0.06
16138 H 119.49432729984001 89.64678385287888 89.76982929511985 H 0.0 **** 0.06
16139 H 120.3260393865405 90.38737276833632 91.15895854723388 H 0.0 **** 0.06
16140 H 118.69242458376432 90.93005116240505 90.70690239267567 H 0.0 **** 0.06
16141 C 58.00060250497501 74.61855851170817 25.727345202399817 C 0.0 **** -0.24
16142 H 57.28695511842899 74.128178041677 25.065457842553798 H 0.0 **** 0.06
16143 H 57.48184576242997 75.35954792663144 26.335574281975425 H 0.0 **** 0.06
16144 H 58.76983753133695 75.11056523385723 25.13161005579323 H 0.0 **** 0.06
16145 H 58.46377160770413 73.87594284466707 26.376738629276716 H 0.0 **** 0.06
16146 C 55.4652599504611 46.08609704873572 146.42909755565918 C 0.0 **** -0.24
16147 H 56.02070817507894 46.46737504351054 145.57307314487392 H 0.0 **** 0.06
16148 H 55.57847631454794 45.00330372696297 146.48326548206597 H 0.0 **** 0.06
16149 H 54.40959921938614 46.335673616291416 146.31665874045714 H 0.0 **** 0.06
16150 H 55.85006332469257 46.538097927853585 147.342959159451 H 0.0 **** 0.06
16151 C 148.6208853003603 10.748629172905403 23.99182761889955 C 0.0 **** -0.24
16152 H 148.13506855944 10.293953591055413 24.855057418134095 H 0.0 **** 0.06
16153 H 147.8886923070592 10.890062311241579 23.196557483320646 H 0.0 **** 0.06
16154 H 149.41962035593906 10.0963839596319 23.63975383518789 H 0.0 **** 0.06
16155 H 149.03901879152085 11.714214011289094 24.27786226749498 H 0.0 **** 0.06
16156 C 17.705725661809012 107.8438798532781 12.647951043181934 C 0.0 **** -0.24
16157 H 17.805564661998027 108.76917788133274 13.215832400903537 H 0.0 **** 0.06
16158 H 16.793759818984455 107.32825333463968 12.952360563239665 H 0.0 **** 0.06
16159 H 18.566587489163418 107.2050595692716 12.842604593490705 H 0.0 **** 0.06
16160 H 17.65591828061006 108.07400967836013 11.583631083635908 H 0.0 **** 0.06
16161 C 131.99002666408083 55.013644086392034 2.7409844170597353 C 0.0 **** -0.24
16162 H 132.3036310738304 55.97520599973386 2.3365547118023926 H 0.0 **** 0.06
16163 H 132.77892273552138 54.277638139402484 2.582940902640871 H 0.0 **** 0.06
16164 H 131.08026372966185 54.68584196678562 2.2370373035541036 H 0.0 **** 0.06
16165 H 131.7964606428247 55.11518074016604 3.809598026357264 H 0.0 **** 0.06
16166 C 59.56680904133387 25.80689525895349 119.9437994427662 C 0.0 **** -0.24
16167 H 58.47802597868393 25.833908817753866 119.91027087971578 H 0.0 **** 0.06
16168 H 59.912683419651955 26.255714142251634 120.87496108775572 H 0.0 **** 0.06
16169 H 59.96975479620738 26.364597599259525 119.09829586016095 H 0.0 **** 0.06
16170 H 59.90490779585677 24.772242545787435 119.89114528580534 H 0.0 **** 0.06
16171 C 21.799454983079777 64.20825084158953 50.25334973681109 C 0.0 **** -0.24
16172 H 21.507984608751926 63.48971749078591 49.486694428725485 H 0.0 **** 0.06
16173 H 22.03287159836293 65.16382136025159 49.785108233556315 H 0.0 **** 0.06
16174 H 22.678715611676573 63.83721302194864 50.78142285956821 H 0.0 **** 0.06
16175 H 20.98019275338133 64.33946994506924 50.95895611660674 H 0.0 **** 0.06
16176 C 21.712801237710437 73.08650340936323 5.941009088805636 C 0.0 **** -0.24
16177 H 21.010464108070664 73.89154799027887 6.159756211818333 H 0.0 **** 0.06
16178 H 22.21262928839326 73.28822104871318 4.993438295345644 H 0.0 **** 0.06
16179 H 21.173744483977657 72.14164100921016 5.874193416435062 H 0.0 **** 0.06
16180 H 22.45453531708347 73.02584566375343 6.7373034256570605 H 0.0 **** 0.06
16181 C 24.253380428564128 3.2184415064269842 126.31546395966483 C 0.0 **** -0.24
16182 H 23.405198340907646 3.881145547124788 126.48159316920137 H 0.0 **** 0.06
16183 H 24.536514509044878 3.2479536971074197 125.26219301094268 H 0.0 **** 0.06
16184 H 23.979011273723643 2.2001715064117207 126.58980541203705 H 0.0 **** 0.06
16185 H 25.094483654504586 3.5454059405731186 126.92711183171892 H 0.0 **** 0.06
16186 C 140.43684694930113 142.7451752729423 105.36647661198715 C 0.0 **** -0.24
16187 H 141.11791526715 143.58584162461062 105.49800040021869 H 0.0 **** 0.06
16188 H 139.4667619542904 143.11230563287495 105.03275389372727 H 0.0 **** 0.06
16189 H 140.321366036409 142.22055307635424 106.31486903604191 H 0.0 **** 0.06
16190 H 140.84412142362277 142.0620803063091 104.62081498131239 H 0.0 **** 0.06
16191 C 21.354788596356855 101.64369241975636 104.54714780787369 C 0.0 **** -0.24
16192 H 20.670954304059535 101.22426968588114 103.81012157681444 H 0.0 **** 0.06
16193 H 20.84929934628215 102.43093538414284 105.10645328473488 H 0.0 **** 0.06
16194 H 22.2247599485284 102.0607109309859 104.03862746712637 H 0.0 **** 0.06
16195 H 21.67564938678629 100.85940112962231 105.2327373417021 H 0.0 **** 0.06
16196 C 137.77239735152412 62.70405530898839 123.87363529073669 C 0.0 **** -0.24
16197 H 137.4840590213283 63.18678330895395 124.80831824827929 H 0.0 **** 0.06
16198 H 136.90743993510367 62.19571071812257 123.44688132214169 H 0.0 **** 0.06
16199 H 138.5617828068396 61.978747782142534 124.06806789588082 H 0.0 **** 0.06
16200 H 138.13407594314143 63.45648053880498 123.17321446496736 H 0.0 **** 0.06
16201 C 104.7901714369202 80.54748015944762 113.9266185750908 C 0.0 **** -0.24
16202 H 104.48651746905422 81.22897044103 114.72238538304413 H 0.0 **** 0.06
16203 H 105.64992455587368 80.96287038099048 113.40154334493764 H 0.0 **** 0.06
16204 H 103.96481404973976 80.41771159311473 113.2262909365142 H 0.0 **** 0.06
16205 H 105.05720525532065 79.58271797678229 114.35813376701788 H 0.0 **** 0.06
16206 C 54.502156863446174 4.166496522009254 112.5801294404147 C 0.0 **** -0.24
16207 H 53.96546281571361 4.24589479066735 111.63409511623915 H 0.0 **** 0.06
16208 H 53.8046225864413 3.8956090985392287 113.37208485848872 H 0.0 **** 0.06
16209 H 54.96545759193586 5.125198524073415 112.81498347933133 H 0.0 **** 0.06
16210 H 55.2736843931622 3.401408460461269 112.49668488729715 H 0.0 **** 0.06
16211 C 64.80224567694916 132.6894954207696 14.220337639031726 C 0.0 **** -0.24
16212 H 64.75692837395833 132.14129943421406 13.278914772617654 H 0.0 **** 0.06
16213 H 65.73292870752034 132.45106064933015 14.73472117505667 H 0.0 **** 0.06
16214 H 63.95690112074668 132.40467098943031 14.846993142695418 H 0.0 **** 0.06
16215 H 64.76091197965076 133.75981179918614 14.018995022880695 H 0.0 **** 0.06
16216 C 20.33976426598815 131.223853581914 29.32127839275053 C 0.0 **** -0.24
16217 H 20.467387797019057 131.71924074312972 28.359338561436907 H 0.0 **** 0.06
16218 H 19.66656444810269 130.37436316426133 29.206154465669407 H 0.0 **** 0.06
16219 H 19.916355439890367 131.92730077792083 30.0378587955892 H 0.0 **** 0.06
16220 H 21.306726721394284 130.87540003781731 29.68210268137134 H 0.0 **** 0.06
16221 C 140.9556868500608 103.02250106502238 117.15393792144116 C 0.0 **** -0.24
16222 H 141.71615367046203 102.9671775014093 117.93350898211148 H 0.0 **** 0.06
16223 H 140.98084847018757 104.0096629807825 116.6926628179526 H 0.0 **** 0.06
16224 H 139.9730205607999 102.85084471548056 117.59218272827545 H 0.0 **** 0.06
16225 H 141.1544999600398 102.26267682240048 116.39904660427337 H 0.0 **** 0.06
16226 C 13.68902249764293 60.78676737831657 51.09417847173347 C 0.0 **** -0.24
16227 H 14.386159216555534 60.12295197680396 51.606905537672446 H 0.0 **** 0.06
16228 H 14.07992736979346 61.80486089921706 51.108617985274066 H 0.0 **** 0.06
16229 H 12.724437681324567 60.76050241816088 51.599983498990355 H 0.0 **** 0.06
16230 H 13.56768674715557 60.459014147260035 50.06240432608064 H 0.0 **** 0.06
16231 C 141.97833067630035 18.781270436590866 45.19822909421062 C 0.0 **** -0.24
16232 H 142.8732768425089 18.584994329645 45.78933023666475 H 0.0 **** 0.06
16233 H 141.87813388710657 19.855719156106723 45.03951837127353 H 0.0 **** 0.06
16234 H 141.1024255819045 18.40896358696793 45.73032155783473 H 0.0 **** 0.06
16235 H 142.06075132856182 18.277269073774747 44.23572719095479 H 0.0 **** 0.06
16236 C 132.4525541618131 133.94032623004543 69.49835558964504 C 0.0 **** -0.24
16237 H 132.81023108218483 134.61961104098324 68.72477376559551 H 0.0 **** 0.06
16238 H 131.36798321432684 134.0212772855045 69.57873789069596 H 0.0 **** 0.06
16239 H 132.90858127545664 134.20537454676267 70.4525495777302 H 0.0 **** 0.06
16240 H 132.7230852961477 132.91719801322577 69.23785025103646 H 0.0 **** 0.06
16241 C 16.904553214339103 56.03148471008838 20.156904210239986 C 0.0 **** -0.24
16242 H 15.81688507125699 56.0055031933162 20.217956893949548 H 0.0 **** 0.06
16243 H 17.32893637226357 55.57005916545836 21.048479153284262 H 0.0 **** 0.06
16244 H 17.239550541004633 57.066292303371355 20.088263790496654 H 0.0 **** 0.06
16245 H 17.23191582219397 55.48370428635005 19.272917312974727 H 0.0 **** 0.06
16246 C 11.84098926914718 97.7694834463622 49.27272603299588 C 0.0 **** -0.24
16247 H 12.196945006076866 97.12148653040549 48.47179407974937 H 0.0 **** 0.06
16248 H 11.409780677804385 97.16067483136986 50.0680113529134 H 0.0 **** 0.06
16249 H 11.081633050969309 98.44680708955876 48.88091826220051 H 0.0 **** 0.06
16250 H 12.675361359776367 98.34911433136104 49.669220397552806 H 0.0 **** 0.06
16251 C 97.56234869867066 92.60622046774579 48.799575153448714 C 0.0 **** -0.24
16252 H 96.99863051779356 93.45763559876201 49.18161519141461 H 0.0 **** 0.06
16253 H 96.94330698298452 92.04685236469705 48.097585700385196 H 0.0 **** 0.06
16254 H 97.8475939070866 91.9591058356878 49.629123412422814 H 0.0 **** 0.06
16255 H 98.45798830384273 92.96190309045012 48.291427528213106 H 0.0 **** 0.06
16256 C 90.25609006734209 105.85017374681648 33.81724111374977 C 0.0 **** -0.24
16257 H 89.38755084842575 105.23643705950202 34.053104071652186 H 0.0 **** 0.06
16258 H 90.50277811684401 106.47564966423171 34.67538468022219 H 0.0 **** 0.06
16259 H 90.0322346815914 106.48252509101867 32.958681278372985 H 0.0 **** 0.06
16260 H 91.10300082017835 105.20458528224195 33.582937410186965 H 0.0 **** 0.06
16261 C 94.9052942531082 80.05486528598982 84.0473776523328 C 0.0 **** -0.24
16262 H 95.73790251293747 80.70852411863332 84.30940463326145 H 0.0 **** 0.06
16263 H 94.10690543133666 80.64634006282739 83.5982747768885 H 0.0 **** 0.06
16264 H 94.53398784083416 79.56378499327354 84.9467480823711 H 0.0 **** 0.06
16265 H 95.24475808189942 79.30230547722722 83.3354299438284 H 0.0 **** 0.06
16266 C 38.507453740419635 23.07908964744314 24.057460826084423 C 0.0 **** -0.24
16267 H 39.33893998198741 22.461443223409972 23.717429912223167 H 0.0 **** 0.06
16268 H 38.12032709911813 23.659556149206622 23.21980152691185 H 0.0 **** 0.06
16269 H 38.85303524208709 23.75459641925761 24.838888012084396 H 0.0 **** 0.06
16270 H 37.71749573593607 22.439327812131154 24.452753987172343 H 0.0 **** 0.06
16271 C 137.68955045969204 38.544137286290486 101.72699640456739 C 0.0 **** -0.24
16272 H 136.85572289459787 38.322701097029615 102.3930227417485 H 0.0 **** 0.06
16273 H 137.34035474165114 38.53929391613614 100.69435107153659 H 0.0 **** 0.06
16274 H 138.46527982871726 37.78762913463749 101.85280940712744 H 0.0 **** 0.06
16275 H 138.09796325170564 39.525431018106715 101.969033787817 H 0.0 **** 0.06
16276 C 42.32620095764088 0.1867508606783197 50.39304717422942 C 0.0 **** -0.24
16277 H 41.42677016687287 0.7928271614038671 50.502396430423175 H 0.0 **** 0.06
16278 H 42.99697546107922 0.377889518036298 51.231572735921986 H 0.0 **** 0.06
16279 H 42.827731961044606 0.4458573584428507 49.46017044637807 H 0.0 **** 0.06
16280 H 42.053477511286985 -0.8686074164787598 50.37827143725207 H 0.0 **** 0.06
16281 C 138.40471781395527 65.53370700638341 133.08804311815166 C 0.0 **** -0.24
16282 H 139.30273184427577 66.10021197709358 132.83931546750873 H 0.0 **** 0.06
16283 H 138.61388421228602 64.87086309029908 133.92695062176182 H 0.0 **** 0.06
16284 H 138.0971712241313 64.94264778692445 132.2249037269014 H 0.0 **** 0.06
16285 H 137.60478077092975 66.22317173507997 133.3602041803761 H 0.0 **** 0.06
16286 C 127.63241467867269 80.05166131532798 42.536600401973985 C 0.0 **** -0.24
16287 H 128.2458009188045 80.57272490517548 43.27109513143293 H 0.0 **** 0.06
16288 H 128.24634526145593 79.32962128742045 41.99725917478615 H 0.0 **** 0.06
16289 H 127.2150988514673 80.77314800593868 41.83355632728751 H 0.0 **** 0.06
16290 H 126.82170129307882 79.5303306476334 43.046686342068696 H 0.0 **** 0.06
16291 C 64.89144433849711 59.038691989026006 136.64331516363748 C 0.0 **** -0.24
16292 H 65.67351051276788 59.274075094632096 135.92142959227394 H 0.0 **** 0.06
16293 H 64.02311887232591 58.63946674531087 136.119458730981 H 0.0 **** 0.06
16294 H 64.6087295545017 59.94351603041821 137.17954293068775 H 0.0 **** 0.06
16295 H 65.26162628612249 58.29731055887494 137.35099048593545 H 0.0 **** 0.06
16296 C 48.79023207693288 8.062139858041576 36.816802974630555 C 0.0 **** -0.24
16297 H 49.850457734467994 8.193140134523873 36.598674589035156 H 0.0 **** 0.06
16298 H 48.579499109462944 7.004501140299823 36.976447759062815 H 0.0 **** 0.06
16299 H 48.199183167531174 8.428333836806502 35.97779605363581 H 0.0 **** 0.06
16300 H 48.533423970504 8.62377905155418 37.715240793255454 H 0.0 **** 0.06
16301 C 72.46088483674978 135.5739904426046 144.85459886785793 C 0.0 **** -0.24
16302 H 71.40942650438447 135.45312146311778 145.11693373287125 H 0.0 **** 0.06
16303 H 72.59638063589207 136.51613929073017 144.3231951317643 H 0.0 **** 0.06
16304 H 72.77422794935572 134.7475779788116 144.21746310534948 H 0.0 **** 0.06
16305 H 73.062858261061 135.5806105139249 145.7641755358231 H 0.0 **** 0.06
16306 C 129.75522935292392 133.34097063096715 101.30125586910555 C 0.0 **** -0.24
16307 H 129.06835888828874 133.60918471991675 102.1043969994554 H 0.0 **** 0.06
16308 H 130.60478855706992 134.02492417275062 101.30657082835134 H 0.0 **** 0.06
16309 H 129.23850861171422 133.40985333394656 100.34391353853259 H 0.0 **** 0.06
16310 H 130.10776821213156 132.3203360678711 101.45091526601594 H 0.0 **** 0.06
16311 C 59.74499624860198 97.90481726423273 124.3366450483815 C 0.0 **** -0.24
16312 H 60.810495831491735 98.10987973072135 124.43524255997058 H 0.0 **** 0.06
16313 H 59.34145552786816 97.60159988936567 125.30349956099094 H 0.0 **** 0.06
16314 H 59.59403299442491 97.10463489217062 123.61198322711918 H 0.0 **** 0.06
16315 H 59.23211981618044 98.80428824666855 123.99543365403507 H 0.0 **** 0.06
16316 C 31.945089794267687 8.30962434320336 11.490956141374753 C 0.0 **** -0.24
16317 H 32.54155469064039 8.758333229876435 12.28443858962008 H 0.0 **** 0.06
16318 H 30.909396345407245 8.637815242217322 11.584526088087316 H 0.0 **** 0.06
16319 H 31.990736381108704 7.223288403675596 11.572295712037281 H 0.0 **** 0.06
16320 H 32.338573543588744 8.617684442886024 10.522252885362064 H 0.0 **** 0.06
16321 C 56.295617094729124 109.66642771469786 150.0775530999703 C 0.0 **** -0.24
16322 H 55.31987454254224 109.96766922269184 150.45774973669714 H 0.0 **** 0.06
16323 H 57.07849662608152 110.11372958256102 150.6904398600211 H 0.0 **** 0.06
16324 H 56.40327663400987 110.00318212890623 149.04634488523962 H 0.0 **** 0.06
16325 H 56.38030538060471 108.58027947626088 150.11557139289792 H 0.0 **** 0.06
16326 C 87.48602477372634 126.02291298733978 100.77560019259457 C 0.0 **** -0.24
16327 H 88.34287773986057 126.42835070477587 101.31380808978443 H 0.0 **** 0.06
16328 H 86.87512402891656 126.84174855108014 100.39644711097569 H 0.0 **** 0.06
16329 H 86.89098698413414 125.40833620260926 101.45112731170238 H 0.0 **** 0.06
16330 H 87.83552381640186 125.41335884153298 99.94191759756808 H 0.0 **** 0.06
16331 C 122.11685625910422 130.3078397638712 124.57084706700489 C 0.0 **** -0.24
16332 H 122.87032139164393 130.09923757627323 123.8104472026257 H 0.0 **** 0.06
16333 H 121.5164011568711 129.4132859822092 124.74024522403683 H 0.0 **** 0.06
16334 H 121.47397779626988 131.11882236350522 124.2314653970344 H 0.0 **** 0.06
16335 H 122.6085747712545 130.597198382696 125.49960105924583 H 0.0 **** 0.06
16336 C 51.257280953281025 94.92584603531776 149.81048361886144 C 0.0 **** -0.24
16337 H 51.817239601099715 95.83346048571815 149.5845747544927 H 0.0 **** 0.06
16338 H 51.92884427000254 94.06739152781358 149.78258959700588 H 0.0 **** 0.06
16339 H 50.467060703723234 94.79366902183318 149.07073858439634 H 0.0 **** 0.06
16340 H 50.81484094866846 95.00910772615117 150.80322871276144 H 0.0 **** 0.06
16341 C 23.927791446928737 46.792813805771374 115.73390944096418 C 0.0 **** -0.24
16342 H 23.37890441869917 47.703013520706094 115.49131304602328 H 0.0 **** 0.06
16343 H 23.91247990204087 46.12007959720742 114.87661852643141 H 0.0 **** 0.06
16344 H 23.46054027995394 46.30395373701103 116.58899345877414 H 0.0 **** 0.06
16345 H 24.96019939675117 47.04556650425181 115.97919998027977 H 0.0 **** 0.06
16346 C 104.17284846961964 62.835432342430494 21.27530436715722 C 0.0 **** -0.24
16347 H 103.38148671636678 63.58342841147922 21.22080700460117 H 0.0 **** 0.06
16348 H 103.86633181210992 61.94197113195216 20.73029782590578 H 0.0 **** 0.06
16349 H 104.35910162775836 62.57959464051905 22.317965043081074 H 0.0 **** 0.06
16350 H 105.08322744190666 63.237322634646176 20.83182859293555 H 0.0 **** 0.06
16351 C 19.85466491810044 132.21599958374262 4.313716404036395 C 0.0 **** -0.24
16352 H 19.289492343021237 131.321779120549 4.04740216153872 H 0.0 **** 0.06
16353 H 19.21645832773089 133.0938208835314 4.210325812788362 H 0.0 **** 0.06
16354 H 20.715419269539353 132.31097414550337 3.6523229994756257 H 0.0 **** 0.06
16355 H 20.196384174102946 132.13410705016952 5.345899563747157 H 0.0 **** 0.06
16356 C 38.10668259440055 117.95740906518334 12.689804667271574 C 0.0 **** -0.24
16357 H 38.10813186311239 116.87369679253469 12.56707673872529 H 0.0 **** 0.06
16358 H 38.92393039685314 118.38885283326358 12.11238907685663 H 0.0 **** 0.06
16359 H 38.2366881588154 118.2031086704503 13.74386147234236 H 0.0 **** 0.06
16360 H 37.157834542512404 118.36118158752082 12.336968163117206 H 0.0 **** 0.06
16361 C 114.56201825147433 2.466470585659522 144.48380507956114 C 0.0 **** -0.24
16362 H 114.00289990067073 2.6791501415156915 145.39529374121412 H 0.0 **** 0.06
16363 H 114.69844229100424 3.3887777803135464 143.91851097021316 H 0.0 **** 0.06
16364 H 114.00996748867722 1.7479420606801739 143.8783670733767 H 0.0 **** 0.06
16365 H 115.53517510232784 2.05198131819472 144.74431385709522 H 0.0 **** 0.06
16366 C 137.91191952763245 67.5686397212996 68.8528277967747 C 0.0 **** -0.24
16367 H 137.5957648418428 66.8067570664146 68.13984705186274 H 0.0 **** 0.06
16368 H 137.51682661352697 67.32798222581471 69.83999853078325 H 0.0 **** 0.06
16369 H 137.5331167045776 68.54113387698948 68.53648452394424 H 0.0 **** 0.06
16370 H 139.00046542467052 67.59849277998734 68.89333810744537 H 0.0 **** 0.06
16371 C 58.98041029594444 18.205299184727835 104.10656281492386 C 0.0 **** -0.24
16372 H 58.636764438762725 17.406386261130024 104.76275417919938 H 0.0 **** 0.06
16373 H 59.50725945827509 17.774086447624484 103.25496311881709 H 0.0 **** 0.06
16374 H 59.653335078059314 18.862343086809517 104.6566237164689 H 0.0 **** 0.06
16375 H 58.12350044357579 18.777934407747694 103.75234554496801 H 0.0 **** 0.06
16376 C 130.64103986491438 135.6550524135814 57.873960841097116 C 0.0 **** -0.24
16377 H 130.39600121000987 135.47888083763473 58.92127603315919 H 0.0 **** 0.06
16378 H 130.23428897409025 134.84735816612994 57.26521770194758 H 0.0 **** 0.06
16379 H 131.72413846682983 135.69009983997753 57.75555227199027 H 0.0 **** 0.06
16380 H 130.20881239082468 136.60349342802022 57.55391621669361 H 0.0 **** 0.06
16381 C 18.497491121488757 21.15262214720778 1.1127699083934601 C 0.0 **** -0.24
16382 H 18.53136805332386 21.186775552779864 2.201551047778281 H 0.0 **** 0.06
16383 H 17.684895340374588 21.78493111809928 0.7552437694716048 H 0.0 **** 0.06
16384 H 18.329901585239938 20.125191082234096 0.7879858610654935 H 0.0 **** 0.06
16385 H 19.44342461588802 21.51168447085459 0.7085849034325804 H 0.0 **** 0.06
16386 C 70.26617056305523 63.02244065092775 147.84175460725763 C 0.0 **** -0.24
16387 H 70.59108729554742 63.93931642431754 147.35011509407985 H 0.0 **** 0.06
16388 H 70.23380680983551 63.18083236406642 148.92032226181666 H 0.0 **** 0.06
16389 H 70.96606926225601 62.21933511393131 147.6127398456011 H 0.0 **** 0.06
16390 H 69.27297963286134 62.7508103378413 147.48425463554418 H 0.0 **** 0.06
16391 C 150.25981030274303 5.938666286592564 70.48616825783995 C 0.0 **** -0.24
16392 H 151.27354470799327 5.9878615776760284 70.88243562484155 H 0.0 **** 0.06
16393 H 150.24180761150603 5.285033625201521 69.61344964864071 H 0.0 **** 0.06
16394 H 149.93357136178582 6.938429250940345 70.19832858355545 H 0.0 **** 0.06
16395 H 149.59031752968707 5.543340692552135 71.25045917432232 H 0.0 **** 0.06
16396 C 2.2782724339852507 137.40333001826053 7.339960568431252 C 0.0 **** -0.24
16397 H 2.762450227605939 138.37957474662127 7.348880120216705 H 0.0 **** 0.06
16398 H 1.2446683959724396 137.51443442734825 7.009739360672711 H 0.0 **** 0.06
16399 H 2.2949428295880807 136.98030086839088 8.344164682979823 H 0.0 **** 0.06
16400 H 2.809335299811039 136.74068865739872 6.656495757089431 H 0.0 **** 0.06
16401 C 32.45178102935519 28.384776923926665 146.5697802545306 C 0.0 **** -0.24
16402 H 31.921183691758635 28.520228264977277 145.6267903711652 H 0.0 **** 0.06
16403 H 33.335060778622115 29.023889380580044 146.58398107561118 H 0.0 **** 0.06
16404 H 32.7555018818338 27.342578143504397 146.66901651691157 H 0.0 **** 0.06
16405 H 31.794582523357256 28.65254707413135 147.39750289964462 H 0.0 **** 0.06
16406 C 42.912757834128826 83.21866009839509 54.57798092448964 C 0.0 **** -0.24
16407 H 41.900820312394416 83.54795228610975 54.814037259943774 H 0.0 **** 0.06
16408 H 43.18859524867747 83.57569479752084 53.586353280912874 H 0.0 **** 0.06
16409 H 42.95403287820264 82.12975477858977 54.59729536330801 H 0.0 **** 0.06
16410 H 43.60735225907101 83.62145286123244 55.31594101971611 H 0.0 **** 0.06
16411 C 25.392236788385134 10.377589296997279 31.20173246434844 C 0.0 **** -0.24
16412 H 24.936089654551353 9.46681180093892 30.814275867758354 H 0.0 **** 0.06
16413 H 24.616019654453453 11.03383427031185 31.595390921598096 H 0.0 **** 0.06
16414 H 25.92636646294855 10.885984008708569 30.398474209617774 H 0.0 **** 0.06
16415 H 26.091225250965863 10.12315750775737 31.999116384128797 H 0.0 **** 0.06
16416 C 4.581228343106233 14.611894051834348 109.16966308345106 C 0.0 **** -0.24
16417 H 5.00890374723204 14.33291749394315 108.20671172998514 H 0.0 **** 0.06
16418 H 3.771893840087614 13.924644417424922 109.4200231359771 H 0.0 **** 0.06
16419 H 4.191244860542071 15.628100673570152 109.11327635536655 H 0.0 **** 0.06
16420 H 5.353081362893192 14.56096320861731 109.93761519700449 H 0.0 **** 0.06
16421 C 124.43072769111627 58.482550402649 88.8109344817351 C 0.0 **** -0.24
16422 H 125.08132192160974 58.865811370536164 89.59740297004466 H 0.0 **** 0.06
16423 H 125.03372021289714 57.9792326432549 88.05480899238017 H 0.0 **** 0.06
16424 H 123.88908899289983 59.30969970754546 88.35221231417333 H 0.0 **** 0.06
16425 H 123.72016770480083 57.77562780023271 89.23952453278528 H 0.0 **** 0.06
16426 C 100.7416230371237 90.97007244137095 135.72602208130462 C 0.0 **** -0.24
16427 H 100.48836609658747 91.82985910561501 136.34654388539667 H 0.0 **** 0.06
16428 H 99.97748084084452 90.20045169603048 135.84197100712916 H 0.0 **** 0.06
16429 H 101.70895917900572 90.57280075873882 136.0347639008539 H 0.0 **** 0.06
16430 H 100.79205328379257 91.27902156535342 134.68149312202223 H 0.0 **** 0.06
16431 C 102.48849576683429 106.25764497187119 50.111129027426216 C 0.0 **** -0.24
16432 H 102.77195579306408 107.30595221957442 50.02647235796513 H 0.0 **** 0.06
16433 H 101.7095689191418 106.1508755057964 50.86609242424214 H 0.0 **** 0.06
16434 H 103.35925115263193 105.66834174939099 50.400934659200175 H 0.0 **** 0.06
16435 H 102.11507345070372 105.90431600589714 49.1498679250962 H 0.0 **** 0.06
16436 C 122.86230309107067 92.94225471417454 85.55795242476465 C 0.0 **** -0.24
16437 H 121.9644740635773 92.34160953719473 85.41392161324646 H 0.0 **** 0.06
16438 H 123.20698555525881 93.31696102311744 84.59484619159333 H 0.0 **** 0.06
16439 H 123.6408334072908 92.32791961991455 86.01001371940116 H 0.0 **** 0.06
16440 H 122.63541751121751 93.78191592510058 86.21486373228298 H 0.0 **** 0.06
16441 C 15.650041241010655 149.6832422021632 3.7751198806849686 C 0.0 **** -0.24
16442 H 15.251717366402033 150.68933575979347 3.645380473218353 H 0.0 **** 0.06
16443 H 14.928959129000901 149.07530379161872 4.321405479804582 H 0.0 **** 0.06
16444 H 16.583950681123497 149.7314935242836 4.334328624645849 H 0.0 **** 0.06
16445 H 15.834158436891585 149.23679529787987 2.797605416764469 H 0.0 **** 0.06
16446 C 132.21049119059597 59.979685247693666 58.85799943982974 C 0.0 **** -0.24
16447 H 131.32609352929813 59.86474276739695 59.48468794847169 H 0.0 **** 0.06
16448 H 132.20579732062313 59.215959009161494 58.079767010082904 H 0.0 **** 0.06
16449 H 133.10599005022152 59.86967070525415 59.47009183288523 H 0.0 **** 0.06
16450 H 132.20328212629704 60.968074766748984 58.397971517194165 H 0.0 **** 0.06
16451 C 101.03649850965158 76.39685261776908 119.99155344638469 C 0.0 **** -0.24
16452 H 100.86908378503088 75.51654037139646 120.61286510377612 H 0.0 **** 0.06
16453 H 102.01794489918194 76.32719294223016 119.52194188681555 H 0.0 **** 0.06
16454 H 100.9919432734871 77.29268878880293 120.61015253727687 H 0.0 **** 0.06
16455 H 100.26715572601341 76.44875626418704 119.22125988526854 H 0.0 **** 0.06
16456 C 133.57062714744083 16.53150921966872 33.97126404687536 C 0.0 **** -0.24
16457 H 132.7201505993042 16.536494584665817 34.65225247078041 H 0.0 **** 0.06
16458 H 133.24173585645903 16.838187356469042 32.97785700112813 H 0.0 **** 0.06
16459 H 133.9913384429962 15.527263279669818 33.921458652506026 H 0.0 **** 0.06
16460 H 134.32950758951236 17.225808341849223 34.333433516078976 H 0.0 **** 0.06
16461 C 120.36247224106089 69.4054150335443 51.485897462946326 C 0.0 **** -0.24
16462 H 120.16947670445663 69.16771768896177 52.53230904625748 H 0.0 **** 0.06
16463 H 120.39539702515506 68.48382242119584 50.904747309388824 H 0.0 **** 0.06
16464 H 121.3187177189412 69.92233148107047 51.40204356823648 H 0.0 **** 0.06
16465 H 119.56708080495613 70.04658396844374 51.106473782179236 H 0.0 **** 0.06
16466 C 67.07135806914184 41.618617615997465 127.94781744376506 C 0.0 **** -0.24
16467 H 67.59736991437653 41.69695742626247 126.99602076383883 H 0.0 **** 0.06
16468 H 66.13777948547873 41.07390080986535 127.80346319095032 H 0.0 **** 0.06
16469 H 66.85481416268149 42.61751220622941 128.32651497154234 H 0.0 **** 0.06
16470 H 67.69620745225696 41.08648890265232 128.66472032717013 H 0.0 **** 0.06
16471 C 147.71848952494176 113.045167359769 99.81461946214068 C 0.0 **** -0.24
16472 H 147.1502723308595 112.9209547336773 98.89316088937723 H 0.0 **** 0.06
16473 H 147.48309178842604 114.01185561562242 100.25897762610431 H 0.0 **** 0.06
16474 H 148.7842623109042 112.99716287458936 99.59301081625459 H 0.0 **** 0.06
16475 H 147.45613961263933 112.25040588470843 100.51239104205553 H 0.0 **** 0.06
16476 C 1.6090395506511186 13.959661938819238 101.48298773082334 C 0.0 **** -0.24
16477 H 0.8269535828579251 13.317243364257195 101.88801662970812 H 0.0 **** 0.06
16478 H 2.513135690713966 13.371690472236423 101.32062314885323 H 0.0 **** 0.06
16479 H 1.8198829406878758 14.763846051468647 102.18807316480957 H 0.0 **** 0.06
16480 H 1.2757869730473317 14.384370946419722 100.53650295463734 H 0.0 **** 0.06
16481 C 0.8584070999088027 25.60579504653184 23.883789533889036 C 0.0 **** -0.24
16482 H 1.0659970120271502 25.256033434580957 24.893792817476864 H 0.0 **** 0.06
16483 H 0.38699808435134386 26.588149727463247 23.928537121275383 H 0.0 **** 0.06
16484 H 0.18883563262104275 24.90376680749287 23.386962721040426 H 0.0 **** 0.06
16485 H 1.7915293000041963 25.67564132382347 23.32453918724002 H 0.0 **** 0.06
16486 C 32.18132962194346 109.70124552149893 35.617905845169844 C 0.0 **** -0.24
16487 H 31.587678635548542 109.16205200389557 36.35628945150128 H 0.0 **** 0.06
16488 H 31.923222255751313 110.7595146616084 35.64778015278168 H 0.0 **** 0.06
16489 H 31.973739675640132 109.303904579643 34.62503423969916 H 0.0 **** 0.06
16490 H 33.24104647964339 109.57912646932634 35.84469131153335 H 0.0 **** 0.06
16491 C 20.97271759376997 19.014893855273726 129.4376429991392 C 0.0 **** -0.24
16492 H 21.110727485322798 18.175732961055758 130.1190707121606 H 0.0 **** 0.06
16493 H 21.941424672582002 19.45855197543284 129.20672620049976 H 0.0 **** 0.06
16494 H 20.332698261133203 19.762707690293837 129.90733572362774 H 0.0 **** 0.06
16495 H 20.50538204157536 18.662324636883852 128.51816493347386 H 0.0 **** 0.06
16496 C 34.799588488058816 70.36785320647763 89.62561522240134 C 0.0 **** -0.24
16497 H 34.14871632701556 70.04434612917751 88.81348033487845 H 0.0 **** 0.06
16498 H 34.98290257906575 71.43895507520816 89.53965464990908 H 0.0 **** 0.06
16499 H 35.74592082875091 69.83057520948128 89.56789245242716 H 0.0 **** 0.06
16500 H 34.31978773623075 70.15661140841408 90.58113215869611 H 0.0 **** 0.06
16501 C 137.6802108915694 9.34794279347014 115.83811935588464 C 0.0 **** -0.24
16502 H 138.48421991043017 9.844682549740611 115.29498346260497 H 0.0 **** 0.06
16503 H 137.59689126544566 8.314996395677554 115.49984716978828 H 0.0 **** 0.06
16504 H 136.74042927464907 9.86852431191511 115.6518402431732 H 0.0 **** 0.06
16505 H 137.89890273368306 9.364916839850935 116.90594858078613 H 0.0 **** 0.06
16506 C 24.63997141083246 121.59969664124255 3.4373388077996196 C 0.0 **** -0.24
16507 H 24.543446208428747 122.65229528523538 3.169520778566209 H 0.0 **** 0.06
16508 H 24.55357801910185 121.49154612140875 4.518858644794193 H 0.0 **** 0.06
16509 H 25.61278089267637 121.23110602316162 3.1120202715140977 H 0.0 **** 0.06
16510 H 23.85191682554938 121.02598100632063 2.9499756886431783 H 0.0 **** 0.06
16511 C 81.68731084226414 48.784419269828874 103.6815956234398 C 0.0 **** -0.24
16512 H 82.14597592384416 47.8497245409425 103.35916642772192 H 0.0 **** 0.06
16513 H 82.17173158672296 49.1314660631854 104.59396206727719 H 0.0 **** 0.06
16514 H 80.6263222528712 48.62175104480599 103.87171861739769 H 0.0 **** 0.06
16515 H 81.8044242227275 49.53457025337963 102.89864575844355 H 0.0 **** 0.06
16516 C 91.2522758727122 137.01780120093974 82.70334565623796 C 0.0 **** -0.24
16517 H 90.63018045859897 137.00969469063273 83.59903762836962 H 0.0 **** 0.06
16518 H 91.4834309268683 138.0474403043989 82.43126639670061 H 0.0 **** 0.06
16519 H 90.71560558966158 136.53691295705408 81.88541167691164 H 0.0 **** 0.06
16520 H 92.17748833524416 136.47560535936674 82.89902411419973 H 0.0 **** 0.06
16521 C 99.81762990734806 119.34069581636068 98.76101494427353 C 0.0 **** -0.24
16522 H 99.06941608971174 119.84579982951662 98.15015448331886 H 0.0 **** 0.06
16523 H 100.11921444117267 119.99376016013956 99.5799698982668 H 0.0 **** 0.06
16524 H 100.68700316722192 119.10264645529243 98.1466777520603 H 0.0 **** 0.06
16525 H 99.39531049722116 118.42145922278586 99.16524734671245 H 0.0 **** 0.06
16526 C 91.78368922344953 51.35084425089747 121.30555265328518 C 0.0 **** -0.24
16527 H 91.33629021684752 51.80738174340283 122.18767740666478 H 0.0 **** 0.06
16528 H 92.61507593565912 51.9651073468269 120.96103787146076 H 0.0 **** 0.06
16529 H 91.03516192451468 51.27534925208849 120.51637339798388 H 0.0 **** 0.06
16530 H 92.14734279194424 50.354911802669534 121.55802862412749 H 0.0 **** 0.06
16531 C 149.4645885997748 116.03925232646677 105.73770062554709 C 0.0 **** -0.24
16532 H 148.90352304576277 115.2186129228663 106.18292959741805 H 0.0 **** 0.06
16533 H 150.02975533297803 116.55546100920677 106.5148812408647 H 0.0 **** 0.06
16534 H 148.77323202479354 116.738547003072 105.26619922677676 H 0.0 **** 0.06
16535 H 150.15198688077783 115.64728256051464 104.98869077547315 H 0.0 **** 0.06
16536 C 59.50600198077203 18.358676741081787 45.00183709230632 C 0.0 **** -0.24
16537 H 59.10147767694647 19.19195908212903 45.5749741197466 H 0.0 **** 0.06
16538 H 60.53733001627971 18.578419707188544 44.72147110908972 H 0.0 **** 0.06
16539 H 58.90832766737299 18.21259222468671 44.1015608860028 H 0.0 **** 0.06
16540 H 59.47866980007154 17.453455670682494 45.606547077940206 H 0.0 **** 0.06
16541 C 60.90494682677013 86.07034717949875 85.6980316091632 C 0.0 **** -0.24
16542 H 60.03732899758306 85.94444108370975 86.34623255479491 H 0.0 **** 0.06
16543 H 60.768723497634994 85.48185315681435 84.79085882291258 H 0.0 **** 0.06
16544 H 61.80022062526656 85.73232059588686 86.21926410497736 H 0.0 **** 0.06
16545 H 61.01214132706704 87.12307197479359 85.43593365108967 H 0.0 **** 0.06
16546 C 52.23003321758404 99.51163215866048 59.434461791740446 C 0.0 **** -0.24
16547 H 52.886887881090956 99.50275540688408 58.56484139980567 H 0.0 **** 0.06
16548 H 51.423379765358845 98.79295060851506 59.2886004377671 H 0.0 **** 0.06
16549 H 51.810012980630916 100.50982628022163 59.561209604909465 H 0.0 **** 0.06
16550 H 52.80108659959717 99.242860887479 60.32319826880578 H 0.0 **** 0.06
16551 C 46.58883655495171 143.13405992634492 90.23324842428744 C 0.0 **** -0.24
16552 H 46.426011943004795 142.28537093641313 90.89770808049175 H 0.0 **** 0.06
16553 H 47.65316699307968 143.3643962761184 90.19407774638546 H 0.0 **** 0.06
16554 H 46.04185462007581 143.99864551496364 90.60790422442093 H 0.0 **** 0.06
16555 H 46.23261194939883 142.8839413768641 89.2334053049306 H 0.0 **** 0.06
16556 C 40.030162472527806 132.7283091883651 115.4420633125382 C 0.0 **** -0.24
16557 H 40.873539966143596 133.0836623210347 116.03353098890067 H 0.0 **** 0.06
16558 H 40.16141494083104 133.0317284973229 114.40330347316437 H 0.0 **** 0.06
16559 H 39.10652595628589 133.15684573671138 115.83237028447375 H 0.0 **** 0.06
16560 H 39.979021502289044 131.64087180914785 115.50002921218775 H 0.0 **** 0.06
16561 C 141.69693044753606 4.337305893637222 139.9412596265883 C 0.0 **** -0.24
16562 H 141.9618368298507 3.361516882429612 139.53375022924195 H 0.0 **** 0.06
16563 H 141.87135427311293 5.105292258421798 139.1868765668309 H 0.0 **** 0.06
16564 H 142.3098111408494 4.542924260712766 140.81797153414925 H 0.0 **** 0.06
16565 H 140.64524693270408 4.337945039940621 140.2249122329082 H 0.0 **** 0.06
16566 C 64.703524678033 16.159623016672207 99.85572443480852 C 0.0 **** -0.24
16567 H 64.56810320025329 16.6621802955544 98.89863005823467 H 0.0 **** 0.06
16568 H 65.34755998577056 15.290225457763775 99.72244314789185 H 0.0 **** 0.06
16569 H 63.7345552791314 15.83899509176441 100.23768451514627 H 0.0 **** 0.06
16570 H 65.1639027398439 16.8480332062067 100.56519464219974 H 0.0 **** 0.06
16571 C 18.903583934193925 67.78070190664239 17.147701253908366 C 0.0 **** -0.24
16572 H 18.850939924274712 68.80778210276145 17.50965896377855 H 0.0 **** 0.06
16573 H 19.87788247080124 67.35901605404806 17.394212668525455 H 0.0 **** 0.06
16574 H 18.765076394763668 67.76980433155856 16.06658220922992 H 0.0 **** 0.06
16575 H 18.120214391935917 67.1889321710691 17.621068149563854 H 0.0 **** 0.06
16576 C 49.98703212279486 102.0890591933296 9.004174533648154 C 0.0 **** -0.24
16577 H 50.93460626343153 102.42835782951283 9.420880802550187 H 0.0 **** 0.06
16578 H 49.8716860913496 102.48341636001578 7.994623049741222 H 0.0 **** 0.06
16579 H 49.167820209198624 102.44333364157461 9.629434415690014 H 0.0 **** 0.06
16580 H 49.974272093376385 100.99897241851943 8.971226980653654 H 0.0 **** 0.06
16581 C 128.45431447916513 32.39378972513701 79.39543717060371 C 0.0 **** -0.24
16582 H 128.37874429923838 33.39968910361233 79.8077635607786 H 0.0 **** 0.06
16583 H 129.5002480862442 32.16089208384949 79.1952595774455 H 0.0 **** 0.06
16584 H 127.88565197830826 32.33860405251754 78.46654641936678 H 0.0 **** 0.06
16585 H 128.0516776413444 31.676589892509824 80.11085835322608 H 0.0 **** 0.06
16586 C 55.54856468732714 80.32705659175615 77.44738222451116 C 0.0 **** -0.24
16587 H 55.57598927885054 79.359032796007 77.94812799173451 H 0.0 **** 0.06
16588 H 55.2500117301247 80.19068558592328 76.40843346293525 H 0.0 **** 0.06
16589 H 56.53769997976613 80.7839439799367 77.48562865680854 H 0.0 **** 0.06
16590 H 54.82937824901258 80.97470178984028 77.95088706506189 H 0.0 **** 0.06
16591 C 100.7950393448612 141.3885713594176 121.61830359626049 C 0.0 **** -0.24
16592 H 101.37511175664253 141.74135563363484 122.47007332820522 H 0.0 **** 0.06
16593 H 100.26350200537793 140.4778351825885 121.89215230454312 H 0.0 **** 0.06
16594 H 101.46510511942184 141.18178106649916 120.78339393489824 H 0.0 **** 0.06
16595 H 100.07642999839649 142.154965208661 121.32578589855456 H 0.0 **** 0.06
16596 C 144.52959607945792 32.4946474823052 45.28406289634988 C 0.0 **** -0.24
16597 H 144.7058242300899 33.45741188256443 45.76319838002384 H 0.0 **** 0.06
16598 H 144.45822120877156 32.63327656875737 44.20568028536606 H 0.0 **** 0.06
16599 H 143.59912987955983 32.0681232771787 45.658009705267816 H 0.0 **** 0.06
16600 H 145.35463042795007 31.82009689652537 45.51061371914004 H 0.0 **** 0.06
16601 C 57.56495011441527 54.8818929009129 1.80185664363648 C 0.0 **** -0.24
16602 H 58.00513172621643 55.84338038353222 1.540614623325176 H 0.0 **** 0.06
16603 H 58.35779834414777 54.1726842871109 2.041081091457528 H 0.0 **** 0.06
16604 H 56.98369141254503 54.50652393654558 0.9593947984867413 H 0.0 **** 0.06
16605 H 56.91338562196523 55.00415463847857 2.6674635333072594 H 0.0 **** 0.06
16606 C 30.888648752821965 39.798090677705076 130.01642896572534 C 0.0 **** -0.24
16607 H 30.353020216759816 40.57591776922595 129.47115049335247 H 0.0 **** 0.06
16608 H 31.33077488630046 39.09703695029492 129.30755543220891 H 0.0 **** 0.06
16609 H 30.193530473573787 39.267498618261726 130.66720245353218 H 0.0 **** 0.06
16610 H 31.674944985301778 40.25181689664774 130.61791309400286 H 0.0 **** 0.06
16611 C 32.39464627879951 137.64612683505902 35.74021831496276 C 0.0 **** -0.24
16612 H 32.06360538201335 138.02346883356478 34.77249240443439 H 0.0 **** 0.06
16613 H 33.470293823925346 137.79411061048845 35.8382828872752 H 0.0 **** 0.06
16614 H 32.165515910311655 136.58293613935822 35.81330255866811 H 0.0 **** 0.06
16615 H 31.87930220412187 138.18475893941928 36.53524813365448 H 0.0 **** 0.06
16616 C 40.089963626618385 55.70584732215002 27.402696888676793 C 0.0 **** -0.24
16617 H 39.0722028180011 55.35118357524266 27.244112532303042 H 0.0 **** 0.06
16618 H 40.06511948564787 56.65380109422637 27.94225873036232 H 0.0 **** 0.06
16619 H 40.57980744078557 55.84933669515726 26.438712768769378 H 0.0 **** 0.06
16620 H 40.64399929691183 54.97005545146618 27.985070704094376 H 0.0 **** 0.06
16621 C 48.675933982569006 138.13110867438073 129.06891332478273 C 0.0 **** -0.24
16622 H 48.08030598275468 137.37786151670093 129.58356704278063 H 0.0 **** 0.06
16623 H 48.75503249685045 137.87245886704764 128.01282374535768 H 0.0 **** 0.06
16624 H 49.672812217156945 138.1704604254915 129.50929810075715 H 0.0 **** 0.06
16625 H 48.19592249755787 139.10501314423078 129.1697675614772 H 0.0 **** 0.06
16626 C 25.80489273869486 62.77050011063801 45.64999052404309 C 0.0 **** -0.24
16627 H 26.30958713730756 63.11926373538341 46.550525894247016 H 0.0 **** 0.06
16628 H 25.279993121003642 61.83910234985041 45.865645661781116 H 0.0 **** 0.06
16629 H 26.54126734929136 62.59942993125179 44.86446717810537 H 0.0 **** 0.06
16630 H 25.089605279738976 63.52312618223476 45.31956761272323 H 0.0 **** 0.06
16631 C 102.09170617426486 134.21727192746343 21.011514082672676 C 0.0 **** -0.24
16632 H 101.2227039614682 133.72368140042775 20.576264689284187 H 0.0 **** 0.06
16633 H 101.84148111888962 134.58292993138232 22.006872857827204 H 0.0 **** 0.06
16634 H 102.38714070540638 135.0556690871788 20.3792726804991 H 0.0 **** 0.06
16635 H 102.91642295422255 133.50777356247508 21.08096043868423 H 0.0 **** 0.06
16636 C 134.89090919985486 73.94776241994225 144.49657016126878 C 0.0 **** -0.24
16637 H 135.28512198279657 74.80719467500043 143.95371752297996 H 0.0 **** 0.06
16638 H 135.00947332419594 73.0493287367274 143.88959898750366 H 0.0 **** 0.06
16639 H 133.83444939696224 74.10658057562185 144.70887630777455 H 0.0 **** 0.06
16640 H 135.43634682891576 73.82772728599477 145.43271910765182 H 0.0 **** 0.06
16641 C 112.92633043401418 99.83928411832557 117.67934430242954 C 0.0 **** -0.24
16642 H 113.63153927361384 100.5298528923638 117.21491690200443 H 0.0 **** 0.06
16643 H 113.33287722308035 99.4894642756629 118.62814104628191 H 0.0 **** 0.06
16644 H 112.7622106431478 98.98899659814288 117.01711751019221 H 0.0 **** 0.06
16645 H 111.9801950368186 100.35047385049091 117.8547476106132 H 0.0 **** 0.06
16646 C 127.78712050624773 146.9487113461656 143.91886410733736 C 0.0 **** -0.24
16647 H 127.21745257329923 146.41996070819704 144.68289793076474 H 0.0 **** 0.06
16648 H 128.83561679597972 146.65765213632213 143.98035021053894 H 0.0 **** 0.06
16649 H 127.69807950901512 148.0241054363791 144.07966464873203 H 0.0 **** 0.06
16650 H 127.39553996234855 146.69531630956027 142.9335397303143 H 0.0 **** 0.06
16651 C 60.0253016671508 34.11361605915948 144.1783104724086 C 0.0 **** -0.24
16652 H 60.252833307599644 33.154453862639514 144.64181307431127 H 0.0 **** 0.06
16653 H 58.95530893118955 34.30919923018453 144.25545506381403 H 0.0 **** 0.06
16654 H 60.3149375775057 34.08769967260722 143.12853677845797 H 0.0 **** 0.06
16655 H 60.57706626447036 34.90367064721459 144.68818700560493 H 0.0 **** 0.06
16656 C 48.988025501896885 41.342744299504275 95.2038029541892 C 0.0 **** -0.24
16657 H 47.99601766263743 41.17866740288487 94.7823510333626 H 0.0 **** 0.06
16658 H 49.52013963066182 40.39337883054323 95.25995654157248 H 0.0 **** 0.06
16659 H 48.891207469510675 41.76641378833261 96.20297105002658 H 0.0 **** 0.06
16660 H 49.54215063465523 42.0330170405918 94.56791825102016 H 0.0 **** 0.06
16661 C 26.516824708969978 147.6008441660041 129.02717569312082 C 0.0 **** -0.24
16662 H 26.818354582101676 148.6482970514364 129.05473833093419 H 0.0 **** 0.06
16663 H 25.71085241003553 147.47443214993035 128.30416383491618 H 0.0 **** 0.06
16664 H 26.17051357868533 147.2971558202774 130.01564851263026 H 0.0 **** 0.06
16665 H 27.3679531072344 146.9861315893574 128.73585225260234 H 0.0 **** 0.06
16666 C 71.0487442793798 48.90575661127201 89.33439367243588 C 0.0 **** -0.24
16667 H 70.67648743375904 48.68353810376476 88.33504378046706 H 0.0 **** 0.06
16668 H 70.22773140493351 49.26502353869927 89.95599215249055 H 0.0 **** 0.06
16669 H 71.82079248036516 49.67257122233411 89.27302265877377 H 0.0 **** 0.06
16670 H 71.46870256555607 48.00041168456275 89.77461537535804 H 0.0 **** 0.06
16671 C 31.2733168294468 69.0886093511315 60.944921070468325 C 0.0 **** -0.24
16672 H 32.046679203874305 69.1584440993717 61.71081615652892 H 0.0 **** 0.06
16673 H 31.590994831423387 68.38742495161368 60.171431762386206 H 0.0 **** 0.06
16674 H 31.1126045593642 70.07092333533197 60.50140301727647 H 0.0 **** 0.06
16675 H 30.345867865112893 68.73681062550494 61.39615442267544 H 0.0 **** 0.06
16676 C 5.899267785645833 79.74050481012577 19.560508655625284 C 0.0 **** -0.24
16677 H 5.633033300374279 80.19545417558537 18.60705455884687 H 0.0 **** 0.06
16678 H 5.824289447316545 78.65616084536607 19.479571063131885 H 0.0 **** 0.06
16679 H 5.218106128623077 80.09458540641373 20.334644452316155 H 0.0 **** 0.06
16680 H 6.921177482797901 80.01624986126566 19.822376467446418 H 0.0 **** 0.06
16681 C 141.79443944094538 48.061273104354 38.73592263376082 C 0.0 **** -0.24
16682 H 141.8798168150597 47.492212550858426 39.66121245000875 H 0.0 **** 0.06
16683 H 140.989652501335 47.647186075190604 38.12738303120892 H 0.0 **** 0.06
16684 H 142.73382570500104 48.003004303995056 38.185866556148596 H 0.0 **** 0.06
16685 H 141.57403771414874 49.10357877972248 38.969397455403964 H 0.0 **** 0.06
16686 C 57.664770821331146 86.75620751602168 107.23334430481499 C 0.0 **** -0.24
16687 H 58.70123134078051 86.81647563971427 107.56613680475779 H 0.0 **** 0.06
16688 H 57.00392551508668 86.76049062923823 108.10018605598422 H 0.0 **** 0.06
16689 H 57.51787381937571 85.83452561679275 106.6695320465699 H 0.0 **** 0.06
16690 H 57.436325761719246 87.61052461022243 106.5976198589983 H 0.0 **** 0.06
16691 C 114.89496077907528 44.73602557501738 55.25235388950023 C 0.0 **** -0.24
16692 H 114.34873651775548 44.01010362763853 54.650383914077935 H 0.0 **** 0.06
16693 H 115.7953522947533 44.26940756502981 55.65529598665 H 0.0 **** 0.06
16694 H 114.26374088773152 45.07552954044243 56.07345253319602 H 0.0 **** 0.06
16695 H 115.17298391969756 45.58685805149193 54.63176735286109 H 0.0 **** 0.06
16696 C 123.87990296906652 107.3944938229958 142.52357023988543 C 0.0 **** -0.24
16697 H 123.92842196165371 107.88006239226712 143.4983243432136 H 0.0 **** 0.06
16698 H 123.02462095254582 107.78092576394073 141.96871212021907 H 0.0 **** 0.06
16699 H 123.76847000519756 106.31800069662387 142.65895037616312 H 0.0 **** 0.06
16700 H 124.79544570631718 107.59890457621526 141.9696919358764 H 0.0 **** 0.06
16701 C 132.86973111716893 92.30811801624941 89.23795504140048 C 0.0 **** -0.24
16702 H 132.04252268976578 92.01010631380808 88.59376273681329 H 0.0 **** 0.06
16703 H 133.20501833569736 91.44872185782975 89.81931744052639 H 0.0 **** 0.06
16704 H 132.53843861160968 93.09672866876735 89.91339192958178 H 0.0 **** 0.06
16705 H 133.69345358818046 92.67640308053376 88.62604009322345 H 0.0 **** 0.06
16706 C 131.97290686281315 149.00718278897398 107.47430497228457 C 0.0 **** -0.24
16707 H 132.95564849675273 148.56510966117864 107.30726979278826 H 0.0 **** 0.06
16708 H 131.20844474284786 148.36877654415338 107.03018262661625 H 0.0 **** 0.06
16709 H 131.93508673410034 149.99345036480852 107.01293922743578 H 0.0 **** 0.06
16710 H 131.79327319866331 149.09854314822732 108.54534909008301 H 0.0 **** 0.06
16711 C 9.17413614755506 99.3908567059238 2.140623726599536 C 0.0 **** -0.24
16712 H 10.25089445757672 99.22200850893648 2.132419606625483 H 0.0 **** 0.06
16713 H 8.737865166130888 98.99474586666048 1.2231171313521294 H 0.0 **** 0.06
16714 H 8.97424453259518 100.45949323153235 2.2068335221101023 H 0.0 **** 0.06
16715 H 8.73440271739716 98.88488980087271 3.000001104463667 H 0.0 **** 0.06
16716 C 142.64279907793735 75.53518193262676 132.4429506602611 C 0.0 **** -0.24
16717 H 142.21712238613136 74.69178267047914 131.89897038983185 H 0.0 **** 0.06
16718 H 143.03159143962327 75.18975134225423 133.40132831137547 H 0.0 **** 0.06
16719 H 141.86991172516218 76.28475172358446 132.61255239200898 H 0.0 **** 0.06
16720 H 143.4523398429367 75.97305746750783 131.8591242788196 H 0.0 **** 0.06
16721 C 21.29240182971901 92.86460792244141 44.910869772424576 C 0.0 **** -0.24
16722 H 21.001735277815044 93.77729605191699 45.43223994987579 H 0.0 **** 0.06
16723 H 20.974643313654354 91.99845081739029 45.49138065241638 H 0.0 **** 0.06
16724 H 22.374930877994586 92.84469914860813 44.788215970879946 H 0.0 **** 0.06
16725 H 20.815750729638125 92.84026181317998 43.930488463966526 H 0.0 **** 0.06
16726 C 30.504041595597016 99.72139757863803 37.85506274464129 C 0.0 **** -0.24
16727 H 31.17831809177494 99.3102114085628 37.10463181590407 H 0.0 **** 0.06
16728 H 30.286085804736786 100.76296712188636 37.615591028884126 H 0.0 **** 0.06
16729 H 30.974273399225808 99.66453031775148 38.83623735237816 H 0.0 **** 0.06
16730 H 29.576250855760918 99.14881907174745 37.86189660611933 H 0.0 **** 0.06
16731 C 125.64322895520345 90.23365826791314 2.242305340702501 C 0.0 **** -0.24
16732 H 126.21645348906699 91.10768627822449 1.9334993397191624 H 0.0 **** 0.06
16733 H 125.70022314773794 89.4695123868405 1.4667344289246955 H 0.0 **** 0.06
16734 H 124.60252368945496 90.51826660484744 2.397740641495176 H 0.0 **** 0.06
16735 H 126.05490084748939 89.84006643972464 3.172583939803644 H 0.0 **** 0.06
16736 C 147.88496603410545 30.721820739928546 136.0308601047122 C 0.0 **** -0.24
16737 H 146.93574150754344 30.191389328518085 136.0994440863835 H 0.0 **** 0.06
16738 H 148.42935969399147 30.379163712140496 135.1501630877041 H 0.0 **** 0.06
16739 H 148.47805471625284 30.524481694178576 136.92364820250626 H 0.0 **** 0.06
16740 H 147.69831019579647 31.792947151689987 135.94846882837365 H 0.0 **** 0.06
16741 C 24.91705293167921 133.03706389837552 39.12831305433623 C 0.0 **** -0.24
16742 H 25.649054499919743 133.74141359919363 39.523284801052995 H 0.0 **** 0.06
16743 H 24.346770959266934 133.5153340259089 38.33108743189135 H 0.0 **** 0.06
16744 H 24.241039284155995 132.73083491174893 39.92560771712046 H 0.0 **** 0.06
16745 H 25.432076189957456 132.16248576375366 38.732184823617246 H 0.0 **** 0.06
16746 C 2.053752175851656 36.343752944166624 28.12439588615058 C 0.0 **** -0.24
16747 H 2.0072325289600883 35.594317955318104 27.33439550838827 H 0.0 **** 0.06
16748 H 1.3070198323927684 36.11441699592814 28.88531267127584 H 0.0 **** 0.06
16749 H 1.8541919135076341 37.329092721525285 27.703632655789562 H 0.0 **** 0.06
16750 H 3.0463909383529426 36.335306829516924 28.575445175391422 H 0.0 **** 0.06
16751 C 90.30871963038355 5.41179136849804 4.115193602714044 C 0.0 **** -0.24
16752 H 91.305103792459 5.133318983011982 4.456444489004468 H 0.0 **** 0.06
16753 H 89.66650032923724 4.530435924817912 4.111259550358284 H 0.0 **** 0.06
16754 H 90.37144550699914 5.820107482877603 3.10557339298191 H 0.0 **** 0.06
16755 H 89.89174277385321 6.162928444437082 4.7850777950007455 H 0.0 **** 0.06
16756 C 101.09660153577735 97.59093800370029 96.54650258330797 C 0.0 **** -0.24
16757 H 100.424406748223 96.8428734655277 96.1277806595913 H 0.0 **** 0.06
16758 H 101.94635377763059 97.09393638426349 97.01508024137472 H 0.0 **** 0.06
16759 H 100.5641559650683 98.18013215272171 97.29282452183132 H 0.0 **** 0.06
16760 H 101.45179906252943 98.24638299671574 95.7516371589409 H 0.0 **** 0.06
16761 C 114.96236182291274 125.38985707672205 80.09232131740627 C 0.0 **** -0.24
16762 H 114.04911734299809 125.95228509307248 79.89886145655358 H 0.0 **** 0.06
16763 H 115.24853375769565 124.8436692508843 79.19310722058299 H 0.0 **** 0.06
16764 H 114.78971185497129 124.68625998035041 80.90653356683104 H 0.0 **** 0.06
16765 H 115.76148120966847 126.07872788353178 80.3689542112436 H 0.0 **** 0.06
16766 C 24.060868152144323 59.79105622032904 145.3349202564198 C 0.0 **** -0.24
16767 H 25.149286990029253 59.74235580903536 145.35120390843312 H 0.0 **** 0.06
16768 H 23.679642594155666 59.13669359951314 144.55007557788693 H 0.0 **** 0.06
16769 H 23.74685701817522 60.81608360511348 145.13830808500566 H 0.0 **** 0.06
16770 H 23.667895289948845 59.46851723675155 146.29881827873973 H 0.0 **** 0.06
16771 C 15.103042405127098 90.69356410518782 0.9940625482725842 C 0.0 **** -0.24
16772 H 16.162834185382394 90.44206761656619 0.96667006950738 H 0.0 **** 0.06
16773 H 14.964038291773477 91.62229625676656 1.5467033905855132 H 0.0 **** 0.06
16774 H 14.551766499756923 89.89185491270058 1.486747820373406 H 0.0 **** 0.06
16775 H 14.732727286494708 90.8157250193895 -0.023789556310799043 H 0.0 **** 0.06
16776 C 31.14969645515737 82.78789597858461 113.68622625896732 C 0.0 **** -0.24
16777 H 31.851872980685187 82.2528829469242 114.32459810931748 H 0.0 **** 0.06
16778 H 30.22597065494574 82.21559147967763 113.60367522954105 H 0.0 **** 0.06
16779 H 31.585794274585226 82.91846201119834 112.69599210718074 H 0.0 **** 0.06
16780 H 30.934852427344254 83.76479743955431 114.11969606587682 H 0.0 **** 0.06
16781 C 87.62910616137749 113.64250743162138 15.792379514561844 C 0.0 **** -0.24
16782 H 87.06997871314218 113.64279362822832 16.727390665984927 H 0.0 **** 0.06
16783 H 88.20922392735582 114.5634000178715 15.715712754666129 H 0.0 **** 0.06
16784 H 86.93585865016783 113.5794560692156 14.953786116806299 H 0.0 **** 0.06
16785 H 88.30341838269256 112.78548274375545 15.771879480744104 H 0.0 **** 0.06
16786 C 17.857524976739526 6.338396817003581 0.29430527861065414 C 0.0 **** -0.24
16787 H 18.932250510123637 6.2374806066059065 0.44524045122355105 H 0.0 **** 0.06
16788 H 17.670155466243237 6.988289613137269 -0.561094945325042 H 0.0 **** 0.06
16789 H 17.404481910201476 6.771210677045165 1.186379623042498 H 0.0 **** 0.06
16790 H 17.423955349562362 5.355403653563805 0.1067276898769336 H 0.0 **** 0.06
16791 C 15.456545362893678 59.942895092934094 119.76035291183038 C 0.0 **** -0.24
16792 H 14.852438422449325 60.83327041573568 119.93378895605545 H 0.0 **** 0.06
16793 H 15.416906971600497 59.67823880050878 118.70382022412022 H 0.0 **** 0.06
16794 H 15.066726613966352 59.11785655721076 120.3573698939156 H 0.0 **** 0.06
16795 H 16.48867129255558 60.14311491135122 120.04749148987989 H 0.0 **** 0.06
16796 C 8.016318674281166 69.60324068340827 68.54140850605343 C 0.0 **** -0.24
16797 H 8.806509910888195 69.48755913628096 69.28355073612997 H 0.0 **** 0.06
16798 H 8.394759441556964 70.17921587580085 67.6955930829015 H 0.0 **** 0.06
16799 H 7.171428872835385 70.12706908775138 68.9894861143635 H 0.0 **** 0.06
16800 H 7.693373121236 68.62087938937742 68.19751910144537 H 0.0 **** 0.06
16801 C 22.23801028466739 112.71899613165938 137.4357500197453 C 0.0 **** -0.24
16802 H 22.73750781276169 111.83451761978499 137.83237011749264 H 0.0 **** 0.06
16803 H 21.549349836274608 113.11232052822656 138.1835656337946 H 0.0 **** 0.06
16804 H 21.684523810284283 112.44950119247927 136.53681473511662 H 0.0 **** 0.06
16805 H 22.982045605422464 113.47741591221931 137.1917021338265 H 0.0 **** 0.06
16806 C 85.6773333134824 74.19426917372455 129.15458120403196 C 0.0 **** -0.24
16807 H 84.64097305708063 74.09836121651662 128.8302533169229 H 0.0 **** 0.06
16808 H 86.13879748064849 75.04312177744607 128.64834546401926 H 0.0 **** 0.06
16809 H 86.22185260181541 73.2833576739259 128.90637874798728 H 0.0 **** 0.06
16810 H 85.70675185665695 74.35374888850569 130.23167599673172 H 0.0 **** 0.06
16811 C 84.34887263515704 26.19551067112883 53.80649927986431 C 0.0 **** -0.24
16812 H 83.49871013751093 26.83042248995349 53.55635290914714 H 0.0 **** 0.06
16813 H 84.89218376341724 26.630224106930314 54.64460230133204 H 0.0 **** 0.06
16814 H 85.01050601401536 26.118541496744285 52.944175980904134 H 0.0 **** 0.06
16815 H 83.99141078727665 25.202364035110804 54.07960968345523 H 0.0 **** 0.06
16816 C 119.06893110321448 103.4115265814929 123.65471233393187 C 0.0 **** -0.24
16817 H 119.10008199169908 102.32611371964529 123.75092581624934 H 0.0 **** 0.06
16818 H 118.05368642148812 103.76288209548912 123.83666285617694 H 0.0 **** 0.06
16819 H 119.37723319507847 103.69508880962852 122.6486553034709 H 0.0 **** 0.06
16820 H 119.745485025211 103.85992755361221 124.38242165197529 H 0.0 **** 0.06
16821 C 96.3035767864377 58.996383212016354 49.04954458300787 C 0.0 **** -0.24
16822 H 96.75991419380466 59.98170021197711 48.95077671766995 H 0.0 **** 0.06
16823 H 96.55370770363118 58.39284871463323 48.176869311995034 H 0.0 **** 0.06
16824 H 95.22183898946759 59.10344358619656 49.12063499193246 H 0.0 **** 0.06
16825 H 96.68157013563405 58.510514424563326 49.949039458309045 H 0.0 **** 0.06
16826 C 131.1616950159924 13.274118716177782 44.89489166620126 C 0.0 **** -0.24
16827 H 130.6629008674898 12.339711417495948 45.152744128261205 H 0.0 **** 0.06
16828 H 132.2292821665821 13.183258215910314 45.09423437524276 H 0.0 **** 0.06
16829 H 130.74733110753854 14.08432531107269 45.495891128490484 H 0.0 **** 0.06
16830 H 131.00506165336822 13.489506082517664 43.83771439999275 H 0.0 **** 0.06
16831 C 42.015387701238225 6.110830929166923 12.207517490552107 C 0.0 **** -0.24
16832 H 41.901410870077186 5.450586566305475 11.347836653316477 H 0.0 **** 0.06
16833 H 42.13370691214915 5.513458043668038 13.11220900055568 H 0.0 **** 0.06
16834 H 41.13025834522381 6.740790451435686 12.30088526184781 H 0.0 **** 0.06
16835 H 42.89543949515031 6.739472495125341 12.06843787658994 H 0.0 **** 0.06
16836 C 49.63311937831975 115.49568727227631 39.08626353853559 C 0.0 **** -0.24
16837 H 49.13999616821806 114.98050178479514 39.91019974555269 H 0.0 **** 0.06
16838 H 48.95248030221737 116.23105805690574 38.65859930316745 H 0.0 **** 0.06
16839 H 49.913148734279474 114.77102436664501 38.32217735866419 H 0.0 **** 0.06
16840 H 50.52707877801808 115.99868408051685 39.45573790495264 H 0.0 **** 0.06
16841 C 93.21876998804461 17.168848386938123 18.278229911805113 C 0.0 **** -0.24
16842 H 94.10127592791554 17.79963451397174 18.38927335369135 H 0.0 **** 0.06
16843 H 92.71549041247691 17.41145203690047 17.341386977022978 H 0.0 **** 0.06
16844 H 92.53963612818804 17.345648022940736 19.111925630773897 H 0.0 **** 0.06
16845 H 93.51894216045737 16.121400150626584 18.26877925254405 H 0.0 **** 0.06
16846 C 112.41134926551565 62.22113005574806 110.24831078391294 C 0.0 **** -0.24
16847 H 111.59133640423185 61.99631726840863 109.56679220233325 H 0.0 **** 0.06
16848 H 113.27919466941886 62.548699013871044 109.67541425139562 H 0.0 **** 0.06
16849 H 112.66742367215925 61.32659463995594 110.81598302104528 H 0.0 **** 0.06
16850 H 112.10843182964798 63.01234215928474 110.93421742706347 H 0.0 **** 0.06
16851 C 146.08288461518805 66.18723585097109 9.161099993806317 C 0.0 **** -0.24
16852 H 145.2700960875506 65.76485873919356 8.569964745426802 H 0.0 **** 0.06
16853 H 146.24236680996725 67.2254647561567 8.867755995516234 H 0.0 **** 0.06
16854 H 146.99412112231732 65.61659822775638 8.986199568903118 H 0.0 **** 0.06
16855 H 145.8236013235111 66.14392412401656 10.218595491179912 H 0.0 **** 0.06
16856 C 117.62675664631426 130.99726524615676 134.92286223621906 C 0.0 **** -0.24
16857 H 117.17195016087497 130.0812069982677 134.54384127599803 H 0.0 **** 0.06
16858 H 117.50416020122306 131.04115988555964 136.00486585951407 H 0.0 **** 0.06
16859 H 117.1418004577343 131.85958361212292 134.46593992939307 H 0.0 **** 0.06
16860 H 118.68815343299808 131.00415425812716 134.67622310260074 H 0.0 **** 0.06
16861 C 44.7837184947971 59.976070660252006 61.30924117950157 C 0.0 **** -0.24
16862 H 45.780242685510586 59.53595185496398 61.305190266209365 H 0.0 **** 0.06
16863 H 44.0508862721514 59.21507702717908 61.577595627915585 H 0.0 **** 0.06
16864 H 44.55530100019497 60.36727341548479 60.31841208515331 H 0.0 **** 0.06
16865 H 44.74810288599332 60.78739406396241 62.03746532749514 H 0.0 **** 0.06
16866 C 77.4056551656586 103.64882990092892 2.1082318883405833 C 0.0 **** -0.24
16867 H 77.98524347487853 103.23439597961155 1.2839046674504857 H 0.0 **** 0.06
16868 H 76.35659095513009 103.37834764561731 1.985875294230084 H 0.0 **** 0.06
16869 H 77.50428433887538 104.73423415887171 2.112020988551876 H 0.0 **** 0.06
16870 H 77.77711251213722 103.24714690814008 3.051573150947604 H 0.0 **** 0.06
16871 C 29.659647833609696 61.29016219867458 4.306373353703432 C 0.0 **** -0.24
16872 H 30.242914912598863 60.37093565469709 4.25156859114626 H 0.0 **** 0.06
16873 H 29.78037866782045 61.737801779097296 5.293816731780009 H 0.0 **** 0.06
16874 H 28.60702254094663 61.06429017978016 4.136979450397433 H 0.0 **** 0.06
16875 H 30.008573388870325 61.988232214987605 3.5462170221041163 H 0.0 **** 0.06
16876 C 146.5139129470984 139.88898225223156 140.6554148594918 C 0.0 **** -0.24
16877 H 147.20648217056424 139.85758413788147 139.81541519011319 H 0.0 **** 0.06
16878 H 145.6515892194365 140.50431731668417 140.39391510221367 H 0.0 **** 0.06
16879 H 147.01496301299773 140.31665229471292 141.5241977282939 H 0.0 **** 0.06
16880 H 146.1809729763696 138.87786331420477 140.8898801143785 H 0.0 **** 0.06
16881 C 117.2876178295096 124.45755803226899 48.03141738620654 C 0.0 **** -0.24
16882 H 116.89445046652673 123.45029184101605 48.17131288842759 H 0.0 **** 0.06
16883 H 117.84086863966718 124.75763261179856 48.92125066571687 H 0.0 **** 0.06
16884 H 116.46244452479357 125.14908520644599 47.864394547828596 H 0.0 **** 0.06
16885 H 117.95283478073435 124.47025902587308 47.16826180232641 H 0.0 **** 0.06
16886 C 90.85561860669934 26.025300437045217 58.396760329462495 C 0.0 **** -0.24
16887 H 90.12201243714942 26.79443511481756 58.63947073167796 H 0.0 **** 0.06
16888 H 91.51767839821028 25.872826099765263 59.24896504809185 H 0.0 **** 0.06
16889 H 91.44089298080158 26.341313133279897 57.53295341600703 H 0.0 **** 0.06
16890 H 90.34018100667923 25.092661963427545 58.164211204759354 H 0.0 **** 0.06
16891 C 82.41424405315595 106.43052998852941 65.27758807999778 C 0.0 **** -0.24
16892 H 82.24995848247781 106.34978338698237 66.35123497384697 H 0.0 **** 0.06
16893 H 82.01685814148652 105.5449701132706 64.78118537601854 H 0.0 **** 0.06
16894 H 83.48379907964394 106.50881491268207 65.07833933865547 H 0.0 **** 0.06
16895 H 81.90767370649297 107.31809738102142 64.89784065146588 H 0.0 **** 0.06
16896 C 92.29393585496132 145.80017170936608 14.10541837928045 C 0.0 **** -0.24
16897 H 92.76611026221867 145.39549161845534 15.000933235273642 H 0.0 **** 0.06
16898 H 92.44796184729915 146.87946834672246 14.071135622909573 H 0.0 **** 0.06
16899 H 91.22570636242918 145.58527281484518 14.129097296222646 H 0.0 **** 0.06
16900 H 92.73816765948513 145.34085433031723 13.222235985316246 H 0.0 **** 0.06
16901 C 53.32045450393255 3.619320110015906 97.53148412638096 C 0.0 **** -0.24
16902 H 52.74560879950147 2.9741407418634935 96.86736254849059 H 0.0 **** 0.06
16903 H 53.434906089930365 4.602339147035082 97.07398340062001 H 0.0 **** 0.06
16904 H 54.30422035615581 3.1809604499455304 97.70219463131967 H 0.0 **** 0.06
16905 H 52.79877803924222 3.7200202098437956 98.48270208414623 H 0.0 **** 0.06
16906 C 0.6341050776030386 145.6942406336629 60.14368049578357 C 0.0 **** -0.24
16907 H -0.31602438835349744 145.83329354408662 59.628574929349426 H 0.0 **** 0.06
16908 H 0.5596497676604315 146.08832369614692 61.15657011580987 H 0.0 **** 0.06
16909 H 1.4200617092492394 146.22298910419465 59.60409387184761 H 0.0 **** 0.06
16910 H 0.873001514306452 144.63165067645903 60.18392409874791 H 0.0 **** 0.06
16911 C 47.414041642406715 118.43870420111675 39.75133208916435 C 0.0 **** -0.24
16912 H 46.70554858019929 119.00577175139752 40.355349860047 H 0.0 **** 0.06
16913 H 48.405212421016614 118.49751380554004 40.20297294868095 H 0.0 **** 0.06
16914 H 47.44728038855604 118.85441438728601 38.744530871932966 H 0.0 **** 0.06
16915 H 47.09789277918574 117.39650940432186 39.7032342968443 H 0.0 **** 0.06
16916 C 117.27501140886281 79.31333413015567 107.87984645375799 C 0.0 **** -0.24
16917 H 116.87813754345942 79.34560818218054 108.89418514459693 H 0.0 **** 0.06
16918 H 116.55310713000571 79.75578890256216 107.19219717440471 H 0.0 **** 0.06
16919 H 117.4601288633531 78.27708138550643 107.59515838103415 H 0.0 **** 0.06
16920 H 118.20857980411583 79.87383465005928 107.83687341199662 H 0.0 **** 0.06
16921 C 79.2569583367379 12.335141020784818 74.92176254479689 C 0.0 **** -0.24
16922 H 80.16934904624274 12.931296907863185 74.90842714870736 H 0.0 **** 0.06
16923 H 79.48737034679519 11.325710461023021 75.26283254357921 H 0.0 **** 0.06
16924 H 78.83589164124645 12.293305551953466 73.91764398313622 H 0.0 **** 0.06
16925 H 78.53483092897254 12.792819522695396 75.59964672811064 H 0.0 **** 0.06
16926 C 103.303011817733 105.42671006872612 111.56774065512515 C 0.0 **** -0.24
16927 H 103.33475092235457 104.46096400674296 112.07213004431465 H 0.0 **** 0.06
16928 H 103.12695591756253 105.27450221358711 110.5035891072368 H 0.0 **** 0.06
16929 H 104.2542766155589 105.94070991954274 111.70959255840445 H 0.0 **** 0.06
16930 H 102.49781288039983 106.02977756861671 111.98813186556661 H 0.0 **** 0.06
16931 C 2.7102465552283945 123.09958639115833 2.245166687153528 C 0.0 **** -0.24
16932 H 3.5771628748380238 123.71195334019082 2.492011324632216 H 0.0 **** 0.06
16933 H 2.01566216757206 123.09804541105426 3.085309320485379 H 0.0 **** 0.06
16934 H 3.032841252240331 122.0793525522712 2.03720740652372 H 0.0 **** 0.06
16935 H 2.2153047690014205 123.51039800547561 1.3651241124099727 H 0.0 **** 0.06
16936 C 65.89730821886039 69.62382118951247 9.270189227308691 C 0.0 **** -0.24
16937 H 65.09431761589308 69.66884470294536 8.53485023197777 H 0.0 **** 0.06
16938 H 66.60256187193458 70.43514164566554 9.08882246868015 H 0.0 **** 0.06
16939 H 66.41366634855996 68.66733709073239 9.187334272614663 H 0.0 **** 0.06
16940 H 65.47750098298138 69.72385515256201 10.2713568417295 H 0.0 **** 0.06
16941 C 142.86614390873703 42.647036219433915 150.16915911309567 C 0.0 **** -0.24
16942 H 143.06368064167472 43.219661183294605 151.07558417294118 H 0.0 **** 0.06
16943 H 141.9011390505153 42.941397279935515 149.75648287636355 H 0.0 **** 0.06
16944 H 142.85068223603386 41.583092368336835 150.40849559828123 H 0.0 **** 0.06
16945 H 143.65082822527472 42.84346437375996 149.43822819672945 H 0.0 **** 0.06
16946 C 94.01765574678544 146.4010864533397 31.1172830864351 C 0.0 **** -0.24
16947 H 93.42211736351632 146.27536908303466 30.213293238778924 H 0.0 **** 0.06
16948 H 93.36327741890145 146.6572645531896 31.95109319942963 H 0.0 **** 0.06
16949 H 94.7428154670713 147.19993700387053 30.966304231935183 H 0.0 **** 0.06
16950 H 94.54145092021096 145.47116850891513 31.339282472111442 H 0.0 **** 0.06
16951 C 96.28860879562289 75.07852011576564 131.01232864899075 C 0.0 **** -0.24
16952 H 96.38480205924395 75.20836554200358 129.93450839760908 H 0.0 **** 0.06
16953 H 95.37877008782577 75.57181592433247 131.35606153736344 H 0.0 **** 0.06
16954 H 97.15250299096658 75.51992700978786 131.50911456994135 H 0.0 **** 0.06
16955 H 96.23710456818665 74.01572501398225 131.24754418478832 H 0.0 **** 0.06
16956 C 17.02905767628244 33.60690976957919 42.44331711125969 C 0.0 **** -0.24
16957 H 15.956458365111601 33.77911346817368 42.346023010795165 H 0.0 **** 0.06
16958 H 17.339501082325285 32.84345168022684 41.72945847816615 H 0.0 **** 0.06
16959 H 17.252470859025692 33.270873502362015 43.455618766781555 H 0.0 **** 0.06
16960 H 17.56490581901201 34.534257796926255 42.24138177542133 H 0.0 **** 0.06
16961 C 81.86571429312167 120.34868088436667 124.98438766301668 C 0.0 **** -0.24
16962 H 82.65979448657353 119.60714787412508 124.89136099549218 H 0.0 **** 0.06
16963 H 81.00854319884348 120.03861525642054 124.38549238128225 H 0.0 **** 0.06
16964 H 82.22756092063318 121.31296019105855 124.62911047573748 H 0.0 **** 0.06
16965 H 81.56875617860172 120.43402995582977 126.02937611976921 H 0.0 **** 0.06
16966 C 96.20515827757328 84.53766464706855 138.0628161079781 C 0.0 **** -0.24
16967 H 95.12011478902033 84.57278127514851 138.16688330224684 H 0.0 **** 0.06
16968 H 96.48694305192271 83.65175794354224 137.49295632771282 H 0.0 **** 0.06
16969 H 96.66342854729402 84.49532199354489 139.0512026546297 H 0.0 **** 0.06
16970 H 96.54798971831013 85.431016865634 137.54076926902923 H 0.0 **** 0.06
16971 C 34.795737429126746 118.87355041439854 108.11430765671531 C 0.0 **** -0.24
16972 H 34.51983378910779 118.43286019700078 107.15597221406045 H 0.0 **** 0.06
16973 H 34.464980857384546 118.22057625596985 108.92261413333074 H 0.0 **** 0.06
16974 H 34.31920331133179 119.8491418303709 108.21633289954258 H 0.0 **** 0.06
16975 H 35.87788655085217 118.99116860476165 108.16147424284088 H 0.0 **** 0.06
16976 C 63.585196901867704 133.788847310729 69.53516473191705 C 0.0 **** -0.24
16977 H 63.4788470611075 133.328721965526 70.51768387755114 H 0.0 **** 0.06
16978 H 62.60474868498065 133.87581071913468 69.06642582810396 H 0.0 **** 0.06
16979 H 64.23302961966877 133.1716821632436 68.91296828404207 H 0.0 **** 0.06
16980 H 64.02508778278985 134.7810369211137 69.6448749974131 H 0.0 **** 0.06
16981 C 148.25552806694068 108.36643149294595 2.8173117595327817 C 0.0 **** -0.24
16982 H 149.16170112802186 107.79408563557938 2.615351024712833 H 0.0 **** 0.06
16983 H 148.04661989588138 109.02577154860369 1.9759007503231416 H 0.0 **** 0.06
16984 H 148.39602531348382 108.95993610101506 3.72023659405113 H 0.0 **** 0.06
16985 H 147.41893901213402 107.68159244094123 2.9597046971397525 H 0.0 **** 0.06
16986 C 100.79771567100204 130.0689499899977 54.845382338494915 C 0.0 **** -0.24
16987 H 100.21402329936774 129.14874752155856 54.84568713318811 H 0.0 **** 0.06
16988 H 100.5654072481906 130.64638296518228 53.95002683674858 H 0.0 **** 0.06
16989 H 101.86052899685932 129.82606158329122 54.855208858452556 H 0.0 **** 0.06
16990 H 100.55102997969064 130.6554709013658 55.73109556495592 H 0.0 **** 0.06
16991 C 108.05979014372174 68.89149357979696 29.033269879171336 C 0.0 **** -0.24
16992 H 108.93402778656902 69.42431874772902 29.40674725794777 H 0.0 **** 0.06
16993 H 107.31704102432347 69.61158343946451 28.68702878395174 H 0.0 **** 0.06
16994 H 107.63382879892278 68.28541472184696 29.832839034250277 H 0.0 **** 0.06
16995 H 108.35410794723545 68.24583571379574 28.20569786165222 H 0.0 **** 0.06
16996 C 62.77409192399463 106.26467383049376 35.29959772771938 C 0.0 **** -0.24
16997 H 62.75390233592327 107.3480923770974 35.181398236447436 H 0.0 **** 0.06
16998 H 62.85351833736908 106.01678603700756 36.35843180305265 H 0.0 **** 0.06
16999 H 63.63241423515669 105.85650716500251 34.76536529731867 H 0.0 **** 0.06
17000 H 61.85748682957856 105.83794070127843 34.894027300248055 H 0.0 **** 0.06
17001 C 58.94001380984753 99.6481739077054 119.45623924655085 C 0.0 **** -0.24
17002 H 59.207457574009425 100.00724410994592 118.46287230788484 H 0.0 **** 0.06
17003 H 59.15730590861318 98.58184675400342 119.52719749328368 H 0.0 **** 0.06
17004 H 57.87661862367753 99.81411346298228 119.627913983444 H 0.0 **** 0.06
17005 H 59.51794759127671 100.18790895632108 120.20556965314098 H 0.0 **** 0.06
17006 C 64.97749886901096 66.67599971810216 84.57838860672928 C 0.0 **** -0.24
17007 H 65.97300015211776 66.70180778167366 84.13321820406624 H 0.0 **** 0.06
17008 H 64.74769269961156 67.65043185561939 85.00989832064198 H 0.0 **** 0.06
17009 H 64.94869622859636 65.91623823993856 85.35807079191801 H 0.0 **** 0.06
17010 H 64.2425200577369 66.43641439262835 83.80927838060367 H 0.0 **** 0.06
17011 C 96.0444105433311 93.79652308475507 41.59796339267231 C 0.0 **** -0.24
17012 H 95.31296666554779 94.40294246150357 42.13140396853075 H 0.0 **** 0.06
17013 H 97.0428944934078 94.01006657858595 41.980751190012285 H 0.0 **** 0.06
17014 H 96.0049014211936 94.031286426783 40.53392875350009 H 0.0 **** 0.06
17015 H 95.81702414527912 92.74051457638322 41.74519095711442 H 0.0 **** 0.06
17016 C 125.88992129211067 93.97263906203138 20.35201233547278 C 0.0 **** -0.24
17017 H 125.0207130787523 93.54232619392245 19.853870359762 H 0.0 **** 0.06
17018 H 125.59535885081664 94.88434312156183 20.87177493562112 H 0.0 **** 0.06
17019 H 126.65363031886613 94.20627868118186 19.610734043381257 H 0.0 **** 0.06
17020 H 126.2868292162949 93.25624764231557 21.07018561501698 H 0.0 **** 0.06
17021 C 130.1076230745996 41.67766277022855 60.41215850431445 C 0.0 **** -0.24
17022 H 130.54701447956313 41.12788880674731 59.57992520790823 H 0.0 **** 0.06
17023 H 129.07228350172667 41.926464565309004 60.17645706974109 H 0.0 **** 0.06
17024 H 130.6728853539153 42.59384978460383 60.580159572473704 H 0.0 **** 0.06
17025 H 130.13806786494155 41.0617808054364 61.3108686895838 H 0.0 **** 0.06
17026 C 37.620358537736514 57.48130956089112 3.711527501197743 C 0.0 **** -0.24
17027 H 37.903382413449165 57.723999595912574 4.735847529864905 H 0.0 **** 0.06
17028 H 37.40448657080206 58.40202647474439 3.168210656462847 H 0.0 **** 0.06
17029 H 36.733438751732436 56.84831460972502 3.7204237112067915 H 0.0 **** 0.06
17030 H 38.439268499474124 56.954098849935775 3.223364844584168 H 0.0 **** 0.06
17031 C 109.35612998157622 105.56520620570635 61.928837889244534 C 0.0 **** -0.24
17032 H 109.47174365591358 106.33716061564363 62.68899860592404 H 0.0 **** 0.06
17033 H 109.02874148769142 104.63786138446139 62.4006184524178 H 0.0 **** 0.06
17034 H 110.31073305869545 105.40222059849756 61.429338026910216 H 0.0 **** 0.06
17035 H 108.61252354817306 105.88300203505409 61.19742501249107 H 0.0 **** 0.06
17036 C 38.21447823266382 3.3450838071710223 76.344895524688 C 0.0 **** -0.24
17037 H 38.95336177541006 4.089055371768893 76.04838940706033 H 0.0 **** 0.06
17038 H 38.70615362013925 2.548811743139396 76.90450130396226 H 0.0 **** 0.06
17039 H 37.742735565671296 2.927204745310206 75.45517508893722 H 0.0 **** 0.06
17040 H 37.45653943993912 3.814800344099183 76.9713910368628 H 0.0 **** 0.06
17041 C 43.1558761177796 21.406078482626043 19.648938640655693 C 0.0 **** -0.24
17042 H 43.53729263378652 22.100389383044273 18.89917443987953 H 0.0 **** 0.06
17043 H 43.97529940503692 21.077348012625663 20.28921849226456 H 0.0 **** 0.06
17044 H 42.71343689788229 20.542490285965755 19.152067974880303 H 0.0 **** 0.06
17045 H 42.399004600084226 21.905243223786584 20.25414319907425 H 0.0 **** 0.06
17046 C 77.45726643280321 112.10811334559175 2.832386185341761 C 0.0 **** -0.24
17047 H 78.25265229911197 112.80747894770987 3.0870654098740715 H 0.0 **** 0.06
17048 H 77.82757386066382 111.38702967193449 2.1020963026945765 H 0.0 **** 0.06
17049 H 76.61466776696048 112.6547869254615 2.408271824746805 H 0.0 **** 0.06
17050 H 77.13332731576006 111.58200291215066 3.730392725130912 H 0.0 **** 0.06
17051 C 88.57089659451105 6.073229199090235 136.80719515727742 C 0.0 **** -0.24
17052 H 89.3599616707225 6.378309438333247 136.11965108724314 H 0.0 **** 0.06
17053 H 88.70256093493623 6.584034310992536 137.7607249679787 H 0.0 **** 0.06
17054 H 88.62220656975808 4.994662064773138 136.96171301903098 H 0.0 **** 0.06
17055 H 87.60046244830873 6.333645400497005 136.3851780517768 H 0.0 **** 0.06
17056 C 108.10252856368118 128.9646079373036 115.86547044903526 C 0.0 **** -0.24
17057 H 108.2619638699706 128.97201339612127 116.94327747760983 H 0.0 **** 0.06
17058 H 109.06050173040234 128.8571428908733 115.35712396898842 H 0.0 **** 0.06
17059 H 107.63163352972651 129.89989133743754 115.56150936447241 H 0.0 **** 0.06
17060 H 107.45444011024603 128.12875907873055 115.60032981224211 H 0.0 **** 0.06
17061 C 149.5374657918144 66.55118609387762 28.5859979090327 C 0.0 **** -0.24
17062 H 149.73542837554965 66.33365803320766 29.63675665080939 H 0.0 **** 0.06
17063 H 149.02215894978013 67.50804819740355 28.505287066066188 H 0.0 **** 0.06
17064 H 148.91246712117743 65.76369241271595 28.164205461722958 H 0.0 **** 0.06
17065 H 150.48066027731957 66.59832766470203 28.042241256841663 H 0.0 **** 0.06
17066 C 122.14983030633722 96.71104372572731 89.76718946754609 C 0.0 **** -0.24
17067 H 121.8416653496417 97.7482936474545 89.90107175816127 H 0.0 **** 0.06
17068 H 122.91084318836225 96.46157476805232 90.5076961695038 H 0.0 **** 0.06
17069 H 122.56060413106168 96.58101080688675 88.76606570849029 H 0.0 **** 0.06
17070 H 121.28792719820642 96.05692695204054 89.89485200515587 H 0.0 **** 0.06
17071 C 101.87610171257194 8.917202229158448 104.7496563373392 C 0.0 **** -0.24
17072 H 101.24875120497398 8.921728137285214 105.64179724088508 H 0.0 **** 0.06
17073 H 101.9017495128955 9.918215896399772 104.31846342142912 H 0.0 **** 0.06
17074 H 101.46458913839155 8.219012396555314 104.02093496859477 H 0.0 **** 0.06
17075 H 102.88693827759813 8.60936271023408 105.0177491665168 H 0.0 **** 0.06
17076 C 100.54566657053705 74.12046029992152 148.36580740025659 C 0.0 **** -0.24
17077 H 101.54326243164995 74.50984448413902 148.56824980592134 H 0.0 **** 0.06
17078 H 100.60699213464854 73.34668205701459 147.6009055306427 H 0.0 **** 0.06
17079 H 99.90548056418896 74.9296418725423 148.0144677616304 H 0.0 **** 0.06
17080 H 100.12922573368334 73.69721782460371 149.28019645353208 H 0.0 **** 0.06
17081 C 47.995120685500595 72.265604056559 26.165315568768094 C 0.0 **** -0.24
17082 H 48.39793193343215 72.0415056683747 25.177747099029816 H 0.0 **** 0.06
17083 H 46.90735678337715 72.20655418971887 26.136207658074333 H 0.0 **** 0.06
17084 H 48.297028842358245 73.27009359277781 26.460518364310616 H 0.0 **** 0.06
17085 H 48.37961875901783 71.54302079362188 26.885629506886126 H 0.0 **** 0.06
17086 C 25.926051977419462 114.97482176997381 33.12751047543605 C 0.0 **** -0.24
17087 H 25.98746739338972 114.80022525963757 32.0527371336549 H 0.0 **** 0.06
17088 H 25.0877867612364 115.63787600665906 33.34050807030584 H 0.0 **** 0.06
17089 H 26.851582782661637 115.43630299981258 33.47209035623241 H 0.0 **** 0.06
17090 H 25.779287859842682 114.02593875466279 33.64184085604811 H 0.0 **** 0.06
17091 C 73.1520237096224 10.046453297226009 107.04576579429308 C 0.0 **** -0.24
17092 H 72.1124965967209 10.100872278886015 107.36937890748119 H 0.0 **** 0.06
17093 H 73.20366654087199 10.191342282649316 105.96637489796593 H 0.0 **** 0.06
17094 H 73.56154043413713 9.069930497012962 107.30143101309402 H 0.0 **** 0.06
17095 H 73.72962993603288 10.824757205468387 107.54539424694464 H 0.0 **** 0.06
17096 C 33.94050128013734 106.25483159370178 35.903855912835894 C 0.0 **** -0.24
17097 H 33.57956112827992 106.7324828628929 34.99294210856872 H 0.0 **** 0.06
17098 H 34.816164498299656 106.78968922900053 36.27160409003112 H 0.0 **** 0.06
17099 H 34.20985702135138 105.22076495192091 35.69037026030693 H 0.0 **** 0.06
17100 H 33.15660458176137 106.27730241016344 36.66087210241018 H 0.0 **** 0.06
17101 C 103.61289348515369 58.22866228239114 104.02052814301265 C 0.0 **** -0.24
17102 H 103.74935821918318 58.18164670647789 102.93995588299765 H 0.0 **** 0.06
17103 H 103.14108269064387 57.30948393076139 104.36683319762216 H 0.0 **** 0.06
17104 H 102.97835611939273 59.079142157274816 104.26965420438268 H 0.0 **** 0.06
17105 H 104.58238295122116 58.345262330620855 104.50463978210314 H 0.0 **** 0.06
17106 C 4.000542980530163 56.11467635880598 67.82188698749545 C 0.0 **** -0.24
17107 H 4.26268895259728 57.16674119921022 67.70806449516712 H 0.0 **** 0.06
17108 H 4.773783985730542 55.49598369920962 67.3665967287191 H 0.0 **** 0.06
17109 H 3.0462304460635323 55.923172457788695 67.33160409595175 H 0.0 **** 0.06
17110 H 3.9178419138411478 55.87398440528146 68.88226778710899 H 0.0 **** 0.06
17111 C 82.80648588628934 52.03596684909985 127.95096539851392 C 0.0 **** -0.24
17112 H 83.09546442184782 53.05905507959933 127.70969506411518 H 0.0 **** 0.06
17113 H 83.06071210939994 51.8231758830015 128.98964029464813 H 0.0 **** 0.06
17114 H 83.3369451277856 51.34503265120871 127.29700259352836 H 0.0 **** 0.06
17115 H 81.73141597631711 51.91919616189614 127.80807438358428 H 0.0 **** 0.06
17116 C 61.31464055938277 102.15479653134445 17.864787888838087 C 0.0 **** -0.24
17117 H 60.26601199746166 101.8853103928669 17.98936650503625 H 0.0 **** 0.06
17118 H 61.3908736997426 103.01789894676314 17.202635147546594 H 0.0 **** 0.06
17119 H 61.85666602694987 101.31372835329172 17.430995032485683 H 0.0 **** 0.06
17120 H 61.74428640882644 102.40173956706745 18.835051782881244 H 0.0 **** 0.06
17121 C 16.660180779135082 138.96853233064246 102.8453700671767 C 0.0 **** -0.24
17122 H 17.115805798546596 138.2775646922715 103.5557946640198 H 0.0 **** 0.06
17123 H 16.62420575625695 139.9662608941267 103.28266743825077 H 0.0 **** 0.06
17124 H 15.647948279439007 138.63539348117382 102.61410529902867 H 0.0 **** 0.06
17125 H 17.25245199853982 138.99280747366885 101.9310298800454 H 0.0 **** 0.06
17126 C 95.97134836130255 101.66129212838831 149.60038744009432 C 0.0 **** -0.24
17127 H 95.17942696753708 102.23350774534815 149.1164718472536 H 0.0 **** 0.06
17128 H 96.31945130506053 102.19728722289939 150.48362019530828 H 0.0 **** 0.06
17129 H 96.80016825635674 101.52881458505645 148.90523223996797 H 0.0 **** 0.06
17130 H 95.585994021099 100.68509952084811 149.89541036003652 H 0.0 **** 0.06
17131 C 116.85165344445423 15.407779415448765 28.084273332193717 C 0.0 **** -0.24
17132 H 116.6057506446671 14.412285655119682 27.713473518827243 H 0.0 **** 0.06
17133 H 115.9307696118178 15.948341216429853 28.30628108372283 H 0.0 **** 0.06
17134 H 117.41665334501735 15.9488948870505 27.32602693362294 H 0.0 **** 0.06
17135 H 117.44938785262096 15.32083555583121 28.99127763444468 H 0.0 **** 0.06
17136 C 110.59399845168069 124.7093900343285 86.42612963243275 C 0.0 **** -0.24
17137 H 110.0151574999134 124.8350377020565 87.34180279668335 H 0.0 **** 0.06
17138 H 111.52172539857908 124.18441756073284 86.65333238339691 H 0.0 **** 0.06
17139 H 110.8232936880933 125.68744643979184 86.0039947971981 H 0.0 **** 0.06
17140 H 110.01528437232999 124.129798383034 85.70761938276762 H 0.0 **** 0.06
17141 C 120.41546487799862 56.76870348442202 37.05092202245331 C 0.0 **** -0.24
17142 H 119.6751925767379 57.5628114477656 37.14455385303616 H 0.0 **** 0.06
17143 H 121.25171309059327 57.12125796226863 36.44676412136933 H 0.0 **** 0.06
17144 H 119.96053253699968 55.90153732556914 36.57162157127527 H 0.0 **** 0.06
17145 H 120.7753773589295 56.48823749191172 38.04113025260585 H 0.0 **** 0.06
17146 C 50.88382115742611 7.449211804050407 123.08893477619337 C 0.0 **** -0.24
17147 H 51.33244386097242 8.06096021190612 123.87235425568055 H 0.0 **** 0.06
17148 H 50.02553749602761 7.972650090111301 122.66724055735183 H 0.0 **** 0.06
17149 H 50.55829813458659 6.498824594540764 123.5124491375097 H 0.0 **** 0.06
17150 H 51.61967564637037 7.265759136545398 122.30629069508471 H 0.0 **** 0.06
17151 C 106.54486162995813 26.78398388136992 123.17114977263857 C 0.0 **** -0.24
17152 H 106.2918695366924 27.6578504071895 122.57179617544311 H 0.0 **** 0.06
17153 H 106.11357772053553 25.892596615285157 122.7147788243502 H 0.0 **** 0.06
17154 H 106.14621290902015 26.906537793999206 124.1785371082246 H 0.0 **** 0.06
17155 H 107.62871276477911 26.678516437933098 123.22046332475837 H 0.0 **** 0.06
17156 C 135.45631673966201 124.3994238496815 143.4998701279585 C 0.0 **** -0.24
17157 H 135.3272522954059 124.4795077572753 142.420612321824 H 0.0 **** 0.06
17158 H 136.44365506114238 123.99385071396425 143.7194741672743 H 0.0 **** 0.06
17159 H 134.69141987232533 123.73829344543866 143.9086682414408 H 0.0 **** 0.06
17160 H 135.36014972206783 125.38750567417407 143.9504461079332 H 0.0 **** 0.06
17161 C 66.86260474162272 113.88770543796907 120.06541620640162 C 0.0 **** -0.24
17162 H 66.1594929282129 114.52647923399267 120.59880467186831 H 0.0 **** 0.06
17163 H 67.09847224498391 113.01626207448895 120.67571977626373 H 0.0 **** 0.06
17164 H 67.77659511695532 114.4464956915851 119.8607687502557 H 0.0 **** 0.06
17165 H 66.41727692951372 113.56333854888537 119.1243934757701 H 0.0 **** 0.06
17166 C 44.029145209345856 101.72623167023116 54.16989964572397 C 0.0 **** -0.24
17167 H 44.658210067220026 101.80533729341714 53.28401469835089 H 0.0 **** 0.06
17168 H 44.01454829971017 102.6838572192573 54.69179884862908 H 0.0 **** 0.06
17169 H 44.4299552239371 100.95780994503572 54.83190940004002 H 0.0 **** 0.06
17170 H 43.01587915532393 101.4580067817756 53.872847878542004 H 0.0 **** 0.06
17171 C 117.95958347636179 56.841253568767314 57.17695703064577 C 0.0 **** -0.24
17172 H 117.93260561313969 57.87992877555348 57.50784602788916 H 0.0 **** 0.06
17173 H 118.58254849494608 56.760622646036296 56.28554367874507 H 0.0 **** 0.06
17174 H 116.94860164993884 56.50760179869971 56.94509135289647 H 0.0 **** 0.06
17175 H 118.37522166117225 56.21899334606749 57.96954557481757 H 0.0 **** 0.06
17176 C 114.26478589583135 39.0069320756822 115.96762363263377 C 0.0 **** -0.24
17177 H 114.4653063944547 39.498574417207436 116.91865452504379 H 0.0 **** 0.06
17178 H 113.19292509625498 38.8323373299677 115.86734585254538 H 0.0 **** 0.06
17179 H 114.7933011471628 38.053854198704855 115.93147524686316 H 0.0 **** 0.06
17180 H 114.6079031138602 39.64375977848299 115.15150931469367 H 0.0 **** 0.06
17181 C 66.27548414039734 99.51674944500454 119.89452234281825 C 0.0 **** -0.24
17182 H 66.04214778264573 100.23433545016715 119.10654008847641 H 0.0 **** 0.06
17183 H 66.54500652997785 98.56041827309392 119.44623464787432 H 0.0 **** 0.06
17184 H 65.4028907716614 99.3849380330027 120.53418166065032 H 0.0 **** 0.06
17185 H 67.10980351009303 99.88891420896306 120.48847691597635 H 0.0 **** 0.06
17186 C 54.6601504696158 100.99068571050134 130.88820723759807 C 0.0 **** -0.24
17187 H 54.53658709697616 99.92480645045131 131.0832098705174 H 0.0 **** 0.06
17188 H 53.72130677461803 101.40287545344225 130.5170446694479 H 0.0 **** 0.06
17189 H 55.44137551321512 101.13490914015543 130.14226387723997 H 0.0 **** 0.06
17190 H 54.94037561499864 101.49840752589589 131.81173956006646 H 0.0 **** 0.06
17191 C 96.35984440420812 5.618629827134654 119.2238039879659 C 0.0 **** -0.24
17192 H 97.16492484390038 6.3384654797438245 119.07392527899331 H 0.0 **** 0.06
17193 H 95.92147823056156 5.359666224070612 118.26050631868814 H 0.0 **** 0.06
17194 H 95.59597899542469 6.058714804522413 119.86531732038326 H 0.0 **** 0.06
17195 H 96.75893443740195 4.721161457185062 119.69650173107975 H 0.0 **** 0.06
17196 C 52.83058132326656 37.94551239238666 32.390766899138185 C 0.0 **** -0.24
17197 H 52.076728861367386 37.66037666273078 31.656942966082426 H 0.0 **** 0.06
17198 H 52.63857955605425 37.425188266063486 33.32847611027563 H 0.0 **** 0.06
17199 H 52.78587077289379 39.02210271455414 32.5561474885487 H 0.0 **** 0.06
17200 H 53.81833875753159 37.67585441391907 32.0195132929459 H 0.0 **** 0.06
17201 C 97.02416017623132 68.05291538529275 42.911926293192266 C 0.0 **** -0.24
17202 H 96.4875528875287 67.4919992764219 43.6763255183933 H 0.0 **** 0.06
17203 H 97.48059388137689 67.35836527949056 42.20535288889738 H 0.0 **** 0.06
17204 H 97.80104925944833 68.6555934544511 43.38211346008819 H 0.0 **** 0.06
17205 H 96.32811590040124 68.7047863270833 42.38307171813966 H 0.0 **** 0.06
17206 C 52.034218160871745 105.72709812116797 60.949478116678534 C 0.0 **** -0.24
17207 H 51.24170825547151 106.07055563059932 60.284489787496454 H 0.0 **** 0.06
17208 H 51.93289142187723 104.65418312186834 61.110225585902555 H 0.0 **** 0.06
17209 H 51.958868632991255 106.24730416356805 61.904444404712905 H 0.0 **** 0.06
17210 H 53.00418459266399 105.93705591262473 60.497377049457015 H 0.0 **** 0.06
17211 C 55.895308599301586 76.85203095558481 4.405893338222768 C 0.0 **** -0.24
17212 H 55.05932951734138 77.53450662306619 4.251895187085097 H 0.0 **** 0.06
17213 H 56.80339071296146 77.42691257479217 4.591210718840955 H 0.0 **** 0.06
17214 H 56.03021251808394 76.23562550651039 3.5180641450421035 H 0.0 **** 0.06
17215 H 55.68904508908008 76.21272270376775 5.264060450651812 H 0.0 **** 0.06
17216 C 82.04823917138873 110.64035954697037 23.195391919778366 C 0.0 **** -0.24
17217 H 82.68117478820005 110.30554276891338 22.373544175182815 H 0.0 **** 0.06
17218 H 81.00475082764865 110.43169573708936 22.957534805318062 H 0.0 **** 0.06
17219 H 82.17999093084741 111.71244588262745 23.34303290985956 H 0.0 **** 0.06
17220 H 82.32642320782216 110.11163833484802 24.10667726407881 H 0.0 **** 0.06
17221 C 8.56208788999291 51.54601287154597 1.3131449202584804 C 0.0 **** -0.24
17222 H 7.678890103954416 52.05790867063831 0.9309488357389455 H 0.0 **** 0.06
17223 H 8.723398245335773 51.82844264745185 2.3542313389668834 H 0.0 **** 0.06
17224 H 9.431802792496768 51.83071892132608 0.7206350444731129 H 0.0 **** 0.06
17225 H 8.415111870642676 50.46779018704433 1.247552318150099 H 0.0 **** 0.06
17226 C 10.092384008285642 72.84504091585171 85.02346900400855 C 0.0 **** -0.24
17227 H 10.123762270983129 73.05654607660216 86.09212116533298 H 0.0 **** 0.06
17228 H 9.596353230111141 73.66582424772952 84.50542878093198 H 0.0 **** 0.06
17229 H 9.541036487800959 71.9209103944657 84.85201303582853 H 0.0 **** 0.06
17230 H 11.108384044247416 72.73688294460936 84.64431303394088 H 0.0 **** 0.06
17231 C 80.43871023451514 18.48504820740115 80.86510957998138 C 0.0 **** -0.24
17232 H 79.86439550910978 19.410188417884257 80.89716611288819 H 0.0 **** 0.06
17233 H 80.15433600739404 17.910277594853 79.98387208936428 H 0.0 **** 0.06
17234 H 80.23389449592723 17.899700357079098 81.76232691437616 H 0.0 **** 0.06
17235 H 81.50225544448979 18.718151232075172 80.81941461497578 H 0.0 **** 0.06
17236 C 119.27416397651773 77.1350323474344 141.94415660568922 C 0.0 **** -0.24
17237 H 118.68509110220906 76.61954174355024 142.70313690507882 H 0.0 **** 0.06
17238 H 120.32684021061125 76.88018744486287 142.06657925050322 H 0.0 **** 0.06
17239 H 119.14465383860686 78.21236068533197 142.05449841315962 H 0.0 **** 0.06
17240 H 118.93758231483461 76.8285631438937 140.9540036487706 H 0.0 **** 0.06
17241 C 61.30894401048796 76.78820027062241 11.35555537963566 C 0.0 **** -0.24
17242 H 61.30129200476368 76.05904138160061 10.54569475775628 H 0.0 **** 0.06
17243 H 62.25891068648889 77.32285209174347 11.355070409041417 H 0.0 **** 0.06
17244 H 61.18182190526535 76.27337455450447 12.30868600720649 H 0.0 **** 0.06
17245 H 60.49287926490388 77.49617399958981 11.214612215895244 H 0.0 **** 0.06
17246 C 9.337164268226047 27.97715045289955 97.36207146131366 C 0.0 **** -0.24
17247 H 9.605046794279161 26.92645311192104 97.25400894234517 H 0.0 **** 0.06
17248 H 9.087927700483164 28.18229298814942 98.40411283697784 H 0.0 **** 0.06
17249 H 8.476722738741586 28.200300093693166 96.73183018318943 H 0.0 **** 0.06
17250 H 10.1801153465058 28.599394637239335 97.06109779626897 H 0.0 **** 0.06
17251 C 21.84445296851885 72.17712210034905 102.3086473828732 C 0.0 **** -0.24
17252 H 22.306630265245133 73.0729905522639 102.72429191599234 H 0.0 **** 0.06
17253 H 21.32067019286785 72.4320054671278 101.38781975225783 H 0.0 **** 0.06
17254 H 21.13693779818942 71.76701902359133 103.02847735620655 H 0.0 **** 0.06
17255 H 22.616141573448033 71.43662486690116 102.09583980441137 H 0.0 **** 0.06
17256 C 138.86467637888927 109.41149579628927 21.72102947199059 C 0.0 **** -0.24
17257 H 138.10579483532138 109.68843409001477 22.452849443001497 H 0.0 **** 0.06
17258 H 139.53925688161615 110.25291840683968 21.56120883045932 H 0.0 **** 0.06
17259 H 138.38220802894617 109.14812137260054 20.77932743909429 H 0.0 **** 0.06
17260 H 139.43146249882855 108.55685233978983 22.089792978297368 H 0.0 **** 0.06
17261 C 131.12857591960775 10.573653482730407 9.053717311989544 C 0.0 **** -0.24
17262 H 131.88786399436165 9.910180129521109 8.64043267463581 H 0.0 **** 0.06
17263 H 131.04393303373652 11.46361783841391 8.428440103912472 H 0.0 **** 0.06
17264 H 131.4111573469807 10.864485825558006 10.064492111697433 H 0.0 **** 0.06
17265 H 130.16980143747605 10.055775109918415 9.078995097841776 H 0.0 **** 0.06
17266 C 92.53593617214214 61.93512633719931 78.17893033387938 C 0.0 **** -0.24
17267 H 92.4568038159895 61.93774179398186 79.26552532345978 H 0.0 **** 0.06
17268 H 92.44486697019641 62.95532257741861 77.80619783905043 H 0.0 **** 0.06
17269 H 91.73775218367703 61.32207910412943 77.75855912836946 H 0.0 **** 0.06
17270 H 93.5022856872916 61.524713007081516 77.88609762778152 H 0.0 **** 0.06
17271 C 19.19519902714748 136.67598317422153 113.91846810034457 C 0.0 **** -0.24
17272 H 19.61395188072163 136.42001554599074 112.94521576703914 H 0.0 **** 0.06
17273 H 18.93455858164677 137.73477908850458 113.93478666963273 H 0.0 **** 0.06
17274 H 19.931376948299402 136.47025716857132 114.69580739474657 H 0.0 **** 0.06
17275 H 18.300908697921926 136.07888089381973 114.09806256995978 H 0.0 **** 0.06
17276 C 23.43155009630169 108.28304369543885 27.64858051095628 C 0.0 **** -0.24
17277 H 22.987797463119392 108.23682574385161 26.65436023148778 H 0.0 **** 0.06
17278 H 24.123402808670136 107.45027445357114 27.777373840253375 H 0.0 **** 0.06
17279 H 22.64508880495353 108.22204011700687 28.40131333982969 H 0.0 **** 0.06
17280 H 23.97038178359631 109.22406333734348 27.762123250447345 H 0.0 **** 0.06
17281 C 128.47977660814044 44.99547557646082 120.60452340606143 C 0.0 **** -0.24
17282 H 128.04296631035655 44.91628292027488 119.6090763876252 H 0.0 **** 0.06
17283 H 128.8472823710034 46.00924516311744 120.76065536585126 H 0.0 **** 0.06
17284 H 129.30686737127132 44.29030277166527 120.69579621853113 H 0.0 **** 0.06
17285 H 127.72152143049446 44.76366727634655 121.35254979992258 H 0.0 **** 0.06
17286 C 55.80839334663142 45.47286304386604 25.175793820121356 C 0.0 **** -0.24
17287 H 55.29155876149855 45.82313215444289 24.282633686132897 H 0.0 **** 0.06
17288 H 55.70804960538999 44.390204808535145 25.253012766059925 H 0.0 **** 0.06
17289 H 55.37043615690675 45.942704444040416 26.055900067843908 H 0.0 **** 0.06
17290 H 56.86421985107086 45.73603222727496 25.110167105962063 H 0.0 **** 0.06
17291 C 19.32295666690166 111.895760459649 18.06127315691819 C 0.0 **** -0.24
17292 H 20.36860813774635 111.62503783307046 17.918218239017477 H 0.0 **** 0.06
17293 H 19.221770611726754 112.48225804534714 18.97509671287426 H 0.0 **** 0.06
17294 H 18.72113420779644 110.99043409826164 18.141705719473634 H 0.0 **** 0.06
17295 H 18.98005643228339 112.48462487772672 17.211281060904952 H 0.0 **** 0.06
17296 C 137.67917989044986 45.63127314643674 87.7358284498448 C 0.0 **** -0.24
17297 H 137.5819483350315 45.74253307070836 86.65625135259009 H 0.0 **** 0.06
17298 H 138.17534678071968 46.509640734143204 88.14869802261799 H 0.0 **** 0.06
17299 H 138.26875960327715 44.74146165543108 87.95791577039184 H 0.0 **** 0.06
17300 H 136.6888058793088 45.53095408111214 88.18158504465815 H 0.0 **** 0.06
17301 C 82.45024961821179 101.551677918184 121.53204073216591 C 0.0 **** -0.24
17302 H 82.59034816310691 100.74907516673088 122.25597629330571 H 0.0 **** 0.06
17303 H 81.6718843229911 101.26977265417267 120.82365782906919 H 0.0 **** 0.06
17304 H 83.38461199705421 101.72443951178347 120.99636272839871 H 0.0 **** 0.06
17305 H 82.15622754416268 102.46265215505761 122.05248901009719 H 0.0 **** 0.06
17306 C 70.7651527256402 47.57311561769566 137.39596704662793 C 0.0 **** -0.24
17307 H 70.8573698206562 47.3128023142483 138.4504282725951 H 0.0 **** 0.06
17308 H 69.96830829816501 48.30696717510648 137.2712659301881 H 0.0 **** 0.06
17309 H 70.52923535396796 46.6780538474959 136.82017028260904 H 0.0 **** 0.06
17310 H 71.70709797541171 47.99463975748745 137.04220002921792 H 0.0 **** 0.06
17311 C 149.68323273374688 93.5432399686221 120.08397656388361 C 0.0 **** -0.24
17312 H 149.4314430911604 94.55129045652693 119.75354094660155 H 0.0 **** 0.06
17313 H 149.07280660260707 92.82032315078119 119.54306281278248 H 0.0 **** 0.06
17314 H 149.49070956269247 93.45333415205688 121.15320818869738 H 0.0 **** 0.06
17315 H 150.73694722654582 93.3491034237312 119.8869658884661 H 0.0 **** 0.06
17316 C 80.36591857641072 12.593827819450212 125.57653029887209 C 0.0 **** -0.24
17317 H 80.09795105367027 12.070702219402733 126.49425110690973 H 0.0 **** 0.06
17318 H 79.46177231423779 12.832284236597822 125.01663160501388 H 0.0 **** 0.06
17319 H 81.01185677164246 11.957499566807158 124.97086065390064 H 0.0 **** 0.06
17320 H 80.89358489860818 13.515537974050112 125.82385835116222 H 0.0 **** 0.06
17321 C 68.32103892480575 32.175172963835905 80.9850155954681 C 0.0 **** -0.24
17322 H 67.3815410957418 31.637641738470222 80.85920037438645 H 0.0 **** 0.06
17323 H 68.11835068934113 33.241774637748904 81.08709336058594 H 0.0 **** 0.06
17324 H 68.95538525271206 32.00638542958751 80.11520874086719 H 0.0 **** 0.06
17325 H 68.82779438277544 31.814577072634222 81.88049033817727 H 0.0 **** 0.06
17326 C 113.4390599001724 82.52615790046865 124.3885092122295 C 0.0 **** -0.24
17327 H 112.91701896776632 82.47444353031193 123.43227679977024 H 0.0 **** 0.06
17328 H 113.17336988209863 83.45271616273439 124.89697363340092 H 0.0 **** 0.06
17329 H 114.51477359376926 82.5008157237576 124.21669163842152 H 0.0 **** 0.06
17330 H 113.14853285857126 81.67543147560647 125.00563975301567 H 0.0 **** 0.06
17331 C 27.390450132898224 109.09701259066092 25.878914578914276 C 0.0 **** -0.24
17332 H 28.02011868363681 109.01193180468955 24.993551805273057 H 0.0 **** 0.06
17333 H 27.983981578520442 109.46981073966676 26.71380586173629 H 0.0 **** 0.06
17334 H 26.984069608875373 108.11750658953589 26.130134267624555 H 0.0 **** 0.06
17335 H 26.572339070453665 109.78875889142297 25.677591858832244 H 0.0 **** 0.06
17336 C 93.297327341748 100.44869467230097 36.908135871564596 C 0.0 **** -0.24
17337 H 94.09686228622215 101.18878119620535 36.905635332905106 H 0.0 **** 0.06
17338 H 93.68978966058361 99.49034440201405 37.251151389180585 H 0.0 **** 0.06
17339 H 92.90133263973888 100.33844363556074 35.89818269422683 H 0.0 **** 0.06
17340 H 92.50106232395618 100.77592109005585 37.5770532009886 H 0.0 **** 0.06
17341 C 96.77697716951218 47.13077566256504 124.53559270809407 C 0.0 **** -0.24
17342 H 95.97324753816454 46.44910956347394 124.25853230406167 H 0.0 **** 0.06
17343 H 96.5909677406991 47.52245812831393 125.53559511762754 H 0.0 **** 0.06
17344 H 96.81558966105469 47.9555866590004 123.8242922325289 H 0.0 **** 0.06
17345 H 97.72699634534233 46.596684715793174 124.5257488308545 H 0.0 **** 0.06
17346 C 83.67948206014842 25.18505446015177 114.60299557905155 C 0.0 **** -0.24
17347 H 83.14999587996175 24.29628308911007 114.94776123342608 H 0.0 **** 0.06
17348 H 83.77933285858691 25.89107305878609 115.4273620247737 H 0.0 **** 0.06
17349 H 83.11845693615206 25.650136094948657 113.79191334138007 H 0.0 **** 0.06
17350 H 84.6695656558108 24.90157950011062 114.24435098296244 H 0.0 **** 0.06
17351 C 72.91391463432223 136.00712260532947 127.60130409407361 C 0.0 **** -0.24
17352 H 73.3380217433889 135.82268197711284 126.61404307717473 H 0.0 **** 0.06
17353 H 73.12494131730496 137.0336010798523 127.90169080452583 H 0.0 **** 0.06
17354 H 73.35810326684192 135.31970313722132 128.3211300546317 H 0.0 **** 0.06
17355 H 71.83517369128425 135.85185318160921 127.5688403493368 H 0.0 **** 0.06
17356 C 43.909639111161226 49.25862448227474 5.801377150138844 C 0.0 **** -0.24
17357 H 42.98926247891623 48.70218073715205 5.979381948456915 H 0.0 **** 0.06
17358 H 43.690493323333726 50.326667470332495 5.79002765216892 H 0.0 **** 0.06
17359 H 44.33106512700337 48.963663312147105 4.840767719484049 H 0.0 **** 0.06
17360 H 44.62459349529058 49.041264152359474 6.594552526978159 H 0.0 **** 0.06
17361 C 145.66118737005598 74.67125890741832 148.37123538627588 C 0.0 **** -0.24
17362 H 145.17059324477458 73.85031294200886 148.89340162432993 H 0.0 **** 0.06
17363 H 145.38413132683752 75.61626393197994 148.83889012061093 H 0.0 **** 0.06
17364 H 145.34656489070682 74.67676457609258 147.32701322843633 H 0.0 **** 0.06
17365 H 146.74141904652436 74.54114563892787 148.42375672285783 H 0.0 **** 0.06
17366 C 146.8319636784459 149.7395904394084 22.657268997878134 C 0.0 **** -0.24
17367 H 147.68392748713666 149.86581381780917 23.32346020090847 H 0.0 **** 0.06
17368 H 147.03905285475184 150.2272901079391 21.704784045233822 H 0.0 **** 0.06
17369 H 145.94711186883598 150.18776002438477 23.110396816408326 H 0.0 **** 0.06
17370 H 146.6556610007711 148.67679877518037 22.490743514365732 H 0.0 **** 0.06
17371 C 10.013741012119127 101.42556849095143 25.27781278034007 C 0.0 **** -0.24
17372 H 10.342215628224068 101.93125426256228 24.36966531458779 H 0.0 **** 0.06
17373 H 10.883893176206165 101.08454380405755 25.839128087345088 H 0.0 **** 0.06
17374 H 9.393418776266174 100.57007341528407 25.01267707658897 H 0.0 **** 0.06
17375 H 9.435554163230123 102.11836356756476 25.890155392361862 H 0.0 **** 0.06
17376 C 132.42901687542292 82.5121895501934 17.402831495201198 C 0.0 **** -0.24
17377 H 132.55399844522356 81.58419955903685 17.960494166692044 H 0.0 **** 0.06
17378 H 131.59586495537064 83.07765211249142 17.81989317228234 H 0.0 **** 0.06
17379 H 132.22653278503753 82.28307057271905 16.357309082022198 H 0.0 **** 0.06
17380 H 133.34194139389717 83.1039819040343 17.475585518739926 H 0.0 **** 0.06
17381 C 37.6407348970273 11.563289941134997 117.20470827950808 C 0.0 **** -0.24
17382 H 37.46178183995028 12.446632485553806 116.59232750911505 H 0.0 **** 0.06
17383 H 37.75784314804969 11.861359278856952 118.2470008687367 H 0.0 **** 0.06
17384 H 38.54732182648496 11.062617538846922 116.86553170201623 H 0.0 **** 0.06
17385 H 36.7944133577152 10.881957008768012 117.11574884195491 H 0.0 **** 0.06
17386 C 59.145354984044545 88.2969842884452 44.07034570011518 C 0.0 **** -0.24
17387 H 58.52851069156081 87.40744210900877 44.1909079172234 H 0.0 **** 0.06
17388 H 58.643254485702855 89.00054522080264 43.40563326712471 H 0.0 **** 0.06
17389 H 60.10816825777526 88.01633899125669 43.64254630120098 H 0.0 **** 0.06
17390 H 59.302318315847074 88.7646746524267 45.041875261213406 H 0.0 **** 0.06
17391 C 80.06772770839483 137.26281510414455 35.58147209693549 C 0.0 **** -0.24
17392 H 79.19081500046873 137.82714187369353 35.901056103759935 H 0.0 **** 0.06
17393 H 79.75335381792885 136.42841386517352 34.9537905316318 H 0.0 **** 0.06
17394 H 80.59279102131467 136.88171483724182 36.45752437759381 H 0.0 **** 0.06
17395 H 80.73202756694374 137.91441106738412 35.01457717651182 H 0.0 **** 0.06
17396 C 59.49534114759976 55.607028749920374 119.72828547089816 C 0.0 **** -0.24
17397 H 58.71486390919853 54.84690756082776 119.76440398024917 H 0.0 **** 0.06
17398 H 59.03899107807092 56.58976943057715 119.6062900523535 H 0.0 **** 0.06
17399 H 60.15854695805996 55.406347250559406 118.88742315271057 H 0.0 **** 0.06
17400 H 60.067239884719925 55.58399965899869 120.6559421858087 H 0.0 **** 0.06
17401 C 81.04884115066506 92.47845549039957 129.4850708529441 C 0.0 **** -0.24
17402 H 81.61814218823946 92.01423887084613 128.67892149161824 H 0.0 **** 0.06
17403 H 80.96987067609598 93.54948849059275 129.30222279583916 H 0.0 **** 0.06
17404 H 81.55921543213907 92.30818329749775 130.43423524358445 H 0.0 **** 0.06
17405 H 80.05228588014523 92.04064791209191 129.5244730958301 H 0.0 **** 0.06
17406 C 45.335706852693164 108.47071884179273 104.51627708017888 C 0.0 **** -0.24
17407 H 44.45542483371304 108.60922890931467 103.88882907446772 H 0.0 **** 0.06
17408 H 45.10714116281966 107.76186648934113 105.31096851946386 H 0.0 **** 0.06
17409 H 45.62413843472709 109.42729808752235 104.95239158910583 H 0.0 **** 0.06
17410 H 46.15600538696634 108.08640080599078 103.91021649055897 H 0.0 **** 0.06
17411 C 123.39265216312727 101.58484875331902 25.81013170142947 C 0.0 **** -0.24
17412 H 122.77016670222984 101.07162143581894 25.077932947616745 H 0.0 **** 0.06
17413 H 124.08690958075825 100.87347205389938 26.258418826551377 H 0.0 **** 0.06
17414 H 122.7605867874198 102.01476458988327 26.586481609397396 H 0.0 **** 0.06
17415 H 123.9537410881991 102.37868892908631 25.31640961217093 H 0.0 **** 0.06
17416 C 149.4392944458821 128.75310704586633 60.49336977339473 C 0.0 **** -0.24
17417 H 148.46270062288312 129.02851173067222 60.89134746534856 H 0.0 **** 0.06
17418 H 149.54543404519936 127.66870414019473 60.50893200273137 H 0.0 **** 0.06
17419 H 150.2211926418593 129.20342450069475 61.10637381203085 H 0.0 **** 0.06
17420 H 149.52920965585386 129.11275718497484 59.46861834213371 H 0.0 **** 0.06
17421 C 144.52591588471498 75.2116768395993 28.955893617508963 C 0.0 **** -0.24
17422 H 143.96251341813544 76.03666402856743 28.518799442222566 H 0.0 **** 0.06
17423 H 145.58409447256687 75.33121894761689 28.722385028790235 H 0.0 **** 0.06
17424 H 144.16667437498032 74.26877201250585 28.544217178926516 H 0.0 **** 0.06
17425 H 144.38892742944196 75.21154026763577 30.03735264868203 H 0.0 **** 0.06
17426 C 76.57714677450363 79.414647391067 119.78221259882383 C 0.0 **** -0.24
17427 H 75.76122244384415 79.05448085069301 120.4080951755239 H 0.0 **** 0.06
17428 H 76.70047517412598 78.74811567080047 118.92857446824382 H 0.0 **** 0.06
17429 H 77.49858049595754 79.43541792768183 120.36398399648584 H 0.0 **** 0.06
17430 H 76.34785583955068 80.41956148012653 119.42907269875337 H 0.0 **** 0.06
17431 C 121.12658103029734 33.099253225799806 58.85638406676853 C 0.0 **** -0.24
17432 H 121.1192976735227 34.07520929331127 58.37117258094716 H 0.0 **** 0.06
17433 H 120.14518352483445 32.9008656874198 59.28845101069615 H 0.0 **** 0.06
17434 H 121.87916629617301 33.09158960428407 59.6455590865433 H 0.0 **** 0.06
17435 H 121.36321798636563 32.3300514734924 58.121454758938995 H 0.0 **** 0.06
17436 C 99.21564560548566 18.523340079200608 96.12206733456806 C 0.0 **** -0.24
17437 H 100.09876689763388 19.03928231789112 96.49951254952278 H 0.0 **** 0.06
17438 H 98.34207731725027 18.8323660201618 96.6971038034935 H 0.0 **** 0.06
17439 H 99.35350011439559 17.446343976902426 96.22112810855273 H 0.0 **** 0.06
17440 H 99.06777941722069 18.77546175121026 95.07185938076704 H 0.0 **** 0.06
17441 C 101.22419291552556 112.43436021914086 95.86035207606425 C 0.0 **** -0.24
17442 H 100.14848607200386 112.33731707406143 96.00747414215259 H 0.0 **** 0.06
17443 H 101.41713418007782 112.96442438985336 94.92793472930727 H 0.0 **** 0.06
17444 H 101.67540838536634 111.44310312384378 95.815860989329 H 0.0 **** 0.06
17445 H 101.6549971405966 112.9924744963301 96.69133380816828 H 0.0 **** 0.06
17446 C 72.892698418031 44.19033388243446 142.0592314617729 C 0.0 **** -0.24
17447 H 72.41295668678666 43.502773016282504 141.3631478565095 H 0.0 **** 0.06
17448 H 73.88566292292725 43.8166304111881 142.3116908399378 H 0.0 **** 0.06
17449 H 72.29241602781427 44.26913249971682 142.96537289482467 H 0.0 **** 0.06
17450 H 72.98083263480721 45.17345764286449 141.5960721572818 H 0.0 **** 0.06
17451 C 43.36241827651453 145.63082519560894 31.821263010496068 C 0.0 **** -0.24
17452 H 42.28641006186871 145.80345782764468 31.842752040671627 H 0.0 **** 0.06
17453 H 43.8497147439454 146.28968970292905 32.540003018540745 H 0.0 **** 0.06
17454 H 43.74360747024953 145.83691759346158 30.820796005451115 H 0.0 **** 0.06
17455 H 43.56856354846593 144.5929150788939 32.08152091653761 H 0.0 **** 0.06
17456 C 123.42478057988986 91.67373507421928 32.268830171052 C 0.0 **** -0.24
17457 H 122.856883356539 90.78237458180578 32.537183919760196 H 0.0 **** 0.06
17458 H 123.30597774235703 92.42716124308849 33.0476493963385 H 0.0 **** 0.06
17459 H 123.05703660760871 92.0669942099522 31.321283816953837 H 0.0 **** 0.06
17460 H 124.4796561467705 91.4165423947444 32.17072836919584 H 0.0 **** 0.06
17461 C 16.92080813233983 108.81794223914926 27.54211748246547 C 0.0 **** -0.24
17462 H 17.978482627635827 109.00070397994398 27.354734830176085 H 0.0 **** 0.06
17463 H 16.61443944368483 107.90280295773385 27.03457158628146 H 0.0 **** 0.06
17464 H 16.33497242676532 109.65656057508806 27.164757806537807 H 0.0 **** 0.06
17465 H 16.754726126824096 108.71178209086077 28.613618874227143 H 0.0 **** 0.06
17466 C 6.759293691093774 125.72725295912869 133.8847766307533 C 0.0 **** -0.24
17467 H 6.192902994294059 125.29832255607552 134.71099073511388 H 0.0 **** 0.06
17468 H 7.2847331336836305 124.93274352104099 133.3548090542632 H 0.0 **** 0.06
17469 H 7.481859841067262 126.44458396137716 134.27272487687705 H 0.0 **** 0.06
17470 H 6.077094050264066 126.23112239922494 133.1997797433985 H 0.0 **** 0.06
17471 C 147.6755799912873 70.91487947371948 101.1412204734529 C 0.0 **** -0.24
17472 H 147.06881219855345 71.56037396981927 101.77594180618318 H 0.0 **** 0.06
17473 H 148.42441078104508 70.40708494543773 101.74977176924725 H 0.0 **** 0.06
17474 H 148.1731048718679 71.51734786468229 100.38072698753182 H 0.0 **** 0.06
17475 H 147.0369347167535 70.17504196164226 100.65944238684725 H 0.0 **** 0.06
17476 C 114.7382391281504 64.45047726866065 93.25081341937943 C 0.0 **** -0.24
17477 H 114.41292829544308 64.09201670442748 94.22761246867228 H 0.0 **** 0.06
17478 H 113.8880089596655 64.8779529839425 92.71885507929775 H 0.0 **** 0.06
17479 H 115.1452937697267 63.61776394955467 92.67577899287849 H 0.0 **** 0.06
17480 H 115.50697843382734 65.21182185459476 93.38037714533274 H 0.0 **** 0.06
17481 C 55.693404313251634 68.77793070070047 22.81857507060326 C 0.0 **** -0.24
17482 H 55.600205807332614 69.82751900848635 23.09745121877235 H 0.0 **** 0.06
17483 H 55.40429368137664 68.15197946324324 23.662677296317412 H 0.0 **** 0.06
17484 H 56.72689105227484 68.56513288582903 22.544865843557716 H 0.0 **** 0.06
17485 H 55.04169373253842 68.56887615245267 21.97003455223623 H 0.0 **** 0.06
17486 C 133.8835052114565 135.71474617055344 115.71741839183714 C 0.0 **** -0.24
17487 H 133.85130081154827 136.41047407465288 114.87957532451695 H 0.0 **** 0.06
17488 H 134.1472721816226 134.72058249918953 115.35501239505184 H 0.0 **** 0.06
17489 H 132.90627137407168 135.6797348528819 116.19863425464008 H 0.0 **** 0.06
17490 H 134.6312039788046 136.0484383054477 116.43780415107757 H 0.0 **** 0.06
17491 C 134.9949832995812 94.33210885621543 6.210255619586434 C 0.0 **** -0.24
17492 H 134.8365524974023 93.34062901586154 5.786009356980941 H 0.0 **** 0.06
17493 H 134.0434078524228 94.85968654635124 6.265927786268691 H 0.0 **** 0.06
17494 H 135.68504940419135 94.8916699584075 5.57804548020286 H 0.0 **** 0.06
17495 H 135.41690471244652 94.2361768170139 7.211027758077165 H 0.0 **** 0.06
17496 C 58.781351431563564 104.0776824902667 31.834542649053134 C 0.0 **** -0.24
17497 H 59.072738237172416 104.84006896687465 31.112176351385727 H 0.0 **** 0.06
17498 H 58.284250209663085 104.55060647593574 32.68149469159411 H 0.0 **** 0.06
17499 H 59.668336795767814 103.54819599537744 32.18145110243417 H 0.0 **** 0.06
17500 H 58.09872830216871 103.37110513152892 31.361149970796873 H 0.0 **** 0.06
17501 C 8.278691605261287 38.86437727922713 23.869021550826176 C 0.0 **** -0.24
17502 H 7.789711539824992 38.19265087526187 23.163617687382555 H 0.0 **** 0.06
17503 H 8.944096863933083 39.53829171152603 23.327542338509375 H 0.0 **** 0.06
17504 H 8.85643598516097 38.28101633162939 24.584988637323875 H 0.0 **** 0.06
17505 H 7.523931204915698 39.446501652388164 24.39800212238407 H 0.0 **** 0.06
17506 C 10.133868023967494 109.14368590748843 64.6300454561629 C 0.0 **** -0.24
17507 H 10.243238119665733 110.19954802010379 64.380099645871 H 0.0 **** 0.06
17508 H 9.107362891825233 108.9488550362161 64.94045265022123 H 0.0 **** 0.06
17509 H 10.814826918654404 108.89094626475692 65.44223269351414 H 0.0 **** 0.06
17510 H 10.370504746917419 108.53845010666309 63.75583145839349 H 0.0 **** 0.06
17511 C 61.048408577262165 17.084521950338 39.21103710653216 C 0.0 **** -0.24
17512 H 60.47229249357622 16.67308339151947 38.38213056141751 H 0.0 **** 0.06
17513 H 61.57864875177577 16.27953653276643 39.719656128258805 H 0.0 **** 0.06
17514 H 60.37485252598708 17.577424431479756 39.91188435318236 H 0.0 **** 0.06
17515 H 61.767170423236706 17.809164975770926 38.827968716404285 H 0.0 **** 0.06
17516 C 83.04462564507247 54.156112772764544 118.17861899606869 C 0.0 **** -0.24
17517 H 82.51490683880373 54.17418276888371 117.22681234558378 H 0.0 **** 0.06
17518 H 83.6249824847157 53.23613195579219 118.25359061927627 H 0.0 **** 0.06
17519 H 82.3244462344722 54.198753862631136 118.99609551633922 H 0.0 **** 0.06
17520 H 83.7143147215932 55.014065920176094 118.23847234225083 H 0.0 **** 0.06
17521 C 98.53834263164248 87.20722635738142 100.19670429434956 C 0.0 **** -0.24
17522 H 98.44350062887672 86.60424047857768 101.100019590973 H 0.0 **** 0.06
17523 H 98.09629417112399 88.18916463687694 100.36643310462358 H 0.0 **** 0.06
17524 H 98.02008242450572 86.71340401258246 99.3743422352394 H 0.0 **** 0.06
17525 H 99.59231441734266 87.32045207023114 99.94506992445835 H 0.0 **** 0.06
17526 C 131.7631397819822 84.09140990454263 89.28370723795987 C 0.0 **** -0.24
17527 H 132.53634222670433 83.75775051992524 89.97684354010123 H 0.0 **** 0.06
17528 H 132.22613879941127 84.61704873608609 88.44870531901563 H 0.0 **** 0.06
17529 H 131.07776074692654 84.76316249725676 89.80178982198669 H 0.0 **** 0.06
17530 H 131.21303476067274 83.22828238701744 88.91097170115427 H 0.0 **** 0.06
17531 C 25.11925363399257 118.22168719057673 6.409015861244569 C 0.0 **** -0.24
17532 H 25.767012378740787 118.5749672098972 5.6072407751195215 H 0.0 **** 0.06
17533 H 25.6721185197286 117.527723388318 7.043203681927309 H 0.0 **** 0.06
17534 H 24.255131047845367 117.71325073721287 5.980165012759841 H 0.0 **** 0.06
17535 H 24.783304792525342 119.06997632808479 7.005520182313717 H 0.0 **** 0.06
17536 C 63.024277663660726 141.4357321230681 100.70855815051334 C 0.0 **** -0.24
17537 H 62.40848143899298 141.87879487688824 99.92586543296424 H 0.0 **** 0.06
17538 H 62.734801886315296 140.39397667528905 100.85211964280778 H 0.0 **** 0.06
17539 H 62.87979199025146 141.9845847895041 101.63795529038654 H 0.0 **** 0.06
17540 H 64.07322660639946 141.4840422040086 100.41655861699056 H 0.0 **** 0.06
17541 C 70.93580024993399 76.53214843679893 116.3545010493514 C 0.0 **** -0.24
17542 H 70.73044545928504 75.96392520258064 117.26174040630573 H 0.0 **** 0.06
17543 H 69.99977385312516 76.742428482815 115.83799128623818 H 0.0 **** 0.06
17544 H 71.58861505895501 75.95105604229184 115.702816345331 H 0.0 **** 0.06
17545 H 71.42594629836411 77.46954161855979 116.61635470359735 H 0.0 **** 0.06
17546 C 22.1535863626861 64.09309243304088 100.57579063237553 C 0.0 **** -0.24
17547 H 21.57337884715801 64.63194277644516 101.32487876548501 H 0.0 **** 0.06
17548 H 22.44804885742424 64.77897559917304 99.78148552480594 H 0.0 **** 0.06
17549 H 21.547851868889865 63.290077575381616 100.15706242972958 H 0.0 **** 0.06
17550 H 23.04461560454024 63.670769986554234 101.04184124756888 H 0.0 **** 0.06
17551 C 46.5244344861632 32.800053079409224 34.165416208749576 C 0.0 **** -0.24
17552 H 45.84938024395743 33.2242666765016 33.42236233036948 H 0.0 **** 0.06
17553 H 46.564414785365145 33.454696126013516 35.03567221643027 H 0.0 **** 0.06
17554 H 47.52209926921567 32.70332031273193 33.73726059124979 H 0.0 **** 0.06
17555 H 46.16183335439577 31.81655581928692 34.466032374945854 H 0.0 **** 0.06
17556 C 130.14208859226108 147.59416257917968 97.12640193226173 C 0.0 **** -0.24
17557 H 131.05165356922245 147.59260792270496 96.52540806030017 H 0.0 **** 0.06
17558 H 129.99880364799165 148.5819163063947 97.56641959675903 H 0.0 **** 0.06
17559 H 130.23010423153173 146.852178238517 97.9201487288941 H 0.0 **** 0.06
17560 H 129.2891955915808 147.35009983175624 96.49372874816159 H 0.0 **** 0.06
17561 C 108.41373002872585 130.19898421172508 125.68879936661028 C 0.0 **** -0.24
17562 H 109.12634886205139 130.7477437072124 125.07291390274514 H 0.0 **** 0.06
17563 H 108.80807230546212 130.1015181913363 126.70051476363653 H 0.0 **** 0.06
17564 H 108.25554575645033 129.20704657830368 125.26398529002017 H 0.0 **** 0.06
17565 H 107.46728569774051 130.73775230248108 125.71758323045242 H 0.0 **** 0.06
17566 C 72.23550213899516 126.56514246056318 41.05684763775287 C 0.0 **** -0.24
17567 H 71.65454661205861 127.46988410073558 40.87880070098646 H 0.0 **** 0.06
17568 H 73.01087898034747 126.77080141922667 41.79433431850451 H 0.0 **** 0.06
17569 H 72.69808092912103 126.24248753481416 40.12400030171494 H 0.0 **** 0.06
17570 H 71.57934145887425 125.7786275270706 41.42831078482119 H 0.0 **** 0.06
17571 C 124.98485525716747 121.2387646050183 56.87021948614645 C 0.0 **** -0.24
17572 H 123.90491552870175 121.27977831104792 56.72395401521513 H 0.0 **** 0.06
17573 H 125.24848979058945 121.77363059866067 57.782361836063814 H 0.0 **** 0.06
17574 H 125.48332708720046 121.7022778167561 56.01917318749139 H 0.0 **** 0.06
17575 H 125.3000164368837 120.19852291284772 56.954321513490044 H 0.0 **** 0.06
17576 C 72.95330824180651 124.41756373016261 109.49251927111528 C 0.0 **** -0.24
17577 H 73.89099294337281 124.96390840877626 109.39529610942789 H 0.0 **** 0.06
17578 H 72.98249731341413 123.80447144140288 110.39390840393212 H 0.0 **** 0.06
17579 H 72.8142565126492 123.77655001306192 108.62113613637776 H 0.0 **** 0.06
17580 H 72.12624305030748 125.12377630702736 109.55956715293694 H 0.0 **** 0.06
17581 C 138.63165861041134 148.06439650617241 30.306627458999458 C 0.0 **** -0.24
17582 H 138.8823941162252 149.01799912913125 29.842202846714997 H 0.0 **** 0.06
17583 H 139.51697350577115 147.65097233476405 30.789508879195466 H 0.0 **** 0.06
17584 H 138.27718957113328 147.37129301240407 29.54356537882137 H 0.0 **** 0.06
17585 H 137.8494603589236 148.21655718466494 31.04980609006077 H 0.0 **** 0.06
17586 C 2.111813899223648 80.96981398501373 87.49418708770531 C 0.0 **** -0.24
17587 H 1.7643283838058892 81.19092880922445 88.50332311956242 H 0.0 **** 0.06
17588 H 3.1999889174800273 81.01143073662536 87.46749245880744 H 0.0 **** 0.06
17589 H 1.7014884890480175 81.70451423971724 86.80035920550392 H 0.0 **** 0.06
17590 H 1.778030983376084 79.97320746998784 87.20636790828763 H 0.0 **** 0.06
17591 C 36.459989831789244 116.28695173507924 124.95760159057464 C 0.0 **** -0.24
17592 H 35.97050938365004 116.33090225026086 123.98524842108937 H 0.0 **** 0.06
17593 H 35.76572140661284 116.62264194444117 125.72907031008242 H 0.0 **** 0.06
17594 H 37.33754759814485 116.93369992090652 124.951976091157 H 0.0 **** 0.06
17595 H 36.765863004064954 115.26193256594104 125.16426253564062 H 0.0 **** 0.06
17596 C 104.5109700078613 93.4943739853303 139.43118130219045 C 0.0 **** -0.24
17597 H 104.0320680769615 94.46772732992952 139.3266362121023 H 0.0 **** 0.06
17598 H 104.15300045257818 92.82832715672185 138.64537538127965 H 0.0 **** 0.06
17599 H 104.2669599333759 93.07107504773347 140.40494284072184 H 0.0 **** 0.06
17600 H 105.59142490297909 93.6105138073653 139.34464082328032 H 0.0 **** 0.06
17601 C 55.24321469425348 148.32595773980032 37.40245241879823 C 0.0 **** -0.24
17602 H 54.563089106636994 148.9248586040389 36.79706625236377 H 0.0 **** 0.06
17603 H 56.24132915695908 148.35619638078953 36.964459656410746 H 0.0 **** 0.06
17604 H 54.89037494100002 147.29551376778298 37.43281326377113 H 0.0 **** 0.06
17605 H 55.27758628691154 148.72805890747213 38.41510227756806 H 0.0 **** 0.06
17606 C 62.218472166994346 61.93008404751083 20.267499980855597 C 0.0 **** -0.24
17607 H 63.29875849292986 61.9114643921809 20.127327921344296 H 0.0 **** 0.06
17608 H 61.985552915432265 62.371362495342396 21.236584310222618 H 0.0 **** 0.06
17609 H 61.83024745914551 60.91255034000858 20.22863874384209 H 0.0 **** 0.06
17610 H 61.76015137721441 62.524086462726814 19.476698062549914 H 0.0 **** 0.06
17611 C 136.73633223916033 147.29716079463205 12.946265922992495 C 0.0 **** -0.24
17612 H 136.9543505923682 148.35876007453285 12.83444279926897 H 0.0 **** 0.06
17613 H 136.61370744124704 146.84623315711534 11.96168027582678 H 0.0 **** 0.06
17614 H 135.81822712030137 147.1742422443883 13.52042660537893 H 0.0 **** 0.06
17615 H 137.5603652663294 146.81033313229042 13.469144426779337 H 0.0 **** 0.06
17616 C 130.58674407301174 118.37579378560721 82.02298951067469 C 0.0 **** -0.24
17617 H 131.6275050221034 118.18554206823998 82.28499983846584 H 0.0 **** 0.06
17618 H 130.11292566317962 117.44221731651251 81.71885534368184 H 0.0 **** 0.06
17619 H 130.54271423739175 119.09077940595174 81.20195029802298 H 0.0 **** 0.06
17620 H 130.06399392329575 118.78352990626146 82.88808893482273 H 0.0 **** 0.06
17621 C 34.12162042255786 54.18279012884213 9.564656428855798 C 0.0 **** -0.24
17622 H 34.413426633031165 53.40267817398606 10.26716687417516 H 0.0 **** 0.06
17623 H 33.22458051958402 53.87331953124115 9.029100815489663 H 0.0 **** 0.06
17624 H 34.93000591137248 54.351578264538176 8.853875930493132 H 0.0 **** 0.06
17625 H 33.91947765225992 55.1043694312236 10.11057160254311 H 0.0 **** 0.06
17626 C 102.53382762740063 4.663774167843769 143.48105284544306 C 0.0 **** -0.24
17627 H 102.72033429526934 3.822278491419439 144.14837793674724 H 0.0 **** 0.06
17628 H 102.44700531000831 4.301168944831858 142.45643494156073 H 0.0 **** 0.06
17629 H 103.36006012868904 5.371116547385469 143.54881770867647 H 0.0 **** 0.06
17630 H 101.60688024343011 5.158820533086697 143.77049908662397 H 0.0 **** 0.06
17631 C 7.473660361078984 131.92179491488398 2.3372084659109476 C 0.0 **** -0.24
17632 H 8.465564017561775 131.84616069439866 1.8905373100690461 H 0.0 **** 0.06
17633 H 7.198889781114019 132.9727544896949 2.432741822496709 H 0.0 **** 0.06
17634 H 7.48191635197302 131.45633755662627 3.3216690738896055 H 0.0 **** 0.06
17635 H 6.749915910778078 131.41348551072028 1.7004408570429348 H 0.0 **** 0.06
17636 C 11.307032514712546 13.558130710071623 50.268347582786674 C 0.0 **** -0.24
17637 H 10.548279740644176 12.7909765356263 50.12191980117271 H 0.0 **** 0.06
17638 H 11.947930247407243 13.280191716659033 51.10543331208042 H 0.0 **** 0.06
17639 H 10.823791081698488 14.512015490622588 50.48152838500573 H 0.0 **** 0.06
17640 H 11.908990081196976 13.650791531483918 49.36412274303704 H 0.0 **** 0.06
17641 C 87.05132014310347 116.8744766004173 94.35514748686839 C 0.0 **** -0.24
17642 H 87.00505445396813 117.3330064265887 95.34274424407937 H 0.0 **** 0.06
17643 H 87.8588455378282 117.32939859188056 93.78132416007196 H 0.0 **** 0.06
17644 H 86.10458887417433 117.03049714202425 93.83795895296662 H 0.0 **** 0.06
17645 H 87.23618284721779 115.80522571597558 94.45932434881966 H 0.0 **** 0.06
17646 C 80.52963946214368 50.03336016055681 55.998187528608796 C 0.0 **** -0.24
17647 H 80.21163081356082 49.06164263633498 56.37521937716761 H 0.0 **** 0.06
17648 H 80.82801970355445 50.66701388856812 56.83280518524903 H 0.0 **** 0.06
17649 H 79.70438369958188 50.503081210323984 55.46200790883968 H 0.0 **** 0.06
17650 H 81.37368994772413 49.901294548885886 55.3209461012554 H 0.0 **** 0.06
17651 C 9.761650138559446 121.80243521622276 114.12638129418379 C 0.0 **** -0.24
17652 H 10.72708317849714 121.40061403267504 114.43018416103915 H 0.0 **** 0.06
17653 H 9.910835138646178 122.58001766761663 113.37752227188314 H 0.0 **** 0.06
17654 H 9.255009323653383 122.22614672626258 114.99380745499606 H 0.0 **** 0.06
17655 H 9.151480063854876 121.0031868944667 113.7043870721859 H 0.0 **** 0.06
17656 C 52.88187447843376 90.79152178788638 84.05144218243875 C 0.0 **** -0.24
17657 H 52.93477293881236 89.72786843092092 84.2829108829785 H 0.0 **** 0.06
17658 H 52.40738236791853 91.31983772231459 84.87871360935927 H 0.0 **** 0.06
17659 H 52.29555713784819 90.93623594047398 83.14366726643328 H 0.0 **** 0.06
17660 H 53.888187155142276 91.18028989823526 83.90041376677048 H 0.0 **** 0.06
17661 C 53.783989330031474 65.80962145249765 114.36831152495333 C 0.0 **** -0.24
17662 H 53.297842044202085 64.88164064165517 114.6720630274568 H 0.0 **** 0.06
17663 H 53.86139381303812 66.476780746759 115.22778553124604 H 0.0 **** 0.06
17664 H 53.19465890265916 66.28939807185404 113.58728367362423 H 0.0 **** 0.06
17665 H 54.78125953403868 65.58820329907229 113.98881369022965 H 0.0 **** 0.06
17666 C 148.3395507901995 103.69354399100068 24.94619354357539 C 0.0 **** -0.24
17667 H 149.06492521829122 104.50488680801196 25.005601046158525 H 0.0 **** 0.06
17668 H 148.66223594164452 102.87002870698474 25.58397751106631 H 0.0 **** 0.06
17669 H 148.2668013203282 103.34721294726721 23.914831416421357 H 0.0 **** 0.06
17670 H 147.36557769736177 104.05114233630685 25.27852211456981 H 0.0 **** 0.06
17671 C 93.43552118930191 101.04445852284596 2.036377060525922 C 0.0 **** -0.24
17672 H 94.10055809091158 101.7521070536643 1.5421454034554358 H 0.0 **** 0.06
17673 H 92.73821569989093 101.58702864786562 2.6757261392685905 H 0.0 **** 0.06
17674 H 94.02423718546466 100.35603830744105 2.6438427950218966 H 0.0 **** 0.06
17675 H 92.87967273878276 100.48200923931142 1.2866606066732516 H 0.0 **** 0.06
17676 C 92.44118710795325 137.84891180473446 122.36676855125229 C 0.0 **** -0.24
17677 H 92.10519040022811 138.35020543565997 123.27529012309988 H 0.0 **** 0.06
17678 H 92.94455000325371 136.9183489296916 122.63148549872854 H 0.0 **** 0.06
17679 H 93.1337120850043 138.49602858966537 121.83028608594473 H 0.0 **** 0.06
17680 H 91.58238497475125 137.63009736700553 121.73331092060484 H 0.0 **** 0.06
17681 C 44.24842133067713 106.8294413280219 8.655657819179638 C 0.0 **** -0.24
17682 H 44.10542002183523 106.1367790506939 9.485688612838018 H 0.0 **** 0.06
17683 H 43.524280453907366 106.61034407013837 7.871124290514423 H 0.0 **** 0.06
17684 H 45.2580003201318 106.71902475881954 8.261110112754238 H 0.0 **** 0.06
17685 H 44.10511371581363 107.85104001444215 9.008696856710515 H 0.0 **** 0.06
17686 C 147.12204810501132 68.78871111398638 148.89563943288144 C 0.0 **** -0.24
17687 H 147.70586673617913 69.62535014169801 149.27913313378468 H 0.0 **** 0.06
17688 H 146.58186798586257 68.31633565149508 149.71699708847729 H 0.0 **** 0.06
17689 H 147.7893390010585 68.06103667857252 148.432983743743 H 0.0 **** 0.06
17690 H 146.4099153011428 69.1519098329895 148.1541557371608 H 0.0 **** 0.06
17691 C 11.268329876614075 34.50940981546642 97.9874823758172 C 0.0 **** -0.24
17692 H 10.838499574651337 33.52847871683384 98.1932118558076 H 0.0 **** 0.06
17693 H 11.918637192256597 34.799469692718425 98.81307196267127 H 0.0 **** 0.06
17694 H 10.468748344017683 35.241017613299924 97.88015198264374 H 0.0 **** 0.06
17695 H 11.84763293941569 34.46527777397196 97.0660298520409 H 0.0 **** 0.06
17696 C 145.28370800233864 127.04718907434504 149.04032594317974 C 0.0 **** -0.24
17697 H 144.32392411068776 126.8849227453734 148.5496315264564 H 0.0 **** 0.06
17698 H 145.15561160926623 127.74685384984934 149.86577307680687 H 0.0 **** 0.06
17699 H 145.99383956915113 127.45684639392645 148.32166083361807 H 0.0 **** 0.06
17700 H 145.66083447356363 126.09811453624528 149.42210814848957 H 0.0 **** 0.06
17701 C 37.03368779900522 74.21075753157317 130.44893914649242 C 0.0 **** -0.24
17702 H 36.35549042660389 74.56707103736964 131.22470877485964 H 0.0 **** 0.06
17703 H 38.06335049327129 74.31712439278375 130.79028546352336 H 0.0 **** 0.06
17704 H 36.88851250154224 74.79773728198236 129.54203871709925 H 0.0 **** 0.06
17705 H 36.82669783692083 73.16147894630154 130.2393274160984 H 0.0 **** 0.06
17706 C 104.64225164902982 29.59702796899768 137.5219548660819 C 0.0 **** -0.24
17707 H 105.6533922772264 29.984429063897892 137.648759922303 H 0.0 **** 0.06
17708 H 104.68566869656112 28.61740911298199 137.04634438735377 H 0.0 **** 0.06
17709 H 104.06767561509693 30.280100991683298 136.89591083335256 H 0.0 **** 0.06
17710 H 104.16276594246742 29.50782520362708 138.49695733882584 H 0.0 **** 0.06
17711 C 33.98815236724758 139.09955310368002 66.17869875007909 C 0.0 **** -0.24
17712 H 33.92708581678099 139.9066117816095 66.90792546684327 H 0.0 **** 0.06
17713 H 33.42960852536734 138.23758744342035 66.54445889570604 H 0.0 **** 0.06
17714 H 35.03123217053874 138.8209293801254 66.03043273569938 H 0.0 **** 0.06
17715 H 33.56224164053256 139.43314764099244 65.2317878429709 H 0.0 **** 0.06
17716 C 60.47595065131371 70.0770613031697 61.83951269995515 C 0.0 **** -0.24
17717 H 59.534964795712185 69.81901561174108 61.353627399432355 H 0.0 **** 0.06
17718 H 60.286165572269724 70.34486646960873 62.87954950137788 H 0.0 **** 0.06
17719 H 60.93103518366348 70.92279345718586 61.32398124887493 H 0.0 **** 0.06
17720 H 61.151186347140126 69.22198340035075 61.80168368167972 H 0.0 **** 0.06
17721 C 57.15009075367577 45.24742202241745 68.01545414892195 C 0.0 **** -0.24
17722 H 58.1281246731871 45.47585712278584 68.43934865525648 H 0.0 **** 0.06
17723 H 56.629054270306696 44.54338686326744 68.66346257726043 H 0.0 **** 0.06
17724 H 57.27721891302038 44.80721313409899 67.02642277915054 H 0.0 **** 0.06
17725 H 56.568364013742666 46.165291278818074 67.93261394681977 H 0.0 **** 0.06
17726 C 60.49274839825662 31.442705694962058 65.94448091903175 C 0.0 **** -0.24
17727 H 59.620776130712756 31.452368507743245 66.59891846447466 H 0.0 **** 0.06
17728 H 60.32102578340178 32.111767318035305 65.10180640302477 H 0.0 **** 0.06
17729 H 60.65870573222415 30.429489208314322 65.57801398899952 H 0.0 **** 0.06
17730 H 61.36789155115676 31.776190044620108 66.5016856520216 H 0.0 **** 0.06
17731 C 92.55423849948008 13.905975213706796 147.04566568222464 C 0.0 **** -0.24
17732 H 93.51852741785518 13.512172047179064 146.72469305672794 H 0.0 **** 0.06
17733 H 92.47368801375833 14.952598982412411 146.75236586365162 H 0.0 **** 0.06
17734 H 92.47151543442831 13.825040659605946 148.1299788351959 H 0.0 **** 0.06
17735 H 91.75344773153921 13.333674179053247 146.57650666359427 H 0.0 **** 0.06
17736 C 92.41138129704336 112.39371539113804 135.5635879861424 C 0.0 **** -0.24
17737 H 93.33552965802477 112.06676223149825 135.088790282904 H 0.0 **** 0.06
17738 H 91.55864053801446 111.9961546639096 135.01196202468253 H 0.0 **** 0.06
17739 H 92.36797831375895 113.48338449882434 135.56261691324835 H 0.0 **** 0.06
17740 H 92.38250864474838 112.02995127122423 136.59042463261503 H 0.0 **** 0.06
17741 C 119.17690544047329 91.01519914080478 147.74077642685518 C 0.0 **** -0.24
17742 H 119.83167008884291 91.32396842456646 148.55576371147393 H 0.0 **** 0.06
17743 H 119.66293764003817 90.23040705530703 147.16114588328742 H 0.0 **** 0.06
17744 H 118.97169192198007 91.87070850201283 147.09566581283912 H 0.0 **** 0.06
17745 H 118.23954077118836 90.63787162415238 148.1509373075229 H 0.0 **** 0.06
17746 C 52.189853186586674 81.1350055436201 46.877710234489626 C 0.0 **** -0.24
17747 H 52.861232111074685 81.85667474010519 46.41293246504935 H 0.0 **** 0.06
17748 H 52.00148012234288 81.42643366808281 47.91059633184389 H 0.0 **** 0.06
17749 H 52.64834279966877 80.14598914375831 46.856773546902986 H 0.0 **** 0.06
17750 H 51.24845175934473 81.10935471926634 46.32894902124252 H 0.0 **** 0.06
17751 C 111.14126228236559 114.96195305541188 98.42870087798461 C 0.0 **** -0.24
17752 H 111.38735456102826 113.98124786558851 98.83508663368868 H 0.0 **** 0.06
17753 H 110.35882799842953 115.41961678743617 99.03470088823889 H 0.0 **** 0.06
17754 H 110.78889050290049 114.85054181680631 97.4027051711338 H 0.0 **** 0.06
17755 H 112.02868481165511 115.59435755928466 98.44193962307844 H 0.0 **** 0.06
17756 C 86.23720777585645 146.8161995830735 99.3934499848985 C 0.0 **** -0.24
17757 H 85.68981605361375 147.68439626465005 99.02435600736919 H 0.0 **** 0.06
17758 H 87.26242149641928 147.1046092731603 99.62592830296518 H 0.0 **** 0.06
17759 H 86.24243223712043 146.0390696761924 98.62861776363178 H 0.0 **** 0.06
17760 H 85.75229288358328 146.43757785308645 100.29356422125218 H 0.0 **** 0.06
17761 C 78.44468418359737 119.1461146832666 14.763145719818937 C 0.0 **** -0.24
17762 H 79.25900080356115 118.83505761570507 15.417959011412478 H 0.0 **** 0.06
17763 H 78.8059853623698 119.90711685636978 14.07210765915758 H 0.0 **** 0.06
17764 H 77.63264479560561 119.55508986890396 15.363575382624077 H 0.0 **** 0.06
17765 H 78.0822945345237 118.28522346542036 14.200865046226994 H 0.0 **** 0.06
17766 C 20.604968224245255 81.7139241685596 148.9118261518483 C 0.0 **** -0.24
17767 H 19.63955920273932 81.34688982755354 148.56344317680418 H 0.0 **** 0.06
17768 H 20.455424052168894 82.613173433861 149.51089780776047 H 0.0 **** 0.06
17769 H 21.23486908540545 81.94832100931487 148.05440999554827 H 0.0 **** 0.06
17770 H 21.08677850673797 80.94763024080767 149.5191769203998 H 0.0 **** 0.06
17771 C 133.3355952642948 35.915409811277065 15.565397238375482 C 0.0 **** -0.24
17772 H 133.85464025669683 34.957240040470595 15.606840097447389 H 0.0 **** 0.06
17773 H 132.45725256151817 35.82521432357209 14.925390679488231 H 0.0 **** 0.06
17774 H 134.00448063376496 36.673242647855304 15.160705821967099 H 0.0 **** 0.06
17775 H 133.02529665519398 36.20297045027756 16.570284376504105 H 0.0 **** 0.06
17776 C 80.21150106409974 59.536894706439284 43.63222018362869 C 0.0 **** -0.24
17777 H 81.02015835094075 59.016380772139485 43.11986865063879 H 0.0 **** 0.06
17778 H 79.25373290153358 59.12643986124124 43.309289041111356 H 0.0 **** 0.06
17779 H 80.25186765834293 60.598581291967946 43.391445252448364 H 0.0 **** 0.06
17780 H 80.3191126807792 59.404086122070055 44.70886595354928 H 0.0 **** 0.06
17781 C 131.49162753124241 65.73814023544256 107.1702111312407 C 0.0 **** -0.24
17782 H 131.61353234537748 64.82134017454939 106.59409194319858 H 0.0 **** 0.06
17783 H 131.96699954312632 65.62173336045078 108.14397052660985 H 0.0 **** 0.06
17784 H 130.4296338255177 65.94303493857649 107.30559951621615 H 0.0 **** 0.06
17785 H 131.95596179996326 66.56745071785511 106.63549219789292 H 0.0 **** 0.06
17786 C 5.307780504840537 40.509101916181194 85.1120516817308 C 0.0 **** -0.24
17787 H 6.2098307585021075 41.07330662850599 84.87407713199826 H 0.0 **** 0.06
17788 H 5.5213616646796595 39.80606070563174 85.91771455174137 H 0.0 **** 0.06
17789 H 4.978458484104294 39.962095688212685 84.22936055245572 H 0.0 **** 0.06
17790 H 4.522330282968255 41.19606707556737 85.42700929884421 H 0.0 **** 0.06
17791 C 20.319457255813518 36.16501234030371 87.25434033435462 C 0.0 **** -0.24
17792 H 20.803206798999014 35.23361929907665 86.96047155881028 H 0.0 **** 0.06
17793 H 20.14133307114787 36.1577112060727 88.32978022626811 H 0.0 **** 0.06
17794 H 19.369228144010776 36.26240055903484 86.72883327349548 H 0.0 **** 0.06
17795 H 20.964576698107948 37.005464868250165 86.99835217852136 H 0.0 **** 0.06
17796 C 35.609562613946366 82.86274056427828 1.7784617940472174 C 0.0 **** -0.24
17797 H 35.20897111074601 83.41991819455166 2.625112256882744 H 0.0 **** 0.06
17798 H 36.42581773182854 83.42712452083691 1.3252301829220983 H 0.0 **** 0.06
17799 H 34.822119326610355 82.70659971148245 1.0408334302256321 H 0.0 **** 0.06
17800 H 35.98231988300759 81.89774762637245 2.1217432065204207 H 0.0 **** 0.06
17801 C 91.03752258610245 62.960857646509425 85.47733571831242 C 0.0 **** -0.24
17802 H 90.36418767678549 63.17106340170167 84.6461184553778 H 0.0 **** 0.06
17803 H 90.89411719226757 61.93163205774431 85.80756002694159 H 0.0 **** 0.06
17804 H 90.82178665003562 63.64085390707234 86.30034696286708 H 0.0 **** 0.06
17805 H 92.06882262829447 63.09797564742868 85.15231978432695 H 0.0 **** 0.06
17806 C 30.903753713520928 54.853794820121834 34.74388832274252 C 0.0 **** -0.24
17807 H 29.990949827307645 55.332210698471954 34.389341026673776 H 0.0 **** 0.06
17808 H 31.76319748505881 55.46652114856016 34.47241213269183 H 0.0 **** 0.06
17809 H 31.000162183786756 53.86918169828891 34.28654722013533 H 0.0 **** 0.06
17810 H 30.861029300577343 54.74784469250517 35.82800118024545 H 0.0 **** 0.06
17811 C 74.30959536693084 26.809836437632626 132.82974556530385 C 0.0 **** -0.24
17812 H 73.51535667198374 27.37965919630338 133.31252027516754 H 0.0 **** 0.06
17813 H 75.10410749152751 26.61307381153823 133.54963127853958 H 0.0 **** 0.06
17814 H 74.70938927382204 27.382646657812565 131.99247930012706 H 0.0 **** 0.06
17815 H 73.90736027330883 25.865782927771455 132.46433712673655 H 0.0 **** 0.06
17816 C 70.35478724281107 5.706921348939936 118.64034169849921 C 0.0 **** -0.24
17817 H 70.2433586358299 6.155340322725362 119.62767223132923 H 0.0 **** 0.06
17818 H 70.35377539663422 4.620136977403675 118.73248964573887 H 0.0 **** 0.06
17819 H 71.29491427392631 6.033705223340579 118.1969931731916 H 0.0 **** 0.06
17820 H 69.52476753138129 6.018751489504307 118.00491523310026 H 0.0 **** 0.06
17821 C 25.614833857713364 78.44531629398128 62.09903640228296 C 0.0 **** -0.24
17822 H 26.326352437306355 79.26304177023367 62.2115033798479 H 0.0 **** 0.06
17823 H 25.777058578992722 77.95279244857163 61.139900899810385 H 0.0 **** 0.06
17824 H 24.59929417709 78.83942082663526 62.138154947327706 H 0.0 **** 0.06
17825 H 25.75772586842362 77.7261875038297 62.90570990927202 H 0.0 **** 0.06
17826 C 47.88958595335856 108.07507176128637 85.58948528486462 C 0.0 **** -0.24
17827 H 48.374294844323316 107.09898352352666 85.63382018868563 H 0.0 **** 0.06
17828 H 48.435501597618355 108.77996055445637 86.21734308622271 H 0.0 **** 0.06
17829 H 46.86377679108577 107.9881399366228 85.94706309394543 H 0.0 **** 0.06
17830 H 47.88751849952595 108.43199963224355 84.55968156727648 H 0.0 **** 0.06
17831 C 112.05935978921846 61.89378338539383 87.83118860269492 C 0.0 **** -0.24
17832 H 111.35893013310093 61.06200983252454 87.75740832358214 H 0.0 **** 0.06
17833 H 111.50687783000987 62.83385658883138 87.83043194089197 H 0.0 **** 0.06
17834 H 112.74051179991383 61.87134186454635 86.98094347684678 H 0.0 **** 0.06
17835 H 112.62972961950604 61.80766376806942 88.75595567914239 H 0.0 **** 0.06
17836 C 107.88460487066061 71.14110525540985 35.116117280785005 C 0.0 **** -0.24
17837 H 107.30261464414411 71.95186684280938 35.55385863398223 H 0.0 **** 0.06
17838 H 107.71454629134934 70.22489911788128 35.68270259945638 H 0.0 **** 0.06
17839 H 108.94340126228894 71.39590424687114 35.14546199534266 H 0.0 **** 0.06
17840 H 107.57524959116398 70.99020105557534 34.08155227912937 H 0.0 **** 0.06
17841 C 74.6201465915757 76.15777149698908 90.11377050292964 C 0.0 **** -0.24
17842 H 74.77095061254501 76.68530424179002 91.05591691139185 H 0.0 **** 0.06
17843 H 75.57129130419943 76.08061454831227 89.58536527182312 H 0.0 **** 0.06
17844 H 73.90670516304964 76.70853896706103 89.49998956391642 H 0.0 **** 0.06
17845 H 74.23319877416291 75.1591885291769 90.31392515517953 H 0.0 **** 0.06
17846 C 132.27339084229484 124.981006994886 133.42751246158898 C 0.0 **** -0.24
17847 H 133.24866139453388 125.44739456379526 133.5665680824093 H 0.0 **** 0.06
17848 H 131.63441810584976 125.21247790734827 134.27998155751732 H 0.0 **** 0.06
17849 H 132.3954392689248 123.90137357784715 133.346925181844 H 0.0 **** 0.06
17850 H 131.81509257186 125.36332384761829 132.51526961362177 H 0.0 **** 0.06
17851 C 90.95128660961483 118.09734574389947 137.82467141737794 C 0.0 **** -0.24
17852 H 91.6971008637332 118.63660957410761 137.23941492901648 H 0.0 **** 0.06
17853 H 90.03780201825423 118.69108803382451 137.88261587477717 H 0.0 **** 0.06
17854 H 91.33555037566816 117.92246688885163 138.82884828094015 H 0.0 **** 0.06
17855 H 90.73546357012728 117.14311182421554 137.34530675136537 H 0.0 **** 0.06
17856 C 15.503212541285222 77.27037918825626 42.14953611188275 C 0.0 **** -0.24
17857 H 15.443446835792258 77.21530762416539 41.06261584652974 H 0.0 **** 0.06
17858 H 16.318751641710264 77.93558969979277 42.43468951741734 H 0.0 **** 0.06
17859 H 15.687155459765677 76.27530179250597 42.55419825561046 H 0.0 **** 0.06
17860 H 14.563496227873031 77.65531763656064 42.546640827973505 H 0.0 **** 0.06
17861 C 27.108541684078943 17.328697938849018 93.07877530657831 C 0.0 **** -0.24
17862 H 26.466038453588318 17.10362080245966 92.2265174654292 H 0.0 **** 0.06
17863 H 26.491691751056038 17.5826598972059 93.9410009033013 H 0.0 **** 0.06
17864 H 27.755110476524116 18.171724867156428 92.83275920712498 H 0.0 **** 0.06
17865 H 27.7199202830503 16.457089925702974 93.31200728496736 H 0.0 **** 0.06
17866 C 14.045073055279431 74.3970497406327 76.97174470733816 C 0.0 **** -0.24
17867 H 13.958579334313697 75.47420314495898 77.11595247189761 H 0.0 **** 0.06
17868 H 13.32015371799065 73.8867875992623 77.60611525558683 H 0.0 **** 0.06
17869 H 15.051486347485081 74.07496226259508 77.23792021682095 H 0.0 **** 0.06
17870 H 13.849579939673731 74.15389767418455 75.92800530122058 H 0.0 **** 0.06
17871 C 10.607336420576587 121.00317325953006 147.71614571918732 C 0.0 **** -0.24
17872 H 10.894393253874341 122.05270284027358 147.77745233837774 H 0.0 **** 0.06
17873 H 9.954972233888384 120.7566284567618 148.55465580357802 H 0.0 **** 0.06
17874 H 11.500487001829981 120.38000663753093 147.75474447180076 H 0.0 **** 0.06
17875 H 10.079606050363964 120.82488493893499 146.7803084787059 H 0.0 **** 0.06
17876 C 19.04414875431398 2.824469573912438 5.424961895315988 C 0.0 **** -0.24
17877 H 19.73141462947754 2.181630048705017 4.875396224127115 H 0.0 **** 0.06
17878 H 19.042637407164783 2.539720863032784 6.476627875535939 H 0.0 **** 0.06
17879 H 18.038811475225785 2.7138874599936003 5.016939735338184 H 0.0 **** 0.06
17880 H 19.362620588217247 3.8622308023569474 5.3287392877781485 H 0.0 **** 0.06
17881 C 122.65505723880932 87.68807579919479 67.23347403000338 C 0.0 **** -0.24
17882 H 122.44503262944949 88.16766416669074 68.18958550407345 H 0.0 **** 0.06
17883 H 122.6775384922608 86.60558405035741 67.36886894489663 H 0.0 **** 0.06
17884 H 123.6208368023324 88.02757628404134 66.86115604146153 H 0.0 **** 0.06
17885 H 121.87596853334503 87.94933501599922 66.51798408604563 H 0.0 **** 0.06
17886 C 25.88634668814756 19.85715916551092 87.56203841244292 C 0.0 **** -0.24
17887 H 25.92968072275206 20.94611378888814 87.53739128549043 H 0.0 **** 0.06
17888 H 25.852549469542346 19.47148424771379 86.54323613521532 H 0.0 **** 0.06
17889 H 24.991748292467626 19.54247036769516 88.1002783114576 H 0.0 **** 0.06
17890 H 26.7703856068907 19.469943673500467 88.06868408581349 H 0.0 **** 0.06
17891 C 5.433953171250831 13.782479244409927 102.87840056597032 C 0.0 **** -0.24
17892 H 6.309065203460495 14.140345192634214 102.33729861085429 H 0.0 **** 0.06
17893 H 5.747600669815927 13.084654185477632 103.65552279547508 H 0.0 **** 0.06
17894 H 4.760278328576515 13.277677034234642 102.18596542847997 H 0.0 **** 0.06
17895 H 4.918383718389194 14.627399574142743 103.33613444101785 H 0.0 **** 0.06
17896 C 73.87060028558058 33.75450441196565 8.424036527341357 C 0.0 **** -0.24
17897 H 74.92396969624481 33.78979368549416 8.701710849941904 H 0.0 **** 0.06
17898 H 73.56132051759022 34.729689975579184 8.046751942967155 H 0.0 **** 0.06
17899 H 73.27285020122152 33.497646878051555 9.298627592259237 H 0.0 **** 0.06
17900 H 73.72380317818558 33.00208868214926 7.649644743192411 H 0.0 **** 0.06
17901 C 32.653331730144345 113.926565610248 80.45023284083929 C 0.0 **** -0.24
17902 H 33.49231029564808 113.23126985382355 80.49279220073909 H 0.0 **** 0.06
17903 H 32.29501473227393 113.99908605111428 79.42225653666404 H 0.0 **** 0.06
17904 H 32.978304987106554 114.90960484405143 80.7925525296282 H 0.0 **** 0.06
17905 H 31.849095400805027 113.56578132689567 81.09036803052983 H 0.0 **** 0.06
17906 C 33.30211822901276 11.684697816304038 52.43776529115598 C 0.0 **** -0.24
17907 H 33.3950946258131 12.53866307013368 53.1109519871153 H 0.0 **** 0.06
17908 H 33.212858128941036 12.040675047960633 51.411818753710065 H 0.0 **** 0.06
17909 H 32.41489177886575 11.109866764876699 52.70183525169443 H 0.0 **** 0.06
17910 H 34.185294404881176 11.053017444259183 52.52963590750102 H 0.0 **** 0.06
17911 C 68.44032850144485 132.3503125724018 146.6194665511468 C 0.0 **** -0.24
17912 H 67.94869019763539 131.45373581826104 146.24305407200788 H 0.0 **** 0.06
17913 H 69.32832208418459 132.55646177628594 146.0211953603191 H 0.0 **** 0.06
17914 H 68.73052642655071 132.19722845758906 147.65863442998608 H 0.0 **** 0.06
17915 H 67.75440122767166 133.19503678986007 146.5546108571306 H 0.0 **** 0.06
17916 C 143.17220791619002 115.82534199027428 13.392711109187687 C 0.0 **** -0.24
17917 H 142.75437790063856 116.6708537111747 13.938011434551498 H 0.0 **** 0.06
17918 H 143.08329302472592 116.0048895718062 12.320620467650684 H 0.0 **** 0.06
17919 H 142.62692509247563 114.91827824943876 13.655480083937064 H 0.0 **** 0.06
17920 H 144.22337125055776 115.70677788733782 13.655343317977206 H 0.0 **** 0.06
17921 C 65.7154385014462 143.57098386644765 87.1711452552108 C 0.0 **** -0.24
17922 H 64.87901161247892 143.76283612219157 87.84262438798734 H 0.0 **** 0.06
17923 H 65.59560567397959 142.5901022237387 86.71112266836641 H 0.0 **** 0.06
17924 H 66.6477015491621 143.59710834704458 87.73454970391944 H 0.0 **** 0.06
17925 H 65.7398328603498 144.33626822540606 86.39423965452158 H 0.0 **** 0.06
17926 C 144.68821681635657 19.319763050852465 8.474388100191476 C 0.0 **** -0.24
17927 H 145.5665167116023 19.759283391833044 8.945614791041208 H 0.0 **** 0.06
17928 H 144.01422059097345 20.113592208711516 8.15200036815375 H 0.0 **** 0.06
17929 H 144.17611040101613 18.676243922481717 9.189390628883046 H 0.0 **** 0.06
17930 H 144.99546157026188 18.731219463276446 7.610365205980969 H 0.0 **** 0.06
17931 C 37.51048801536982 86.47824434119391 98.71695880502483 C 0.0 **** -0.24
17932 H 38.564965682128545 86.34620048859395 98.4738296861188 H 0.0 **** 0.06
17933 H 37.404892017473166 87.27998688247271 99.44770079776025 H 0.0 **** 0.06
17934 H 37.11532623687319 85.55237258224761 99.13339138191641 H 0.0 **** 0.06
17935 H 36.95866815873383 86.7348091263814 97.812426961817 H 0.0 **** 0.06
17936 C 131.57080105431675 67.02622719410499 101.78352164258008 C 0.0 **** -0.24
17937 H 131.51117950896372 65.93871758968805 101.76662320146798 H 0.0 **** 0.06
17938 H 130.57139970741005 67.44727866832238 101.66983294102893 H 0.0 **** 0.06
17939 H 132.2051552552103 67.36806653163342 100.96514695361336 H 0.0 **** 0.06
17940 H 131.99627254518938 67.35231414538816 102.73293083652958 H 0.0 **** 0.06
17941 C 32.47150366239231 54.17520614331028 41.69887786272233 C 0.0 **** -0.24
17942 H 32.640214930335844 55.19869987803321 42.034548218562634 H 0.0 **** 0.06
17943 H 31.932461115496437 54.18816955072714 40.75137716052126 H 0.0 **** 0.06
17944 H 31.884120400941868 53.64069835375693 42.44527105698808 H 0.0 **** 0.06
17945 H 33.431256346612315 53.67458739678568 41.564590109148696 H 0.0 **** 0.06
17946 C 66.77919261559992 13.044787853856178 77.90332768676807 C 0.0 **** -0.24
17947 H 65.7791891764378 13.319945778187872 78.23680733986399 H 0.0 **** 0.06
17948 H 66.73117932446235 12.109587931924324 77.34467811306627 H 0.0 **** 0.06
17949 H 67.42898526507952 12.918819828858744 78.77005376653061 H 0.0 **** 0.06
17950 H 67.17660296100979 13.83123252934206 77.26215746562374 H 0.0 **** 0.06
17951 C 39.14262018342106 62.63675206078251 21.088044739749655 C 0.0 **** -0.24
17952 H 39.29829700518633 63.426665022128944 21.822992175454324 H 0.0 **** 0.06
17953 H 39.41481685156435 63.00364350996341 20.098091637726156 H 0.0 **** 0.06
17954 H 38.092872470463305 62.34152837108344 21.090541459343136 H 0.0 **** 0.06
17955 H 39.762685998655 61.77693730946088 21.342169651289552 H 0.0 **** 0.06
17956 C 0.035822571546390236 148.59389316685 79.89450429005223 C 0.0 **** -0.24
17957 H -0.5307899665206435 148.0314683753027 80.63642481060691 H 0.0 **** 0.06
17958 H 0.6830562641943629 149.31158596620114 80.39981916392387 H 0.0 **** 0.06
17959 H -0.652998492420295 149.1245976177061 79.23739105424508 H 0.0 **** 0.06
17960 H 0.6446783236738725 147.90712545796706 79.30535038789755 H 0.0 **** 0.06
17961 C 119.39816984022 146.124838415725 149.23202245380685 C 0.0 **** -0.24
17962 H 118.48228253440051 146.2707952779068 149.8052436539401 H 0.0 **** 0.06
17963 H 119.52107451998937 145.06543443536825 149.00639856590516 H 0.0 **** 0.06
17964 H 120.25027953993079 146.47453852164523 149.81479374312028 H 0.0 **** 0.06
17965 H 119.33787581077915 146.69045878454784 148.30201292381366 H 0.0 **** 0.06
17966 C 140.70531759459396 76.30405589344554 15.823854730878338 C 0.0 **** -0.24
17967 H 139.94109933753214 76.57898566686112 15.096076191787319 H 0.0 **** 0.06
17968 H 141.47114079518008 75.70206294816853 15.334742470448276 H 0.0 **** 0.06
17969 H 140.24803289449562 75.72759327566865 16.62855285337406 H 0.0 **** 0.06
17970 H 141.15690282234874 77.20655669741211 16.234001670057637 H 0.0 **** 0.06
17971 C 44.52497536037825 33.97456317891846 129.42540401347313 C 0.0 **** -0.24
17972 H 44.036106426698694 33.94606884149158 128.45121524869754 H 0.0 **** 0.06
17973 H 45.546213021394664 33.60513395357543 129.3308091931742 H 0.0 **** 0.06
17974 H 43.97388027866364 33.3475105317637 130.12604562029435 H 0.0 **** 0.06
17975 H 44.542313062917884 35.00080299115433 129.79233143902033 H 0.0 **** 0.06
17976 C 33.675925358695736 105.40116447408802 13.698136545094314 C 0.0 **** -0.24
17977 H 34.25204875588702 106.26566256567484 13.366458376015714 H 0.0 **** 0.06
17978 H 34.27871223336834 104.49979459717561 13.586831485506082 H 0.0 **** 0.06
17979 H 32.773389541477485 105.3123970569306 13.092827570005682 H 0.0 **** 0.06
17980 H 33.400554704473336 105.52827514729633 14.745519185758099 H 0.0 **** 0.06
17981 C 42.591844254637905 57.5232230480387 118.46526895816645 C 0.0 **** -0.24
17982 H 43.01018897248609 58.028280304755896 119.33582874549371 H 0.0 **** 0.06
17983 H 41.51749113393669 57.69957673577234 118.42500494680324 H 0.0 **** 0.06
17984 H 42.78245236812144 56.45253498932031 118.53966060193646 H 0.0 **** 0.06
17985 H 43.059079098286304 57.912998394623344 117.55995999072009 H 0.0 **** 0.06
17986 C 75.01339780476654 48.28748764038309 123.16859220472887 C 0.0 **** -0.24
17987 H 74.10224632089802 47.732442135035114 123.39185873779937 H 0.0 **** 0.06
17988 H 74.89345675391384 49.32434842986021 123.4822708976636 H 0.0 **** 0.06
17989 H 75.2081889084329 48.251613821197 122.09652411198195 H 0.0 **** 0.06
17990 H 75.85094829317846 47.84028967331642 123.7054066026515 H 0.0 **** 0.06
17991 C 61.337668899659405 51.65509553919834 32.48163847244812 C 0.0 **** -0.24
17992 H 61.49729832147503 51.27674145407815 33.491115120055674 H 0.0 **** 0.06
17993 H 61.18338904598423 52.73350502739096 32.517751976268904 H 0.0 **** 0.06
17994 H 60.45922762632489 51.176324744446774 32.04907641332889 H 0.0 **** 0.06
17995 H 62.211100684612205 51.432564730310034 31.867456499856814 H 0.0 **** 0.06
17996 C 46.58658146501341 126.6230310714467 5.881353859753997 C 0.0 **** -0.24
17997 H 46.09492763844737 127.59566762917834 5.876146845076043 H 0.0 **** 0.06
17998 H 47.62178261900307 126.73672230068956 5.558166000523226 H 0.0 **** 0.06
17999 H 46.065523531959414 125.94974951854054 5.200414010179326 H 0.0 **** 0.06
18000 H 46.56371374202405 126.20977713418966 6.889341809298479 H 0.0 **** 0.06
18001 C 122.33060277281973 24.43203310047491 1.8558437677081656 C 0.0 **** -0.24
18002 H 121.78908623035781 23.978232835001137 2.6856338756437594 H 0.0 **** 0.06
18003 H 123.24610665328035 24.89255101350713 2.227586140628148 H 0.0 **** 0.06
18004 H 121.7058101262808 25.193114405225145 1.3873419888877834 H 0.0 **** 0.06
18005 H 122.58014316769399 23.66541519572357 1.122740747719547 H 0.0 **** 0.06
18006 C 77.3859300062154 125.92082510173556 48.575115246666 C 0.0 **** -0.24
18007 H 77.273802337736 125.04000570598326 49.20642026007897 H 0.0 **** 0.06
18008 H 78.13929959937724 125.72671276870477 47.81166050525833 H 0.0 **** 0.06
18009 H 77.69769028428365 126.7679777993117 49.18638714592028 H 0.0 **** 0.06
18010 H 76.43419825375277 126.14923920693037 48.09698441132177 H 0.0 **** 0.06
18011 C 82.67279480268847 52.172810398298196 144.04227671774578 C 0.0 **** -0.24
18012 H 82.75795826596136 52.94845711868798 143.2804552980836 H 0.0 **** 0.06
18013 H 83.65626400476462 51.74097737181093 144.2322612199948 H 0.0 **** 0.06
18014 H 81.99541900472984 51.39377918723942 143.69157612354087 H 0.0 **** 0.06
18015 H 82.2826553351127 52.60749325524144 144.9619046035946 H 0.0 **** 0.06
18016 C 57.42161904605814 131.21715314049334 14.798767344902444 C 0.0 **** -0.24
18017 H 57.21784315476809 130.27362278700443 14.293358293447767 H 0.0 **** 0.06
18018 H 56.49479676820313 131.78264991612303 14.899347536776759 H 0.0 **** 0.06
18019 H 58.13869353786184 131.79547150345536 14.214814791570575 H 0.0 **** 0.06
18020 H 57.83579124422005 131.0174767835812 15.787091294720398 H 0.0 **** 0.06
18021 C 99.82249855521536 17.081520777320073 138.4139553816925 C 0.0 **** -0.24
18022 H 99.493437169375 17.099396283786106 137.37473472571725 H 0.0 **** 0.06
18023 H 99.23535991227374 17.79494152417552 138.99251959409688 H 0.0 **** 0.06
18024 H 100.87659888620107 17.351098505068897 138.4663077210884 H 0.0 **** 0.06
18025 H 99.6825100860583 16.08028457115082 138.82103124673858 H 0.0 **** 0.06
18026 C 141.5818756890514 107.47957422464698 98.80357816174057 C 0.0 **** -0.24
18027 H 142.4638244089243 106.87301083110468 99.01353971128574 H 0.0 **** 0.06
18028 H 141.84789811211107 108.2778228109302 98.11022632415037 H 0.0 **** 0.06
18029 H 141.20999774831415 107.91215285904603 99.73168696915663 H 0.0 **** 0.06
18030 H 140.80873460719337 106.85349877748949 98.35880084073614 H 0.0 **** 0.06
18031 C 119.44040510075722 18.88369228365866 120.22735691776937 C 0.0 **** -0.24
18032 H 118.71461089824682 18.26784065739988 120.75869959789354 H 0.0 **** 0.06
18033 H 120.0461291578823 18.25134257279401 119.57666746115233 H 0.0 **** 0.06
18034 H 120.085556572479 19.387607174655713 120.9465076784103 H 0.0 **** 0.06
18035 H 118.91585127505077 19.626253218917284 119.62623212389498 H 0.0 **** 0.06
18036 C 81.5244454406999 13.24885887577711 60.64574604888003 C 0.0 **** -0.24
18037 H 81.24292971192136 13.145824078470838 59.597313769535106 H 0.0 **** 0.06
18038 H 82.43650624736773 12.683026536891042 60.83442915712118 H 0.0 **** 0.06
18039 H 80.72171758696553 12.86475679311085 61.275970693548686 H 0.0 **** 0.06
18040 H 81.69338790616354 14.301201746903764 60.874941212663316 H 0.0 **** 0.06
18041 C 131.61611118807454 24.89069019297218 139.38853528113995 C 0.0 **** -0.24
18042 H 131.44443075071027 24.036977117091794 140.04402081876083 H 0.0 **** 0.06
18043 H 131.40719474839645 25.81278984435952 139.93167952325243 H 0.0 **** 0.06
18044 H 130.95812258566625 24.822723614281458 138.52240595244882 H 0.0 **** 0.06
18045 H 132.6539232268607 24.891271049614964 139.05666740822954 H 0.0 **** 0.06
18046 C 45.54170619297838 75.66694296239879 104.86038054116241 C 0.0 **** -0.24
18047 H 46.393637716897956 75.21006201523531 105.36456501663994 H 0.0 **** 0.06
18048 H 45.20854747872477 75.01640782610798 104.0511050451718 H 0.0 **** 0.06
18049 H 45.83535811123738 76.63376624832577 104.45278425537558 H 0.0 **** 0.06
18050 H 44.72905370892778 75.80442530393148 105.57419638335435 H 0.0 **** 0.06
18051 C 14.391992229885858 88.99665885833365 51.34990447891717 C 0.0 **** -0.24
18052 H 14.22633429099011 88.17176993283562 52.043040251749446 H 0.0 **** 0.06
18053 H 13.732368899142358 89.82500232029581 51.60847295081349 H 0.0 **** 0.06
18054 H 14.17845833832277 88.66495309112558 50.334374074723456 H 0.0 **** 0.06
18055 H 15.4294324483931 89.32263102219892 51.415114732365026 H 0.0 **** 0.06
18056 C 1.7491662157676728 39.00086022645044 14.143748049054238 C 0.0 **** -0.24
18057 H 1.767109063860886 38.09887163640141 14.756476509846777 H 0.0 **** 0.06
18058 H 2.656444315346164 39.04614138922068 13.54022704774195 H 0.0 **** 0.06
18059 H 1.6975803136768945 39.87769971071556 14.788468037261254 H 0.0 **** 0.06
18060 H 0.8780768044409228 38.978379092673904 13.48986558677214 H 0.0 **** 0.06
18061 C 113.6140808663584 66.95813870294656 137.74214359826826 C 0.0 **** -0.24
18062 H 113.94358786098867 66.82476398181049 138.77223378074956 H 0.0 **** 0.06
18063 H 112.70303241490656 67.55718899450555 137.7275153063285 H 0.0 **** 0.06
18064 H 113.41528654759789 65.98311243173698 137.29567957389986 H 0.0 **** 0.06
18065 H 114.3929342924258 67.46623497237628 137.17362446823395 H 0.0 **** 0.06
18066 C 47.86586316446788 101.19914168226609 55.53007650695585 C 0.0 **** -0.24
18067 H 48.727009591934305 100.589761608569 55.254963333317875 H 0.0 **** 0.06
18068 H 47.125385424661346 100.5746564976406 56.03202823085559 H 0.0 **** 0.06
18069 H 47.42647356389662 101.6328982130903 54.632035572862094 H 0.0 **** 0.06
18070 H 48.18389594427684 101.9965136626792 56.201086586265376 H 0.0 **** 0.06
18071 C 145.11666980473626 137.34768610828874 10.629215151655444 C 0.0 **** -0.24
18072 H 144.68773460920687 138.34483691465437 10.72150439197602 H 0.0 **** 0.06
18073 H 144.63139741803494 136.67660241318748 11.336965686232006 H 0.0 **** 0.06
18074 H 146.18455882329923 137.3915436258899 10.84221052794426 H 0.0 **** 0.06
18075 H 144.96381794610306 136.9794337375657 9.614948929168364 H 0.0 **** 0.06
18076 C 69.74266212069182 130.0485253320863 107.2974692696078 C 0.0 **** -0.24
18077 H 70.64258532189766 129.98235368368205 106.68641934447606 H 0.0 **** 0.06
18078 H 69.60706854354265 129.11654176412088 107.84657263772914 H 0.0 **** 0.06
18079 H 68.87923066150738 130.2216156592392 106.65471787445819 H 0.0 **** 0.06
18080 H 69.84244808400743 130.87431594348396 108.0022402460038 H 0.0 **** 0.06
18081 C 82.92297766698658 58.801277685640144 146.90239751672334 C 0.0 **** -0.24
18082 H 82.24156723881646 57.965199678587055 146.7461097497102 H 0.0 **** 0.06
18083 H 83.46963519535086 58.653974346202574 147.8337845218645 H 0.0 **** 0.06
18084 H 82.35239252114525 59.72843820146761 146.95708257803065 H 0.0 **** 0.06
18085 H 83.62687316446198 58.85566835719129 146.07185837160898 H 0.0 **** 0.06
18086 C 133.95194807199633 45.94974753139957 103.3212543089841 C 0.0 **** -0.24
18087 H 134.8263890475985 46.16893296511523 103.93400075832122 H 0.0 **** 0.06
18088 H 133.04741898105013 46.12563767310999 103.90334215398596 H 0.0 **** 0.06
18089 H 133.98330927228383 44.90727759840075 103.0029565993872 H 0.0 **** 0.06
18090 H 133.9523159612563 46.5968022028793 102.44427962970519 H 0.0 **** 0.06
18091 C 121.20641997656433 39.96519306346585 139.468304410221 C 0.0 **** -0.24
18092 H 121.54306732490913 39.390887447503474 138.60508073483774 H 0.0 **** 0.06
18093 H 121.56001023510485 39.4862893258686 140.38243224181136 H 0.0 **** 0.06
18094 H 120.11675928496526 40.003618280130524 139.47658649879824 H 0.0 **** 0.06
18095 H 121.60640306805472 40.9770804112689 139.40966161255798 H 0.0 **** 0.06
18096 C 114.11230749922369 5.747250496261643 138.53770648862366 C 0.0 **** -0.24
18097 H 114.93523283844833 5.748234186723693 139.25203020991063 H 0.0 **** 0.06
18098 H 113.33814584999438 6.437719373830628 138.87393853811693 H 0.0 **** 0.06
18099 H 113.69709509643415 4.743046926503279 138.46268466227045 H 0.0 **** 0.06
18100 H 114.48070954853019 6.062119900306531 137.56024971105316 H 0.0 **** 0.06
18101 C 15.487335080004186 116.92989944622602 135.61315269891344 C 0.0 **** -0.24
18102 H 15.180180114078667 116.2983239724895 134.77980900234812 H 0.0 **** 0.06
18103 H 15.300148409782537 116.40970630622499 136.5524506945564 H 0.0 **** 0.06
18104 H 14.918197934718165 117.86016282343891 135.59254924804694 H 0.0 **** 0.06
18105 H 16.55125083862751 117.15358452011051 135.5275619694329 H 0.0 **** 0.06
18106 C 123.65601484326808 126.61419119593404 125.38442592068108 C 0.0 **** -0.24
18107 H 122.8466647592019 125.92433819200491 125.14556873690407 H 0.0 **** 0.06
18108 H 124.51819487603788 126.39364066626112 124.75408031415589 H 0.0 **** 0.06
18109 H 123.93256542740804 126.50086838995487 126.43205331328909 H 0.0 **** 0.06
18110 H 123.32623776773349 127.63706604121441 125.2039720588175 H 0.0 **** 0.06
18111 C 9.429631055197632 2.1555589888734232 101.3578399905807 C 0.0 **** -0.24
18112 H 9.585539014401917 1.808624371701427 100.33632270449432 H 0.0 **** 0.06
18113 H 8.647422714723263 1.5591303954874718 101.82775438654842 H 0.0 **** 0.06
18114 H 9.128459043135337 3.2030617784809294 101.34359881576152 H 0.0 **** 0.06
18115 H 10.35639606984725 2.051395020072306 101.92210319172243 H 0.0 **** 0.06
18116 C 27.55565267185679 98.46062766240169 132.3228838501635 C 0.0 **** -0.24
18117 H 28.300445993353087 99.20162277272772 132.60954839327644 H 0.0 **** 0.06
18118 H 27.929257126127474 97.87848850443129 131.47984871718538 H 0.0 **** 0.06
18119 H 26.63266968198188 98.96529948972582 132.03509003700347 H 0.0 **** 0.06
18120 H 27.359156571229974 97.79712866045931 133.1648504929903 H 0.0 **** 0.06
18121 C 18.40050864285209 123.55247938532828 16.11416677082812 C 0.0 **** -0.24
18122 H 17.405667178919884 123.94695391452792 15.906723283832662 H 0.0 **** 0.06
18123 H 18.678289518492164 123.78750502021917 17.141430711572752 H 0.0 **** 0.06
18124 H 19.119183769738925 124.00300952138694 15.429528803887365 H 0.0 **** 0.06
18125 H 18.39765096773607 122.47063087853023 15.976947358499245 H 0.0 **** 0.06
18126 C 56.50631932064714 43.801702885476146 59.52037139496238 C 0.0 **** -0.24
18127 H 55.824869306825065 44.37282979936427 60.15084059224395 H 0.0 **** 0.06
18128 H 57.52238488294719 44.171191580128806 59.655531772079115 H 0.0 **** 0.06
18129 H 56.21424763078073 43.91385906216152 58.47572377834615 H 0.0 **** 0.06
18130 H 56.460860025526415 42.748847520636645 59.79868688909366 H 0.0 **** 0.06
18131 C 23.760484930489667 38.423067110643906 69.45902488803003 C 0.0 **** -0.24
18132 H 24.041507938065536 37.37763137654001 69.58677340431501 H 0.0 **** 0.06
18133 H 22.991340816409604 38.50096322843352 68.6906018202428 H 0.0 **** 0.06
18134 H 24.635232929787605 38.999742695098945 69.15839107034981 H 0.0 **** 0.06
18135 H 23.374233030010316 38.81223207483498 70.40173779728876 H 0.0 **** 0.06
18136 C 90.46404071773247 144.99803109483892 113.64559086318039 C 0.0 **** -0.24
18137 H 91.45196037426538 144.693424194393 113.30197068606194 H 0.0 **** 0.06
18138 H 90.54642793802728 145.45707239108796 114.63100546338032 H 0.0 **** 0.06
18139 H 89.8139942463308 144.12471745043894 113.70444125912971 H 0.0 **** 0.06
18140 H 90.04149458282677 145.71756078969318 112.94311500897314 H 0.0 **** 0.06
18141 C 113.53797017731148 102.4746252306806 31.231528542618463 C 0.0 **** -0.24
18142 H 114.49246676079628 102.01445885347852 31.48880212110879 H 0.0 **** 0.06
18143 H 113.70113027927158 103.26244426529627 30.496014138042398 H 0.0 **** 0.06
18144 H 113.08799238879214 102.90133037636173 32.127761872058585 H 0.0 **** 0.06
18145 H 112.87195667875017 101.71929998808491 30.814672125573537 H 0.0 **** 0.06
18146 C 48.87889865214402 0.38286875081647054 78.6577312872141 C 0.0 **** -0.24
18147 H 49.3666006589722 1.2976935613089324 78.99522769133738 H 0.0 **** 0.06
18148 H 47.88889807804267 0.3113971793256667 79.10847308858817 H 0.0 **** 0.06
18149 H 49.47783395482031 -0.4774482271153886 78.95593872036011 H 0.0 **** 0.06
18150 H 48.78403028699299 0.40143043884364715 77.57185102007632 H 0.0 **** 0.06
18151 C 124.90528146385901 132.09815342650634 138.8711222342674 C 0.0 **** -0.24
18152 H 125.24894264314264 132.77163964462508 139.65622273123753 H 0.0 **** 0.06
18153 H 123.91353098990709 132.40561747476463 138.53721447027314 H 0.0 **** 0.06
18154 H 124.85966912919457 131.08147862613 139.2598243067285 H 0.0 **** 0.06
18155 H 125.59982012274497 132.13535379028983 138.0308789782934 H 0.0 **** 0.06
18156 C 85.3922148882834 94.51780325224027 77.44039472044291 C 0.0 **** -0.24
18157 H 85.61347310438516 95.50947566539546 77.83515428552124 H 0.0 **** 0.06
18158 H 86.18843202572512 93.82923642409995 77.72281898933973 H 0.0 **** 0.06
18159 H 85.32227111778553 94.56688230424386 76.35336039249664 H 0.0 **** 0.06
18160 H 84.444856784488 94.16656041141282 77.8505332447689 H 0.0 **** 0.06
18161 C 83.57185243264641 81.25203234643594 39.90894483319306 C 0.0 **** -0.24
18162 H 83.61444034092854 80.18160913870406 40.1137495294775 H 0.0 **** 0.06
18163 H 82.53927385935626 81.595135617724 39.985757478279 H 0.0 **** 0.06
18164 H 83.94507254764916 81.44428153598307 38.90376205118697 H 0.0 **** 0.06
18165 H 84.18762432404424 81.7847321689456 40.63368572750372 H 0.0 **** 0.06
18166 C 125.82375885168969 136.3441759628007 132.52452017704016 C 0.0 **** -0.24
18167 H 125.33088294163687 137.00404460863155 131.8102630760008 H 0.0 **** 0.06
18168 H 126.4272600505956 136.93838486871363 133.21100002322393 H 0.0 **** 0.06
18169 H 126.46419113291418 135.64398294959506 131.989142102477 H 0.0 **** 0.06
18170 H 125.0709050749222 135.79129406910695 133.08679884925846 H 0.0 **** 0.06
18171 C 24.18573740538548 140.85664446955053 6.059544020854947 C 0.0 **** -0.24
18172 H 23.843913751326824 141.85080243693878 5.772636392177411 H 0.0 **** 0.06
18173 H 24.4779353471516 140.30168664699048 5.1679663922798795 H 0.0 **** 0.06
18174 H 23.37863363653358 140.32806380564205 6.568624113109237 H 0.0 **** 0.06
18175 H 25.039717232977267 140.94572790668343 6.73011171631061 H 0.0 **** 0.06
18176 C 58.71904102578323 54.63951731382696 97.32630379215679 C 0.0 **** -0.24
18177 H 59.78326797726666 54.41572294910186 97.2601031648187 H 0.0 **** 0.06
18178 H 58.31860374434697 54.804836365054825 96.32567743379641 H 0.0 **** 0.06
18179 H 58.57315990947998 55.53649942481272 97.9286444740248 H 0.0 **** 0.06
18180 H 58.200209242293795 53.80092480095301 97.79185797842936 H 0.0 **** 0.06
18181 C 7.288445610022336 144.99606739279366 129.48813182216506 C 0.0 **** -0.24
18182 H 8.109985177393469 145.15840449981593 130.18547597472713 H 0.0 **** 0.06
18183 H 7.3984477027569255 145.6635840738575 128.63397348019677 H 0.0 **** 0.06
18184 H 6.341632480955127 145.19956721410344 129.98977139052397 H 0.0 **** 0.06
18185 H 7.302989266234704 143.96080851259157 129.1455065707459 H 0.0 **** 0.06
18186 C 119.23558131622224 100.01964138589528 146.2327629666924 C 0.0 **** -0.24
18187 H 119.14691160872013 98.9342289626216 146.2701128198686 H 0.0 **** 0.06
18188 H 120.13840261351328 100.29155251347885 145.68513393399797 H 0.0 **** 0.06
18189 H 119.29248406352627 100.41400238046151 147.24755702656543 H 0.0 **** 0.06
18190 H 118.36426788742477 100.4376271552942 145.72902268377214 H 0.0 **** 0.06
18191 C 140.9870607151679 128.3210098306874 48.87474971843969 C 0.0 **** -0.24
18192 H 140.93004735106615 128.22308090017137 49.95866293920689 H 0.0 **** 0.06
18193 H 140.73499674587694 127.36855899574243 48.409503964756595 H 0.0 **** 0.06
18194 H 141.9985322064832 128.60954730103657 48.588744412425044 H 0.0 **** 0.06
18195 H 140.28410020922726 129.08562221540876 48.54216595559352 H 0.0 **** 0.06
18196 C 80.59254859154439 105.06720708868153 129.36049054931863 C 0.0 **** -0.24
18197 H 81.39991165982903 104.56140874233552 129.8910020283211 H 0.0 **** 0.06
18198 H 80.87653225180449 106.10236108697359 129.17070918020912 H 0.0 **** 0.06
18199 H 79.68811208435476 105.04316071766493 129.9683144199185 H 0.0 **** 0.06
18200 H 80.40732465684508 104.56071327678444 128.4128046164654 H 0.0 **** 0.06
18201 C 106.89842400501264 75.01219155838153 89.78918104679904 C 0.0 **** -0.24
18202 H 107.9808559421352 74.9182152393274 89.88227817490471 H 0.0 **** 0.06
18203 H 106.66339562844327 75.71657619490848 88.99162953930475 H 0.0 **** 0.06
18204 H 106.48364081217294 75.37493613399732 90.72933355464453 H 0.0 **** 0.06
18205 H 106.46876840342206 74.03866677237231 89.55375159453699 H 0.0 **** 0.06
18206 C 26.46605355380504 98.7375982814083 118.879207535611 C 0.0 **** -0.24
18207 H 26.070844733039337 99.25783317288536 119.75244414501385 H 0.0 **** 0.06
18208 H 25.87263855594037 97.84228856477554 118.68992550204722 H 0.0 **** 0.06
18209 H 27.502307924656094 98.45444091840447 119.06453502771375 H 0.0 **** 0.06
18210 H 26.41880672578972 99.39605556365983 118.01211687620871 H 0.0 **** 0.06
18211 C 13.885628555667076 137.0413188210384 112.53779446865505 C 0.0 **** -0.24
18212 H 13.942300174907253 136.3498124680584 111.69739292229016 H 0.0 **** 0.06
18213 H 13.208002830482904 137.85916706999527 112.29196095589796 H 0.0 **** 0.06
18214 H 14.878764267573445 137.44088151883295 112.74606505576392 H 0.0 **** 0.06
18215 H 13.515095607491958 136.51403662422172 113.4175986227477 H 0.0 **** 0.06
18216 C 17.429986428875047 96.87779737113388 111.52622815621946 C 0.0 **** -0.24
18217 H 18.252731083913027 96.31099961379911 111.96275540776917 H 0.0 **** 0.06
18218 H 16.520510578554237 96.69640770410592 112.09880561161059 H 0.0 **** 0.06
18219 H 17.27932674906569 96.56061913207438 110.49469139857327 H 0.0 **** 0.06
18220 H 17.669605869688105 97.94116394906774 111.54846660567038 H 0.0 **** 0.06
18221 C 33.56403564572629 34.707697744581004 82.17391344501249 C 0.0 **** -0.24
18222 H 32.50078492329698 34.71399436825729 81.93225093608461 H 0.0 **** 0.06
18223 H 33.981955291410884 33.72755785147756 81.94417784993097 H 0.0 **** 0.06
18224 H 33.69602724664877 34.91991235650626 83.2351394717277 H 0.0 **** 0.06
18225 H 34.075008886401775 35.46870364003889 81.5842009271141 H 0.0 **** 0.06
18226 C 103.48685308856294 87.00538595977756 117.15080479359598 C 0.0 **** -0.24
18227 H 104.00639332214426 87.71358718191252 116.50504441073353 H 0.0 **** 0.06
18228 H 103.97088129959532 86.98040629493947 118.12649488074594 H 0.0 **** 0.06
18229 H 103.52212828984263 86.0131156223665 116.7017438853354 H 0.0 **** 0.06
18230 H 102.44814810743912 87.31471764194572 117.26750680879216 H 0.0 **** 0.06
18231 C 48.0473729327483 69.74562191070513 103.09167420615094 C 0.0 **** -0.24
18232 H 47.041637249546426 69.3269874118692 103.05417250062456 H 0.0 **** 0.06
18233 H 48.74804982846398 69.05068010351039 102.62855838278554 H 0.0 **** 0.06
18234 H 48.33324109159393 69.91152619082482 104.13118501053194 H 0.0 **** 0.06
18235 H 48.06634751835708 70.69403833248265 102.55487840133037 H 0.0 **** 0.06
18236 C 72.78571514407982 70.10917264747154 135.59050913901257 C 0.0 **** -0.24
18237 H 73.27272728832904 71.06793104183177 135.4086876719512 H 0.0 **** 0.06
18238 H 72.68219870804941 69.57006262977777 134.64878029063513 H 0.0 **** 0.06
18239 H 71.80042907162766 70.27811494959617 136.02368727368167 H 0.0 **** 0.06
18240 H 73.39044762023468 69.52113747075774 136.2810703284833 H 0.0 **** 0.06
18241 C 83.20924227004251 142.27927489919392 144.8011556323187 C 0.0 **** -0.24
18242 H 83.54587441288419 143.22351161528908 144.3739726715394 H 0.0 **** 0.06
18243 H 83.28372494110452 142.32496776796884 145.88732870863285 H 0.0 **** 0.06
18244 H 83.83516423858102 141.4683281309709 144.4280490374991 H 0.0 **** 0.06
18245 H 82.17284588415014 142.10013460206804 144.5145203611406 H 0.0 **** 0.06
18246 C 86.67613650432511 137.72530096175052 55.48461039967246 C 0.0 **** -0.24
18247 H 85.95826164666468 136.97399441401194 55.15529345604914 H 0.0 **** 0.06
18248 H 87.4088994413681 137.26228998189362 56.146257458714715 H 0.0 **** 0.06
18249 H 86.15228553360384 138.5174282318257 56.01981974251177 H 0.0 **** 0.06
18250 H 87.18385775756909 138.14674623120334 54.61802143466572 H 0.0 **** 0.06
18251 C 75.45052559361328 98.99235855114289 84.57611081828685 C 0.0 **** -0.24
18252 H 74.91577364101472 98.97712196583925 83.62655899254764 H 0.0 **** 0.06
18253 H 76.08969001185903 99.87500344130918 84.61800799730821 H 0.0 **** 0.06
18254 H 76.06276206832808 98.09436986033892 84.66226947195497 H 0.0 **** 0.06
18255 H 74.73270858650866 99.02285825782955 85.39681360005085 H 0.0 **** 0.06
18256 C 46.52666274006529 37.106066849411974 19.869437173825133 C 0.0 **** -0.24
18257 H 46.18042996389377 36.50768941193775 19.026767732190336 H 0.0 **** 0.06
18258 H 46.00056423463674 38.0608931791414 19.875804384956183 H 0.0 **** 0.06
18259 H 47.59848584654438 37.281277440288335 19.774311060554567 H 0.0 **** 0.06
18260 H 46.32634541153723 36.57330207946151 20.798201457881788 H 0.0 **** 0.06
18261 C 34.3061775278143 7.843173650788913 60.697572961741415 C 0.0 **** -0.24
18262 H 33.59369632322206 7.055734156709121 60.45343769121973 H 0.0 **** 0.06
18263 H 33.79611735850048 8.642080899983881 61.235195776330016 H 0.0 **** 0.06
18264 H 34.73824650051097 8.240657259115096 59.778865886832094 H 0.0 **** 0.06
18265 H 35.099290534793056 7.433486351460431 61.32348955236999 H 0.0 **** 0.06
18266 C 50.42893226924589 116.28321144598713 22.135773186688397 C 0.0 **** -0.24
18267 H 49.802330893906415 115.68178152594028 22.79458747134887 H 0.0 **** 0.06
18268 H 51.47485125085211 116.15561264053711 22.415105458400568 H 0.0 **** 0.06
18269 H 50.152588779167885 117.3331565505142 22.23025610106214 H 0.0 **** 0.06
18270 H 50.28613329887642 115.96061928674594 21.104221320242992 H 0.0 **** 0.06
18271 C 90.65696190698975 27.01538734692207 128.61552104013984 C 0.0 **** -0.24
18272 H 91.43552286811665 26.307057272530898 128.90064708043383 H 0.0 **** 0.06
18273 H 90.61869214677778 27.825063719958706 129.34463015391097 H 0.0 **** 0.06
18274 H 89.69434739611752 26.503977662241994 128.58844797719001 H 0.0 **** 0.06
18275 H 90.88078521223846 27.422795357842517 127.63028235042229 H 0.0 **** 0.06
18276 C 128.35682929698675 120.03876047608746 100.36474203964575 C 0.0 **** -0.24
18277 H 128.4385741236286 121.10630445293872 100.16293250983006 H 0.0 **** 0.06
18278 H 127.33143157789499 119.71304489345597 100.19135997039086 H 0.0 **** 0.06
18279 H 128.6304529429703 119.84312261155405 101.40176828185555 H 0.0 **** 0.06
18280 H 129.02902888157246 119.4915503093683 99.70340758884302 H 0.0 **** 0.06
18281 C 69.81285948386055 61.89971186955813 9.486552214770711 C 0.0 **** -0.24
18282 H 69.0439739423515 61.57167231967179 8.787285063194261 H 0.0 **** 0.06
18283 H 70.64020359427195 61.19017518111855 9.475421490281178 H 0.0 **** 0.06
18284 H 69.39234310321123 61.951992652425304 10.491124362553009 H 0.0 **** 0.06
18285 H 70.17398522115514 62.885309876034796 9.192577283713497 H 0.0 **** 0.06
18286 C 131.45800096346287 22.64107211908717 93.34792030247526 C 0.0 **** -0.24
18287 H 131.19484002467215 23.14008307775819 94.28088755203204 H 0.0 **** 0.06
18288 H 130.60135385497813 22.070502360276095 92.988658032314 H 0.0 **** 0.06
18289 H 132.29705463719628 21.96781129776096 93.5198890131277 H 0.0 **** 0.06
18290 H 131.73672103934234 23.386945291029008 92.60311372488832 H 0.0 **** 0.06
18291 C 64.87901506686102 118.96129008842475 87.23596288755314 C 0.0 **** -0.24
18292 H 64.87193303388845 118.10022131352675 87.90369027641617 H 0.0 **** 0.06
18293 H 65.35051213118413 119.80620687914295 87.73932426109516 H 0.0 **** 0.06
18294 H 63.855480591547064 119.22222148301562 86.96827381067537 H 0.0 **** 0.06
18295 H 65.43993937071305 118.71647030898721 86.33388268454817 H 0.0 **** 0.06
18296 C 39.92644929341964 24.199550365319084 120.92632424148412 C 0.0 **** -0.24
18297 H 41.01588661207137 24.208998832693652 120.87826613386206 H 0.0 **** 0.06
18298 H 39.557005683446164 23.23437434560131 120.57848205270979 H 0.0 **** 0.06
18299 H 39.5280808993806 24.99247235406628 120.29267460916698 H 0.0 **** 0.06
18300 H 39.60680217886812 24.362164352728172 121.95565018497241 H 0.0 **** 0.06
18301 C 91.23521323862707 81.29215725393436 137.81043341702966 C 0.0 **** -0.24
18302 H 90.84959960334805 82.30885872523744 137.88677298784967 H 0.0 **** 0.06
18303 H 90.73766506758119 80.6588331171778 138.54491135360269 H 0.0 **** 0.06
18304 H 92.3085816363959 81.29498690841551 137.99995586258683 H 0.0 **** 0.06
18305 H 91.04412199100011 80.90550360405793 136.80908452863812 H 0.0 **** 0.06
18306 C 1.74924634281291 115.30799483531216 129.511747123291 C 0.0 **** -0.24
18307 H 1.754305786178179 115.9964743889907 128.6666579009821 H 0.0 **** 0.06
18308 H 2.74285239693279 115.27373128917243 129.9578418190789 H 0.0 **** 0.06
18309 H 1.4696156177454327 114.31240632334347 129.16731766293276 H 0.0 **** 0.06
18310 H 1.028896837738273 115.6513194691769 130.25449222261358 H 0.0 **** 0.06
18311 C 86.06903849837425 25.308714512243007 57.00017546150251 C 0.0 **** -0.24
18312 H 87.06220469333797 25.25552018909582 57.446114645346896 H 0.0 **** 0.06
18313 H 85.35106880073033 25.6407102394694 57.75067920256909 H 0.0 **** 0.06
18314 H 85.78181898336031 24.32221503801781 56.63448670190563 H 0.0 **** 0.06
18315 H 86.08031631037497 26.014798012650274 56.17033670835575 H 0.0 **** 0.06
18316 C 139.30002142737223 6.611733907416237 136.4230927105157 C 0.0 **** -0.24
18317 H 138.75268407946723 6.121687161433101 137.22872570537695 H 0.0 **** 0.06
18318 H 139.29229611334208 5.975197625974602 135.5382190638071 H 0.0 **** 0.06
18319 H 140.3291892295683 6.785752116244822 136.73726747756035 H 0.0 **** 0.06
18320 H 138.82547268831965 7.5651962264444705 136.19039420098352 H 0.0 **** 0.06
18321 C 134.59059479334982 120.67608290768695 13.901908826618808 C 0.0 **** -0.24
18322 H 134.44657201785634 119.79027043633712 14.520959881668546 H 0.0 **** 0.06
18323 H 133.68798895578996 121.28655202869854 13.92577579167363 H 0.0 **** 0.06
18324 H 134.79659187594143 120.37119749015588 12.875753585851214 H 0.0 **** 0.06
18325 H 135.43173221550964 121.2542719187771 14.284382078123315 H 0.0 **** 0.06
18326 C 139.18568280895283 72.83924704976181 31.911786697483024 C 0.0 **** -0.24
18327 H 139.3518443271048 73.03340449020075 30.852931342597003 H 0.0 **** 0.06
18328 H 138.66598356542215 73.6878207444455 32.35940813741496 H 0.0 **** 0.06
18329 H 140.14442971672457 72.69594080649713 32.41040095738339 H 0.0 **** 0.06
18330 H 138.57911826768793 71.94112286664955 32.02561934144393 H 0.0 **** 0.06
18331 C 109.37295541489178 24.67947982552333 102.27320410807107 C 0.0 **** -0.24
18332 H 110.40262621016737 24.347684443013954 102.40292429106347 H 0.0 **** 0.06
18333 H 109.24979255218275 25.09851077223989 101.27406323066961 H 0.0 **** 0.06
18334 H 109.1386960011084 25.440870494023578 103.01803382475669 H 0.0 **** 0.06
18335 H 108.69945726957181 23.831033454072937 102.39715778159052 H 0.0 **** 0.06
18336 C 74.31351602690074 31.30677776137685 104.88777403410545 C 0.0 **** -0.24
18337 H 74.83112485887955 32.22980846547688 105.15032484240807 H 0.0 **** 0.06
18338 H 74.82988708006846 30.824738942602323 104.05788489559994 H 0.0 **** 0.06
18339 H 73.28927720002449 31.53755844736162 104.59421552410821 H 0.0 **** 0.06
18340 H 74.30402794828765 30.63910301706045 105.74905092355716 H 0.0 **** 0.06
18341 C 113.25891935918696 103.57629243466556 64.53355819172101 C 0.0 **** -0.24
18342 H 112.63109295385505 104.19743451247354 65.17310884710142 H 0.0 **** 0.06
18343 H 114.10747826886984 104.1616362586364 64.18000925219762 H 0.0 **** 0.06
18344 H 112.67649441406138 103.22758464240906 63.6809483571225 H 0.0 **** 0.06
18345 H 113.6190728329463 102.71904954326862 65.10169774935684 H 0.0 **** 0.06
18346 C 13.97482790183119 127.63227181724054 28.309727108395492 C 0.0 **** -0.24
18347 H 13.399537506366187 127.85682555707311 29.208442913333187 H 0.0 **** 0.06
18348 H 13.375345106385737 127.86316640977063 27.42852929347427 H 0.0 **** 0.06
18349 H 14.238553698489824 126.5749271963513 28.303440535290747 H 0.0 **** 0.06
18350 H 14.882676800531186 128.2341958179295 28.300437178194613 H 0.0 **** 0.06
18351 C 115.5737412840431 71.84199769203212 6.915020305818786 C 0.0 **** -0.24
18352 H 114.62139815513616 72.3070448253705 7.169062034443613 H 0.0 **** 0.06
18353 H 116.25814533129493 71.93121164773589 7.758756911432243 H 0.0 **** 0.06
18354 H 116.00101877649264 72.34091715271751 6.045396371956571 H 0.0 **** 0.06
18355 H 115.41231489496361 70.78808883032991 6.687197705611169 H 0.0 **** 0.06
18356 C 50.012911367993865 116.79676894982968 64.5656058163383 C 0.0 **** -0.24
18357 H 49.768344215600706 116.475640678897 65.57888617377697 H 0.0 **** 0.06
18358 H 49.39278937451917 116.25295536977599 63.852971977601655 H 0.0 **** 0.06
18359 H 51.06473252176454 116.59113358844921 64.36372989250596 H 0.0 **** 0.06
18360 H 49.82605829669603 117.86597837177548 64.46858208343806 H 0.0 **** 0.06
18361 C 87.23405855715123 109.8117941651269 54.2168822090904 C 0.0 **** -0.24
18362 H 87.71809976889992 108.99742964100075 53.67755853992006 H 0.0 **** 0.06
18363 H 87.89382575423147 110.1662916569178 55.009276230398655 H 0.0 **** 0.06
18364 H 86.30134039703177 109.4538119281625 54.65424942682549 H 0.0 **** 0.06
18365 H 87.02234799653277 110.62812682213534 53.52700607496395 H 0.0 **** 0.06
18366 C 136.41082495972404 150.38359619435235 87.13709662492661 C 0.0 **** -0.24
18367 H 135.40663742828235 150.62890920079457 86.78957186362376 H 0.0 **** 0.06
18368 H 136.43080094486305 150.3998989657734 88.22697032289327 H 0.0 **** 0.06
18369 H 137.1184927584161 151.1167501932724 86.74922936936613 H 0.0 **** 0.06
18370 H 136.68491439075945 149.39022801071857 86.78272521437938 H 0.0 **** 0.06
18371 C 101.95489061907062 149.47770833400222 144.16477275023334 C 0.0 **** -0.24
18372 H 101.2168298690082 149.94908179012376 143.51558334205328 H 0.0 **** 0.06
18373 H 102.03542418094054 148.41982071725187 143.91485752815993 H 0.0 **** 0.06
18374 H 101.64548379776079 149.5837412466916 145.20400510295536 H 0.0 **** 0.06
18375 H 102.92299364249925 149.95927137015792 144.02307552985224 H 0.0 **** 0.06
18376 C 81.86016624450463 48.324077990643474 93.55625766842189 C 0.0 **** -0.24
18377 H 82.39354285368091 49.25553742077301 93.36811627315697 H 0.0 **** 0.06
18378 H 82.09323868313174 47.96806705390185 94.5595038572798 H 0.0 **** 0.06
18379 H 82.16578121459304 47.57630030028079 92.82398277125483 H 0.0 **** 0.06
18380 H 80.78699390937174 48.49717050966794 93.47233732156494 H 0.0 **** 0.06
18381 C 112.60493336559274 35.838659838556566 124.26691781040984 C 0.0 **** -0.24
18382 H 112.47369916975124 35.621705212899826 123.2062398174026 H 0.0 **** 0.06
18383 H 113.34263147696736 35.155531149800254 124.68740937890237 H 0.0 **** 0.06
18384 H 111.65370499340595 35.7104890538925 124.7832794181154 H 0.0 **** 0.06
18385 H 112.94899226175984 36.86567697679021 124.38774721157529 H 0.0 **** 0.06
18386 C 76.716532849684 46.53746649563914 126.25137848608784 C 0.0 **** -0.24
18387 H 77.62818575697759 46.41454166309228 126.83639725438087 H 0.0 **** 0.06
18388 H 75.90797455957986 45.97336246757453 126.71569798957626 H 0.0 **** 0.06
18389 H 76.8829843920148 46.16934608736858 125.23854149638179 H 0.0 **** 0.06
18390 H 76.45021345042835 47.593449057387886 126.21393164576494 H 0.0 **** 0.06
18391 C 122.27380017372468 97.89897028463801 70.70230107546155 C 0.0 **** -0.24
18392 H 123.07006993161167 98.62442814486158 70.53255159025542 H 0.0 **** 0.06
18393 H 122.66111734127122 97.06740112718762 71.29185231838102 H 0.0 **** 0.06
18394 H 121.90922241294481 97.52842870419423 69.7451963737505 H 0.0 **** 0.06
18395 H 121.45665671351111 98.37753532403897 71.24222380892917 H 0.0 **** 0.06
18396 C 13.32579903593151 29.863507031154242 90.66304487090915 C 0.0 **** -0.24
18397 H 13.098218254184758 28.85809368457671 91.01782295527971 H 0.0 **** 0.06
18398 H 14.371264124567261 29.9121617800158 90.35629090218592 H 0.0 **** 0.06
18399 H 13.147768853414107 30.58047305488259 91.46394400604443 H 0.0 **** 0.06
18400 H 12.686256639455138 30.101690060999097 89.81356277920715 H 0.0 **** 0.06
18401 C 127.80444363419119 48.520507594415605 62.7747431485151 C 0.0 **** -0.24
18402 H 127.811936317857 47.43774879286259 62.904078988103294 H 0.0 **** 0.06
18403 H 127.54433792681345 48.761235172038965 61.744079901086664 H 0.0 **** 0.06
18404 H 128.79140705798682 48.92069882399319 63.00384490231123 H 0.0 **** 0.06
18405 H 127.06824247835576 48.960852854373655 63.44755249069789 H 0.0 **** 0.06
18406 C 59.76523467780544 59.99107522426897 10.781909776578743 C 0.0 **** -0.24
18407 H 59.249745163264265 60.8905954762094 10.446842134029168 H 0.0 **** 0.06
18408 H 59.36648801444994 59.125780101232806 10.252284496643256 H 0.0 **** 0.06
18409 H 59.613106861175424 59.86380838102157 11.853811716792052 H 0.0 **** 0.06
18410 H 60.83092776098658 60.08516047883202 10.575379710231061 H 0.0 **** 0.06
18411 C 29.225686381333844 77.31932858602656 106.8135548131171 C 0.0 **** -0.24
18412 H 28.73880733242646 78.29420286282424 106.81734899557159 H 0.0 **** 0.06
18413 H 29.58781052741938 77.09823395025063 105.80903065485847 H 0.0 **** 0.06
18414 H 28.511810268451427 76.55546500261288 107.11906053197345 H 0.0 **** 0.06
18415 H 30.065625778636615 77.33121661739129 107.5085958118492 H 0.0 **** 0.06
18416 C 64.87790466133285 60.00465514076927 13.033889054853397 C 0.0 **** -0.24
18417 H 65.77016539129076 60.05668016900164 13.657147139469728 H 0.0 **** 0.06
18418 H 64.36134636486477 60.96381838658081 13.058624729999927 H 0.0 **** 0.06
18419 H 64.21656234443165 59.224724131250255 13.412037788100193 H 0.0 **** 0.06
18420 H 65.1643732963272 59.771189363218454 12.008406759261824 H 0.0 **** 0.06
18421 C 32.28172992896282 40.34848245656288 18.518456336530306 C 0.0 **** -0.24
18422 H 31.807779169287187 40.4499411246193 19.49427202841389 H 0.0 **** 0.06
18423 H 31.532317791978357 40.46890776953856 17.736170150877854 H 0.0 **** 0.06
18424 H 32.73727062242739 39.36089453472623 18.436931445575254 H 0.0 **** 0.06
18425 H 33.050200779648435 41.11314990194883 18.405741082891893 H 0.0 **** 0.06
18426 C 66.62750483142557 103.07081599511342 88.20614519181514 C 0.0 **** -0.24
18427 H 67.27477170808818 102.1944575641233 88.22400420370472 H 0.0 **** 0.06
18428 H 65.67662074226587 102.83095007523191 88.68303229694334 H 0.0 **** 0.06
18429 H 66.44993754096572 103.36967930518348 87.17234438047971 H 0.0 **** 0.06
18430 H 67.1077384369639 103.88814439984203 88.74317629724415 H 0.0 **** 0.06
18431 C 83.82781970136654 9.058639880872228 119.29804311421634 C 0.0 **** -0.24
18432 H 83.8331828190257 9.713010633518202 120.17134932677664 H 0.0 **** 0.06
18433 H 84.42161406226256 8.168800336532492 119.5080105885192 H 0.0 **** 0.06
18434 H 84.25375400200602 9.58802978362489 118.44562608429277 H 0.0 **** 0.06
18435 H 82.80307453237805 8.766895548230295 119.06985889741526 H 0.0 **** 0.06
18436 C 0.3780119621773679 148.80274206834247 16.800939853217855 C 0.0 **** -0.24
18437 H 0.700477356797137 149.83634068139648 16.67221344359691 H 0.0 **** 0.06
18438 H 0.9620547016206729 148.3373723439272 17.595745885512876 H 0.0 **** 0.06
18439 H 0.5290714241734804 148.25676407228715 15.87057783161655 H 0.0 **** 0.06
18440 H -0.6791581570684002 148.7825992225152 17.06731950760463 H 0.0 **** 0.06
18441 C 11.695063820585005 5.9564077512078555 71.9069582256092 C 0.0 **** -0.24
18442 H 11.032224594693133 6.812345343190302 71.77790202608931 H 0.0 **** 0.06
18443 H 12.538457420488584 6.243816629136443 72.53667716497813 H 0.0 **** 0.06
18444 H 12.06127824778747 5.630064772131206 70.93437420376536 H 0.0 **** 0.06
18445 H 11.148104325038588 5.142070950472853 72.38149731431878 H 0.0 **** 0.06
18446 C 121.33595986787604 116.0016044061831 93.14234274026467 C 0.0 **** -0.24
18447 H 121.15770687246344 115.58845472822696 94.13450888132525 H 0.0 **** 0.06
18448 H 122.21758069827565 116.64231526480881 93.16810710919839 H 0.0 **** 0.06
18449 H 120.4701314621047 116.58649049193974 92.830942764734 H 0.0 **** 0.06
18450 H 121.49846481743315 115.1883108528562 92.43430159704712 H 0.0 **** 0.06
18451 C 109.24554778104213 88.73902863105562 109.94880948001149 C 0.0 **** -0.24
18452 H 109.0275448195322 87.92373341466997 110.6383781054643 H 0.0 **** 0.06
18453 H 110.31750679437799 88.9391696863583 109.95103524215504 H 0.0 **** 0.06
18454 H 108.70790834662968 89.63365389347952 110.26316432209153 H 0.0 **** 0.06
18455 H 108.92890595479217 88.45946529826752 108.94403349677113 H 0.0 **** 0.06
18456 C 109.52718372640663 6.245379525378112 126.83768959160716 C 0.0 **** -0.24
18457 H 109.15386996904812 6.329033063848183 127.85773045437594 H 0.0 **** 0.06
18458 H 110.57848964401421 6.533680673631249 126.81100936012953 H 0.0 **** 0.06
18459 H 108.95322791202881 6.9040611753752685 126.18600969620567 H 0.0 **** 0.06
18460 H 109.42374567669782 5.215907893597095 126.49547446138115 H 0.0 **** 0.06
18461 C 135.6075831775777 98.13342163747295 8.11910325007932 C 0.0 **** -0.24
18462 H 135.780540944856 98.70521049020883 9.030155694967192 H 0.0 **** 0.06
18463 H 136.45094394416094 97.46408114355096 7.944829153459864 H 0.0 **** 0.06
18464 H 135.5060821202886 98.81674109681936 7.275823021103491 H 0.0 **** 0.06
18465 H 134.6938081686633 97.54847573714207 8.22511749827558 H 0.0 **** 0.06
18466 C 133.62922936509145 108.45822315032258 118.28650289185595 C 0.0 **** -0.24
18467 H 133.95540167370936 109.45388954808847 118.58900838787906 H 0.0 **** 0.06
18468 H 134.5001851401599 107.8494065403889 118.04222664259947 H 0.0 **** 0.06
18469 H 132.9843771780198 108.53910719411137 117.41051204042708 H 0.0 **** 0.06
18470 H 133.07634220718464 107.99368935001011 119.10242420532774 H 0.0 **** 0.06
18471 C 56.37800763381502 16.955949189447097 68.28335210273393 C 0.0 **** -0.24
18472 H 56.46653727468508 16.616001766282153 67.25095306270872 H 0.0 **** 0.06
18473 H 57.28489357115028 16.694673622100566 68.82956405162201 H 0.0 **** 0.06
18474 H 55.51972278527043 16.474658458411852 68.75113281892125 H 0.0 **** 0.06
18475 H 56.24221543310014 18.036843518123277 68.2993949479085 H 0.0 **** 0.06
18476 C 15.142135649110912 45.12764953387082 48.328099216255836 C 0.0 **** -0.24
18477 H 15.398364778246133 45.75618646582598 49.18110885913519 H 0.0 **** 0.06
18478 H 14.670579370230797 45.73549903130419 47.55630965545497 H 0.0 **** 0.06
18479 H 14.453130068962452 44.346258318267985 48.64773578986933 H 0.0 **** 0.06
18480 H 16.04815170595623 44.671649091876844 47.928710942743734 H 0.0 **** 0.06
18481 C 46.822939347110776 31.41771413866813 24.482726770087595 C 0.0 **** -0.24
18482 H 46.9871071192251 30.655488221457716 23.721200625687345 H 0.0 **** 0.06
18483 H 45.76931934403129 31.43341051008275 24.76067636799725 H 0.0 **** 0.06
18484 H 47.10999412361801 32.39290038643202 24.088857710010288 H 0.0 **** 0.06
18485 H 47.426805840592664 31.188412136693415 25.361729841020875 H 0.0 **** 0.06
18486 C 69.67021480645663 44.118139873182784 45.68945804685717 C 0.0 **** -0.24
18487 H 69.4094094845711 45.15884978445939 45.88314069165534 H 0.0 **** 0.06
18488 H 68.8827867789209 43.650561692018485 45.09841048004125 H 0.0 **** 0.06
18489 H 69.77898510749102 43.58856460705222 46.63547258727027 H 0.0 **** 0.06
18490 H 70.61123266403223 44.07723032777221 45.1400489836185 H 0.0 **** 0.06
18491 C 80.57034594516877 37.504967338109 73.95701112741676 C 0.0 **** -0.24
18492 H 79.93316330629223 38.085779676542984 74.62433774660938 H 0.0 **** 0.06
18493 H 80.41713958645296 37.83494412345567 72.92911636307548 H 0.0 **** 0.06
18494 H 80.3181543089767 36.448301914155195 74.04145053628548 H 0.0 **** 0.06
18495 H 81.61451517892066 37.65270132125096 74.23297991453404 H 0.0 **** 0.06
18496 C 77.22792683453574 43.91150900057832 73.43519493810709 C 0.0 **** -0.24
18497 H 76.8841824650764 43.81044553399617 72.40586726429079 H 0.0 **** 0.06
18498 H 76.37918791114996 43.81728909659449 74.11272157206403 H 0.0 **** 0.06
18499 H 77.69362992381284 44.88789374879991 73.56817964417507 H 0.0 **** 0.06
18500 H 77.95521810122327 43.128347493074344 73.65278861123447 H 0.0 **** 0.06
18501 C 69.32795357926622 0.17135595336011988 90.60366943410868 C 0.0 **** -0.24
18502 H 69.50100101788797 -0.7942998986885925 90.13072464844655 H 0.0 **** 0.06
18503 H 69.80522824903318 0.9545879114347997 90.01361763909703 H 0.0 **** 0.06
18504 H 69.75034255269944 0.16475042086719327 91.60877511381939 H 0.0 **** 0.06
18505 H 68.25624950613124 0.3617821671565764 90.66137317614916 H 0.0 **** 0.06
18506 C 70.17457036600345 121.78430284209811 78.77386583571717 C 0.0 **** -0.24
18507 H 70.78517064454513 121.61792557978494 79.66183341563826 H 0.0 **** 0.06
18508 H 69.16935783526267 121.39799224664075 78.94672829336997 H 0.0 **** 0.06
18509 H 70.62130122136568 121.2665542475904 77.92462532414578 H 0.0 **** 0.06
18510 H 70.12314534213724 122.85205366822457 78.5628300720623 H 0.0 **** 0.06
18511 C 113.06239357291946 55.08316876403828 145.99845138271468 C 0.0 **** -0.24
18512 H 113.7039337683114 54.31758582735935 146.43224666476164 H 0.0 **** 0.06
18513 H 113.67592363563978 55.90551863924307 145.6291858106256 H 0.0 **** 0.06
18514 H 112.37565773999069 55.45558004755412 146.75818040858866 H 0.0 **** 0.06
18515 H 112.49398538132823 54.655754488298186 145.17282033679942 H 0.0 **** 0.06
18516 C 121.34298804923569 52.41647971970998 128.15892560807748 C 0.0 **** -0.24
18517 H 121.88529935875621 51.48459747393076 128.31450310102966 H 0.0 **** 0.06
18518 H 121.99082108779461 53.25930901276547 128.40159544793036 H 0.0 **** 0.06
18519 H 120.46424526482494 52.43608528255952 128.80392114479025 H 0.0 **** 0.06
18520 H 121.03003046980226 52.485923914021825 127.11728866126396 H 0.0 **** 0.06
18521 C 144.18793317425786 12.73721986631486 102.6484027886604 C 0.0 **** -0.24
18522 H 144.61883698550037 13.633598784921816 102.20172141989309 H 0.0 **** 0.06
18523 H 144.77079252371027 12.451046109532115 103.52337479405111 H 0.0 **** 0.06
18524 H 144.2019156028911 11.926872509036997 101.91982807014978 H 0.0 **** 0.06
18525 H 143.15946135909545 12.940523069039187 102.94711171821211 H 0.0 **** 0.06
18526 C 65.58561060948156 91.2427017517825 13.126375515302406 C 0.0 **** -0.24
18527 H 66.43565920743072 91.91270132974742 13.249084003753367 H 0.0 **** 0.06
18528 H 65.66517730167584 90.42159956892186 13.837785929286106 H 0.0 **** 0.06
18529 H 65.57919611433883 90.84606290489319 12.111107588013404 H 0.0 **** 0.06
18530 H 64.66149862214519 91.7926660369964 13.307046042843993 H 0.0 **** 0.06
18531 C 13.862555463636141 121.88519703655534 59.52992491228028 C 0.0 **** -0.24
18532 H 13.436798824373483 121.55875502649967 58.58096106074865 H 0.0 **** 0.06
18533 H 14.896273810523581 122.19439731556669 59.376578782589775 H 0.0 **** 0.06
18534 H 13.830190438685264 121.06362197147602 60.24484334547371 H 0.0 **** 0.06
18535 H 13.285561214119838 122.72564245333523 59.916135519462586 H 0.0 **** 0.06
18536 C 34.65468325332406 66.3337054530639 0.6977334457285451 C 0.0 **** -0.24
18537 H 35.44558599618391 65.60044140319593 0.8604424677475322 H 0.0 **** 0.06
18538 H 33.739812924846234 65.82045210627136 0.4002560561569055 H 0.0 **** 0.06
18539 H 34.95779387124841 67.023974211747 -0.09041091262636769 H 0.0 **** 0.06
18540 H 34.478901467231424 66.88816914597795 1.6190597866824987 H 0.0 **** 0.06
18541 C 88.74455699476565 71.06301562327513 121.01738106677735 C 0.0 **** -0.24
18542 H 88.94310471557682 71.97836163894823 120.46031739049297 H 0.0 **** 0.06
18543 H 88.1257109260564 71.29245385240017 121.88548541923873 H 0.0 **** 0.06
18544 H 89.68833828203347 70.62771598951258 121.34928267455157 H 0.0 **** 0.06
18545 H 88.2230821949947 70.3535301774927 120.37542242791315 H 0.0 **** 0.06
18546 C 141.73586398136302 24.64448677788829 58.65872440625037 C 0.0 **** -0.24
18547 H 142.4600868248262 25.452203899649277 58.768946195192996 H 0.0 **** 0.06
18548 H 140.96197120579325 24.74611473258392 59.42047716521466 H 0.0 **** 0.06
18549 H 142.2396221275489 23.685818985625303 58.778253655217384 H 0.0 **** 0.06
18550 H 141.28212690369787 24.69644240308463 57.668936668049696 H 0.0 **** 0.06
18551 C 87.01429776708727 14.579624203329736 30.815396933939496 C 0.0 **** -0.24
18552 H 86.89452856400428 14.086721304256386 29.851494712933686 H 0.0 **** 0.06
18553 H 87.046969034379 15.659709825999244 30.669969476857084 H 0.0 **** 0.06
18554 H 87.94347051459187 14.24875885959095 31.279860743147317 H 0.0 **** 0.06
18555 H 86.17476433873395 14.324141510711968 31.461621109573336 H 0.0 **** 0.06
18556 C 96.58213108610548 146.0468239462665 60.916137592467564 C 0.0 **** -0.24
18557 H 97.6538453817193 145.93564012638603 61.082919288546265 H 0.0 **** 0.06
18558 H 96.2179060366366 146.91305330360413 61.467735514124456 H 0.0 **** 0.06
18559 H 96.06605685859607 145.15111815914878 61.26087951784342 H 0.0 **** 0.06
18560 H 96.39411059548637 146.18783383693014 59.851481304059476 H 0.0 **** 0.06
18561 C 149.03955994061442 84.36433675662224 56.555795567707605 C 0.0 **** -0.24
18562 H 149.8836480537919 85.00161281767956 56.28843993295982 H 0.0 **** 0.06
18563 H 148.6904314607761 84.62471987304517 57.55518059563434 H 0.0 **** 0.06
18564 H 149.35331800105268 83.32075812611822 56.539425077969995 H 0.0 **** 0.06
18565 H 148.2322471544427 84.51278852362611 55.83776724810761 H 0.0 **** 0.06
18566 C 50.25383780771671 64.34582733850664 64.27859635269951 C 0.0 **** -0.24
18567 H 50.411611107479416 64.88952802021066 63.34725826658877 H 0.0 **** 0.06
18568 H 50.49139364634033 64.99437924187575 65.12155075144861 H 0.0 **** 0.06
18569 H 50.901050010466435 63.468654818325035 64.30109622957227 H 0.0 **** 0.06
18570 H 49.21241469310631 64.0297200200248 64.34364683894157 H 0.0 **** 0.06
18571 C 111.21999440403744 78.3312569003178 94.08548925161463 C 0.0 **** -0.24
18572 H 111.8027947506377 77.53732233480207 93.62013445329899 H 0.0 **** 0.06
18573 H 110.21629183253555 77.96366678711621 94.30405096176756 H 0.0 **** 0.06
18574 H 111.15593667998598 79.18174410319222 93.40603016836465 H 0.0 **** 0.06
18575 H 111.70272872964159 78.64130010720504 95.01198277247701 H 0.0 **** 0.06
18576 C 20.545498044034645 147.92954270860935 133.80489946687752 C 0.0 **** -0.24
18577 H 20.36063462890675 147.0627237741179 133.1707615317235 H 0.0 **** 0.06
18578 H 21.43885260248095 148.44965596998318 133.45754898965086 H 0.0 **** 0.06
18579 H 20.69130443875042 147.60231991070845 134.83380674091487 H 0.0 **** 0.06
18580 H 19.690482011152966 148.60422690736894 133.7557739162809 H 0.0 **** 0.06
18581 C 137.8370348111377 80.09772916393821 119.23485054780159 C 0.0 **** -0.24
18582 H 138.11807685477362 80.64218490112364 120.13631202879091 H 0.0 **** 0.06
18583 H 137.3148244871545 79.18173339787376 119.51135121959678 H 0.0 **** 0.06
18584 H 138.73426915020977 79.84769820766796 118.66760140516485 H 0.0 **** 0.06
18585 H 137.18303404717287 80.72009394312619 118.62381406960131 H 0.0 **** 0.06
18586 C 21.51348009180549 95.0459954618398 14.096160061439221 C 0.0 **** -0.24
18587 H 22.46199218020928 95.29371908153678 14.572257000877286 H 0.0 **** 0.06
18588 H 21.70035319303662 94.6376408365671 13.10287740557228 H 0.0 **** 0.06
18589 H 20.904060767629687 95.94618411141502 14.01022401950209 H 0.0 **** 0.06
18590 H 20.98648745002106 94.30740429846159 14.6991735664539 H 0.0 **** 0.06
18591 C 74.54883243562927 101.33828087309922 124.7981583882899 C 0.0 **** -0.24
18592 H 75.42428702187834 101.42532661547773 125.44234533457069 H 0.0 **** 0.06
18593 H 73.79658719152701 102.06355175549083 125.10703812882103 H 0.0 **** 0.06
18594 H 74.13889376198193 100.33123384007816 124.87820874175095 H 0.0 **** 0.06
18595 H 74.83834873458841 101.53200865394713 123.7645639801499 H 0.0 **** 0.06
18596 C 43.641298092680145 138.08457977075955 102.68554389919152 C 0.0 **** -0.24
18597 H 44.52810311055798 137.99224717786026 103.3122440041632 H 0.0 **** 0.06
18598 H 43.845028603111444 137.65942776250452 101.70323177997196 H 0.0 **** 0.06
18599 H 43.379582258444316 139.13731405318362 102.5800885639147 H 0.0 **** 0.06
18600 H 42.81272351780083 137.5499193090876 103.14954264194338 H 0.0 **** 0.06
18601 C 118.04419181088699 128.34798126753952 140.43490592882048 C 0.0 **** -0.24
18602 H 117.97867871017328 129.33362210786302 140.8954573845177 H 0.0 **** 0.06
18603 H 118.99208654973276 128.25815275219375 139.90417634522922 H 0.0 **** 0.06
18604 H 117.22084251886034 128.21963725105275 139.733413105879 H 0.0 **** 0.06
18605 H 117.98658968477875 127.58212129295933 141.2086668706123 H 0.0 **** 0.06
18606 C 41.44121368119073 33.30739400829613 31.50872290367039 C 0.0 **** -0.24
18607 H 40.89639578041971 32.84094362364624 30.688316325086312 H 0.0 **** 0.06
18608 H 41.132787727044104 34.35005540213021 31.602527172586647 H 0.0 **** 0.06
18609 H 42.51096568152991 33.26161007215114 31.30667354609153 H 0.0 **** 0.06
18610 H 41.22323905792666 32.77936561693326 32.436327623755695 H 0.0 **** 0.06
18611 C 25.31767729009306 95.64578697792692 44.60605137963664 C 0.0 **** -0.24
18612 H 24.877255215355774 94.66619489219372 44.7940094987828 H 0.0 **** 0.06
18613 H 24.524714776931376 96.36633178411498 44.40373690146282 H 0.0 **** 0.06
18614 H 25.983713495482334 95.58577600687815 43.74607935048144 H 0.0 **** 0.06
18615 H 25.883422218099668 95.96344860793889 45.48249606506043 H 0.0 **** 0.06
18616 C 108.2398083193893 137.95768040678195 40.58942660322167 C 0.0 **** -0.24
18617 H 109.18209075625317 137.5583344865394 40.21409323912923 H 0.0 **** 0.06
18618 H 107.4555122537689 137.7890458910107 39.850977828338586 H 0.0 **** 0.06
18619 H 108.34494302458977 139.02662895189687 40.7719865829269 H 0.0 **** 0.06
18620 H 107.97762174758681 137.45388635745263 41.52027313993051 H 0.0 **** 0.06
18621 C 7.0661888765960725 91.55872013499726 115.52732695318615 C 0.0 **** -0.24
18622 H 6.588475687710343 90.64076987947067 115.8713254424011 H 0.0 **** 0.06
18623 H 6.603884284909213 92.41488549210214 116.01872071944494 H 0.0 **** 0.06
18624 H 6.945410307205179 91.64903353295108 114.44821227940183 H 0.0 **** 0.06
18625 H 8.12846850086845 91.52901367694699 115.77337587970821 H 0.0 **** 0.06
18626 C 111.44435698558668 30.99635384081563 69.32610338372739 C 0.0 **** -0.24
18627 H 110.83625324619233 31.787866317120887 68.88794892294874 H 0.0 **** 0.06
18628 H 111.3452170874423 31.021258759920755 70.41065096575693 H 0.0 **** 0.06
18629 H 112.48903975757263 31.14767941878074 69.05223662489706 H 0.0 **** 0.06
18630 H 111.10692689161927 30.03052120103476 68.95126382584715 H 0.0 **** 0.06
18631 C 119.18645145416336 34.49894416544484 36.045284918495156 C 0.0 **** -0.24
18632 H 119.27847739454485 35.06474836765156 36.97296016035364 H 0.0 **** 0.06
18633 H 118.67721940458249 33.555422046349776 36.24489018246027 H 0.0 **** 0.06
18634 H 120.17805551321005 34.29950899035654 35.6415406800873 H 0.0 **** 0.06
18635 H 118.60976411768398 35.07768185290544 35.32403955522625 H 0.0 **** 0.06
18636 C 95.03929255193074 94.54884475432823 19.687018621042824 C 0.0 **** -0.24
18637 H 94.84613367045446 95.59797970079643 19.463801274097023 H 0.0 **** 0.06
18638 H 95.85731564894579 94.47440695254167 20.40377640622944 H 0.0 **** 0.06
18639 H 95.31061580926976 94.02677344265499 18.768867348889444 H 0.0 **** 0.06
18640 H 94.14210480665409 94.09627091682782 20.10963022145279 H 0.0 **** 0.06
18641 C 108.8120470335517 144.23848074231572 113.4415800004064 C 0.0 **** -0.24
18642 H 109.44922653887069 144.11667504779012 114.31720498542133 H 0.0 **** 0.06
18643 H 107.77064363578283 144.08384684361653 113.72642356771762 H 0.0 **** 0.06
18644 H 109.09310530270464 143.5088427896079 112.68229929962156 H 0.0 **** 0.06
18645 H 108.93313693816562 145.24516647527628 113.04154180972479 H 0.0 **** 0.06
18646 C 17.28044207775531 124.33841611921275 9.500615222640533 C 0.0 **** -0.24
18647 H 18.153818943713077 124.9729362395712 9.654431950273526 H 0.0 **** 0.06
18648 H 17.065578122785325 124.26971270948764 8.43397853460327 H 0.0 **** 0.06
18649 H 16.4230041383521 124.76927263042273 10.017378536377663 H 0.0 **** 0.06
18650 H 17.480781672572903 123.34340136830627 9.896173212062529 H 0.0 **** 0.06
18651 C 144.15842833935133 61.850877955876186 75.05504695387742 C 0.0 **** -0.24
18652 H 144.4069473405356 60.992314353601444 74.43128872695684 H 0.0 **** 0.06
18653 H 143.1592280770595 61.7200624007301 75.47186184325255 H 0.0 **** 0.06
18654 H 144.18537724617832 62.758070567622454 74.45218397514896 H 0.0 **** 0.06
18655 H 144.88271733525127 61.9323051847105 75.86590857164651 H 0.0 **** 0.06
18656 C 1.5233500840367924 23.026642367973466 126.17798693562597 C 0.0 **** -0.24
18657 H 2.22698551942041 23.85033837489263 126.05940983426055 H 0.0 **** 0.06
18658 H 1.908932580126141 22.322386774221712 126.91515698375852 H 0.0 **** 0.06
18659 H 1.3941984048685292 22.518879351076805 125.2222578738579 H 0.0 **** 0.06
18660 H 0.5621369804878391 23.41688441344735 126.51514871415552 H 0.0 **** 0.06
18661 C 56.55961565121136 48.01975439182581 1.1773666603876727 C 0.0 **** -0.24
18662 H 57.38546957602455 48.57081650789843 1.6286242010388179 H 0.0 **** 0.06
18663 H 56.7978358596295 46.955216064838424 1.1651257061548108 H 0.0 **** 0.06
18664 H 56.40376776078024 48.369410822801285 0.1576533500059476 H 0.0 **** 0.06
18665 H 55.653358133354374 48.18347150053515 1.760536023977739 H 0.0 **** 0.06
18666 C 117.29927890356507 20.65692939301678 79.50975509832271 C 0.0 **** -0.24
18667 H 116.99677510031566 20.577134314354588 78.46509356554517 H 0.0 **** 0.06
18668 H 117.01876661951687 19.746107816494003 80.03910414407832 H 0.0 **** 0.06
18669 H 116.80005284875548 21.511502332864765 79.96665763379748 H 0.0 **** 0.06
18670 H 118.37907149056284 20.793303793712788 79.56535598608127 H 0.0 **** 0.06
18671 C 87.87244601255989 147.47966159212174 119.89184410301483 C 0.0 **** -0.24
18672 H 87.04226218153143 147.03190313417517 119.34530438390657 H 0.0 **** 0.06
18673 H 87.50248791436238 147.91380450371966 120.82106390857992 H 0.0 **** 0.06
18674 H 88.32913237340595 148.25947322222018 119.28199011152633 H 0.0 **** 0.06
18675 H 88.61398122572925 146.7140257015955 120.1176042757446 H 0.0 **** 0.06
18676 C 12.592833166640332 90.4644197630854 148.2688835764046 C 0.0 **** -0.24
18677 H 13.444529462247687 90.33191045291463 147.60169605718613 H 0.0 **** 0.06
18678 H 12.849754698343048 91.18135302834119 149.04844145695998 H 0.0 **** 0.06
18679 H 12.337393993737834 89.50740910071741 148.7244611499376 H 0.0 **** 0.06
18680 H 11.740282841674713 90.83458649748289 147.69927755144332 H 0.0 **** 0.06
18681 C 13.765247570249784 48.46922742231172 71.42210860618846 C 0.0 **** -0.24
18682 H 14.219763486623123 47.54358200746714 71.06792594318192 H 0.0 **** 0.06
18683 H 14.451339021011051 48.973459298817005 72.1027349530412 H 0.0 **** 0.06
18684 H 12.83662256641307 48.240098008526644 71.94415053071424 H 0.0 **** 0.06
18685 H 13.553981534816756 49.117770683018506 70.57175527154385 H 0.0 **** 0.06
18686 C 57.486756630777734 45.97030575108579 20.11443542344898 C 0.0 **** -0.24
18687 H 58.137571586933035 45.957255295201406 19.24033986225635 H 0.0 **** 0.06
18688 H 57.39908854255464 44.96014955668343 20.516236749635198 H 0.0 **** 0.06
18689 H 56.500233374987886 46.334272993474855 19.82815377950618 H 0.0 **** 0.06
18690 H 57.911206896302104 46.62745488239685 20.87370249712626 H 0.0 **** 0.06
18691 C 97.15198445854458 8.185152787517453 112.17084341184973 C 0.0 **** -0.24
18692 H 96.23456712962141 8.746005858617593 111.99284691392818 H 0.0 **** 0.06
18693 H 96.93420304956763 7.117216247431031 112.15007572182743 H 0.0 **** 0.06
18694 H 97.55837626758668 8.454288933364062 113.14551099445443 H 0.0 **** 0.06
18695 H 97.87981559958422 8.424109539337024 111.39511020847853 H 0.0 **** 0.06
18696 C 57.13357746625152 65.66642504163053 38.59447257724765 C 0.0 **** -0.24
18697 H 56.70588504596083 64.7963841410455 39.0926929191688 H 0.0 **** 0.06
18698 H 57.69928831457145 65.341668739127 37.720478807353324 H 0.0 **** 0.06
18699 H 57.79653283046724 66.19025287290648 39.28249368286335 H 0.0 **** 0.06
18700 H 56.33183245807541 66.3355452037165 38.28123200868636 H 0.0 **** 0.06
18701 C 101.03979383541856 122.67696943921122 25.043186244831503 C 0.0 **** -0.24
18702 H 100.07181998085484 122.17648084929924 25.018482584297644 H 0.0 **** 0.06
18703 H 101.8178327637634 121.97699768082735 24.736227779675765 H 0.0 **** 0.06
18704 H 101.2430557992391 123.02511744372778 26.055591797067663 H 0.0 **** 0.06
18705 H 101.0268048662326 123.52713960495792 24.36130395805324 H 0.0 **** 0.06
18706 C 75.296544213603 91.35077865540198 17.93230005651509 C 0.0 **** -0.24
18707 H 75.76523312078865 91.76047520434405 18.826860796323103 H 0.0 **** 0.06
18708 H 75.97175066607502 90.63479485992977 17.463795059391515 H 0.0 **** 0.06
18709 H 75.08111514960001 92.15922927088788 17.233688288177547 H 0.0 **** 0.06
18710 H 74.36797960146231 90.84960077671204 18.206593692368187 H 0.0 **** 0.06
18711 C 123.0286357785133 22.085455203825376 10.082694004225033 C 0.0 **** -0.24
18712 H 123.44974385264958 22.94055316471247 9.552248892513205 H 0.0 **** 0.06
18713 H 123.629991614496 21.199124082283774 9.877489643186067 H 0.0 **** 0.06
18714 H 122.0060679960307 21.917692712723422 9.74664146381025 H 0.0 **** 0.06
18715 H 123.03139774867837 22.286613424438997 11.153887833149241 H 0.0 **** 0.06
18716 C 47.70176884207075 23.455671177769574 144.79568717457994 C 0.0 **** -0.24
18717 H 48.5635617722275 23.245253180017954 145.4302348487154 H 0.0 **** 0.06
18718 H 46.99217886738501 24.078281696307755 145.34218763821252 H 0.0 **** 0.06
18719 H 47.22228610044431 22.51912723235924 144.51227370517927 H 0.0 **** 0.06
18720 H 48.03233719326363 23.981271879916363 143.89932732309163 H 0.0 **** 0.06
18721 C 69.23429505282434 21.064450577776 128.34295299205252 C 0.0 **** -0.24
18722 H 70.09788135194151 20.433534439097315 128.55156743623218 H 0.0 **** 0.06
18723 H 68.61487253174244 21.138976123974743 129.23756364513923 H 0.0 **** 0.06
18724 H 68.65184242358401 20.626134107023375 127.53275358535416 H 0.0 **** 0.06
18725 H 69.57287023743248 22.058371175085938 128.05200086545432 H 0.0 **** 0.06
18726 C 30.888578267400135 139.97442644824721 68.60062059100991 C 0.0 **** -0.24
18727 H 30.65293692050591 140.20760964172166 69.63902910452416 H 0.0 **** 0.06
18728 H 31.13318960437013 138.9155566125433 68.51270885725663 H 0.0 **** 0.06
18729 H 31.74044710410334 140.571897464626 68.278277145619 H 0.0 **** 0.06
18730 H 30.026285133117938 140.20100343329239 67.97291450265729 H 0.0 **** 0.06
18731 C 94.10732009736283 64.90839089242156 80.03454314789397 C 0.0 **** -0.24
18732 H 94.3156807282112 64.76341019265554 81.09476951190462 H 0.0 **** 0.06
18733 H 94.39758596051104 65.91735856021162 79.74248418433879 H 0.0 **** 0.06
18734 H 93.04193137632107 64.76877670725608 79.85140321383236 H 0.0 **** 0.06
18735 H 94.67452079367519 64.18356090822762 79.45028946974058 H 0.0 **** 0.06
18736 C 137.59807555341965 44.55572279575395 67.17806788931397 C 0.0 **** -0.24
18737 H 136.98704951686975 45.42204363472638 67.43082836388028 H 0.0 **** 0.06
18738 H 138.30398910293792 44.361300037357196 67.98490510873485 H 0.0 **** 0.06
18739 H 138.14429215618642 44.75263045785006 66.25617080204003 H 0.0 **** 0.06
18740 H 136.95453549867358 43.68666014882987 67.04038779952654 H 0.0 **** 0.06
18741 C 38.96204624795182 74.25684385662305 116.66913556509685 C 0.0 **** -0.24
18742 H 39.64548113300323 74.30194233446664 115.82095375409624 H 0.0 **** 0.06
18743 H 39.23188937001295 75.0248607635985 117.39427501240554 H 0.0 **** 0.06
18744 H 39.02872005383014 73.2748020397924 117.13681487617423 H 0.0 **** 0.06
18745 H 37.9423883746603 74.42611332120097 116.32315846797617 H 0.0 **** 0.06
18746 C 142.05157545683912 54.522934932821244 10.82464240996186 C 0.0 **** -0.24
18747 H 141.8334928223838 53.81828938837809 11.626816384479753 H 0.0 **** 0.06
18748 H 142.60002397005633 54.01310141395568 10.032762694352122 H 0.0 **** 0.06
18749 H 142.6545628477054 55.34295574880382 11.215893720777679 H 0.0 **** 0.06
18750 H 141.1180358286374 54.918339429264734 10.423361263554767 H 0.0 **** 0.06
18751 C 41.12739670867006 79.98213805671989 25.510435063477622 C 0.0 **** -0.24
18752 H 41.18084265572206 78.90677275219409 25.67680343160169 H 0.0 **** 0.06
18753 H 40.782714759643994 80.47362795775616 26.420268848954038 H 0.0 **** 0.06
18754 H 40.43128839801636 80.1893515858274 24.698176960208905 H 0.0 **** 0.06
18755 H 42.11626055817938 80.35824599440933 25.24711090959508 H 0.0 **** 0.06
18756 C 126.4145925339252 31.349634977453576 24.78976031779701 C 0.0 **** -0.24
18757 H 125.33068588111996 31.365617379627935 24.672626031068177 H 0.0 **** 0.06
18758 H 126.88691221486945 31.50040419538044 23.818325658721584 H 0.0 **** 0.06
18759 H 126.72098107038647 30.385443653303597 25.19717986946567 H 0.0 **** 0.06
18760 H 126.71875999611694 32.14512896505812 25.468872161646757 H 0.0 **** 0.06
18761 C 85.71664883969929 144.27672900988432 10.28922609679259 C 0.0 **** -0.24
18762 H 85.77617973134873 143.74595450326902 11.238746467338814 H 0.0 **** 0.06
18763 H 86.50641038270237 143.92322864689848 9.625314406802403 H 0.0 **** 0.06
18764 H 85.83839616540772 145.34622184427013 10.46175771890006 H 0.0 **** 0.06
18765 H 84.74548275780464 144.09115429499343 9.829723132970543 H 0.0 **** 0.06
18766 C 78.58261783154147 17.419901221290957 116.56779352877898 C 0.0 **** -0.24
18767 H 78.3216148921627 16.612964369037684 117.25336475688694 H 0.0 **** 0.06
18768 H 77.97952403379097 17.33604720899484 115.66302012854798 H 0.0 **** 0.06
18769 H 79.63886058531465 17.349567107750318 116.3096989559075 H 0.0 **** 0.06
18770 H 78.38788575712074 18.379488214118965 117.04707707580594 H 0.0 **** 0.06
18771 C 110.77488463993862 22.974224276883717 55.74687996412476 C 0.0 **** -0.24
18772 H 110.34230073693035 22.22125165914332 56.40457733737405 H 0.0 **** 0.06
18773 H 111.58994581849211 22.530499968544746 55.173358759842074 H 0.0 **** 0.06
18774 H 111.15913883026153 23.80108969062752 56.34443397875293 H 0.0 **** 0.06
18775 H 110.00980611123984 23.343686165711375 55.0647874450799 H 0.0 **** 0.06
18776 C 34.420093344201575 92.02431353923191 39.903448863911905 C 0.0 **** -0.24
18777 H 34.688936051730195 92.88086154581123 39.28649786181856 H 0.0 **** 0.06
18778 H 33.34559423853534 92.03368053919172 40.089380182775386 H 0.0 **** 0.06
18779 H 34.95339571248451 92.07823413098805 40.852354878356124 H 0.0 **** 0.06
18780 H 34.69107022378603 91.10376797002021 39.38633681186769 H 0.0 **** 0.06
18781 C 76.57937609316421 139.99981496328022 53.75623136431062 C 0.0 **** -0.24
18782 H 77.65484880445291 139.9644719468382 53.92847184215404 H 0.0 **** 0.06
18783 H 76.3805298281591 140.49740186537454 52.806155586953835 H 0.0 **** 0.06
18784 H 76.1006559358726 140.5542757005475 54.56399916610317 H 0.0 **** 0.06
18785 H 76.18149991828562 138.9859097680791 53.72589563704125 H 0.0 **** 0.06
18786 C 141.88801347346083 138.0617014425672 117.19305834848907 C 0.0 **** -0.24
18787 H 142.8824157793004 137.61577027444773 117.15002366668384 H 0.0 **** 0.06
18788 H 141.69367087297815 138.60577988777035 116.26853030732443 H 0.0 **** 0.06
18789 H 141.83449270327145 138.74872847274838 118.03792454582677 H 0.0 **** 0.06
18790 H 141.1432407963132 137.27560116869307 117.31717724469539 H 0.0 **** 0.06
18791 C 0.18970235101253152 5.435649300290315 113.44335448065355 C 0.0 **** -0.24
18792 H -0.17773287954512185 4.623676150958918 112.81566391421428 H 0.0 **** 0.06
18793 H 0.6685804811725866 6.189184856628767 112.81832858173514 H 0.0 **** 0.06
18794 H 0.9122849107212545 5.043386507735896 114.15921050125392 H 0.0 **** 0.06
18795 H -0.6462310750712668 5.885583146720357 113.97933614012497 H 0.0 **** 0.06
18796 C 63.96667929682299 118.45324922556587 96.14804338927641 C 0.0 **** -0.24
18797 H 64.99053347550063 118.74477402905195 96.38108281515687 H 0.0 **** 0.06
18798 H 63.537578180649675 117.92378624733986 96.99928172589321 H 0.0 **** 0.06
18799 H 63.964032255883794 117.80125566109696 95.27449151779885 H 0.0 **** 0.06
18800 H 63.37473879546786 119.34437359338362 95.93805932927685 H 0.0 **** 0.06
18801 C 29.579501160581543 2.492978326789057 43.835578311941944 C 0.0 **** -0.24
18802 H 29.61047727387904 1.50240775106613 43.382357747356096 H 0.0 **** 0.06
18803 H 29.25598056724934 2.4084913016156406 44.8735927121149 H 0.0 **** 0.06
18804 H 28.87878300965596 3.121983839696611 43.286229029894216 H 0.0 **** 0.06
18805 H 30.573350834754393 2.939817997617297 43.79994632804804 H 0.0 **** 0.06
18806 C 47.121990318424594 2.15073893030862 97.73165157671215 C 0.0 **** -0.24
18807 H 47.8348849527665 2.9358072883971147 97.98491511293295 H 0.0 **** 0.06
18808 H 46.51361976493553 2.472932645296652 96.88563383415811 H 0.0 **** 0.06
18809 H 46.47748494576757 1.9546608041606817 98.5889745634685 H 0.0 **** 0.06
18810 H 47.660484625780924 1.2414827457426156 97.46681292756509 H 0.0 **** 0.06
18811 C 28.30956431824694 17.5613426220134 28.00515282493175 C 0.0 **** -0.24
18812 H 27.76406235364044 16.63832243307769 27.81195661437657 H 0.0 **** 0.06
18813 H 27.625659304941678 18.40824601067868 27.941772235121817 H 0.0 **** 0.06
18814 H 29.102215662161427 17.676523452073923 27.265673469111142 H 0.0 **** 0.06
18815 H 28.748086583684824 17.521273517067925 29.003175991562564 H 0.0 **** 0.06
18816 C 21.280432054588857 81.38426887763852 78.34037604098296 C 0.0 **** -0.24
18817 H 20.556153846912707 80.70780697508435 78.79286008793451 H 0.0 **** 0.06
18818 H 21.04038085008608 82.41139058848569 78.61669818144533 H 0.0 **** 0.06
18819 H 21.24474480995542 81.28195842071247 77.25626468336141 H 0.0 **** 0.06
18820 H 22.280448711401334 81.13591952627172 78.69568121119046 H 0.0 **** 0.06
18821 C 135.58529622160506 3.7194836115122882 26.976365034165156 C 0.0 **** -0.24
18822 H 134.6349314678332 4.253844874740622 26.939345685793853 H 0.0 **** 0.06
18823 H 135.75284808125298 3.3484696572338066 27.987797941682288 H 0.0 **** 0.06
18824 H 136.39291712480107 4.3962643237320265 26.697657619801532 H 0.0 **** 0.06
18825 H 135.5564646957658 2.8802547918986363 26.280716954833565 H 0.0 **** 0.06
18826 C 22.08407444498181 135.0729091506457 105.8923466564692 C 0.0 **** -0.24
18827 H 21.245737683246205 134.4437056305971 106.19044541263786 H 0.0 **** 0.06
18828 H 22.856601600421868 134.45509497827547 105.43348724368913 H 0.0 **** 0.06
18829 H 22.49281837226073 135.5735376613581 106.77057840971288 H 0.0 **** 0.06
18830 H 21.741755678888296 135.81873099920952 105.1754226081742 H 0.0 **** 0.06
18831 C 123.8265571672469 106.828929607407 130.38976249923155 C 0.0 **** -0.24
18832 H 123.36854132765882 107.5160799559366 131.1015787623502 H 0.0 **** 0.06
18833 H 124.56417394387688 107.3638491060906 129.7913419843921 H 0.0 **** 0.06
18834 H 123.05801788657129 106.4160445352304 129.73666621323343 H 0.0 **** 0.06
18835 H 124.3166709056722 106.01882104149591 130.93186415133962 H 0.0 **** 0.06
18836 C 79.72473950808123 96.6969146512491 111.35118148002302 C 0.0 **** -0.24
18837 H 79.97865984068406 96.11640644683241 112.23796903294736 H 0.0 **** 0.06
18838 H 79.64213217465183 97.7502611858729 111.61970075947754 H 0.0 **** 0.06
18839 H 78.77256494863678 96.34791120923659 110.94979296178387 H 0.0 **** 0.06
18840 H 80.50388263113629 96.57285431308601 110.59971193603415 H 0.0 **** 0.06
18841 C 35.38621859532212 59.16821416919015 12.396775323561528 C 0.0 **** -0.24
18842 H 35.803234741158434 59.2008451400079 11.389633187877848 H 0.0 **** 0.06
18843 H 36.03096213311011 59.72750045823534 13.07504305621898 H 0.0 **** 0.06
18844 H 35.321041986274935 58.131550271987436 12.727928573781668 H 0.0 **** 0.06
18845 H 34.39064744588565 59.61103042317737 12.391455072081534 H 0.0 **** 0.06
18846 C 130.40861992216603 148.98699552269073 53.708946511869755 C 0.0 **** -0.24
18847 H 129.90676541604847 149.7766015076177 54.26781403737584 H 0.0 **** 0.06
18848 H 129.6661139435411 148.29126212899942 53.31705184361081 H 0.0 **** 0.06
18849 H 131.09241335114456 148.45416438406173 54.36981337626909 H 0.0 **** 0.06
18850 H 130.96819277362556 149.4252082732574 52.88383729828968 H 0.0 **** 0.06
18851 C 137.04478846615655 143.1191025094172 18.848604825143468 C 0.0 **** -0.24
18852 H 137.20987871577978 143.49567423111193 19.857432056973437 H 0.0 **** 0.06
18853 H 136.60066086686402 142.12454496432258 18.900058523776664 H 0.0 **** 0.06
18854 H 137.9970630991957 143.06511145259321 18.321445972648952 H 0.0 **** 0.06
18855 H 136.3725025161528 143.7913767026307 18.315564027018084 H 0.0 **** 0.06
18856 C 6.801692384215443 95.85582816582505 66.36470566232504 C 0.0 **** -0.24
18857 H 6.410957666868313 96.5264009161045 67.13123492923913 H 0.0 **** 0.06
18858 H 7.483321558641904 95.13850638606007 66.82393946808085 H 0.0 **** 0.06
18859 H 7.336095667629166 96.43611052555178 65.61262854446372 H 0.0 **** 0.06
18860 H 5.975661682353149 95.32340377297083 65.89421868621423 H 0.0 **** 0.06
18861 C 80.93551358816654 146.6032378933893 12.05722548689819 C 0.0 **** -0.24
18862 H 80.84686638592154 147.38557336294565 12.812333719700845 H 0.0 **** 0.06
18863 H 79.95174386257463 146.17713681080448 11.86071473988062 H 0.0 **** 0.06
18864 H 81.6045185965587 145.82275701699197 12.420790354721092 H 0.0 **** 0.06
18865 H 81.33917116539789 147.02899313311718 11.138892486628116 H 0.0 **** 0.06
18866 C 141.86323020543085 115.79064510924617 75.55225077464321 C 0.0 **** -0.24
18867 H 142.39128785765814 116.57085848464631 76.09986620993135 H 0.0 **** 0.06
18868 H 142.39567506551066 115.57226580306231 74.62584401657686 H 0.0 **** 0.06
18869 H 140.85350062174223 116.1290506348338 75.32001738302674 H 0.0 **** 0.06
18870 H 141.8127481487386 114.88904495279782 76.16352913985139 H 0.0 **** 0.06
18871 C 139.76922434636998 119.55850888735749 38.54856239212211 C 0.0 **** -0.24
18872 H 138.7521455865368 119.53539104944231 38.940092534049825 H 0.0 **** 0.06
18873 H 140.23187625435037 118.58006793330479 38.68232351676721 H 0.0 **** 0.06
18874 H 140.3474501507379 120.31072323427425 39.08513482747463 H 0.0 **** 0.06
18875 H 139.74427650674045 119.80733775462399 37.48788795372866 H 0.0 **** 0.06
18876 C 21.97704798047704 84.52347056044496 32.450349242135985 C 0.0 **** -0.24
18877 H 21.600269563561938 85.50672121263412 32.16689960064525 H 0.0 **** 0.06
18878 H 22.475829702666942 84.06693108694034 31.59548669017923 H 0.0 **** 0.06
18879 H 21.145140356213744 83.89326942804266 32.765832593410636 H 0.0 **** 0.06
18880 H 22.68483737517022 84.62962130513407 33.27197485430648 H 0.0 **** 0.06
18881 C 81.59029013857992 93.1488187382568 83.73794755941051 C 0.0 **** -0.24
18882 H 82.56100863091984 93.02570764294303 83.25710582773556 H 0.0 **** 0.06
18883 H 80.82298390291135 92.66118530196891 83.13689577674002 H 0.0 **** 0.06
18884 H 81.36153633601788 94.21015157442504 83.82923148606275 H 0.0 **** 0.06
18885 H 81.61708494920174 92.69684494604762 84.72954133642304 H 0.0 **** 0.06
18886 C 145.98539815390413 138.5441171773405 63.58723633594086 C 0.0 **** -0.24
18887 H 145.5928603386529 138.02521735564997 64.46166959110057 H 0.0 **** 0.06
18888 H 146.69304706670346 139.30974668847122 63.907568983745605 H 0.0 **** 0.06
18889 H 145.16462122323824 139.01299684647407 63.044345393688076 H 0.0 **** 0.06
18890 H 146.4910190987521 137.83069418934204 62.93741517613357 H 0.0 **** 0.06
18891 C 125.10176548328461 17.47508313724026 133.10399339400715 C 0.0 **** -0.24
18892 H 124.30031171321998 17.246035836082086 133.80632498979134 H 0.0 **** 0.06
18893 H 124.86262347098328 17.047315871212504 132.12996681479882 H 0.0 **** 0.06
18894 H 126.03636684558532 17.05004592003573 133.46807592539605 H 0.0 **** 0.06
18895 H 125.20512371081081 18.555809933182076 133.01026971135818 H 0.0 **** 0.06
18896 C 14.322822262189547 33.79815699331982 128.43597333621074 C 0.0 **** -0.24
18897 H 14.288314673924141 33.763178863370115 127.34663671430394 H 0.0 **** 0.06
18898 H 13.468074145156017 33.25795009108509 128.8433498853861 H 0.0 **** 0.06
18899 H 14.288323336966478 34.83541449882745 128.7672498503502 H 0.0 **** 0.06
18900 H 15.245560681004086 33.33500392606612 128.7857626127863 H 0.0 **** 0.06
18901 C 3.0639041370343136 78.75495731056077 133.64881587693958 C 0.0 **** -0.24
18902 H 3.7111935342260267 78.94906684802312 134.5040178442434 H 0.0 **** 0.06
18903 H 2.489341214527286 77.84597050410251 133.82775141911924 H 0.0 **** 0.06
18904 H 3.6732226777384085 78.6314166689244 132.7531719009492 H 0.0 **** 0.06
18905 H 2.3818514210850026 79.59483025109456 133.51126199151315 H 0.0 **** 0.06
18906 C 133.23926446211675 104.7011278326624 42.91617195850064 C 0.0 **** -0.24
18907 H 132.35490861383414 104.53700275968492 42.29921553002626 H 0.0 **** 0.06
18908 H 134.023298268237 104.00467498352145 42.61863387667145 H 0.0 **** 0.06
18909 H 132.9866118332509 104.53876308775693 43.96355621928937 H 0.0 **** 0.06
18910 H 133.59078524427017 105.7241701313659 42.77998421522051 H 0.0 **** 0.06
18911 C 85.60614743794048 58.47035627437434 0.8664119191232942 C 0.0 **** -0.24
18912 H 85.78395143098254 57.49540196005157 0.4101758078608384 H 0.0 **** 0.06
18913 H 84.66227432717419 58.87528464603723 0.5015557228860246 H 0.0 **** 0.06
18914 H 86.41863572358012 59.14738813538425 0.6035524312933944 H 0.0 **** 0.06
18915 H 85.55984320871016 58.360562568101614 1.9498996881584674 H 0.0 **** 0.06
18916 C 95.24254647017851 80.14680386693539 78.8502465365201 C 0.0 **** -0.24
18917 H 95.21003047559977 79.36804152020986 78.08774051563017 H 0.0 **** 0.06
18918 H 94.56297523369538 80.95324567030013 78.57444399704339 H 0.0 **** 0.06
18919 H 96.25726856748439 80.53715481863844 78.92810977081027 H 0.0 **** 0.06
18920 H 94.93956123685966 79.72776620688322 79.80976301378936 H 0.0 **** 0.06
18921 C 119.72820362978477 130.97487693620775 92.70219794791444 C 0.0 **** -0.24
18922 H 119.740739456691 130.91535094974338 93.79058390902082 H 0.0 **** 0.06
18923 H 119.8901968950724 129.98212832681472 92.2829142187961 H 0.0 **** 0.06
18924 H 120.51869688178074 131.6457333045883 92.36732543879555 H 0.0 **** 0.06
18925 H 118.76246727327462 131.35687993420828 92.37082279318153 H 0.0 **** 0.06
18926 C 50.477348926327195 106.45376761832668 98.29116551106088 C 0.0 **** -0.24
18927 H 49.84198235552468 106.07276516886893 97.49191841452162 H 0.0 **** 0.06
18928 H 50.69508609656508 107.5065081057974 98.11136987534377 H 0.0 **** 0.06
18929 H 51.40906951758994 105.88847902450615 98.3156406971224 H 0.0 **** 0.06
18930 H 49.96260911964835 106.3471605815121 99.2464777037998 H 0.0 **** 0.06
18931 C 77.11208841939404 108.1663438131446 101.00839679219038 C 0.0 **** -0.24
18932 H 77.51835377999916 108.01289341536663 102.00872771657018 H 0.0 **** 0.06
18933 H 77.60183356179394 107.48768997911164 100.31021118308465 H 0.0 **** 0.06
18934 H 77.28923291744431 109.19660628794811 100.69937810143188 H 0.0 **** 0.06
18935 H 76.04060262302204 107.96897195705064 101.01688124525631 H 0.0 **** 0.06
18936 C 125.96340638234572 7.050135178042915 137.91934954313297 C 0.0 **** -0.24
18937 H 125.72561465404445 8.000837062950211 138.397701446891 H 0.0 **** 0.06
18938 H 125.60959613988751 6.231184758117802 138.54613102674716 H 0.0 **** 0.06
18939 H 127.04291188997828 6.96998849933177 137.78993985564523 H 0.0 **** 0.06
18940 H 125.47613528574976 7.000776986566301 136.94637417127353 H 0.0 **** 0.06
18941 C 54.50613304253487 68.12846114051831 79.23743843258839 C 0.0 **** -0.24
18942 H 55.32119027974434 67.50406903351433 79.60426768998857 H 0.0 **** 0.06
18943 H 54.46519947875397 68.06961635568402 78.14977845823444 H 0.0 **** 0.06
18944 H 54.67722579767516 69.16190438389097 79.53878012386372 H 0.0 **** 0.06
18945 H 53.56422250679711 67.77820107238273 79.6571893546647 H 0.0 **** 0.06
18946 C 20.1118098010665 25.800235987093856 2.517545112735732 C 0.0 **** -0.24
18947 H 20.068890230942543 24.82559098062893 3.002914537334771 H 0.0 **** 0.06
18948 H 21.14798534628352 26.04172909917827 2.278098157594112 H 0.0 **** 0.06
18949 H 19.70710800135373 26.558212354377417 3.1880380323285706 H 0.0 **** 0.06
18950 H 19.5224123265682 25.775391513640784 1.6005926173864502 H 0.0 **** 0.06
18951 C 61.25703165693065 133.65941919827625 5.6328566947357785 C 0.0 **** -0.24
18952 H 61.732803864720466 134.55944523358718 5.2444684938293165 H 0.0 **** 0.06
18953 H 60.66749156856642 133.91151858373823 6.513799277245795 H 0.0 **** 0.06
18954 H 62.02302986763519 132.93273399039506 5.9038471730195 H 0.0 **** 0.06
18955 H 60.606272731711925 133.23363571345496 4.8684649335725965 H 0.0 **** 0.06
18956 C 40.13201682646523 118.82804319839563 2.9999992044185433 C 0.0 **** -0.24
18957 H 40.18784514614062 119.78484525835667 2.480070815006627 H 0.0 **** 0.06
18958 H 39.13228304615498 118.40935702284652 2.8831970220597896 H 0.0 **** 0.06
18959 H 40.34176950565072 118.9780247026696 4.058699264684776 H 0.0 **** 0.06
18960 H 40.86570030167866 118.1423357889769 2.57776900465916 H 0.0 **** 0.06
18961 C 40.58767870481245 110.50739060134386 62.701311248983075 C 0.0 **** -0.24
18962 H 41.31470909399032 110.39499220982846 63.50652112981089 H 0.0 **** 0.06
18963 H 39.84702695293211 111.25664063671572 62.98300593153755 H 0.0 **** 0.06
18964 H 40.09281004740993 109.55331186118359 62.52381983917377 H 0.0 **** 0.06
18965 H 41.099466999653814 110.8262548191223 61.79256272271226 H 0.0 **** 0.06
18966 C 86.30184431969575 40.140220358611 34.13139029301907 C 0.0 **** -0.24
18967 H 86.49283162106067 40.30492838493153 33.071246633521866 H 0.0 **** 0.06
18968 H 85.94021581899977 39.12206598788143 34.28052461283214 H 0.0 **** 0.06
18969 H 85.54980296745228 40.84795066825869 34.479637451198414 H 0.0 **** 0.06
18970 H 87.22513717863154 40.28381759981394 34.69378042374096 H 0.0 **** 0.06
18971 C 56.55741236685638 63.250309781006166 130.52112451568644 C 0.0 **** -0.24
18972 H 57.15369111096044 64.09229627730231 130.1680283219644 H 0.0 **** 0.06
18973 H 56.1372838926773 63.4880957881969 131.49902349248651 H 0.0 **** 0.06
18974 H 57.188928221462234 62.366091957575094 130.60111833651587 H 0.0 **** 0.06
18975 H 55.74951451794281 63.0583155718211 129.8158084632289 H 0.0 **** 0.06
18976 C 135.21476642918577 130.89114704294713 103.16390236183533 C 0.0 **** -0.24
18977 H 134.1595694515488 130.64625355712758 103.04764850292106 H 0.0 **** 0.06
18978 H 135.41921094138567 131.8502061659571 102.68607646275429 H 0.0 **** 0.06
18979 H 135.82223917300396 130.11504214729274 102.69685676335136 H 0.0 **** 0.06
18980 H 135.45835727728254 130.95423793474725 104.2242681038232 H 0.0 **** 0.06
18981 C 131.88001337310965 135.8113007369897 142.97561477391346 C 0.0 **** -0.24
18982 H 131.12155514391853 136.58014473263532 143.12464338341357 H 0.0 **** 0.06
18983 H 132.1145644653062 135.34240319879885 143.93085261879312 H 0.0 **** 0.06
18984 H 132.78010075950692 136.26446021806368 142.56178314584142 H 0.0 **** 0.06
18985 H 131.50210015041327 135.0578723996346 142.2834790413287 H 0.0 **** 0.06
18986 C 139.4751264213883 21.05618710203555 47.922317112060654 C 0.0 **** -0.24
18987 H 138.8470452610761 20.167553702261642 47.972737040028875 H 0.0 **** 0.06
18988 H 139.63416019622105 21.32950107557369 46.879526534582624 H 0.0 **** 0.06
18989 H 140.4355771418324 20.848990195924756 48.39440115662869 H 0.0 **** 0.06
18990 H 138.9842925110197 21.877764067371686 48.44349445739695 H 0.0 **** 0.06
18991 C 10.670513005441535 2.429239953483062 128.4626660144409 C 0.0 **** -0.24
18992 H 11.655651064032554 2.675989328922725 128.06762904078812 H 0.0 **** 0.06
18993 H 10.76643362526272 2.094964915977357 129.4954665275776 H 0.0 **** 0.06
18994 H 10.226582695152729 1.6338181947773762 127.86284633971755 H 0.0 **** 0.06
18995 H 10.032717022727013 3.3128506367793307 128.42366647606485 H 0.0 **** 0.06
18996 C 88.30345278060244 127.55663520432537 104.98525249865416 C 0.0 **** -0.24
18997 H 88.49561679197627 126.53065034217511 104.67135834606869 H 0.0 **** 0.06
18998 H 89.18631987881591 128.1673412146886 104.79288725301272 H 0.0 **** 0.06
18999 H 88.07445237085368 127.5740885570132 106.05070717649919 H 0.0 **** 0.06
19000 H 87.45662174043416 127.95547696340665 104.42548560360008 H 0.0 **** 0.06
19001 C 140.31449878530128 18.089068889459725 115.64928729108567 C 0.0 **** -0.24
19002 H 139.90537115328848 19.072054184716563 115.88514957440884 H 0.0 **** 0.06
19003 H 139.63638592167894 17.565615783018075 114.97524777021778 H 0.0 **** 0.06
19004 H 140.42998261885705 17.51411955011639 116.56823409843179 H 0.0 **** 0.06
19005 H 141.2862468513063 18.20673942967929 115.16947812776527 H 0.0 **** 0.06
19006 C 88.99387677790136 88.74346108766935 135.47428954592698 C 0.0 **** -0.24
19007 H 89.07649492994153 89.28425896256162 134.5318855147701 H 0.0 **** 0.06
19008 H 87.97829621578393 88.83924560345459 135.86017940436187 H 0.0 **** 0.06
19009 H 89.69779847883001 89.15960860365713 136.19488163688604 H 0.0 **** 0.06
19010 H 89.22227093243411 87.69018756089325 135.3096763885801 H 0.0 **** 0.06
19011 C 1.6033695397701422 51.76504021981398 144.73166079475388 C 0.0 **** -0.24
19012 H 1.0131378829255269 52.108394153900335 145.58136789542908 H 0.0 **** 0.06
19013 H 0.9727615310142603 51.17409283340008 144.06663730080464 H 0.0 **** 0.06
19014 H 2.4310776002293863 51.15063328762285 145.08880508898787 H 0.0 **** 0.06
19015 H 1.996294211161537 52.62499552169997 144.1911651982083 H 0.0 **** 0.06
19016 C 100.15865136063928 112.17977521249975 42.26703332085616 C 0.0 **** -0.24
19017 H 100.10907017901832 113.17095140076191 41.81626846749175 H 0.0 **** 0.06
19018 H 99.1640203433005 111.73316484715832 42.27211557578512 H 0.0 **** 0.06
19019 H 100.52601784292543 112.26365556250829 43.28988201070743 H 0.0 **** 0.06
19020 H 100.83693094375928 111.55141146439479 41.688475331612 H 0.0 **** 0.06
19021 C 37.61816223397793 9.919047658929685 59.636271547813664 C 0.0 **** -0.24
19022 H 38.14732723730509 9.071510675120209 59.2002727450739 H 0.0 **** 0.06
19023 H 37.985848266807224 10.843825173008696 59.19185956855458 H 0.0 **** 0.06
19024 H 37.7895979004123 9.938956279417567 60.712100023699975 H 0.0 **** 0.06
19025 H 36.550594362464594 9.820160797283933 59.44017283325658 H 0.0 **** 0.06
19026 C 41.36685085476944 132.13802900367227 135.96317802943324 C 0.0 **** -0.24
19027 H 42.31445283430746 132.6106646077477 135.7037063003073 H 0.0 **** 0.06
19028 H 40.55913909267757 132.61980535738434 135.4128592937826 H 0.0 **** 0.06
19029 H 41.19037658094081 132.2424048976135 137.03376431293768 H 0.0 **** 0.06
19030 H 41.4056132812664 131.08030822894352 135.7027231944647 H 0.0 **** 0.06
19031 C 24.94783599175497 23.534150586049662 141.21097936461263 C 0.0 **** -0.24
19032 H 24.31872517064619 24.32983678474909 141.60864944484706 H 0.0 **** 0.06
19033 H 24.317554286172083 22.751719591373472 140.78661013083627 H 0.0 **** 0.06
19034 H 25.554832907712296 23.116440807712507 142.01410436280253 H 0.0 **** 0.06
19035 H 25.598160773568623 23.93848474949573 140.43538859589285 H 0.0 **** 0.06
19036 C 21.21241822275134 7.823370587607144 98.4529825022303 C 0.0 **** -0.24
19037 H 21.409451058145336 8.01435644177053 99.50756674492143 H 0.0 **** 0.06
19038 H 22.1019340780554 7.395938755222943 97.98851709696277 H 0.0 **** 0.06
19039 H 20.95614843458204 8.759256057929775 97.95543682333525 H 0.0 **** 0.06
19040 H 20.381807274727365 7.1233032702388925 98.35918637419078 H 0.0 **** 0.06
19041 C 34.437803615860936 104.83646482488835 46.453710826883665 C 0.0 **** -0.24
19042 H 33.67907611410157 105.59118803466627 46.2499956095247 H 0.0 **** 0.06
19043 H 34.417480985468906 104.0806779275217 45.66815773334079 H 0.0 **** 0.06
19044 H 34.23264213758605 104.3659144425525 47.415660730363754 H 0.0 **** 0.06
19045 H 35.42037144338303 105.3065794573535 46.48080596748642 H 0.0 **** 0.06
19046 C 110.87053326544937 74.12312250866137 53.71347947144925 C 0.0 **** -0.24
19047 H 110.00269188727943 74.77995932171869 53.76539475708738 H 0.0 **** 0.06
19048 H 110.72433193523524 73.39022883982179 52.9204085403571 H 0.0 **** 0.06
19049 H 110.99318220983365 73.60791887210571 54.66695730954088 H 0.0 **** 0.06
19050 H 111.76157158558091 74.71395022444723 53.5035419347019 H 0.0 **** 0.06
19051 C 30.18645198943331 120.566818492152 6.200752324450292 C 0.0 **** -0.24
19052 H 31.068500248445268 120.43316097611752 5.574346683873074 H 0.0 **** 0.06
19053 H 29.68044451562252 119.60892027785012 6.322510048798961 H 0.0 **** 0.06
19054 H 29.509696768847817 121.2784658962246 5.728051764436714 H 0.0 **** 0.06
19055 H 30.488225694186553 120.94479115368121 7.1777384011303695 H 0.0 **** 0.06
19056 C 82.04905509981847 46.51246403126393 97.90802048811777 C 0.0 **** -0.24
19057 H 81.82424391790386 46.27560609403295 96.86850439780608 H 0.0 **** 0.06
19058 H 81.12978570058874 46.78978520003122 98.42448272916458 H 0.0 **** 0.06
19059 H 82.75350831714951 47.34417735995123 97.94739230802703 H 0.0 **** 0.06
19060 H 82.49009251161425 45.640392873013866 98.39172950473711 H 0.0 **** 0.06
19061 C 48.983910687054234 50.46605084794824 75.7909786305689 C 0.0 **** -0.24
19062 H 49.02312357185447 50.79628433769044 74.75264308814042 H 0.0 **** 0.06
19063 H 49.935954957027974 50.680819482736 76.27617407453641 H 0.0 **** 0.06
19064 H 48.793933954410306 49.393797804378025 75.82272274124816 H 0.0 **** 0.06
19065 H 48.1836718560743 50.99359537260298 76.30940321302248 H 0.0 **** 0.06
19066 C 95.96414432103657 141.07321707916537 16.021251354469904 C 0.0 **** -0.24
19067 H 94.95844297898023 141.22144645499287 16.412982513510187 H 0.0 **** 0.06
19068 H 96.51223902087523 140.39360943004948 16.674066136297533 H 0.0 **** 0.06
19069 H 96.48182019317272 142.03173514020938 15.976851757326322 H 0.0 **** 0.06
19070 H 95.90468633024517 140.64647179453033 15.02041886891029 H 0.0 **** 0.06
19071 C 124.53034286899349 121.31689632951684 104.8956292006212 C 0.0 **** -0.24
19072 H 125.17013258755999 121.80160128828733 104.15931361511691 H 0.0 **** 0.06
19073 H 124.190316034959 120.35694701725562 104.506510234841 H 0.0 **** 0.06
19074 H 123.667138407801 121.95124284154785 105.1015396445956 H 0.0 **** 0.06
19075 H 125.09201382268192 121.15811656463292 105.81681498666815 H 0.0 **** 0.06
19076 C 17.128377500697297 15.978249654778892 100.49816631521125 C 0.0 **** -0.24
19077 H 17.810471298091443 15.928489096009315 99.64949298738945 H 0.0 **** 0.06
19078 H 17.262974672019254 16.926781680711258 101.01735419517763 H 0.0 **** 0.06
19079 H 17.338547456919002 15.155734969913368 101.18244600733098 H 0.0 **** 0.06
19080 H 16.100557054187846 15.899956231831652 100.1424068596642 H 0.0 **** 0.06
19081 C 129.68266481256777 147.51752731255922 33.5346924631948 C 0.0 **** -0.24
19082 H 128.97943655086854 147.12420909619394 34.26846849168834 H 0.0 **** 0.06
19083 H 129.93755098064273 148.54641718765905 33.790385993299424 H 0.0 **** 0.06
19084 H 129.22861549125255 147.48988820683135 32.54418614085489 H 0.0 **** 0.06
19085 H 130.58755826466134 146.9079394552783 33.53571887100776 H 0.0 **** 0.06
19086 C 119.8110119729943 126.49883421810888 2.517885183185541 C 0.0 **** -0.24
19087 H 119.14440505280876 126.02208003684035 1.7986111174243717 H 0.0 **** 0.06
19088 H 120.70727708299287 126.8479236686379 2.005258724746028 H 0.0 **** 0.06
19089 H 120.08956638151645 125.77852611877829 3.286870329478944 H 0.0 **** 0.06
19090 H 119.30227476256081 127.34487508284178 2.979388997532311 H 0.0 **** 0.06
19091 C 96.58503283793874 57.89017606444776 145.68556831045794 C 0.0 **** -0.24
19092 H 95.69515699601484 58.33630425204073 145.24148823839764 H 0.0 **** 0.06
19093 H 97.4255487955055 57.997855594150494 144.99849509608046 H 0.0 **** 0.06
19094 H 96.40512531059215 56.83339345799685 145.87806822948494 H 0.0 **** 0.06
19095 H 96.81558066051616 58.396310443017924 146.6226793785982 H 0.0 **** 0.06
19096 C 45.45563808865137 94.97021600205322 104.9646193892156 C 0.0 **** -0.24
19097 H 45.172796903267965 95.96359944435392 105.31209696245308 H 0.0 **** 0.06
19098 H 44.56033158771021 94.35993629458171 104.84043210896671 H 0.0 **** 0.06
19099 H 46.114980829989236 94.50362043163474 105.69560786977517 H 0.0 **** 0.06
19100 H 45.973121201425386 95.05460969518963 104.0087786951929 H 0.0 **** 0.06
19101 C 140.79403554411758 122.82541785111758 52.50906163003006 C 0.0 **** -0.24
19102 H 140.71473475857456 121.8602949350479 53.008075234099834 H 0.0 **** 0.06
19103 H 140.25583255037154 122.78958726204709 51.56158381470921 H 0.0 **** 0.06
19104 H 141.8436702968162 123.05340500024303 52.32300454813003 H 0.0 **** 0.06
19105 H 140.3605115052517 123.59862581826374 53.143550275107245 H 0.0 **** 0.06
19106 C 114.9664344090197 117.4865582095679 69.3010785395924 C 0.0 **** -0.24
19107 H 114.00847949000759 117.90265648555928 68.9856785368871 H 0.0 **** 0.06
19108 H 115.29996790740334 117.99155691459285 70.20832175011701 H 0.0 **** 0.06
19109 H 115.70230039600777 117.63277169520191 68.51045135526208 H 0.0 **** 0.06
19110 H 114.85142354112769 116.4214304278548 69.4986304141364 H 0.0 **** 0.06
19111 C 104.39289434851042 10.496608090872115 126.36451179845395 C 0.0 **** -0.24
19112 H 104.42574422178694 9.789479410617247 127.19300584036722 H 0.0 **** 0.06
19113 H 103.55959739479738 10.24626959704193 125.70675776588246 H 0.0 **** 0.06
19114 H 105.32618447654039 10.442462367621346 125.80469376191198 H 0.0 **** 0.06
19115 H 104.25955960413694 11.506075203400485 126.75319736566888 H 0.0 **** 0.06
19116 C 73.11932717360733 83.85668364891569 123.14424682853533 C 0.0 **** -0.24
19117 H 73.00230411548897 83.8279250484418 122.06053512260499 H 0.0 **** 0.06
19118 H 72.79871449591616 84.82987726097915 123.5176771883608 H 0.0 **** 0.06
19119 H 74.16684483425242 83.69634134025881 123.3995046990706 H 0.0 **** 0.06
19120 H 72.51051378021545 83.07438891764329 123.59711952102228 H 0.0 **** 0.06
19121 C 35.77420307899837 33.31831411320891 97.92182696757143 C 0.0 **** -0.24
19122 H 34.789787463711804 33.65801938000447 98.24421140093297 H 0.0 **** 0.06
19123 H 36.45774322789556 34.16698478559032 97.8842574739207 H 0.0 **** 0.06
19124 H 35.69753325529214 32.869325111026214 96.93115087154172 H 0.0 **** 0.06
19125 H 36.15174836909401 32.57892717621466 98.62768812389004 H 0.0 **** 0.06
19126 C 82.42699858651015 44.33945351186294 16.879508882212775 C 0.0 **** -0.24
19127 H 81.37812717610906 44.63473128572315 16.887009404089184 H 0.0 **** 0.06
19128 H 82.8265501812548 44.44472548464762 15.87055157829846 H 0.0 **** 0.06
19129 H 82.51497324653884 43.30064663031595 17.199376425068067 H 0.0 **** 0.06
19130 H 82.98834374213769 44.97771064676503 17.56109812139536 H 0.0 **** 0.06
19131 C 130.9244386283402 16.068328535255716 148.03229013330483 C 0.0 **** -0.24
19132 H 131.9939122309233 16.26760579414659 147.95211945657772 H 0.0 **** 0.06
19133 H 130.66895185926654 15.874109970823838 149.07436411023642 H 0.0 **** 0.06
19134 H 130.67137160514437 15.198385563683985 147.42795602285912 H 0.0 **** 0.06
19135 H 130.36682237412424 16.934215198265548 147.67616394459642 H 0.0 **** 0.06
19136 C 71.60084299113849 131.13292739386543 47.96412689930585 C 0.0 **** -0.24
19137 H 72.31471476703982 130.3135776628326 48.03840697448837 H 0.0 **** 0.06
19138 H 70.74604822441566 130.81640651331116 47.364855682269564 H 0.0 **** 0.06
19139 H 72.07977883322357 131.99015799724302 47.48964435860921 H 0.0 **** 0.06
19140 H 71.26231617510207 131.41212375957912 48.96149665943793 H 0.0 **** 0.06
19141 C 26.052296381263545 120.95029905708988 80.63000908526823 C 0.0 **** -0.24
19142 H 26.586858904040064 121.54000714914581 79.88508843801694 H 0.0 **** 0.06
19143 H 25.554578679980708 121.61898123703445 81.33273430677258 H 0.0 **** 0.06
19144 H 26.758993441071453 120.31823855092874 81.16770534112277 H 0.0 **** 0.06
19145 H 25.309245931052352 120.32501717819572 80.13369554264395 H 0.0 **** 0.06
19146 C 20.16643154853577 83.77178999391143 121.55112603534337 C 0.0 **** -0.24
19147 H 20.48552390414372 84.22309141684266 122.49075553078626 H 0.0 **** 0.06
19148 H 20.37456624049227 82.70147236389477 121.57338927628155 H 0.0 **** 0.06
19149 H 20.710755322467236 84.23059857874958 120.7250898176789 H 0.0 **** 0.06
19150 H 19.097247525316135 83.93246117212854 121.41569800394961 H 0.0 **** 0.06
19151 C 34.42984374527774 4.983684711641104 12.537388084992614 C 0.0 **** -0.24
19152 H 34.00231454469407 5.751599934819666 13.18257371693582 H 0.0 **** 0.06
19153 H 33.755741687537295 4.128210426980871 12.494555304685747 H 0.0 **** 0.06
19154 H 35.39332981378704 4.667869992393321 12.9382012138839 H 0.0 **** 0.06
19155 H 34.56891434772458 5.388125172556897 11.534145436077608 H 0.0 **** 0.06
19156 C 34.14093098622348 95.17888304060352 8.485567423499909 C 0.0 **** -0.24
19157 H 35.16096258529544 95.47729596897706 8.73027907463527 H 0.0 **** 0.06
19158 H 34.13593278746919 94.14083181204943 8.155349170944277 H 0.0 **** 0.06
19159 H 33.758614788410256 95.81675138236767 7.6881717778699254 H 0.0 **** 0.06
19160 H 33.51037073784718 95.28414345772642 9.368875711330652 H 0.0 **** 0.06
19161 C 62.29371322106691 60.94466444748738 122.93895412134928 C 0.0 **** -0.24
19162 H 62.540648128103925 60.585039120791606 123.93815144007054 H 0.0 **** 0.06
19163 H 63.13066801810412 61.51972335597347 122.54349061612352 H 0.0 **** 0.06
19164 H 61.40851618593214 61.577679575368876 122.98922830190871 H 0.0 **** 0.06
19165 H 62.09591262695916 60.09368379695715 122.28628545824328 H 0.0 **** 0.06
19166 C 136.16581558225639 104.19584265624101 19.78140886274008 C 0.0 **** -0.24
19167 H 135.21795700913307 104.05695741186926 20.30170830553221 H 0.0 **** 0.06
19168 H 136.05869435220853 104.98327776110304 19.035382401588798 H 0.0 **** 0.06
19169 H 136.44826843630577 103.2645816662438 19.289787199275736 H 0.0 **** 0.06
19170 H 136.935738811961 104.47624017472711 20.499689384167382 H 0.0 **** 0.06
19171 C 11.648581905402523 99.78187918352316 55.5221285401158 C 0.0 **** -0.24
19172 H 10.643468732475895 99.6067811010756 55.13757856936175 H 0.0 **** 0.06
19173 H 12.267279113839294 98.90501966000204 55.331420329401766 H 0.0 **** 0.06
19174 H 11.598731783659701 99.96654932862018 56.594969799255836 H 0.0 **** 0.06
19175 H 12.081297277510998 100.64886957585 55.023993506562505 H 0.0 **** 0.06
19176 C 2.1970924345366143 83.98753948469432 27.3552216484157 C 0.0 **** -0.24
19177 H 2.349412692271642 82.95622905830658 27.67351369601817 H 0.0 **** 0.06
19178 H 2.387278138951956 84.65840464489543 28.193815035219323 H 0.0 **** 0.06
19179 H 1.1689604191994931 84.1139380811708 27.01503425654517 H 0.0 **** 0.06
19180 H 2.8808213776572416 84.22032706192476 26.539426866157577 H 0.0 **** 0.06
19181 C 7.373426720330514 34.65066574599098 106.75518393552598 C 0.0 **** -0.24
19182 H 6.5019490472331825 34.90432277981171 106.15151162123031 H 0.0 **** 0.06
19183 H 7.815780502685726 33.726436308287106 106.38371044672398 H 0.0 **** 0.06
19184 H 7.068413801124564 34.51690436972399 107.79318562478836 H 0.0 **** 0.06
19185 H 8.10546095747307 35.455340554993114 106.69300854177318 H 0.0 **** 0.06
19186 C 138.09976163943327 105.1272992982918 94.32724088833797 C 0.0 **** -0.24
19187 H 137.19656663361593 104.93533983064265 93.74896432121673 H 0.0 **** 0.06
19188 H 138.07794180086762 104.53394243184334 95.24184738415124 H 0.0 **** 0.06
19189 H 138.14940703771396 106.18633887773052 94.58184453080126 H 0.0 **** 0.06
19190 H 138.97383895099492 104.8541225604177 93.73648561782204 H 0.0 **** 0.06
19191 C 62.92396237083254 4.174330405015553 93.64262721435048 C 0.0 **** -0.24
19192 H 62.276343720628404 3.312514646286786 93.7987140713802 H 0.0 **** 0.06
19193 H 63.26025801737778 4.555265295648667 94.60800351720901 H 0.0 **** 0.06
19194 H 62.37247922548843 4.953159423969396 93.11691898175867 H 0.0 **** 0.06
19195 H 63.78777006516215 3.8771886550417207 93.0487017152637 H 0.0 **** 0.06
19196 C 17.910295347245693 15.40855963875623 62.34760482949001 C 0.0 **** -0.24
19197 H 18.65954103265861 15.11522243134641 61.613242100203806 H 0.0 **** 0.06
19198 H 18.356492853203633 16.09258953864827 63.06989728212113 H 0.0 **** 0.06
19199 H 17.542087189475723 14.52311631556438 62.86572291944101 H 0.0 **** 0.06
19200 H 17.080757220891826 15.90411587342976 61.84177377788198 H 0.0 **** 0.06
19201 C 76.280883020141 0.1545360543783474 39.36524114683458 C 0.0 **** -0.24
19202 H 76.29896408705105 -0.4331212229134529 40.28276959984116 H 0.0 **** 0.06
19203 H 76.76589812742645 1.1159271333109118 39.53943668909746 H 0.0 **** 0.06
19204 H 75.2476556220517 0.31825508337075803 39.058914996154996 H 0.0 **** 0.06
19205 H 76.81199564627713 -0.3827513618765437 38.57974570960699 H 0.0 **** 0.06
19206 C 32.12558573467144 140.24627847171556 32.25003967459318 C 0.0 **** -0.24
19207 H 32.09692090058618 140.32426096904126 33.33686465622006 H 0.0 **** 0.06
19208 H 31.157002880288253 140.53118840524982 31.839628837438568 H 0.0 **** 0.06
19209 H 32.35338496763378 139.21952128798983 31.965482752404313 H 0.0 **** 0.06
19210 H 32.896695337432654 140.91038348255967 31.858610208902604 H 0.0 **** 0.06
19211 C 49.433620704637406 72.37178024860886 87.36048871382705 C 0.0 **** -0.24
19212 H 49.095169200018006 72.53302913500872 86.33686238120934 H 0.0 **** 0.06
19213 H 50.43976322430268 71.95090779716625 87.34827607929147 H 0.0 **** 0.06
19214 H 48.755846734321665 71.68087580493722 87.86185283121507 H 0.0 **** 0.06
19215 H 49.443828769817515 73.32288501539509 87.89415626300521 H 0.0 **** 0.06
19216 C 107.85842804854171 147.15630918849777 78.9055626720197 C 0.0 **** -0.24
19217 H 106.9168417670253 147.23018638971106 78.36045079627428 H 0.0 **** 0.06
19218 H 108.31263597679158 146.18356332242732 78.71474822641466 H 0.0 **** 0.06
19219 H 107.66885245195998 147.26639174654824 79.97281117622776 H 0.0 **** 0.06
19220 H 108.53278790407678 147.94529623037167 78.5731311683798 H 0.0 **** 0.06
19221 C 39.178081989680564 15.36725460552276 143.00383405065193 C 0.0 **** -0.24
19222 H 38.94183604459661 16.33766894348969 143.44063761922146 H 0.0 **** 0.06
19223 H 38.25483085276707 14.861243731407967 142.72275435890657 H 0.0 **** 0.06
19224 H 39.71714972586791 14.762379149705794 143.73418273957444 H 0.0 **** 0.06
19225 H 39.79981878192041 15.507971273775638 142.11981840905318 H 0.0 **** 0.06
19226 C 109.16489829899017 121.56817326052835 89.04151918202889 C 0.0 **** -0.24
19227 H 108.32699591739585 121.70982961620696 89.72364639554888 H 0.0 **** 0.06
19228 H 109.79007349087287 122.46161121447277 89.04453937094166 H 0.0 **** 0.06
19229 H 108.78892215358918 121.39109467885966 88.03402596365487 H 0.0 **** 0.06
19230 H 109.75523155194445 120.71099773539622 89.36466347993549 H 0.0 **** 0.06
19231 C 117.68519319862936 131.1342287438286 56.642237882851134 C 0.0 **** -0.24
19232 H 117.75713584600241 131.16122521241078 55.554671355260126 H 0.0 **** 0.06
19233 H 118.30737979259267 130.32527364422498 57.026619224320626 H 0.0 **** 0.06
19234 H 116.64810291286075 130.96370396022712 56.933511931279355 H 0.0 **** 0.06
19235 H 118.02738197494646 132.08326444172025 57.05291720736648 H 0.0 **** 0.06
19236 C 53.02794455978682 33.82185841549472 68.59182567919274 C 0.0 **** -0.24
19237 H 53.805005302322215 34.32132357684812 69.1703553970253 H 0.0 **** 0.06
19238 H 52.13002129376767 33.71982049753396 69.20160561509523 H 0.0 **** 0.06
19239 H 53.377419094629474 32.83318922146658 68.2926178995895 H 0.0 **** 0.06
19240 H 52.799845710785775 34.41047170902389 67.703633265899 H 0.0 **** 0.06
19241 C 49.027739006613785 32.71825831568657 119.16448061977515 C 0.0 **** -0.24
19242 H 49.761021743170716 32.848751676597246 119.96056567092477 H 0.0 **** 0.06
19243 H 48.61929414358542 33.68996321309179 118.88354835405669 H 0.0 **** 0.06
19244 H 48.22309825987719 32.07275864314644 119.51435040614653 H 0.0 **** 0.06
19245 H 49.509146715789456 32.263107095609556 118.29928385292216 H 0.0 **** 0.06
19246 C 135.88170128756892 99.44274728148213 41.92404158361222 C 0.0 **** -0.24
19247 H 135.73751463193634 99.64235017447498 40.86284870385015 H 0.0 **** 0.06
19248 H 134.91816159768933 99.22897095889522 42.38724829165204 H 0.0 **** 0.06
19249 H 136.32834910580098 100.31622159607173 42.39998786619282 H 0.0 **** 0.06
19250 H 136.5427779911973 98.58486023991014 42.04611488905715 H 0.0 **** 0.06
19251 C 91.13929248027607 140.126770625565 15.632214903706654 C 0.0 **** -0.24
19252 H 90.72338138773549 139.13477472342265 15.453915707131273 H 0.0 **** 0.06
19253 H 90.58479868443916 140.8629659654277 15.04902575012693 H 0.0 **** 0.06
19254 H 92.18661165443898 140.13990027082772 15.332343927818613 H 0.0 **** 0.06
19255 H 91.06123996043308 140.3682638966292 16.69205181185589 H 0.0 **** 0.06
19256 C 11.772293716527905 148.32317821737462 112.12339004154 C 0.0 **** -0.24
19257 H 12.649173512002278 147.73171473886993 111.85945582099043 H 0.0 **** 0.06
19258 H 11.402873942426275 148.83983864836273 111.23808982186733 H 0.0 **** 0.06
19259 H 12.043487458869528 149.05411611003234 112.88465819874779 H 0.0 **** 0.06
19260 H 10.995279374940012 147.66525156822905 112.51167562551757 H 0.0 **** 0.06
19261 C 38.13835367669128 27.1137223665001 47.81935950349737 C 0.0 **** -0.24
19262 H 39.002526111588296 27.3540264398707 48.437511900327934 H 0.0 **** 0.06
19263 H 38.08047505373963 26.034013694564266 47.67712104809469 H 0.0 **** 0.06
19264 H 38.23690633390984 27.60328363248994 46.85020438478422 H 0.0 **** 0.06
19265 H 37.23131612900053 27.463975197959456 48.312422724166524 H 0.0 **** 0.06
19266 C 148.12507083782518 103.53695167047782 98.08804680043039 C 0.0 **** -0.24
19267 H 147.51392191264517 103.22658133545202 98.93567687166228 H 0.0 **** 0.06
19268 H 149.082359439792 103.91370954355195 98.44910156565874 H 0.0 **** 0.06
19269 H 147.60858433296502 104.32333943293806 97.53726147325189 H 0.0 **** 0.06
19270 H 148.29379683683726 102.68463029723158 97.43055591444275 H 0.0 **** 0.06
19271 C 68.8895314878636 59.9238833642508 118.74165381320539 C 0.0 **** -0.24
19272 H 69.45699445358598 60.83985852967919 118.90241673622414 H 0.0 **** 0.06
19273 H 68.70754185630877 59.79195299064446 117.67476503787499 H 0.0 **** 0.06
19274 H 67.9365381777036 59.989877536234246 119.26678047537798 H 0.0 **** 0.06
19275 H 69.45553263523438 59.074487341345844 119.12212395096795 H 0.0 **** 0.06
19276 C 29.71255039352161 46.93656118311107 51.47131749625265 C 0.0 **** -0.24
19277 H 29.123294923083563 46.39375070481779 50.73198315189853 H 0.0 **** 0.06
19278 H 29.08228248736961 47.18741152870612 52.324919265108065 H 0.0 **** 0.06
19279 H 30.101371797627053 47.851477729095066 51.024514289664125 H 0.0 **** 0.06
19280 H 30.54283768659974 46.31326035916405 51.803010984515595 H 0.0 **** 0.06
19281 C 12.681274890402733 62.105762259827856 136.59214904415697 C 0.0 **** -0.24
19282 H 12.47481653928071 61.17009033813186 136.0712790643715 H 0.0 **** 0.06
19283 H 13.11024194742896 61.8879780512097 137.5713169885789 H 0.0 **** 0.06
19284 H 11.753854576152321 62.66410860022731 136.71747816668366 H 0.0 **** 0.06
19285 H 13.386374604572097 62.697520945781264 136.00937937034203 H 0.0 **** 0.06
19286 C 22.727068367943957 28.74462284549034 33.475908231305795 C 0.0 **** -0.24
19287 H 23.577704652635532 28.57175841230034 32.817816120917 H 0.0 **** 0.06
19288 H 21.809002237739094 28.759690151358 32.887432159416136 H 0.0 **** 0.06
19289 H 22.84960114379345 29.702434462391295 33.983388454381156 H 0.0 **** 0.06
19290 H 22.67145796834336 27.94604715159994 34.215816222041695 H 0.0 **** 0.06
19291 C 61.88749575076838 67.5503336954943 138.1248472274108 C 0.0 **** -0.24
19292 H 61.58957046211293 68.19480545592856 138.95206797598553 H 0.0 **** 0.06
19293 H 60.997526501370714 67.16364767472729 137.6268560691096 H 0.0 **** 0.06
19294 H 62.48080193874739 66.72026132716266 138.5063954678201 H 0.0 **** 0.06
19295 H 62.48080556507523 68.12441213094618 137.41367575001894 H 0.0 **** 0.06
19296 C 39.72118351432556 58.64972035721635 130.80483125570163 C 0.0 **** -0.24
19297 H 40.67824567159522 58.133627043878306 130.87058952042406 H 0.0 **** 0.06
19298 H 38.912835231321736 57.93787024175886 130.97092441353132 H 0.0 **** 0.06
19299 H 39.61555522397512 59.09463274533856 129.8150493911535 H 0.0 **** 0.06
19300 H 39.67710800048778 59.4329471857362 131.5613539279475 H 0.0 **** 0.06
19301 C 75.35840573843711 106.19899637607435 55.10671716916812 C 0.0 **** -0.24
19302 H 74.98553427670167 105.41574470984037 55.76606165645134 H 0.0 **** 0.06
19303 H 76.25662820262258 106.64047248624664 55.53951361804708 H 0.0 **** 0.06
19304 H 74.59571374406417 106.96832360653835 54.98979845350097 H 0.0 **** 0.06
19305 H 75.59688129536146 105.77077207839395 54.13261764631028 H 0.0 **** 0.06
19306 C 94.48046068928576 67.97343546448374 72.05131060272035 C 0.0 **** -0.24
19307 H 94.13822621639343 67.04661891150826 72.51008295461699 H 0.0 **** 0.06
19308 H 95.56169893309513 68.05407798620521 72.15698026648721 H 0.0 **** 0.06
19309 H 94.00206948020784 68.82093774923825 72.5433687839558 H 0.0 **** 0.06
19310 H 94.21766778161972 67.972974259535 70.99294100798016 H 0.0 **** 0.06
19311 C 130.90869082379174 36.244548792254164 81.38020512716325 C 0.0 **** -0.24
19312 H 130.76471087715026 37.31079340429892 81.55362851257797 H 0.0 **** 0.06
19313 H 130.23955216440038 35.912517612062175 80.58636431426865 H 0.0 **** 0.06
19314 H 130.68740732465454 35.69545726649383 82.29580854484949 H 0.0 **** 0.06
19315 H 131.94201861024504 36.06076498170464 81.0876753947792 H 0.0 **** 0.06
19316 C 20.536373933758114 109.31336843973517 125.44258421825629 C 0.0 **** -0.24
19317 H 21.339601964121442 109.49162256179935 124.72882191831025 H 0.0 **** 0.06
19318 H 20.011400460640402 110.24851537273915 125.63950952957492 H 0.0 **** 0.06
19319 H 20.95463632352474 108.92791692667149 126.37231707310161 H 0.0 **** 0.06
19320 H 19.83850276185612 108.5855050344542 125.02928994444022 H 0.0 **** 0.06
19321 C 74.61635849641048 113.51484591842582 14.274690798066018 C 0.0 **** -0.24
19322 H 74.23631663170771 112.71949703613656 14.916818406476324 H 0.0 **** 0.06
19323 H 75.24654835884556 113.0822054426581 13.497480755936436 H 0.0 **** 0.06
19324 H 75.20190415848391 114.21431077566844 14.87113917481659 H 0.0 **** 0.06
19325 H 73.78072701148432 114.04101525216653 13.813995333926158 H 0.0 **** 0.06
19326 C 104.56890987940436 131.75349482678897 122.20501699881325 C 0.0 **** -0.24
19327 H 105.2297046018273 131.10586995222317 121.62848525353681 H 0.0 **** 0.06
19328 H 104.16283280618624 132.52887804224443 121.55471184208326 H 0.0 **** 0.06
19329 H 105.13095332605972 132.2162508104652 123.01570529661316 H 0.0 **** 0.06
19330 H 103.75260781017592 131.1633180207435 122.61924843787253 H 0.0 **** 0.06
19331 C 135.8077061233124 57.73638114247933 9.31945996409911 C 0.0 **** -0.24
19332 H 135.39612814267798 58.30944713214495 8.488589082021008 H 0.0 **** 0.06
19333 H 135.86990647475807 58.371168499079516 10.203618110925845 H 0.0 **** 0.06
19334 H 136.8037526716861 57.37997095700052 9.055468366837374 H 0.0 **** 0.06
19335 H 135.16027087503397 56.88433001117582 9.527510355321397 H 0.0 **** 0.06
19336 C 143.8109384600715 103.53891198241429 94.12192013342137 C 0.0 **** -0.24
19337 H 142.93623286255954 104.14259073117849 94.365671237573 H 0.0 **** 0.06
19338 H 143.83218563929728 102.6549314577248 94.75965165241108 H 0.0 **** 0.06
19339 H 144.71435301528714 104.12586892509073 94.28399459216705 H 0.0 **** 0.06
19340 H 143.75948678534783 103.2327192043741 93.0764789647556 H 0.0 **** 0.06
19341 C 142.94004506479337 0.10821086765908561 27.35003830047316 C 0.0 **** -0.24
19342 H 143.38970491314166 -0.8162004353233243 26.985978840895484 H 0.0 **** 0.06
19343 H 141.88328962209437 0.1274728586159135 27.08333734719048 H 0.0 **** 0.06
19344 H 143.44647054124317 0.9608685563666732 26.897953598270647 H 0.0 **** 0.06
19345 H 143.042512438975 0.1585115426799959 28.434606789560178 H 0.0 **** 0.06
19346 C 135.85974028891363 127.63971060915154 9.83261977416766 C 0.0 **** -0.24
19347 H 135.2473084310038 128.3359669977243 9.258181955507325 H 0.0 **** 0.06
19348 H 136.15198672518503 126.80317056215401 9.196364853240084 H 0.0 **** 0.06
19349 H 135.28531298801923 127.26702114333003 10.681207043277269 H 0.0 **** 0.06
19350 H 136.75165640289114 128.15215809208928 10.193159240329237 H 0.0 **** 0.06
19351 C 10.173590953482972 62.60015213556375 103.34370378831761 C 0.0 **** -0.24
19352 H 11.232385677750472 62.84101654750026 103.44615184282827 H 0.0 **** 0.06
19353 H 9.992622429939956 61.59256810334165 103.71928111626244 H 0.0 **** 0.06
19354 H 9.889677247212717 62.65416465349546 102.29330001168069 H 0.0 **** 0.06
19355 H 9.582366417791377 63.31398611173472 103.91730912956268 H 0.0 **** 0.06
19356 C 137.27145262088757 71.52921132538108 78.00896099279072 C 0.0 **** -0.24
19357 H 136.97692368552012 71.60816249674883 76.96239140156803 H 0.0 **** 0.06
19358 H 136.91486033603502 70.5828535115104 78.41637029226445 H 0.0 **** 0.06
19359 H 136.8356913435506 72.35486968194408 78.57122503917367 H 0.0 **** 0.06
19360 H 138.35785918224872 71.57143849211104 78.08511954274013 H 0.0 **** 0.06
19361 C 25.269580084769757 3.513165376004565 140.65206952646136 C 0.0 **** -0.24
19362 H 26.145417240974098 3.0209419091438576 140.22979733577873 H 0.0 **** 0.06
19363 H 24.62990111423619 3.869602705896341 139.84373309610095 H 0.0 **** 0.06
19364 H 25.587012832221347 4.3575028017344835 141.26355233647695 H 0.0 **** 0.06
19365 H 24.716607039493795 2.804701429789702 141.2675060152885 H 0.0 **** 0.06
19366 C 30.609384453281876 41.24481930349222 24.007499542423965 C 0.0 **** -0.24
19367 H 31.60236838179496 41.47420265509278 24.395934519135096 H 0.0 **** 0.06
19368 H 30.703628305271906 40.724210789572396 23.05410907502602 H 0.0 **** 0.06
19369 H 30.053680170434546 42.171065855463254 23.863664449310455 H 0.0 **** 0.06
19370 H 30.081022785083974 40.60966306741879 24.718286413610812 H 0.0 **** 0.06
19371 C 28.488130235190837 77.3658886655837 76.9037835143304 C 0.0 **** -0.24
19372 H 29.232160916755326 78.11762209448928 76.64173074646402 H 0.0 **** 0.06
19373 H 28.885495850758097 76.71871091146478 77.68574259851957 H 0.0 **** 0.06
19374 H 28.249151359953032 76.76925959698312 76.0238952797807 H 0.0 **** 0.06
19375 H 27.58512895479673 77.86029180994417 77.2632841932753 H 0.0 **** 0.06
19376 C 143.88929527556252 57.32047728202038 84.61258104970841 C 0.0 **** -0.24
19377 H 143.31510760525805 56.55914849360616 84.08441489676287 H 0.0 **** 0.06
19378 H 143.20734936647523 57.99409071973474 85.13028381232164 H 0.0 **** 0.06
19379 H 144.48603560512055 57.88547436986255 83.8969898762868 H 0.0 **** 0.06
19380 H 144.54691221904812 56.84085085426102 85.33747478286571 H 0.0 **** 0.06
19381 C 89.98094431468715 51.94437911543483 149.0067068760022 C 0.0 **** -0.24
19382 H 90.58972113252858 52.7858108290699 149.3395326384456 H 0.0 **** 0.06
19383 H 90.26684534153982 51.66894870108902 147.99059406434878 H 0.0 **** 0.06
19384 H 88.9294642778621 52.22958607001311 149.02380007771495 H 0.0 **** 0.06
19385 H 90.13887562902903 51.09673772465564 149.67295624964459 H 0.0 **** 0.06
19386 C 46.76145169319258 139.61530277627605 15.86646544567553 C 0.0 **** -0.24
19387 H 46.45062901569494 138.96857786329582 15.045899398930565 H 0.0 **** 0.06
19388 H 47.8380772722097 139.77823799640234 15.811922066468163 H 0.0 **** 0.06
19389 H 46.51211695575813 139.14339524385633 16.8164069818623 H 0.0 **** 0.06
19390 H 46.24450466778109 140.57200514980434 15.789694121213735 H 0.0 **** 0.06
19391 C 132.7811942876071 97.98768299228476 47.3807759839805 C 0.0 **** -0.24
19392 H 133.5929796449812 98.5727794812135 46.94819058304509 H 0.0 **** 0.06
19393 H 132.8998355042652 96.94030056500901 47.1019591572593 H 0.0 **** 0.06
19394 H 131.82770277000947 98.35923242872326 47.00515591989591 H 0.0 **** 0.06
19395 H 132.8057736036245 98.08103388013512 48.46610354818304 H 0.0 **** 0.06
19396 C 47.64222128818882 94.74006022828799 13.288064368419413 C 0.0 **** -0.24
19397 H 47.51157356876128 94.17148928519812 14.209351390310644 H 0.0 **** 0.06
19398 H 47.49975739611362 95.80077179313953 13.493703577549695 H 0.0 **** 0.06
19399 H 46.90857472292612 94.41103783698381 12.551722403985707 H 0.0 **** 0.06
19400 H 48.64624625862288 94.57588320266643 12.899326442850594 H 0.0 **** 0.06
19401 C 20.002145158621786 132.68049342175325 110.91491389684292 C 0.0 **** -0.24
19402 H 20.271198944908022 132.0989061695833 111.79569749686759 H 0.0 **** 0.06
19403 H 20.280071882782842 133.72284866733443 111.06879936409184 H 0.0 **** 0.06
19404 H 18.926255543336133 132.61187517136722 110.74816370494413 H 0.0 **** 0.06
19405 H 20.529383521831164 132.28811121681179 110.04472458611924 H 0.0 **** 0.06
19406 C 119.45538234737123 126.54270443271682 99.51368368812533 C 0.0 **** -0.24
19407 H 118.39295332297107 126.32218550155389 99.61195583052323 H 0.0 **** 0.06
19408 H 119.58604266312446 127.59629990449307 99.26669188902206 H 0.0 **** 0.06
19409 H 119.88249093893504 125.92833905324702 98.72209487073825 H 0.0 **** 0.06
19410 H 119.95999781225274 126.32456652448039 100.45528423825517 H 0.0 **** 0.06
19411 C 40.06829793606158 147.2034925125671 144.30708268985828 C 0.0 **** -0.24
19412 H 40.231165013897396 147.80181955379476 145.20336810259758 H 0.0 **** 0.06
19413 H 39.864869854845836 146.1710984368377 144.59161208132687 H 0.0 **** 0.06
19414 H 40.96061370552411 147.2377953917605 143.68055940152072 H 0.0 **** 0.06
19415 H 39.22014719926682 147.6031498746443 143.75279780013756 H 0.0 **** 0.06
19416 C 111.96504351726412 39.24940585302453 12.978440385574807 C 0.0 **** -0.24
19417 H 111.74400238736774 40.3116135666572 13.08542212939279 H 0.0 **** 0.06
19418 H 112.30865760271087 39.05102522786237 11.9622838814049 H 0.0 **** 0.06
19419 H 111.06388651725979 38.66991937220769 13.177332164128337 H 0.0 **** 0.06
19420 H 112.74312798248457 38.96744736038674 13.686969435206606 H 0.0 **** 0.06
19421 C 28.31039445197908 81.9860128860909 16.998045333512245 C 0.0 **** -0.24
19422 H 28.554264379746712 82.55902216203597 16.102953525590117 H 0.0 **** 0.06
19423 H 28.00381548114899 82.66728762716485 17.7922496990305 H 0.0 **** 0.06
19424 H 29.187620170244458 81.42374999261126 17.319667780231995 H 0.0 **** 0.06
19425 H 27.496208833411316 81.29533939131159 16.777037617938355 H 0.0 **** 0.06
19426 C 26.606574601018025 30.859269470793464 57.381681548210366 C 0.0 **** -0.24
19427 H 26.44521346476941 30.29471052672764 56.46278421775304 H 0.0 **** 0.06
19428 H 26.436919695825225 30.210249354874236 58.24121317163227 H 0.0 **** 0.06
19429 H 25.914712865941226 31.700399051365793 57.41774855331278 H 0.0 **** 0.06
19430 H 27.630927434360018 31.231352346491803 57.403340130609166 H 0.0 **** 0.06
19431 C 61.421676681664394 36.61283438899582 83.00418114876146 C 0.0 **** -0.24
19432 H 60.51704646882639 36.03235724946377 82.8204857840874 H 0.0 **** 0.06
19433 H 61.66301347613428 36.58145802980083 84.06676741221582 H 0.0 **** 0.06
19434 H 61.25856215947215 37.64600763401132 82.69861747742658 H 0.0 **** 0.06
19435 H 62.24723157735011 36.190579033523576 82.43148401900595 H 0.0 **** 0.06
19436 C 29.35925256452093 70.35204917197532 77.81742346704975 C 0.0 **** -0.24
19437 H 28.800945944940786 70.97881215477875 77.12220094353927 H 0.0 **** 0.06
19438 H 30.397045638987997 70.28192898267443 77.49054397520906 H 0.0 **** 0.06
19439 H 28.918115816985306 69.3556349319118 77.84203065887742 H 0.0 **** 0.06
19440 H 29.320915088435818 70.79131787725166 78.81359648317509 H 0.0 **** 0.06
19441 C 73.05600426896092 45.33152861252495 20.74556746356697 C 0.0 **** -0.24
19442 H 73.24628652677194 46.16350647232531 20.06734700020513 H 0.0 **** 0.06
19443 H 72.06898399225383 44.91557182498582 20.541961399648898 H 0.0 **** 0.06
19444 H 73.09605420639934 45.686104708446294 21.775851552752385 H 0.0 **** 0.06
19445 H 73.81269235041844 44.560931444342316 20.597109901661554 H 0.0 **** 0.06
19446 C 81.14100302261346 129.51580015597824 143.10812709591332 C 0.0 **** -0.24
19447 H 81.63967931047313 130.44680435928112 143.377731654828 H 0.0 **** 0.06
19448 H 81.04819206663319 128.88379740259126 143.99151101078556 H 0.0 **** 0.06
19449 H 81.7263818542304 128.9969855752599 142.3497442789974 H 0.0 **** 0.06
19450 H 80.1494990656629 129.73691876695332 142.71304362937119 H 0.0 **** 0.06
19451 C 6.001454301500246 0.7757141666492835 33.09498502614572 C 0.0 **** -0.24
19452 H 5.198700465273248 0.45199179110699106 33.75821019256696 H 0.0 **** 0.06
19453 H 6.819383478204173 1.185130148175979 33.68787026050736 H 0.0 **** 0.06
19454 H 5.624932435043064 1.541269516568395 32.4161877128487 H 0.0 **** 0.06
19455 H 6.3607640264520455 -0.07643557019057212 32.518691867519095 H 0.0 **** 0.06
19456 C 45.477159437811 122.88727986074822 18.627976202320013 C 0.0 **** -0.24
19457 H 45.831171689105915 122.62071087102557 17.63221479674661 H 0.0 **** 0.06
19458 H 44.7977015996528 123.7371832742616 18.556235309300348 H 0.0 **** 0.06
19459 H 46.32652974996289 123.15269513191852 19.25787564694727 H 0.0 **** 0.06
19460 H 44.95111411199848 122.03860973623004 19.064874141421654 H 0.0 **** 0.06
19461 C 59.64241888336488 19.14267528043922 54.14638096623861 C 0.0 **** -0.24
19462 H 59.06607699450727 20.06723891967897 54.19325982581634 H 0.0 **** 0.06
19463 H 60.66117869860369 19.366819644348425 53.83034897022736 H 0.0 **** 0.06
19464 H 59.18019943115746 18.462914770098394 53.431046579074064 H 0.0 **** 0.06
19465 H 59.661325440858036 18.677005878895955 55.13207415361691 H 0.0 **** 0.06
19466 C 0.03888758169759399 111.32185550288952 130.7091079841265 C 0.0 **** -0.24
19467 H 0.16512979336542344 110.50876306974683 131.42330056821476 H 0.0 **** 0.06
19468 H -0.9677346256876831 111.73109612984692 130.79878713654972 H 0.0 **** 0.06
19469 H 0.18889032159017916 110.94424771820636 129.6980372669094 H 0.0 **** 0.06
19470 H 0.7688478552413187 112.10459238121442 130.91674825354914 H 0.0 **** 0.06
19471 C 48.14987804179839 79.28045447007446 137.73822973496064 C 0.0 **** -0.24
19472 H 49.17905896723917 79.46503289523065 137.43002701343767 H 0.0 **** 0.06
19473 H 47.80065715997932 80.10931702817696 138.3543410365692 H 0.0 **** 0.06
19474 H 48.10448354712693 78.35555498799637 138.31373020714588 H 0.0 **** 0.06
19475 H 47.517112273850415 79.19046993064318 136.8556444839738 H 0.0 **** 0.06
19476 C 148.97450343207768 137.61269862851591 124.21079884749308 C 0.0 **** -0.24
19477 H 148.61641910143948 137.2466744778979 125.17342880990445 H 0.0 **** 0.06
19478 H 150.05916945935715 137.71893966018962 124.24337128141691 H 0.0 **** 0.06
19479 H 148.51920766306074 138.57990328801355 123.99870127399687 H 0.0 **** 0.06
19480 H 148.7023514553427 136.90360301241145 123.42889719255176 H 0.0 **** 0.06
19481 C 113.01969373204454 57.437548586620295 11.416331666929608 C 0.0 **** -0.24
19482 H 113.81603466670802 58.06460402158535 11.817624691543557 H 0.0 **** 0.06
19483 H 113.42779265266805 56.77774164145106 10.650345656031874 H 0.0 **** 0.06
19484 H 112.2459669182991 58.0682316814742 10.978839810237076 H 0.0 **** 0.06
19485 H 112.5894346003424 56.83993886011805 12.219816681583524 H 0.0 **** 0.06
19486 C 38.83539524117104 127.13618041469365 66.16064502588405 C 0.0 **** -0.24
19487 H 38.757391502926964 128.20393440891476 66.36333266167664 H 0.0 **** 0.06
19488 H 37.8571935898337 126.67077674066908 66.28743022346706 H 0.0 **** 0.06
19489 H 39.545679943721254 126.68488802800663 66.85322592154589 H 0.0 **** 0.06
19490 H 39.179368891075555 126.98436667936701 65.13779255217909 H 0.0 **** 0.06
19491 C 39.187674577994215 12.299030247551087 127.97146485379606 C 0.0 **** -0.24
19492 H 39.042988086957735 11.429496307620326 127.33000632467076 H 0.0 **** 0.06
19493 H 40.224433037048556 12.335244879640385 128.30581179449445 H 0.0 **** 0.06
19494 H 38.52797746310566 12.224812433711321 128.83688265652896 H 0.0 **** 0.06
19495 H 38.953310408732506 13.205734325861954 127.41256801010479 H 0.0 **** 0.06
19496 C 127.67832398913984 101.41671600502652 68.77121601465217 C 0.0 **** -0.24
19497 H 127.89337462794512 101.62570715739932 67.72285613518267 H 0.0 **** 0.06
19498 H 128.14183718064527 102.18077213349386 69.39569360087859 H 0.0 **** 0.06
19499 H 128.08045485926417 100.43819948661184 69.03565638198381 H 0.0 **** 0.06
19500 H 126.60020759255835 101.42206566555178 68.92857504518099 H 0.0 **** 0.06
19501 C 146.1920473728977 69.88725928164918 6.088475198422632 C 0.0 **** -0.24
19502 H 146.28115804757363 68.8349655376886 6.359084995081066 H 0.0 **** 0.06
19503 H 146.85546606490084 70.48101495903387 6.7183349968053925 H 0.0 **** 0.06
19504 H 145.16261913514202 70.21275457810877 6.235566224036912 H 0.0 **** 0.06
19505 H 146.46984132889588 70.01791266720731 5.042492549193476 H 0.0 **** 0.06
19506 C 75.34106204417344 10.116646010651053 46.1074576615589 C 0.0 **** -0.24
19507 H 74.76331770956699 9.623716860121782 45.32595603105065 H 0.0 **** 0.06
19508 H 74.9212528348778 11.104093913332072 46.3016415533767 H 0.0 **** 0.06
19509 H 76.376517526881 10.22056983785729 45.78353752097445 H 0.0 **** 0.06
19510 H 75.3045332214017 9.519898568806148 47.01820437469806 H 0.0 **** 0.06
19511 C 14.09138552689771 42.05000284121526 50.37664758169926 C 0.0 **** -0.24
19512 H 14.005935823421225 41.18896855154492 51.0399565627213 H 0.0 **** 0.06
19513 H 15.08597845117012 42.484997105886336 50.47164423874568 H 0.0 **** 0.06
19514 H 13.341816461911975 42.7930833119287 50.649497591753715 H 0.0 **** 0.06
19515 H 13.92924287484928 41.7312278183217 49.34733436264986 H 0.0 **** 0.06
19516 C 10.521916029191146 104.2155524806859 38.393500544090614 C 0.0 **** -0.24
19517 H 11.068929918106619 103.32987475995891 38.7153067455738 H 0.0 **** 0.06
19518 H 9.693026005982148 103.9171756755566 37.750757099405746 H 0.0 **** 0.06
19519 H 11.191283094026659 104.87487608261556 37.84039329811009 H 0.0 **** 0.06
19520 H 10.134584918315767 104.74031264389946 39.266558301628095 H 0.0 **** 0.06
19521 C 10.753449787801003 132.51409496993008 66.34855219749738 C 0.0 **** -0.24
19522 H 11.840955897557762 132.44678628096432 66.36402672683428 H 0.0 **** 0.06
19523 H 10.39214375243796 132.79057172894355 67.33916768368536 H 0.0 **** 0.06
19524 H 10.333833778819383 131.5481488263996 66.06485519046132 H 0.0 **** 0.06
19525 H 10.446769719369229 133.26903123321006 65.62489479128666 H 0.0 **** 0.06
19526 C 101.95748847626678 129.27923223972545 99.52692582750137 C 0.0 **** -0.24
19527 H 102.03618186017624 129.9894525321828 100.35082935311371 H 0.0 **** 0.06
19528 H 102.58904948984318 128.414662527871 99.7313038689498 H 0.0 **** 0.06
19529 H 102.28223772835898 129.75786361750156 98.60325359278525 H 0.0 **** 0.06
19530 H 100.92107847432476 128.9563115155731 99.42339788195648 H 0.0 **** 0.06
19531 C 2.1948798193469123 99.55019501887406 103.00007496764657 C 0.0 **** -0.24
19532 H 1.1109904588555573 99.62865965389132 103.08437584615224 H 0.0 **** 0.06
19533 H 2.5652532301735462 98.83828228903191 103.73827976042374 H 0.0 **** 0.06
19534 H 2.6452874620260616 100.52655570674692 103.17876532936516 H 0.0 **** 0.06
19535 H 2.4565319107378834 99.20560771797571 101.9991527461871 H 0.0 **** 0.06
19536 C 80.50159189575473 48.559775632003934 113.85738990298977 C 0.0 **** -0.24
19537 H 80.39618540902049 49.59895903488011 113.54555370079738 H 0.0 **** 0.06
19538 H 80.16478086540123 47.90372497939107 113.0536589667506 H 0.0 **** 0.06
19539 H 79.89617748354935 48.38430127242718 114.74745994238175 H 0.0 **** 0.06
19540 H 81.54750898467991 48.352238659434605 114.0830984020184 H 0.0 **** 0.06
19541 C 8.089894155081481 19.5948707965411 97.25721012624433 C 0.0 **** -0.24
19542 H 8.961957631152607 20.076060461669044 96.81504922436903 H 0.0 **** 0.06
19543 H 8.166420132929488 19.63121651859811 98.34435330073876 H 0.0 **** 0.06
19544 H 8.043223902935352 18.5561390469573 96.93029313293107 H 0.0 **** 0.06
19545 H 7.187217156096125 20.117241621881647 96.93936037741344 H 0.0 **** 0.06
19546 C 59.20753780413608 134.3478519128495 132.6440763916648 C 0.0 **** -0.24
19547 H 59.18463163553659 134.9611031679286 131.7429533654453 H 0.0 **** 0.06
19548 H 58.81194925258774 134.9213308262874 133.4832254666297 H 0.0 **** 0.06
19549 H 60.235699146128184 134.05508887916002 132.85723255613274 H 0.0 **** 0.06
19550 H 58.599073032323844 133.45675754172444 132.4934447701472 H 0.0 **** 0.06
19551 C 34.35858058726254 103.51458832712161 126.61202159052574 C 0.0 **** -0.24
19552 H 35.3947074211288 103.7882808304394 126.41425642107413 H 0.0 **** 0.06
19553 H 34.132516794308486 102.56937282137689 126.11901421301604 H 0.0 **** 0.06
19554 H 33.69763323099477 104.29236005965909 126.2273759514488 H 0.0 **** 0.06
19555 H 34.20876552953035 103.4094212788436 127.68590974777337 H 0.0 **** 0.06
19556 C 82.02920183827409 54.344879477996045 82.45636191061627 C 0.0 **** -0.24
19557 H 82.98054199512968 54.81396467947451 82.20531716606533 H 0.0 **** 0.06
19558 H 82.08504060845694 53.27663774689998 82.24658554085184 H 0.0 **** 0.06
19559 H 81.23502941495732 54.79233987446102 81.85925487156052 H 0.0 **** 0.06
19560 H 81.81818720489865 54.49749552644201 83.51472179466711 H 0.0 **** 0.06
19561 C 107.73613339021422 118.01905972054847 132.7848484620757 C 0.0 **** -0.24
19562 H 108.09441197983539 118.85008546155102 133.3933681381722 H 0.0 **** 0.06
19563 H 108.31225619368338 117.1235939071919 133.0181658000257 H 0.0 **** 0.06
19564 H 107.85513661865194 118.26392183001339 131.72963604554684 H 0.0 **** 0.06
19565 H 106.68241306223287 117.83961636425177 132.99993928278732 H 0.0 **** 0.06
19566 C 120.606226848614 35.98400659905506 99.45061863094602 C 0.0 **** -0.24
19567 H 119.55685822857171 36.13561818326745 99.70382786621988 H 0.0 **** 0.06
19568 H 120.76605009673645 36.236677819625626 98.40235183631393 H 0.0 **** 0.06
19569 H 120.87282121382574 34.941481380672755 99.61829099563346 H 0.0 **** 0.06
19570 H 121.22703207424698 36.62409087774408 100.07794509425608 H 0.0 **** 0.06
19571 C 110.27038550990117 13.827838428436962 103.74733426560694 C 0.0 **** -0.24
19572 H 110.17484882785818 13.523575463106425 104.78982613045777 H 0.0 **** 0.06
19573 H 111.29362968731742 14.15551257614004 103.5579812388758 H 0.0 **** 0.06
19574 H 109.5822966341387 14.648956267061664 103.54439411064443 H 0.0 **** 0.06
19575 H 110.03231186849241 12.984972734390965 103.09955359576968 H 0.0 **** 0.06
19576 C 85.83507908755844 47.17674507170631 122.73931985979179 C 0.0 **** -0.24
19577 H 86.53817885649981 47.50959205480143 121.97544021977252 H 0.0 **** 0.06
19578 H 86.2377738312782 46.299396282616215 123.24424904669588 H 0.0 **** 0.06
19579 H 84.88345926879072 46.92374507550244 122.27126513359887 H 0.0 **** 0.06
19580 H 85.68257866359941 47.976567563726746 123.46391428582591 H 0.0 **** 0.06
19581 C 144.49015109816446 27.20621568219326 129.75478321500245 C 0.0 **** -0.24
19582 H 143.85089394445072 27.774134273625634 129.07954013788495 H 0.0 **** 0.06
19583 H 145.2549147345042 26.68421444023221 129.17923149175195 H 0.0 **** 0.06
19584 H 143.88755254795254 26.4795675163262 130.30078500657575 H 0.0 **** 0.06
19585 H 144.96789268814743 27.8861413967297 130.46155867547495 H 0.0 **** 0.06
19586 C 49.92426347691837 83.58005958220593 104.34456058199753 C 0.0 **** -0.24
19587 H 49.09395701818005 84.27436116043472 104.47189074789544 H 0.0 **** 0.06
19588 H 50.080482923893484 83.02563745912806 105.26982166406124 H 0.0 **** 0.06
19589 H 50.82771531420785 84.13703219066949 104.09694038439953 H 0.0 **** 0.06
19590 H 49.69417634497165 82.88352817768708 103.53749772997439 H 0.0 **** 0.06
19591 C 81.22521070807773 146.25719530084004 146.32782425291037 C 0.0 **** -0.24
19592 H 80.72091862458053 145.77026982082197 147.1623501935111 H 0.0 **** 0.06
19593 H 81.20911438854615 145.59905053945454 145.45868623664848 H 0.0 **** 0.06
19594 H 82.25799216083861 146.47053029507913 146.60292809665125 H 0.0 **** 0.06
19595 H 80.71329398993983 147.1890381385888 146.08865973977205 H 0.0 **** 0.06
19596 C 65.9905424024868 62.69568317927528 95.8293437381405 C 0.0 **** -0.24
19597 H 65.3435330114736 63.1299990888848 96.59178326967023 H 0.0 **** 0.06
19598 H 67.03155162057371 62.90368636675794 96.07487160687921 H 0.0 **** 0.06
19599 H 65.75102247339508 63.13180214244505 94.85877689813559 H 0.0 **** 0.06
19600 H 65.83386805004122 61.61764468222714 95.79178537468204 H 0.0 **** 0.06
19601 C 128.159443276986 39.309704245097976 125.7004246175226 C 0.0 **** -0.24
19602 H 127.82657467280492 40.27629016078828 126.07875337406304 H 0.0 **** 0.06
19603 H 127.31932888266275 38.79372419828002 125.236280398747 H 0.0 **** 0.06
19604 H 128.54364859497244 38.709998993776196 126.52613788736751 H 0.0 **** 0.06
19605 H 128.94782380729868 39.46028622034055 124.96290262201158 H 0.0 **** 0.06
19606 C 17.535601518162736 66.68717455067511 0.5635318006889349 C 0.0 **** -0.24
19607 H 18.56645579944319 67.01886586425644 0.44152447591247324 H 0.0 **** 0.06
19608 H 17.447250003683592 66.10364509890184 1.4801925285233608 H 0.0 **** 0.06
19609 H 17.250320802791265 66.07039731537165 -0.2894830220762117 H 0.0 **** 0.06
19610 H 16.87822630709698 67.55503118549389 0.6195691985910514 H 0.0 **** 0.06
19611 C 36.520084577115774 122.2133899175505 60.61964577427261 C 0.0 **** -0.24
19612 H 35.995056985249136 121.35805436414313 61.044587643850534 H 0.0 **** 0.06
19613 H 36.56322308115325 122.11058827942969 59.535098681155915 H 0.0 **** 0.06
19614 H 37.53265813453494 122.25285886642638 61.021490875483465 H 0.0 **** 0.06
19615 H 35.990507564133196 123.13011608736855 60.87745145943795 H 0.0 **** 0.06
19616 C 37.059045238042785 144.1572565756883 117.42155880494971 C 0.0 **** -0.24
19617 H 37.76115028344981 143.36889289156335 117.15052433464854 H 0.0 **** 0.06
19618 H 37.60042816706596 145.09278269233047 117.5658776555353 H 0.0 **** 0.06
19619 H 36.54794452375546 143.88712782307138 118.34579849891651 H 0.0 **** 0.06
19620 H 36.32587944688942 144.28074607882752 116.62438143745322 H 0.0 **** 0.06
19621 C 114.83350128225966 80.89674319013582 61.353585428961196 C 0.0 **** -0.24
19622 H 113.94380369252771 81.27637311933418 60.852238483121496 H 0.0 **** 0.06
19623 H 114.57539788979129 80.00875817895778 61.93071431096122 H 0.0 **** 0.06
19624 H 115.22855370628854 81.66262494473571 62.022088425555296 H 0.0 **** 0.06
19625 H 115.58774751221993 80.64008412213789 60.609234532312925 H 0.0 **** 0.06
19626 C 55.716694522087636 75.87003340462378 64.13487261539245 C 0.0 **** -0.24
19627 H 56.244471611242574 75.16717762117095 64.7800405012363 H 0.0 **** 0.06
19628 H 54.995582546238865 75.32956231216627 63.52236794613957 H 0.0 **** 0.06
19629 H 56.432786268773015 76.3785652788676 63.49044389563028 H 0.0 **** 0.06
19630 H 55.19423273881986 76.60371486974576 64.7487998737984 H 0.0 **** 0.06
19631 C 80.82402141415514 58.966242243397204 35.9874310147417 C 0.0 **** -0.24
19632 H 79.78114536326154 58.72391813322119 36.1945109310162 H 0.0 **** 0.06
19633 H 80.89344635472264 59.4891367194825 35.03378484727821 H 0.0 **** 0.06
19634 H 81.40765539754705 58.045508685265986 35.941142132804146 H 0.0 **** 0.06
19635 H 81.21376673825256 59.60331805264369 36.78185565413534 H 0.0 **** 0.06
19636 C 128.14142114851342 139.91538360420327 90.15121664501743 C 0.0 **** -0.24
19637 H 127.92084115152927 140.7819659235141 89.52785636717209 H 0.0 **** 0.06
19638 H 127.50837047884556 139.9365183295455 91.03877041115521 H 0.0 **** 0.06
19639 H 129.18913197377123 139.93998087294477 90.44989785156355 H 0.0 **** 0.06
19640 H 127.9459797718859 139.00363420690175 89.58743196935092 H 0.0 **** 0.06
19641 C 143.512307571493 58.01541138924186 144.6976473614381 C 0.0 **** -0.24
19642 H 143.3283535566839 56.944184208899856 144.7738949743806 H 0.0 **** 0.06
19643 H 144.5646092876727 58.18873519101206 144.47468681659876 H 0.0 **** 0.06
19644 H 143.25691990346567 58.49554140532162 145.6424673455884 H 0.0 **** 0.06
19645 H 142.89762135806032 58.4328794312046 143.90050323601213 H 0.0 **** 0.06
19646 C 92.11173486049765 53.63463601379617 29.591134938440263 C 0.0 **** -0.24
19647 H 93.04438452482384 53.324072393140526 30.062516247857985 H 0.0 **** 0.06
19648 H 91.71529320512892 54.50672393440229 30.111235082794423 H 0.0 **** 0.06
19649 H 91.38984916715705 52.820138552961026 29.643550445283296 H 0.0 **** 0.06
19650 H 92.2990903771026 53.88784874066161 28.546880770633067 H 0.0 **** 0.06
19651 C 5.64647289732315 140.12979172040536 7.750258845736035 C 0.0 **** -0.24
19652 H 5.41940004660367 139.3894804325547 8.516377338400495 H 0.0 **** 0.06
19653 H 6.4867508351253775 140.74330397308407 8.075866279205805 H 0.0 **** 0.06
19654 H 4.774981838418881 140.76425580792767 7.588418973075683 H 0.0 **** 0.06
19655 H 5.905201597292006 139.62344636296652 6.820622732912327 H 0.0 **** 0.06
19656 C 58.26739346188455 93.74921548100477 4.348770855655168 C 0.0 **** -0.24
19657 H 58.513656695869486 92.74571327943838 4.695462686773606 H 0.0 **** 0.06
19658 H 57.34088708594203 93.71853485119746 3.775497697254803 H 0.0 **** 0.06
19659 H 59.07424121483318 94.12336195694382 3.7187918139301175 H 0.0 **** 0.06
19660 H 58.14119960936628 94.40956024117813 5.20772629952484 H 0.0 **** 0.06
19661 C 87.58030538834473 64.10364853461991 134.12840707830804 C 0.0 **** -0.24
19662 H 87.77563114105689 63.07448881171818 134.43059182040867 H 0.0 **** 0.06
19663 H 86.51766628384976 64.31945331260174 134.23960022725257 H 0.0 **** 0.06
19664 H 87.87163771094411 64.23681499626684 133.08608242177425 H 0.0 **** 0.06
19665 H 88.15715886673974 64.78155654573338 134.75715763292794 H 0.0 **** 0.06
19666 C 25.425438219196423 115.58892654000847 82.34301325783244 C 0.0 **** -0.24
19667 H 25.60596215031822 116.63394500046498 82.09410171401474 H 0.0 **** 0.06
19668 H 26.365542992627667 115.11631288519625 82.62774442350972 H 0.0 **** 0.06
19669 H 25.0077015021553 115.07580230319927 81.47649144220925 H 0.0 **** 0.06
19670 H 24.721692502467107 115.5294594930077 83.17420167059798 H 0.0 **** 0.06
19671 C 62.487057377508904 90.5847604731336 26.549624735201775 C 0.0 **** -0.24
19672 H 62.93993904260108 90.14229566425763 25.661782062172932 H 0.0 **** 0.06
19673 H 63.117457556456486 90.38437187478127 27.41677844674504 H 0.0 **** 0.06
19674 H 61.50109192684738 90.15047298367975 26.70892293780915 H 0.0 **** 0.06
19675 H 62.392997875144374 91.66152231631582 26.41051611248622 H 0.0 **** 0.06
19676 C 123.15114432682469 143.09151814243526 1.963878945915532 C 0.0 **** -0.24
19677 H 123.5303030651466 142.1276158689451 2.302478297115268 H 0.0 **** 0.06
19678 H 123.9287182182116 143.61208573236527 1.406576835999502 H 0.0 **** 0.06
19679 H 122.85976024139848 143.68986059622577 2.8271854445693236 H 0.0 **** 0.06
19680 H 122.28437128846775 142.93437278659027 1.320825003957573 H 0.0 **** 0.06
19681 C 103.5948922376803 64.27916623434233 130.28444733254565 C 0.0 **** -0.24
19682 H 103.64145848792406 64.85006512749251 129.35698653648126 H 0.0 **** 0.06
19683 H 103.30678677944006 63.25062144272525 130.06263566982227 H 0.0 **** 0.06
19684 H 102.85886113392301 64.72781808852295 130.9514212478948 H 0.0 **** 0.06
19685 H 104.57404895593696 64.2868259836322 130.76435770989355 H 0.0 **** 0.06
19686 C 69.10263379529715 124.2525351484764 15.625376952624322 C 0.0 **** -0.24
19687 H 69.64790287314116 125.12634623159755 15.983930094906555 H 0.0 **** 0.06
19688 H 69.61369374809192 123.83651465232674 14.75769145680249 H 0.0 **** 0.06
19689 H 68.0906834854 124.5464073502522 15.345839478876428 H 0.0 **** 0.06
19690 H 69.05824726345452 123.50307516241668 16.416315692715557 H 0.0 **** 0.06
19691 C 119.54636813606176 22.72758162130353 121.80007554073443 C 0.0 **** -0.24
19692 H 118.49888780360168 22.873178177572612 121.53677140778477 H 0.0 **** 0.06
19693 H 119.98015321593603 23.679478276303144 122.10799725579561 H 0.0 **** 0.06
19694 H 120.0880158318402 22.343370788385613 120.93578375581113 H 0.0 **** 0.06
19695 H 119.6185842154038 22.012981492584004 122.62086115882538 H 0.0 **** 0.06
19696 C 56.87221134966428 65.90368844062264 85.01286630582055 C 0.0 **** -0.24
19697 H 56.69457222368078 64.91981644969431 85.44685907421172 H 0.0 **** 0.06
19698 H 57.20607645547595 66.58929718697686 85.79232461614416 H 0.0 **** 0.06
19699 H 55.95024939822312 66.27839601842469 84.56998390762209 H 0.0 **** 0.06
19700 H 57.640304032631704 65.82762791468704 84.24284427250095 H 0.0 **** 0.06
19701 C 18.408150200048 47.070175882099136 130.90835802571561 C 0.0 **** -0.24
19702 H 17.782681987244814 46.901258558826044 130.0322496378205 H 0.0 **** 0.06
19703 H 18.360091190241775 48.12298481611782 131.19025027417197 H 0.0 **** 0.06
19704 H 19.439131536930773 46.80296194404468 130.67542735884135 H 0.0 **** 0.06
19705 H 18.05105067670837 46.45545198277557 131.73447662100884 H 0.0 **** 0.06
19706 C 121.25591152767262 87.81820654989428 79.9487461167354 C 0.0 **** -0.24
19707 H 121.46973213190321 87.66950822243518 81.0075185506977 H 0.0 **** 0.06
19708 H 122.01608161960368 87.31506199070168 79.35055593398512 H 0.0 **** 0.06
19709 H 121.26300585886625 88.88508864742039 79.72397563377025 H 0.0 **** 0.06
19710 H 120.27570126213183 87.40389592216536 79.71510326019042 H 0.0 **** 0.06
19711 C 132.22217532796978 140.94520427535357 9.030984711455517 C 0.0 **** -0.24
19712 H 132.03135556179748 141.72786219299567 9.765253657411733 H 0.0 **** 0.06
19713 H 131.3115579313854 140.75196665692923 8.463308139918013 H 0.0 **** 0.06
19714 H 132.53238509774295 140.0346631637441 9.543036705793043 H 0.0 **** 0.06
19715 H 133.01190587404923 141.2678396964829 8.35302268624963 H 0.0 **** 0.06
19716 C 123.69464579865227 141.66930584440104 38.76460416779439 C 0.0 **** -0.24
19717 H 123.0896168636347 142.5713582784359 38.86521700419924 H 0.0 **** 0.06
19718 H 124.20596703396318 141.68027252779626 37.80188519495438 H 0.0 **** 0.06
19719 H 123.05016956269388 140.79163590097212 38.82455729385251 H 0.0 **** 0.06
19720 H 124.43018912403646 141.63458158911484 39.56803662467273 H 0.0 **** 0.06
19721 C 86.45726355364194 35.84478030520397 84.71106640508705 C 0.0 **** -0.24
19722 H 86.01190315644833 36.141103480335886 85.66096334116867 H 0.0 **** 0.06
19723 H 87.54060315618388 35.77881242622526 84.82226042521535 H 0.0 **** 0.06
19724 H 86.21497028236216 36.58556741895404 83.94914193195746 H 0.0 **** 0.06
19725 H 86.06250853795636 34.87399214512587 84.41198899852591 H 0.0 **** 0.06
19726 C 125.61840626739598 118.1579066397495 93.37591369248148 C 0.0 **** -0.24
19727 H 125.93005097350895 117.43936608526737 92.61781044495544 H 0.0 **** 0.06
19728 H 126.20192414038358 119.07291807944465 93.2719066857926 H 0.0 **** 0.06
19729 H 125.78222744267593 117.73380907440948 94.36716361259141 H 0.0 **** 0.06
19730 H 124.56001464860789 118.38559088796747 93.24840073220125 H 0.0 **** 0.06
19731 C 45.8633593422024 36.18963880078852 117.73449556786007 C 0.0 **** -0.24
19732 H 45.82637726362347 36.59354376859583 116.72332468951394 H 0.0 **** 0.06
19733 H 45.659439139284814 35.11928121689651 117.70651924678283 H 0.0 **** 0.06
19734 H 45.11384148135784 36.68632836080044 118.35176373648757 H 0.0 **** 0.06
19735 H 46.853510893488334 36.360200150520484 118.15788810315887 H 0.0 **** 0.06
19736 C 77.33030110852961 128.7748819875925 142.66761774055126 C 0.0 **** -0.24
19737 H 76.57095126489146 129.5268571313294 142.8808750075185 H 0.0 **** 0.06
19738 H 78.04517010898454 129.17508040100884 141.94784828557945 H 0.0 **** 0.06
19739 H 76.85500873085229 127.88642525477479 142.25222604279455 H 0.0 **** 0.06
19740 H 77.85058522647894 128.5121313065541 143.58817787741648 H 0.0 **** 0.06
19741 C 66.57815936389619 107.0274356966416 26.39690317309538 C 0.0 **** -0.24
19742 H 66.17327511792377 106.6206836239994 25.47110085975652 H 0.0 **** 0.06
19743 H 66.20513807894974 108.04101515119025 26.541997188880316 H 0.0 **** 0.06
19744 H 67.66701194182366 107.04563956667054 26.339551562233055 H 0.0 **** 0.06
19745 H 66.26941606066288 106.40195641872005 27.233991996709904 H 0.0 **** 0.06
19746 C 150.0066454877976 47.40305401235287 123.79637653408923 C 0.0 **** -0.24
19747 H 151.0310181400883 47.76593437299931 123.87647005700649 H 0.0 **** 0.06
19748 H 149.58295514933744 47.28566848097722 124.79360048328812 H 0.0 **** 0.06
19749 H 150.00137683691867 46.440897287133225 123.2834806499626 H 0.0 **** 0.06
19750 H 149.41136670501413 48.119387003259476 123.22974727497012 H 0.0 **** 0.06
19751 C 62.50720394489835 135.46470447016122 27.13911159300895 C 0.0 **** -0.24
19752 H 61.44977674927978 135.53431335668327 26.884115887995257 H 0.0 **** 0.06
19753 H 63.068850542455635 136.19664928503812 26.55936825197439 H 0.0 **** 0.06
19754 H 62.87065656441979 134.46279614432734 26.910711980438876 H 0.0 **** 0.06
19755 H 62.63718049665121 135.66523888576802 28.20291258598658 H 0.0 **** 0.06
19756 C 60.39106814881447 95.28924517040647 129.2674621024549 C 0.0 **** -0.24
19757 H 60.42755897237612 95.04841472809517 130.32951980902325 H 0.0 **** 0.06
19758 H 61.369077461221465 95.1084511448204 128.82053389875173 H 0.0 **** 0.06
19759 H 60.1217285557921 96.33832629978556 129.1423442551417 H 0.0 **** 0.06
19760 H 59.64618401685384 94.66272588091712 128.77847270123354 H 0.0 **** 0.06
19761 C 129.43728269051513 15.651769250211458 123.67524710419471 C 0.0 **** -0.24
19762 H 130.07474623729036 14.798150413226438 123.44625896504184 H 0.0 **** 0.06
19763 H 129.9756603079308 16.57520454076817 123.45973301453407 H 0.0 **** 0.06
19764 H 129.16319804759635 15.628258618804097 124.7297717969341 H 0.0 **** 0.06
19765 H 128.53567126395527 15.60599181777576 123.06392086689138 H 0.0 **** 0.06
19766 C 51.234770670464314 104.48060507104331 93.69029599582151 C 0.0 **** -0.24
19767 H 50.93620151154613 104.32903919368711 92.65294083474495 H 0.0 **** 0.06
19768 H 50.811108711269014 103.68939787359561 94.31038249654654 H 0.0 **** 0.06
19769 H 50.86969536071757 105.44793345295857 94.03573674602639 H 0.0 **** 0.06
19770 H 52.32268629077558 104.45536601527023 93.7625256632651 H 0.0 **** 0.06
19771 C 9.833086676329117 96.09075517277564 45.64817351962125 C 0.0 **** -0.24
19772 H 8.983182330355078 96.40243510971258 45.04035139632617 H 0.0 **** 0.06
19773 H 10.758654431355126 96.2937480462449 45.1090457760381 H 0.0 **** 0.06
19774 H 9.758717136873997 95.02280721977243 45.85418526431556 H 0.0 **** 0.06
19775 H 9.829017514041652 96.64393639047863 46.58759860029875 H 0.0 **** 0.06
19776 C 9.383454691005767 62.23095413816314 30.646392675262348 C 0.0 **** -0.24
19777 H 9.022171618120439 63.12847575031289 31.148704322643596 H 0.0 **** 0.06
19778 H 8.66433449766734 61.422954654908665 30.785048750783517 H 0.0 **** 0.06
19779 H 10.34419904386911 61.93909528132332 31.07033627275183 H 0.0 **** 0.06
19780 H 9.503223327405976 62.43283555201512 29.582815792254735 H 0.0 **** 0.06
19781 C 87.87858227231439 44.63163014143498 6.377930934384835 C 0.0 **** -0.24
19782 H 87.96542886991665 45.20290024289085 7.302477658159603 H 0.0 **** 0.06
19783 H 86.89016707603203 44.78805558527654 5.946405793382269 H 0.0 **** 0.06
19784 H 88.01782878858369 43.571947913979955 6.593366519022879 H 0.0 **** 0.06
19785 H 88.64025658855786 44.96222988000562 5.672888045652144 H 0.0 **** 0.06
19786 C 44.51513024927661 73.24535680045334 136.09668683035247 C 0.0 **** -0.24
19787 H 44.63397881216261 72.61369701592038 136.97760252271982 H 0.0 **** 0.06
19788 H 43.695509409411926 72.8669180761145 135.48630803444811 H 0.0 **** 0.06
19789 H 45.43756766336243 73.23505287038645 135.51643902594998 H 0.0 **** 0.06
19790 H 44.29493669408403 74.26617834666268 136.41035494116457 H 0.0 **** 0.06
19791 C 61.95192488123446 60.732529223827754 74.65020595014866 C 0.0 **** -0.24
19792 H 62.17732149978559 61.045288151175384 73.63063608842234 H 0.0 **** 0.06
19793 H 62.87694864067399 60.66782006764507 75.22341469489803 H 0.0 **** 0.06
19794 H 61.46671372204473 59.75694991223136 74.63090306101233 H 0.0 **** 0.06
19795 H 61.28638418100161 61.46044529859043 75.1134739322899 H 0.0 **** 0.06
19796 C 22.402885798053774 69.37892583475798 112.33911422421308 C 0.0 **** -0.24
19797 H 21.550689957721943 68.88055498982942 112.80050691172148 H 0.0 **** 0.06
19798 H 23.32649181054586 68.92353221004912 112.69598121953986 H 0.0 **** 0.06
19799 H 22.3926040078386 70.43587385931313 112.60555867773591 H 0.0 **** 0.06
19800 H 22.34184474908824 69.27687423156497 111.25571820407508 H 0.0 **** 0.06
19801 C 3.587238414632516 33.101368631552454 145.08490119196998 C 0.0 **** -0.24
19802 H 3.2821614729925557 32.58471657187776 144.1737490261064 H 0.0 **** 0.06
19803 H 4.193342142947586 32.43242671379888 145.69597194922966 H 0.0 **** 0.06
19804 H 2.7020776158306994 33.40320542362444 145.64376284964203 H 0.0 **** 0.06
19805 H 4.1701348203114925 33.984366024763766 144.82267252897884 H 0.0 **** 0.06
19806 C 138.23018956088256 118.0078630664449 96.34547191421048 C 0.0 **** -0.24
19807 H 138.9442783792164 117.40170796044545 96.90314712407604 H 0.0 **** 0.06
19808 H 137.25162552007978 117.94397997910094 96.82204706898351 H 0.0 **** 0.06
19809 H 138.16135187460546 117.63859209600626 95.32273550146458 H 0.0 **** 0.06
19810 H 138.5627094614765 119.04540694592545 96.33683117456421 H 0.0 **** 0.06
19811 C 144.07875611322467 94.85236777856079 108.73337512022492 C 0.0 **** -0.24
19812 H 144.09640777866997 95.38558141046008 109.68414540956452 H 0.0 **** 0.06
19813 H 144.50446859781883 93.85756111446182 108.86685578049251 H 0.0 **** 0.06
19814 H 144.66357511443638 95.40244470945862 107.99731294434223 H 0.0 **** 0.06
19815 H 143.04934559703946 94.76368546491273 108.38675298405552 H 0.0 **** 0.06
19816 C 51.42245949434539 59.490334304972436 90.18744164288252 C 0.0 **** -0.24
19817 H 51.56839291144338 59.79098861539873 89.1502748860192 H 0.0 **** 0.06
19818 H 50.40449707883944 59.121543862729254 90.31863106269537 H 0.0 **** 0.06
19819 H 51.58468594039688 60.34844707928488 90.83939755896243 H 0.0 **** 0.06
19820 H 52.130509324297165 58.70185721450375 90.44063872927595 H 0.0 **** 0.06
19821 C 50.98896514034084 48.97554191562023 144.13561240753202 C 0.0 **** -0.24
19822 H 50.8189266404936 49.81959457828074 143.46812199544402 H 0.0 **** 0.06
19823 H 50.043189730693854 48.46813218735397 144.32835255004306 H 0.0 **** 0.06
19824 H 51.406833204684204 49.33478562324444 145.07688802093176 H 0.0 **** 0.06
19825 H 51.686487790913276 48.27914945283274 143.6703381132287 H 0.0 **** 0.06
19826 C 109.23817118897112 36.03647230843179 10.32005942358154 C 0.0 **** -0.24
19827 H 110.13653613552226 35.419407786022234 10.350014464674302 H 0.0 **** 0.06
19828 H 108.41293968714196 35.45679996259411 9.906350073335432 H 0.0 **** 0.06
19829 H 109.41868209546367 36.91027118675561 9.694693304234477 H 0.0 **** 0.06
19830 H 108.98506310972839 36.35901011616574 11.330425781369286 H 0.0 **** 0.06
19831 C 125.21113758840947 53.30064427849223 78.98732046862412 C 0.0 **** -0.24
19832 H 124.27346273621431 53.818050836708125 79.19033478048159 H 0.0 **** 0.06
19833 H 125.44736187819088 52.63813789466394 79.81934680178799 H 0.0 **** 0.06
19834 H 126.01026475926717 54.03249906588226 78.8655631156789 H 0.0 **** 0.06
19835 H 125.11193245905982 52.716329742040756 78.07319558432272 H 0.0 **** 0.06
19836 C 67.62864181161636 77.55949455623698 40.67732142096236 C 0.0 **** -0.24
19837 H 66.84548703528671 77.10095586524801 40.073579465701584 H 0.0 **** 0.06
19838 H 67.92421576694366 76.87242011962579 41.47076724250206 H 0.0 **** 0.06
19839 H 67.25305588205418 78.48322684047858 41.11798384945655 H 0.0 **** 0.06
19840 H 68.4900340038133 77.78127516742737 40.04787220989033 H 0.0 **** 0.06
19841 C 15.57361442921956 31.459399259326972 64.88579458017387 C 0.0 **** -0.24
19842 H 16.6349330545342 31.51128271535177 64.64090603150146 H 0.0 **** 0.06
19843 H 15.453220485444831 31.39473930800662 65.96727175458227 H 0.0 **** 0.06
19844 H 15.135765583377975 30.57893436211549 64.41680482338023 H 0.0 **** 0.06
19845 H 15.07284646124333 32.354941114127996 64.51757763161163 H 0.0 **** 0.06
19846 C 97.10632683378483 12.09971678159718 140.35100271432506 C 0.0 **** -0.24
19847 H 96.39899725535204 12.093096678884933 141.18010796301303 H 0.0 **** 0.06
19848 H 97.5085925530328 13.104717539637477 140.22572210711505 H 0.0 **** 0.06
19849 H 96.59683795835986 11.795065673952593 139.43715029149604 H 0.0 **** 0.06
19850 H 97.9195607487143 11.405118357969002 140.5626135156528 H 0.0 **** 0.06
19851 C 68.69135294470827 26.52636921334431 103.63296709855787 C 0.0 **** -0.24
19852 H 69.3695385137638 26.314940315465094 104.45907278286639 H 0.0 **** 0.06
19853 H 67.89234093429236 25.784417420938098 103.61974345679776 H 0.0 **** 0.06
19854 H 69.24099681573817 26.485731332149555 102.69221331246388 H 0.0 **** 0.06
19855 H 68.2625355150387 27.520387784824493 103.76083884210341 H 0.0 **** 0.06
19856 C 88.93881750895237 37.580849622721466 52.93331227557911 C 0.0 **** -0.24
19857 H 88.25129728945083 38.177377650114266 53.53306868358652 H 0.0 **** 0.06
19858 H 88.38704196900372 37.07927176297848 52.138114251278296 H 0.0 **** 0.06
19859 H 89.42116556284067 36.83695833524093 53.56742235435297 H 0.0 **** 0.06
19860 H 89.69712711538239 38.23113871291381 52.49579636892523 H 0.0 **** 0.06
19861 C 17.66237911106478 26.19472236359195 45.8827016798252 C 0.0 **** -0.24
19862 H 18.698672789502865 25.864872106568328 45.80704643788927 H 0.0 **** 0.06
19863 H 17.613764983968053 27.273515629944995 45.732357864086595 H 0.0 **** 0.06
19864 H 17.274427693998888 25.946620768793593 46.869933024810535 H 0.0 **** 0.06
19865 H 17.065380444910744 25.693876774892203 45.12022427574993 H 0.0 **** 0.06
19866 C 109.56815500091241 13.252335643005125 118.51238304076627 C 0.0 **** -0.24
19867 H 110.64290594908604 13.073627511272576 118.54552346247773 H 0.0 **** 0.06
19868 H 109.36697156780363 14.143654528337038 117.91771811748286 H 0.0 **** 0.06
19869 H 109.19360552831316 13.398417986426125 119.52607094393527 H 0.0 **** 0.06
19870 H 109.07129112386204 12.393383947485034 118.06135670459581 H 0.0 **** 0.06
19871 C 139.90259872620618 35.88272918529168 94.99885438555523 C 0.0 **** -0.24
19872 H 140.74619610298666 35.23563613052846 94.76143812948158 H 0.0 **** 0.06
19873 H 139.15789490660754 35.81523803445958 94.20452528351663 H 0.0 **** 0.06
19874 H 140.2484499619235 36.913338565144386 95.08680757719239 H 0.0 **** 0.06
19875 H 139.45651122371478 35.56674019237437 95.94220395168784 H 0.0 **** 0.06
19876 C 45.62806299240738 112.99051680515049 4.229300783676024 C 0.0 **** -0.24
19877 H 44.78590245995059 112.56823909785294 3.680242778840409 H 0.0 **** 0.06
19878 H 46.17310274870306 112.19041921695947 4.729759554990352 H 0.0 **** 0.06
19879 H 45.2592810788078 113.69884686463826 4.970703430930826 H 0.0 **** 0.06
19880 H 46.29238881007795 113.50485957912139 3.53396255733162 H 0.0 **** 0.06
19881 C 108.12147973055842 45.488669967560796 102.94430466659101 C 0.0 **** -0.24
19882 H 107.90950208137183 45.58534724916967 104.00906354029586 H 0.0 **** 0.06
19883 H 108.06440018475483 46.46918243249337 102.4708506122503 H 0.0 **** 0.06
19884 H 107.39062999496538 44.821237055600676 102.48790303569845 H 0.0 **** 0.06
19885 H 109.12248303103566 45.0780465846418 102.8096185961408 H 0.0 **** 0.06
19886 C 103.96085834779413 8.314964633415642 18.643500394809877 C 0.0 **** -0.24
19887 H 103.33719934019254 8.265614653153143 17.750655771131207 H 0.0 **** 0.06
19888 H 103.3273138601318 8.442228089405809 19.521752584023837 H 0.0 **** 0.06
19889 H 104.64369882457507 9.16082183207817 18.561965266894177 H 0.0 **** 0.06
19890 H 104.53373275762581 7.39242036840583 18.738117929403053 H 0.0 **** 0.06
19891 C 137.93611538044038 19.033364339984246 60.88088488088579 C 0.0 **** -0.24
19892 H 138.18702714545867 18.00326995613665 61.13199898620445 H 0.0 **** 0.06
19893 H 136.85243754282314 19.139195120477325 60.82351153174744 H 0.0 **** 0.06
19894 H 138.37852340239178 19.29109120918588 59.918490213500604 H 0.0 **** 0.06
19895 H 138.32582463710187 19.700024162087914 61.65028975968022 H 0.0 **** 0.06
19896 C 34.06274142025177 100.77520018307793 55.67804564502845 C 0.0 **** -0.24
19897 H 33.89849752344173 101.8267574469908 55.44110730804215 H 0.0 **** 0.06
19898 H 35.13235874992296 100.58889359652537 55.77632138093415 H 0.0 **** 0.06
19899 H 33.656684654562355 100.15475168008798 54.87913198146285 H 0.0 **** 0.06
19900 H 33.562891329862794 100.53255804247837 56.615845285552695 H 0.0 **** 0.06
19901 C 122.98707809782094 82.93498330994133 23.693407735645906 C 0.0 **** -0.24
19902 H 124.02499576620907 83.26544407672222 23.716365060670853 H 0.0 **** 0.06
19903 H 122.93757353030777 81.91964048078235 23.29955276858982 H 0.0 **** 0.06
19904 H 122.40679775145598 83.60148866144401 23.05560854580807 H 0.0 **** 0.06
19905 H 122.57819547697467 82.95269415876402 24.70433941601283 H 0.0 **** 0.06
19906 C 79.81366954875088 25.410436954145922 136.42821010335197 C 0.0 **** -0.24
19907 H 80.06296236217494 25.86503074634797 137.38732588522095 H 0.0 **** 0.06
19908 H 79.7485616029885 26.186328807432545 135.66518632658898 H 0.0 **** 0.06
19909 H 78.85586471556587 24.896770212177927 136.50792111221412 H 0.0 **** 0.06
19910 H 80.58903810316187 24.694597840868795 136.1533983668339 H 0.0 **** 0.06
19911 C 37.99735194047234 6.809072446663805 89.21100428771352 C 0.0 **** -0.24
19912 H 38.69182419531108 6.419911709281763 88.46620115609775 H 0.0 **** 0.06
19913 H 37.4523577316233 5.981228288862525 89.66550497656297 H 0.0 **** 0.06
19914 H 37.29363964824686 7.488200491579391 88.73051332774709 H 0.0 **** 0.06
19915 H 38.552392789676766 7.34540683027646 89.98007420332075 H 0.0 **** 0.06
19916 C 20.784243686036795 104.48488528797209 143.05620793446658 C 0.0 **** -0.24
19917 H 20.9048502163391 105.51535397314497 143.39025408938218 H 0.0 **** 0.06
19918 H 19.734036944356696 104.20289398647328 143.12238302660643 H 0.0 **** 0.06
19919 H 21.379149840999368 103.8264186195499 143.68983071561584 H 0.0 **** 0.06
19920 H 21.121856312418494 104.39618598943521 142.02323714057036 H 0.0 **** 0.06
19921 C 132.35701765519636 65.52004627210412 11.362907709395884 C 0.0 **** -0.24
19922 H 131.9225766755997 64.62402918289716 11.804771770162027 H 0.0 **** 0.06
19923 H 131.67990999429642 66.36191576669724 11.50913517460328 H 0.0 **** 0.06
19924 H 132.51281641652227 65.35952482997604 10.296351064259902 H 0.0 **** 0.06
19925 H 133.3127675343669 65.734715308846 11.841372828558391 H 0.0 **** 0.06
19926 C 78.77612004420709 6.553157340902203 9.204490622849782 C 0.0 **** -0.24
19927 H 79.44438679260382 7.411994293331361 9.263415230518085 H 0.0 **** 0.06
19928 H 78.3292520898712 6.508676792419209 8.212088013812327 H 0.0 **** 0.06
19929 H 77.98986865973278 6.652614732351651 9.953557716635821 H 0.0 **** 0.06
19930 H 79.34141381992946 5.640358224367333 9.391086937016752 H 0.0 **** 0.06
19931 C 25.14355509762092 29.42864558128626 68.49692573915314 C 0.0 **** -0.24
19932 H 25.549142827160296 29.771683670466757 67.54553889993718 H 0.0 **** 0.06
19933 H 24.067717358283602 29.603950949479156 68.51796590209489 H 0.0 **** 0.06
19934 H 25.617386859903036 29.97594020277812 69.31245598378729 H 0.0 **** 0.06
19935 H 25.339878315480036 28.362792537254535 68.61271417693621 H 0.0 **** 0.06
19936 C 28.00408693866872 123.18848898294601 74.29765628686101 C 0.0 **** -0.24
19937 H 27.575921202004196 123.5390869210924 73.35899519620348 H 0.0 **** 0.06
19938 H 28.99259552785219 123.63018966763326 74.43285557201722 H 0.0 **** 0.06
19939 H 28.09124709766205 122.10177716495332 74.2736343775926 H 0.0 **** 0.06
19940 H 27.358197719207993 123.48344803399044 75.12482722955781 H 0.0 **** 0.06
19941 C 21.67689076588198 109.15996352727397 65.18071900185225 C 0.0 **** -0.24
19942 H 22.291788913702135 108.86294145461251 64.33107693373466 H 0.0 **** 0.06
19943 H 20.631279099657434 108.93217559371512 64.969358057107 H 0.0 **** 0.06
19944 H 21.788434237453544 110.23044835295012 65.3527793730047 H 0.0 **** 0.06
19945 H 21.99638543371617 108.61387059272694 66.06835020382812 H 0.0 **** 0.06
19946 C 124.96377593703961 29.49249329894881 107.88782397185493 C 0.0 **** -0.24
19947 H 125.84196709143228 28.928951318678664 108.20266553518125 H 0.0 **** 0.06
19948 H 124.07788224833088 28.8632185670563 107.9792471977406 H 0.0 **** 0.06
19949 H 125.08452566538962 29.803902342688986 106.85075388912115 H 0.0 **** 0.06
19950 H 124.85102004745592 30.372506133672182 108.5212693241023 H 0.0 **** 0.06
19951 C 87.99061543003239 55.966317735729376 16.572369103865043 C 0.0 **** -0.24
19952 H 87.59548216503987 55.488492513172275 17.468787109029762 H 0.0 **** 0.06
19953 H 88.47566490761761 55.21777489480843 15.94594823953554 H 0.0 **** 0.06
19954 H 88.71590702702991 56.72839601879497 16.856779474253045 H 0.0 **** 0.06
19955 H 87.17468543768086 56.430404992601524 16.01862300996487 H 0.0 **** 0.06
19956 C 1.5862699754704295 116.00098754756912 70.23722741222079 C 0.0 **** -0.24
19957 H 1.0358636746158822 115.27501690000052 70.83682232338133 H 0.0 **** 0.06
19958 H 0.950818930190394 116.86496395819735 70.04015064834927 H 0.0 **** 0.06
19959 H 1.8810214988741336 115.54298575954176 69.29240074523048 H 0.0 **** 0.06
19960 H 2.4758869133029293 116.31932473447141 70.7793579964388 H 0.0 **** 0.06
19961 C 44.301792019865104 81.81207465895967 136.13172937265298 C 0.0 **** -0.24
19962 H 44.930496439402816 82.69442997371476 136.01419930031338 H 0.0 **** 0.06
19963 H 43.25548005065343 82.09342361602349 136.01725897532893 H 0.0 **** 0.06
19964 H 44.45782705971072 81.3850453088282 137.12197603606717 H 0.0 **** 0.06
19965 H 44.56561034907185 81.07565842567448 135.37253999533905 H 0.0 **** 0.06
19966 C 90.3417163793633 92.25221203144754 26.39645974346933 C 0.0 **** -0.24
19967 H 89.69453335611188 91.46093486265373 26.015460879565012 H 0.0 **** 0.06
19968 H 91.38280507656937 91.94113755278296 26.312201429791635 H 0.0 **** 0.06
19969 H 90.1018287305416 92.44534372756927 27.44219515875767 H 0.0 **** 0.06
19970 H 90.18468050075208 93.16010157759125 25.814214277760193 H 0.0 **** 0.06
19971 C 45.24997469056994 110.62176168413332 78.31139859030912 C 0.0 **** -0.24
19972 H 44.19989411321964 110.91232666793239 78.34079671599406 H 0.0 **** 0.06
19973 H 45.849648727647136 111.46259089414251 77.96362315652999 H 0.0 **** 0.06
19974 H 45.374740563462495 109.77892996241626 77.63098498189913 H 0.0 **** 0.06
19975 H 45.57437362721129 110.332793767778 79.31073153349286 H 0.0 **** 0.06
19976 C 69.05633179242045 9.88504057172446 0.9921813075385515 C 0.0 **** -0.24
19977 H 69.66399825437031 10.072616791441362 1.8770118504370927 H 0.0 **** 0.06
19978 H 68.39269509070101 10.733352089424955 0.8212912178859142 H 0.0 **** 0.06
19979 H 68.46218459960079 8.984038297915902 1.1435169791247262 H 0.0 **** 0.06
19980 H 69.70528842923727 9.750867047601218 0.12728697917690113 H 0.0 **** 0.06
19981 C 145.4296812130304 86.73830849474395 36.940945592114915 C 0.0 **** -0.24
19982 H 144.8112007775465 86.7229699633676 36.043438394208536 H 0.0 **** 0.06
19983 H 144.84946778985204 87.13473270092544 37.77408046060407 H 0.0 **** 0.06
19984 H 146.3014860491167 87.37078526508633 36.77082216705767 H 0.0 **** 0.06
19985 H 145.75663200153684 85.72490792708501 37.17403776052157 H 0.0 **** 0.06
19986 C 127.65857716852105 105.75597310263154 52.43479419210013 C 0.0 **** -0.24
19987 H 126.92125732827344 105.41380993154851 51.70885115932077 H 0.0 **** 0.06
19988 H 128.31220269025857 106.49327575760302 51.96786166592722 H 0.0 **** 0.06
19989 H 128.25115587594183 104.90840517228307 52.77747118346764 H 0.0 **** 0.06
19990 H 127.1475508545239 106.2094521681311 53.28443726336633 H 0.0 **** 0.06
19991 C 142.9960929850538 116.4707569317793 105.59933896503982 C 0.0 **** -0.24
19992 H 143.36736205550818 116.20238559981107 104.61013494176557 H 0.0 **** 0.06
19993 H 142.12956816091867 115.85397688213772 105.84038798546102 H 0.0 **** 0.06
19994 H 142.70796456685324 117.52134503723266 105.6070255626724 H 0.0 **** 0.06
19995 H 143.7789832680269 116.30210441935407 106.33916302551556 H 0.0 **** 0.06
19996 C 78.2713098705366 122.51894192728956 16.770039265595805 C 0.0 **** -0.24
19997 H 79.19143957560313 122.77496210277191 16.244919780924903 H 0.0 **** 0.06
19998 H 78.34544470420501 121.5020784310589 17.15659996029776 H 0.0 **** 0.06
19999 H 77.42982646263656 122.58555540613422 16.080198114529537 H 0.0 **** 0.06
20000 H 78.11983186781853 123.2120168430829 17.596716353649796 H 0.0 **** 0.06
20001 C 53.25296716327509 114.56055543853277 5.516186728513503 C 0.0 **** -0.24
20002 H 52.234159529320664 114.94574471230395 5.468597544505911 H 0.0 **** 0.06
20003 H 53.67282984921093 114.52052525936942 4.511714057079757 H 0.0 **** 0.06
20004 H 53.241770826413614 113.55847534978658 5.9455672611252055 H 0.0 **** 0.06
20005 H 53.860516986435684 115.21626974000885 6.139778297673502 H 0.0 **** 0.06
20006 C 85.60102511292125 46.27652835740088 92.92937811064112 C 0.0 **** -0.24
20007 H 86.17981151852511 45.8419946416858 93.74495168927602 H 0.0 **** 0.06
20008 H 85.99727802954332 47.26317388814374 92.68770946304409 H 0.0 **** 0.06
20009 H 84.55749069453104 46.36736921447675 93.23357442943588 H 0.0 **** 0.06
20010 H 85.66919455492392 45.632555201594585 92.05220024349242 H 0.0 **** 0.06
20011 C 61.051933989682 120.60040624596782 77.62003976091862 C 0.0 **** -0.24
20012 H 61.4001968888183 119.56814948393692 77.6429174139555 H 0.0 **** 0.06
20013 H 59.967787307752616 120.61546439516341 77.51148248730317 H 0.0 **** 0.06
20014 H 61.50992456470365 121.11960964615359 76.77837181417374 H 0.0 **** 0.06
20015 H 61.33065839162438 121.0979191970692 78.54842492799662 H 0.0 **** 0.06
20016 C 122.20902255478909 23.98460883205422 78.09124126065879 C 0.0 **** -0.24
20017 H 123.24901999289249 23.73587561775838 78.30689299108172 H 0.0 **** 0.06
20018 H 121.58751207923486 23.099991902248576 78.23241889273231 H 0.0 **** 0.06
20019 H 122.12433298721267 24.329073666195143 77.06085438294808 H 0.0 **** 0.06
20020 H 121.87791236212932 24.774193434598487 78.76631214946161 H 0.0 **** 0.06
20021 C 65.80104496016996 58.67389409952615 146.20904939541168 C 0.0 **** -0.24
20022 H 65.04796451818771 57.886626596296765 146.23499532623262 H 0.0 **** 0.06
20023 H 66.1441081211001 58.881934689385886 147.22255187019869 H 0.0 **** 0.06
20024 H 65.36782534077211 59.57635573631495 145.77861680713158 H 0.0 **** 0.06
20025 H 66.64468071317535 58.34948927519861 145.59846134180822 H 0.0 **** 0.06
20026 C 15.421415074699127 0.5582130050499075 114.00180181322374 C 0.0 **** -0.24
20027 H 16.109219436579593 -0.018737401821653066 113.38332474446138 H 0.0 **** 0.06
20028 H 14.414816122729633 0.48642711016114504 113.59005211661209 H 0.0 **** 0.06
20029 H 15.73604328822367 1.601856290444573 114.0162335261805 H 0.0 **** 0.06
20030 H 15.428569486313421 0.16306196965243203 115.01770828683802 H 0.0 **** 0.06
20031 C 36.00220776088182 36.252135205242666 86.04526858232435 C 0.0 **** -0.24
20032 H 36.45583403013117 35.94261616941117 86.98683411844104 H 0.0 **** 0.06
20033 H 36.555097933392545 37.09827169928025 85.63687785542112 H 0.0 **** 0.06
20034 H 34.96642118850295 36.5432893666063 86.21917920869686 H 0.0 **** 0.06
20035 H 36.033439772668146 35.42298409337249 85.33868138652002 H 0.0 **** 0.06
20036 C 144.06885799118572 13.829133940303109 81.7026339423027 C 0.0 **** -0.24
20037 H 143.7981627956185 14.837207426124507 82.01357504819637 H 0.0 **** 0.06
20038 H 143.9996238677519 13.15452567415008 82.55646404064765 H 0.0 **** 0.06
20039 H 145.09043901988665 13.8278769776135 81.32048977753001 H 0.0 **** 0.06
20040 H 143.3881879516312 13.49600750538687 80.91956719133742 H 0.0 **** 0.06
20041 C 138.38425758342333 86.87941251428603 133.4172387587237 C 0.0 **** -0.24
20042 H 139.05265840958728 86.02033408963395 133.48400043135354 H 0.0 **** 0.06
20043 H 138.54340411145057 87.38957139766964 132.46743258582853 H 0.0 **** 0.06
20044 H 138.59247870994676 87.5658146305021 134.23776332791425 H 0.0 **** 0.06
20045 H 137.3506423853536 86.54111891278994 133.4805988263307 H 0.0 **** 0.06
20046 C 107.49316564301854 133.47241357291418 78.13965324499955 C 0.0 **** -0.24
20047 H 106.6858438017535 132.83307988174641 78.50002172733397 H 0.0 **** 0.06
20048 H 108.36408162153084 133.35415229631005 78.78415080399705 H 0.0 **** 0.06
20049 H 107.16646374578609 134.5117365063206 78.15550128202452 H 0.0 **** 0.06
20050 H 107.75322673687747 133.18834831227338 77.12044099878389 H 0.0 **** 0.06
20051 C 79.12313495711398 107.17701865123043 47.7767366643468 C 0.0 **** -0.24
20052 H 78.4551903510707 107.86036011001907 47.2526556349694 H 0.0 **** 0.06
20053 H 79.53616522076362 107.67456993772846 48.65496456819346 H 0.0 **** 0.06
20054 H 79.93452688869368 106.88115392597238 47.111820370446324 H 0.0 **** 0.06
20055 H 78.56698716530025 106.29336136225508 48.08761745376647 H 0.0 **** 0.06
20056 C 112.95024143243495 64.16268618966016 127.68776657692356 C 0.0 **** -0.24
20057 H 112.09989147431781 63.78565733865179 128.25692975020996 H 0.0 **** 0.06
20058 H 112.83593258759095 65.23599817935481 127.53321439953541 H 0.0 **** 0.06
20059 H 112.99241797114632 63.65957937918124 126.7221428758628 H 0.0 **** 0.06
20060 H 113.8709108166878 63.97081076414989 128.23863333246226 H 0.0 **** 0.06
20061 C 144.98949252267937 120.91213897190136 114.31848889595628 C 0.0 **** -0.24
20062 H 146.03361446968768 121.22177773287035 114.36121679653971 H 0.0 **** 0.06
20063 H 144.79691426342637 120.41354766011574 113.3686853421967 H 0.0 **** 0.06
20064 H 144.34715561434345 121.78929730391366 114.4044835928772 H 0.0 **** 0.06
20065 H 144.77977448366408 120.22602470144125 115.13896621368335 H 0.0 **** 0.06
20066 C 33.68776770195916 101.8642771454569 114.88993464945217 C 0.0 **** -0.24
20067 H 33.7878019759413 101.79056965148781 115.97242520412526 H 0.0 **** 0.06
20068 H 33.054952447872935 102.71642311302898 114.64090732791423 H 0.0 **** 0.06
20069 H 33.236282478397584 100.95014484557595 114.50331888945557 H 0.0 **** 0.06
20070 H 34.67270586009034 101.99996080602807 114.44184281018742 H 0.0 **** 0.06
20071 C 71.92864687361583 51.22642689014167 43.70870236921931 C 0.0 **** -0.24
20072 H 70.96255119715886 50.72927889347041 43.797079428080394 H 0.0 **** 0.06
20073 H 72.46541823436068 50.82581314143317 42.84836252948563 H 0.0 **** 0.06
20074 H 72.51033194818324 51.052516226925945 44.613616186023535 H 0.0 **** 0.06
20075 H 71.77505597101148 52.29742714580921 43.575564170257195 H 0.0 **** 0.06
20076 C 27.989570181682424 3.0428308648020845 130.24380571121839 C 0.0 **** -0.24
20077 H 28.893776742671854 3.375458475468861 129.73425900794754 H 0.0 **** 0.06
20078 H 27.486979716932588 3.9020798590190964 130.688763578127 H 0.0 **** 0.06
20079 H 28.253773358513854 2.330954251826455 131.02459363592388 H 0.0 **** 0.06
20080 H 27.323438728184833 2.5638316894371656 129.52563150449106 H 0.0 **** 0.06
20081 C 20.207978958888226 100.46117798759077 6.676405449280253 C 0.0 **** -0.24
20082 H 20.025281765784854 99.62764006670608 7.354268073734346 H 0.0 **** 0.06
20083 H 20.45875949263135 101.35096712710425 7.2542738694937725 H 0.0 **** 0.06
20084 H 19.312628947663512 100.65286739946639 6.085033306702485 H 0.0 **** 0.06
20085 H 21.036782997008473 100.21401002294756 6.012245540481274 H 0.0 **** 0.06
20086 C 7.9074930369900756 48.60413105682929 136.30268455565567 C 0.0 **** -0.24
20087 H 8.320752127386385 49.59881232836423 136.13767076722536 H 0.0 **** 0.06
20088 H 6.946887620347326 48.68931193161254 136.81078389510228 H 0.0 **** 0.06
20089 H 8.594155614604233 48.02302746543856 136.91860388512302 H 0.0 **** 0.06
20090 H 7.768051711309994 48.10453573787598 135.34314655325196 H 0.0 **** 0.06
20091 C 48.18860701923349 113.43326853934651 136.4372517162261 C 0.0 **** -0.24
20092 H 48.33340373420715 112.36231463494418 136.29757671989566 H 0.0 **** 0.06
20093 H 48.92819712554483 113.97851163961657 135.8508722138964 H 0.0 **** 0.06
20094 H 48.30517252662686 113.68096047148852 137.49192969693465 H 0.0 **** 0.06
20095 H 47.18719372147147 113.70986264554286 136.10696759185 H 0.0 **** 0.06
20096 C 75.89416590108605 132.4826399827101 65.94641090907493 C 0.0 **** -0.24
20097 H 75.18648695942854 131.93968415468402 65.31987601777413 H 0.0 **** 0.06
20098 H 75.45624689461967 132.64565497642417 66.93110402591515 H 0.0 **** 0.06
20099 H 76.12466555984865 133.44278488277055 65.48577968078513 H 0.0 **** 0.06
20100 H 76.80981162816931 131.8990824049936 66.04767778362772 H 0.0 **** 0.06
20101 C 46.02441226070793 127.40328964476865 95.2193231875036 C 0.0 **** -0.24
20102 H 44.97865309958857 127.60845884280778 95.44989180817899 H 0.0 **** 0.06
20103 H 46.18840183170272 127.51520538968857 94.14704999001673 H 0.0 **** 0.06
20104 H 46.269465729502144 126.38513542537872 95.52096577585645 H 0.0 **** 0.06
20105 H 46.65922732514713 128.1058499061271 95.75978911438116 H 0.0 **** 0.06
20106 C 55.851013267380495 65.44548166102872 103.07427655977521 C 0.0 **** -0.24
20107 H 55.89601023626972 64.35676987335528 103.05293674198047 H 0.0 **** 0.06
20108 H 56.065289877761245 65.79750167098109 104.0837006306903 H 0.0 **** 0.06
20109 H 54.85492809115368 65.77349292902647 102.7791912031232 H 0.0 **** 0.06
20110 H 56.58749144458534 65.8536558042065 102.3825553555199 H 0.0 **** 0.06
20111 C 68.6478200175037 115.45621667704505 84.94305413229772 C 0.0 **** -0.24
20112 H 68.82480874571092 114.98772482529473 85.91143828954566 H 0.0 **** 0.06
20113 H 69.55359616044734 115.96979046935233 84.61805553997993 H 0.0 **** 0.06
20114 H 67.83421258419418 116.17663936395361 85.03251145195074 H 0.0 **** 0.06
20115 H 68.37988967858814 114.6925442819681 84.21323410482502 H 0.0 **** 0.06
20116 C 29.93046641436674 98.27622345566242 59.680505533444105 C 0.0 **** -0.24
20117 H 30.68766770236072 97.49818153690886 59.59087063032865 H 0.0 **** 0.06
20118 H 29.859940742267952 98.82451103789099 58.74133604754685 H 0.0 **** 0.06
20119 H 30.206288315452802 98.9610246771514 60.482382111981465 H 0.0 **** 0.06
20120 H 28.966348167569777 97.82009496322038 59.908530405053014 H 0.0 **** 0.06
20121 C 109.09074031837672 14.059784414936075 0.43407870515892455 C 0.0 **** -0.24
20122 H 108.41512384108161 13.615724551399637 -0.29740042583221893 H 0.0 **** 0.06
20123 H 109.53381598957019 13.27193385204032 1.0440278497359579 H 0.0 **** 0.06
20124 H 108.53492156547624 14.745579877302191 1.0736985852185263 H 0.0 **** 0.06
20125 H 109.87994190987762 14.604581623868569 -0.08475591157626639 H 0.0 **** 0.06
20126 C 67.62006161458459 4.4642857529179025 112.04618323255414 C 0.0 **** -0.24
20127 H 67.78418158300957 5.530752596578537 111.88881225110947 H 0.0 **** 0.06
20128 H 68.51094951795352 4.022379570430985 112.49358259638524 H 0.0 **** 0.06
20129 H 67.41574863104739 3.9836179124891657 111.08985269962358 H 0.0 **** 0.06
20130 H 66.77037797406501 4.323270955656454 112.71331888465812 H 0.0 **** 0.06
20131 C 28.473338944333364 68.02200535823151 134.59890804169007 C 0.0 **** -0.24
20132 H 29.49258489568094 68.30446554970744 134.86479233964286 H 0.0 **** 0.06
20133 H 28.25056712676728 67.03639534749982 135.00682357686486 H 0.0 **** 0.06
20134 H 28.374707669193484 67.99806569603251 133.5136466687932 H 0.0 **** 0.06
20135 H 27.7761023370277 68.7521968649603 135.01047089544122 H 0.0 **** 0.06
20136 C 9.55681534376673 59.89838386044019 11.83252680901552 C 0.0 **** -0.24
20137 H 9.788977577697928 60.916293744971654 12.147014771499073 H 0.0 **** 0.06
20138 H 8.481707484116505 59.800796312666506 11.681380360717242 H 0.0 **** 0.06
20139 H 9.88140516832378 59.19844886680622 12.602755962886647 H 0.0 **** 0.06
20140 H 10.07684483256888 59.67880247666989 10.899697319483494 H 0.0 **** 0.06
20141 C 74.2007362448391 114.88698843496763 18.493999842737054 C 0.0 **** -0.24
20142 H 73.7852346785711 114.90142999393373 17.48711587677991 H 0.0 **** 0.06
20143 H 74.39465678551846 115.90893284396111 18.82177412548731 H 0.0 **** 0.06
20144 H 75.13312475670523 114.3224177948959 18.493627700884787 H 0.0 **** 0.06
20145 H 73.49158137150883 114.41567576123828 19.173609413811477 H 0.0 **** 0.06
20146 C 96.81963571757925 101.95930560473799 85.95392984549997 C 0.0 **** -0.24
20147 H 97.58713390089974 101.96541612601668 85.18014326375592 H 0.0 **** 0.06
20148 H 95.91943160110304 101.47782152034519 85.5698580195095 H 0.0 **** 0.06
20149 H 96.58888531021395 102.98392053504155 86.24517024529518 H 0.0 **** 0.06
20150 H 97.18381098768177 101.40859933814428 86.8217042947023 H 0.0 **** 0.06
20151 C 119.8975001176537 78.3713534866788 125.50551428846316 C 0.0 **** -0.24
20152 H 120.64590443055339 78.45562423521324 124.71765966825117 H 0.0 **** 0.06
20153 H 120.19783099881796 77.59411841327372 126.20892350212662 H 0.0 **** 0.06
20154 H 118.93451107616848 78.11204259721794 125.06604365412645 H 0.0 **** 0.06
20155 H 119.81389927555016 79.3230597949237 126.02970267441057 H 0.0 **** 0.06
20156 C 111.86382275099096 5.805575192451556 94.39530125282874 C 0.0 **** -0.24
20157 H 112.6982363369708 6.505847553854892 94.42647901205642 H 0.0 **** 0.06
20158 H 112.23846881873958 4.789410443707425 94.51435575811288 H 0.0 **** 0.06
20159 H 111.34984565938866 5.8950407357736765 93.43803955137082 H 0.0 **** 0.06
20160 H 111.16822628775152 6.03432262827684 95.20386400387149 H 0.0 **** 0.06
20161 C 64.04040278852689 83.49406520583801 116.06516668366858 C 0.0 **** -0.24
20162 H 64.42224741932053 84.48959718911986 116.29409522192508 H 0.0 **** 0.06
20163 H 63.78306921191698 82.9824272529943 116.99286196657071 H 0.0 **** 0.06
20164 H 64.80430808736104 82.92553518041241 115.53554818139143 H 0.0 **** 0.06
20165 H 63.151732019145385 83.58160438479919 115.43938902969866 H 0.0 **** 0.06
20166 C 94.66972934686953 82.33701694492942 32.08184657136519 C 0.0 **** -0.24
20167 H 93.66462182847982 81.98337313565602 31.848997976047684 H 0.0 **** 0.06
20168 H 94.63494416799523 83.40043070476028 32.31766352270958 H 0.0 **** 0.06
20169 H 95.31921845826656 82.17542823975154 31.220690069473477 H 0.0 **** 0.06
20170 H 95.05915151615147 81.78644877389041 32.938207212541045 H 0.0 **** 0.06
20171 C 138.25955268696362 117.72623079497176 74.18037636182899 C 0.0 **** -0.24
20172 H 138.6830189199816 118.72072952112593 74.03401319014803 H 0.0 **** 0.06
20173 H 138.17431289963392 117.22301322425538 73.21694459956485 H 0.0 **** 0.06
20174 H 137.27238135387165 117.81520948828329 74.63405580849988 H 0.0 **** 0.06
20175 H 138.9102733777383 117.14765776534703 74.8365290409375 H 0.0 **** 0.06
20176 C 141.12425133637288 130.5943318335141 109.38238003242144 C 0.0 **** -0.24
20177 H 140.86666741375748 130.58040982970516 108.32414417863559 H 0.0 **** 0.06
20178 H 142.17554729007202 130.8614608539854 109.49681536551235 H 0.0 **** 0.06
20179 H 140.9516853726076 129.60747622629938 109.81094677654484 H 0.0 **** 0.06
20180 H 140.50445464417564 131.32768550402784 109.89731002921401 H 0.0 **** 0.06
20181 C 72.45164163192378 26.68410148423223 25.444843979055975 C 0.0 **** -0.24
20182 H 71.9219979171278 27.4701038217852 24.906726578532954 H 0.0 **** 0.06
20183 H 73.07254413711406 27.13063576502963 26.221526475638925 H 0.0 **** 0.06
20184 H 73.08150555023366 26.129862403339274 24.749370794347 H 0.0 **** 0.06
20185 H 71.72961736059216 26.006900451740798 25.900024339517188 H 0.0 **** 0.06
20186 C 33.9462052311128 149.80020247642798 48.24356768414759 C 0.0 **** -0.24
20187 H 33.56967101709003 150.80133210334026 48.037822997576654 H 0.0 **** 0.06
20188 H 33.201724082086486 149.24241238564582 48.81328303847499 H 0.0 **** 0.06
20189 H 34.86810249458159 149.87003731699127 48.81991477754809 H 0.0 **** 0.06
20190 H 34.14404996321255 149.28550387844118 47.30301448486492 H 0.0 **** 0.06
20191 C 39.119632655246704 128.6149941909267 142.98910053138076 C 0.0 **** -0.24
20192 H 39.778869977892 129.15375555874618 143.66977653904902 H 0.0 **** 0.06
20193 H 38.41805529942533 129.31400936397813 142.53436602911768 H 0.0 **** 0.06
20194 H 38.56758786135302 127.8555304850372 143.54367238854024 H 0.0 **** 0.06
20195 H 39.71345789969786 128.1364582655316 142.21096147241164 H 0.0 **** 0.06
20196 C 45.74736069935996 110.69229846995204 16.256649939890877 C 0.0 **** -0.24
20197 H 46.124762003780745 110.56319270572295 17.27018256223667 H 0.0 **** 0.06
20198 H 45.659144297507396 109.71814178937616 15.774632151318912 H 0.0 **** 0.06
20199 H 46.43625446685574 111.31797943871693 15.689184359543418 H 0.0 **** 0.06
20200 H 44.76756591678037 111.16993114148492 16.291574780397383 H 0.0 **** 0.06
20201 C 91.29244438931609 56.17541953893894 101.66713144073657 C 0.0 **** -0.24
20202 H 92.04009912428616 55.42394377302094 101.41685361552891 H 0.0 **** 0.06
20203 H 91.2952788779499 56.34567251844666 102.7445489249501 H 0.0 **** 0.06
20204 H 90.30717889277133 55.82527028809088 101.35697512514245 H 0.0 **** 0.06
20205 H 91.52592181965855 57.10714435056079 101.15123835782343 H 0.0 **** 0.06
20206 C 124.5196311040169 117.02630849213928 14.348549997962408 C 0.0 **** -0.24
20207 H 124.50805294189755 116.27971366202901 15.14166508002748 H 0.0 **** 0.06
20208 H 124.08068595310701 116.6024803227837 13.444300923105232 H 0.0 **** 0.06
20209 H 125.5477980868346 117.32708987394732 14.147192850281641 H 0.0 **** 0.06
20210 H 123.94164027905416 117.89594306034708 14.659670187381579 H 0.0 **** 0.06
20211 C 16.110954627108185 118.96954204411452 85.07751176787139 C 0.0 **** -0.24
20212 H 16.544293994796362 119.88457140889494 84.673969043251 H 0.0 **** 0.06
20213 H 15.163856738789832 118.76432627226103 84.57774623400803 H 0.0 **** 0.06
20214 H 15.93801644346388 119.09088281876251 86.14730909501175 H 0.0 **** 0.06
20215 H 16.797385271475207 118.13860541327148 84.91196176228102 H 0.0 **** 0.06
20216 C 79.45589591977796 101.8379039059261 33.46232517327823 C 0.0 **** -0.24
20217 H 79.0925127924511 101.22994061308304 32.63389423712767 H 0.0 **** 0.06
20218 H 80.45187575235113 102.2149559056121 33.225362039862276 H 0.0 **** 0.06
20219 H 79.50183079573925 101.23021053415026 34.36533801389385 H 0.0 **** 0.06
20220 H 78.77852988199987 102.67638650384018 33.62160365977058 H 0.0 **** 0.06
20221 C 126.91273405861297 56.89821135346699 148.71830194642888 C 0.0 **** -0.24
20222 H 126.80193305861255 57.317415983783036 147.71825539750543 H 0.0 **** 0.06
20223 H 127.85475372742997 56.35282150365262 148.78077084110117 H 0.0 **** 0.06
20224 H 126.08567313719368 56.21798062723536 148.92011832837755 H 0.0 **** 0.06
20225 H 126.90939976539852 57.70388511281108 149.4518788876709 H 0.0 **** 0.06
20226 C 2.8363933599529716 97.19731768157904 69.0906235775499 C 0.0 **** -0.24
20227 H 1.8411222898818842 96.93832427000028 68.72922020305695 H 0.0 **** 0.06
20228 H 3.3307548889407457 97.8400865335122 68.36288507340328 H 0.0 **** 0.06
20229 H 3.4199293952240524 96.28743125034414 69.2294394481586 H 0.0 **** 0.06
20230 H 2.7509857851182957 97.72240235380737 70.04141066026484 H 0.0 **** 0.06
20231 C 100.41723478521797 113.53063191388084 111.45008097581722 C 0.0 **** -0.24
20232 H 99.33226648002022 113.49822123524977 111.3524756746579 H 0.0 **** 0.06
20233 H 100.80898432740611 112.51357676929312 111.48296932927825 H 0.0 **** 0.06
20234 H 100.68285888369284 114.0519586475783 112.37020694027389 H 0.0 **** 0.06
20235 H 100.8432710386483 114.05776817368933 110.5970311997847 H 0.0 **** 0.06
20236 C 66.6358165496075 86.78977399417161 124.43607201424639 C 0.0 **** -0.24
20237 H 66.77204927863995 87.86976441027048 124.49602903337698 H 0.0 **** 0.06
20238 H 66.26339864359244 86.52459247110758 123.4468217276172 H 0.0 **** 0.06
20239 H 65.9175521270233 86.47282550355024 125.19236386653434 H 0.0 **** 0.06
20240 H 67.59005019350191 86.29290336017328 124.61106689494069 H 0.0 **** 0.06
20241 C 78.87444264136707 104.50902538103162 140.49997199634396 C 0.0 **** -0.24
20242 H 79.94126869328605 104.72147941097347 140.43635663275603 H 0.0 **** 0.06
20243 H 78.60767025206242 103.75996747172132 139.75454512689936 H 0.0 **** 0.06
20244 H 78.31010084134802 105.42290320797201 140.31676145737498 H 0.0 **** 0.06
20245 H 78.6394710743188 104.13063859248939 141.49571963027194 H 0.0 **** 0.06
20246 C 29.86829453277835 138.3750634698099 1.4885307944803756 C 0.0 **** -0.24
20247 H 30.944093091967545 138.2709708944676 1.624775536203554 H 0.0 **** 0.06
20248 H 29.41532391085019 137.38672535121097 1.410282067745836 H 0.0 **** 0.06
20249 H 29.669716822832356 138.9399223805555 0.5782771212560753 H 0.0 **** 0.06
20250 H 29.443313869071346 138.9023328193642 2.3426256089350517 H 0.0 **** 0.06
20251 C 21.471313342555426 136.05967312355747 136.742854522498 C 0.0 **** -0.24
20252 H 20.463380338208438 136.14830198382575 136.33771940820344 H 0.0 **** 0.06
20253 H 21.78372145472745 135.01570920500265 136.71489031348864 H 0.0 **** 0.06
20254 H 21.480589820558492 136.41441613833172 137.77326599784467 H 0.0 **** 0.06
20255 H 22.15761073730583 136.6596122840957 136.14478647276002 H 0.0 **** 0.06
20256 C 140.67493092749316 62.05839517403791 47.968657671999665 C 0.0 **** -0.24
20257 H 141.11009624246566 62.74058067788138 47.23803356389948 H 0.0 **** 0.06
20258 H 140.70754091210213 61.04068260161438 47.57839464619336 H 0.0 **** 0.06
20259 H 139.64053421309185 62.34201833609063 48.15942133612762 H 0.0 **** 0.06
20260 H 141.24366165775635 62.10979995963089 48.89764013947476 H 0.0 **** 0.06
20261 C 15.432134174053687 47.274713544449156 88.64713486510868 C 0.0 **** -0.24
20262 H 16.3923171293317 47.11341174019765 88.15757190985231 H 0.0 **** 0.06
20263 H 14.729958516691141 47.71080119654377 87.9350888921891 H 0.0 **** 0.06
20264 H 15.56353626239138 47.95344812702976 89.48953401176504 H 0.0 **** 0.06
20265 H 15.041919946793172 46.32229013789265 89.00457011779177 H 0.0 **** 0.06
20266 C 47.406948630543255 2.952492524396046 59.37801668499631 C 0.0 **** -0.24
20267 H 46.44026323957475 3.20883639730231 59.812103861160864 H 0.0 **** 0.06
20268 H 48.17233052904615 3.616247868835355 59.77904766019864 H 0.0 **** 0.06
20269 H 47.35860874063195 3.0649649736088627 58.294217006999816 H 0.0 **** 0.06
20270 H 47.65449263218504 1.9196445423854982 59.6254667613008 H 0.0 **** 0.06
20271 C 30.718866934647735 144.90768466174268 79.2452040140052 C 0.0 **** -0.24
20272 H 30.908579074812536 145.2371756606502 80.26721062062644 H 0.0 **** 0.06
20273 H 29.78466462098075 145.34305657966806 78.89128058515095 H 0.0 **** 0.06
20274 H 30.64490923239022 143.82003712939158 79.22360269403715 H 0.0 **** 0.06
20275 H 31.537377095975515 145.22958875340743 78.60191921749089 H 0.0 **** 0.06
20276 C 3.5388088432298446 15.617837591654855 26.13113500238257 C 0.0 **** -0.24
20277 H 3.837502362794112 16.224844341958402 26.9859709408829 H 0.0 **** 0.06
20278 H 4.0495134634113015 14.65607258196684 26.173198307681126 H 0.0 **** 0.06
20279 H 3.8092607643988003 16.132698330651124 25.209322301006345 H 0.0 **** 0.06
20280 H 2.460904876483596 15.460041014516861 26.156994978461896 H 0.0 **** 0.06
20281 C 35.47548023875565 119.15039422619974 142.39032766778007 C 0.0 **** -0.24
20282 H 35.36714522144211 118.34239153632701 141.66597850873416 H 0.0 **** 0.06
20283 H 34.71160629196232 119.05195584015796 143.16162460209995 H 0.0 **** 0.06
20284 H 35.359752740444335 120.10854335265977 141.88451460790964 H 0.0 **** 0.06
20285 H 36.46310705863488 119.09781760839012 142.84812067181332 H 0.0 **** 0.06
20286 C 47.13458343477865 3.7796960341906356 113.36108588480819 C 0.0 **** -0.24
20287 H 46.121234515328666 3.407878049283056 113.51179364022686 H 0.0 **** 0.06
20288 H 47.84625862369549 3.0925615940128637 113.81918323736907 H 0.0 **** 0.06
20289 H 47.232556335805015 4.764463235844744 113.81988368040938 H 0.0 **** 0.06
20290 H 47.33785312070998 3.855423198249298 112.29282219070005 H 0.0 **** 0.06
20291 C 7.879907367353439 79.70883652576934 45.30735505994075 C 0.0 **** -0.24
20292 H 8.835140852757434 80.16030922615681 45.038111864963824 H 0.0 **** 0.06
20293 H 7.067942448322526 80.37572817727744 45.015079455995064 H 0.0 **** 0.06
20294 H 7.847050487770218 79.54429971912013 46.3844616266403 H 0.0 **** 0.06
20295 H 7.770852376111975 78.75511387227192 44.789992874537646 H 0.0 **** 0.06
20296 C 126.35260598983936 146.70293945069517 45.791010560400935 C 0.0 **** -0.24
20297 H 127.00621532405084 146.768523564357 44.921009378126 H 0.0 **** 0.06
20298 H 125.41520293243477 146.22545768297735 45.50587173447974 H 0.0 **** 0.06
20299 H 126.15163339722022 147.70359543291477 46.17102507743789 H 0.0 **** 0.06
20300 H 126.83978687881938 146.1113258586244 46.56600257179991 H 0.0 **** 0.06
20301 C 7.6441000450846275 99.58814011652245 89.99236181410338 C 0.0 **** -0.24
20302 H 8.090758252407255 100.57120979669975 89.84126926812553 H 0.0 **** 0.06
20303 H 6.762406928480374 99.68400091725633 90.6258003890576 H 0.0 **** 0.06
20304 H 8.368580633119734 98.93044366084968 90.4728966645829 H 0.0 **** 0.06
20305 H 7.355921055286302 99.16885769254955 89.02871479419353 H 0.0 **** 0.06
20306 C 74.89804673420939 37.283022224042185 84.33095273136695 C 0.0 **** -0.24
20307 H 73.83479015343691 37.08508509250416 84.4622835221279 H 0.0 **** 0.06
20308 H 75.2880331031625 37.77799881220528 85.22084560456068 H 0.0 **** 0.06
20309 H 75.0432368952919 37.925377182635344 83.46346247793377 H 0.0 **** 0.06
20310 H 75.42618615670101 36.341698602741786 84.17834840095287 H 0.0 **** 0.06
20311 C 25.72975857851327 9.23754530464214 92.38185056393387 C 0.0 **** -0.24
20312 H 26.761401465713163 9.548331714576946 92.54545138139221 H 0.0 **** 0.06
20313 H 25.709773209418287 8.38679728825015 91.6998623496668 H 0.0 **** 0.06
20314 H 25.16535598161292 10.063987421693483 91.94902537005478 H 0.0 **** 0.06
20315 H 25.28130907879023 8.95125259129022 93.3337964946246 H 0.0 **** 0.06
20316 C 56.82905052474902 150.04163781833452 40.54811216605353 C 0.0 **** -0.24
20317 H 56.046265552847885 150.1780817190755 41.29508423954414 H 0.0 **** 0.06
20318 H 56.49524409138998 150.4479590091004 39.5930975818587 H 0.0 **** 0.06
20319 H 57.04203345771407 148.97849610702528 40.43689862416224 H 0.0 **** 0.06
20320 H 57.731656992394534 150.56136423726502 40.86950678010757 H 0.0 **** 0.06
20321 C 71.83639272179153 92.09587084629376 12.962632061463864 C 0.0 **** -0.24
20322 H 71.81012049261011 91.00977749867916 12.873455276250809 H 0.0 **** 0.06
20323 H 70.92421830516025 92.51744011800913 12.540557826110046 H 0.0 **** 0.06
20324 H 72.70038138531942 92.48404445848293 12.422466947630141 H 0.0 **** 0.06
20325 H 71.91252500696669 92.37246918321998 14.014416134040744 H 0.0 **** 0.06
20326 C 69.16761040470615 41.88960024834461 24.755513221099903 C 0.0 **** -0.24
20327 H 70.10201224374575 42.45129263087088 24.732116795413617 H 0.0 **** 0.06
20328 H 69.15322668041594 41.24628197620481 25.636387935545955 H 0.0 **** 0.06
20329 H 69.08956371308312 41.27730275716354 23.85741358248481 H 0.0 **** 0.06
20330 H 68.32791367008261 42.58303623709111 24.79774346312402 H 0.0 **** 0.06
20331 C 32.187370702887556 81.3866040167647 75.14562515038214 C 0.0 **** -0.24
20332 H 33.22651527835286 81.62248696362481 75.37323279479146 H 0.0 **** 0.06
20333 H 31.693081504672378 81.01842799212922 76.0442763970873 H 0.0 **** 0.06
20334 H 32.15023111952537 80.62086785805845 74.37087534213032 H 0.0 **** 0.06
20335 H 31.67999721850564 82.28435619785262 74.79321823618173 H 0.0 **** 0.06
20336 C 9.446422323172072 149.93073312298677 34.24612983919491 C 0.0 **** -0.24
20337 H 8.751282567761535 149.3394590427823 33.65058626896673 H 0.0 **** 0.06
20338 H 8.887430319925159 150.58581135293167 34.91413352677749 H 0.0 **** 0.06
20339 H 10.069814494630236 150.5313737707177 33.58487766106715 H 0.0 **** 0.06
20340 H 10.078009578780808 149.26407971020555 34.834286528987406 H 0.0 **** 0.06
20341 C 126.65865964755335 130.89340491763406 10.528106650810138 C 0.0 **** -0.24
20342 H 126.28405427532007 130.67404304753921 11.527208555372859 H 0.0 **** 0.06
20343 H 126.26505934225543 131.85389142336294 10.194691032293477 H 0.0 **** 0.06
20344 H 126.3388585237725 130.11000336462905 9.840165684012938 H 0.0 **** 0.06
20345 H 127.74783586155101 130.9344716082409 10.549951532889402 H 0.0 **** 0.06
20346 C 64.72537919781448 32.76062528086082 21.724263152100235 C 0.0 **** -0.24
20347 H 64.1909273824513 32.50693995720836 22.639873061328075 H 0.0 **** 0.06
20348 H 64.85640798188433 31.862692976572298 21.119649596584168 H 0.0 **** 0.06
20349 H 65.70243764490108 33.17461535997218 21.977675005833248 H 0.0 **** 0.06
20350 H 64.15319195672497 33.49821554857702 21.161830196475137 H 0.0 **** 0.06
20351 C 82.5805897527151 126.445490544222 38.91044611744488 C 0.0 **** -0.24
20352 H 82.07340523096363 126.24321351818989 37.967064248833964 H 0.0 **** 0.06
20353 H 83.50586236047442 125.86996897415891 38.955368872240086 H 0.0 **** 0.06
20354 H 81.93379080176399 126.15945504663726 39.738984735367694 H 0.0 **** 0.06
20355 H 82.8100036099768 127.508606576842 38.97863735438719 H 0.0 **** 0.06
20356 C 40.90269176666972 95.59650087838739 98.6863957854786 C 0.0 **** -0.24
20357 H 40.17238632959172 96.14580574409027 99.28109877068201 H 0.0 **** 0.06
20358 H 41.17216172868844 94.67505986859831 99.20317127977707 H 0.0 **** 0.06
20359 H 41.79382006324981 96.20953375458296 98.54958366987564 H 0.0 **** 0.06
20360 H 40.472951403649844 95.35655233448327 97.71367773154847 H 0.0 **** 0.06
20361 C 91.80560249788678 13.624489766599595 18.39585363736404 C 0.0 **** -0.24
20362 H 91.11820286886254 14.468069624817929 18.46848493060972 H 0.0 **** 0.06
20363 H 91.47371566146326 12.953873017321826 17.602923119708294 H 0.0 **** 0.06
20364 H 91.82172652185994 13.087302268921917 19.344008731140605 H 0.0 **** 0.06
20365 H 92.80630144526278 13.990930680167423 18.16813421251888 H 0.0 **** 0.06
20366 C 99.70231498143653 97.53607142663914 57.28055714193033 C 0.0 **** -0.24
20367 H 100.71173702126366 97.94707802499406 57.27876925816474 H 0.0 **** 0.06
20368 H 99.02856873094277 98.23024910722444 57.78381935742033 H 0.0 **** 0.06
20369 H 99.69986342163946 96.58148601559087 57.80683479716936 H 0.0 **** 0.06
20370 H 99.36952281485577 97.38620227082188 56.253936930161785 H 0.0 **** 0.06
20371 C 109.95033579951273 38.4472964951519 125.47222928476539 C 0.0 **** -0.24
20372 H 110.96043993434644 38.41120944333659 125.06510667662955 H 0.0 **** 0.06
20373 H 109.26696983201244 38.833602757207615 124.71609113265647 H 0.0 **** 0.06
20374 H 109.934854405092 39.101609577530354 126.34430166056967 H 0.0 **** 0.06
20375 H 109.63993295514341 37.44409886181299 125.76499553917891 H 0.0 **** 0.06
20376 C 15.65892957615705 94.10293312934161 142.89671356634187 C 0.0 **** -0.24
20377 H 16.359566410402977 93.75412315919915 143.6547874962622 H 0.0 **** 0.06
20378 H 15.064422074933844 93.26240871767907 142.5374795760028 H 0.0 **** 0.06
20379 H 16.211405250393454 94.53866243441566 142.06387318061553 H 0.0 **** 0.06
20380 H 15.000228496344533 94.85600257935715 143.32906963300314 H 0.0 **** 0.06
20381 C 130.78692015175668 29.59341402732386 42.527020510919996 C 0.0 **** -0.24
20382 H 131.3127504124419 28.731881430310608 42.115125359728225 H 0.0 **** 0.06
20383 H 131.17391753477054 30.506198510507232 42.07238983393526 H 0.0 **** 0.06
20384 H 130.93954069012892 29.631144716284467 43.605338102118424 H 0.0 **** 0.06
20385 H 129.7212983146032 29.50412401723841 42.313020692041775 H 0.0 **** 0.06
20386 C 6.942308532018956 136.83635637031557 18.997001165982397 C 0.0 **** -0.24
20387 H 7.1390246806103335 137.25707656714894 18.010438045979726 H 0.0 **** 0.06
20388 H 5.866105749468346 136.78212543910047 19.161260295999682 H 0.0 **** 0.06
20389 H 7.3958260942663685 137.47098699762103 19.75869355131141 H 0.0 **** 0.06
20390 H 7.370110829755021 135.8351720244301 19.05598939521593 H 0.0 **** 0.06
20391 C 60.747143788452036 144.22404991267743 123.512778141672 C 0.0 **** -0.24
20392 H 61.314642995910845 145.12684937743447 123.73824488782732 H 0.0 **** 0.06
20393 H 60.74709970630326 144.05536981951738 122.4357672229663 H 0.0 **** 0.06
20394 H 59.721577297809574 144.34342939629553 123.86192480134763 H 0.0 **** 0.06
20395 H 61.20530421877186 143.37253892365717 124.0149608825259 H 0.0 **** 0.06
20396 C 12.175685607084233 72.78440826822978 149.63969713253752 C 0.0 **** -0.24
20397 H 12.419806558128073 73.34507313433907 150.54231409070889 H 0.0 **** 0.06
20398 H 12.272406095493693 73.43637747505223 148.771224447473 H 0.0 **** 0.06
20399 H 11.151508692641642 72.4166370139552 149.70684963168716 H 0.0 **** 0.06
20400 H 12.858691367989195 71.9411175071908 149.53995602942013 H 0.0 **** 0.06
20401 C 98.50529142385682 149.72293849992815 51.38041742085446 C 0.0 **** -0.24
20402 H 98.61510937601142 148.85903469629233 52.036855356220855 H 0.0 **** 0.06
20403 H 98.91113636827487 149.48516636211082 50.3965501447893 H 0.0 **** 0.06
20404 H 99.04671636801538 150.5697003042082 51.80140784103699 H 0.0 **** 0.06
20405 H 97.44931762773194 149.9760230035792 51.2874978464709 H 0.0 **** 0.06
20406 C 17.094183171240104 42.694661943220154 120.11008640045759 C 0.0 **** -0.24
20407 H 16.676760725286215 41.731131065560675 119.81956412233166 H 0.0 **** 0.06
20408 H 16.46470527288747 43.1469031559956 120.87710268474905 H 0.0 **** 0.06
20409 H 17.135851646175013 43.351203149354774 119.240846573954 H 0.0 **** 0.06
20410 H 18.101117848483312 42.54988765333434 120.50452718276932 H 0.0 **** 0.06
20411 C 147.5514289092379 133.6140159451101 24.582656456904488 C 0.0 **** -0.24
20412 H 148.15734336731114 133.8257830135144 23.70222654685989 H 0.0 **** 0.06
20413 H 148.14897866213926 133.76980843287453 25.481220033444202 H 0.0 **** 0.06
20414 H 147.20958111870115 132.5797110359648 24.54787258546054 H 0.0 **** 0.06
20415 H 146.68930981452473 134.2812061038959 24.60004794652579 H 0.0 **** 0.06
20416 C 8.32780740141132 4.81678881100644 30.046412533981425 C 0.0 **** -0.24
20417 H 7.354773956935986 4.4313219688328225 30.34862382143143 H 0.0 **** 0.06
20418 H 8.775965530818013 5.3622580023811395 30.878312901557308 H 0.0 **** 0.06
20419 H 8.205273287453565 5.487827567254342 29.196920438762618 H 0.0 **** 0.06
20420 H 8.975872266617841 3.9878404566362065 29.764474622090063 H 0.0 **** 0.06
20421 C 101.00763786573626 130.89753058001716 121.08747559308281 C 0.0 **** -0.24
20422 H 101.13441748901238 131.57557537846017 121.93249614140402 H 0.0 **** 0.06
20423 H 101.74809208095954 130.1005065444595 121.14691200585835 H 0.0 **** 0.06
20424 H 101.13997343277822 131.4494801700458 120.15692015079978 H 0.0 **** 0.06
20425 H 100.00620207827077 130.46698909807822 121.11572296158758 H 0.0 **** 0.06
20426 C 21.153612269989594 103.10172483815457 98.37191093138662 C 0.0 **** -0.24
20427 H 20.87615845698093 103.99566883635866 98.92968952689668 H 0.0 **** 0.06
20428 H 20.98636127324511 102.2202357471067 98.99183964845719 H 0.0 **** 0.06
20429 H 22.207695090216305 103.15772609180708 98.09674767313052 H 0.0 **** 0.06
20430 H 20.546386728008656 103.03266282885413 97.4693700388878 H 0.0 **** 0.06
20431 C 26.263641415143667 39.650982507278684 25.20407729145319 C 0.0 **** -0.24
20432 H 25.50991778399117 40.43858270104127 25.247149156942783 H 0.0 **** 0.06
20433 H 26.49893251550005 39.318741540155884 26.215295135962492 H 0.0 **** 0.06
20434 H 27.164927804257417 40.03777177948777 24.728664437750865 H 0.0 **** 0.06
20435 H 25.878572294924183 38.81143371216629 24.62577887650525 H 0.0 **** 0.06
20436 C 46.60092005582213 89.04125988576023 0.23282703724513 C 0.0 **** -0.24
20437 H 45.911279241645076 88.484522559638 0.8689132392337058 H 0.0 **** 0.06
20438 H 46.67704037799335 90.06791183987811 0.5923878548909514 H 0.0 **** 0.06
20439 H 46.2288123386509 89.04177209440586 -0.7920827624496916 H 0.0 **** 0.06
20440 H 47.583745486748384 88.57067696606522 0.26314830753317153 H 0.0 **** 0.06
20441 C 66.13588025128384 100.20477684277623 108.86851212413602 C 0.0 **** -0.24
20442 H 66.9356870892379 100.93757500471226 108.76070040389509 H 0.0 **** 0.06
20443 H 66.32508249822762 99.36069487569452 108.20520779617691 H 0.0 **** 0.06
20444 H 65.18385266066217 100.66694549681274 108.60776688480969 H 0.0 **** 0.06
20445 H 66.09985751644717 99.85613897040277 109.90055256654198 H 0.0 **** 0.06
20446 C 117.31300163551587 120.8402184581581 124.18707233471402 C 0.0 **** -0.24
20447 H 117.38933908554291 121.8815901708994 123.87307382885105 H 0.0 **** 0.06
20448 H 118.02976358949986 120.23884518749084 123.62660197297568 H 0.0 **** 0.06
20449 H 116.3037555574894 120.47601402451123 123.99424344869568 H 0.0 **** 0.06
20450 H 117.52936133983106 120.76484655578501 125.25242674302889 H 0.0 **** 0.06
20451 C 76.44690166552571 138.05305523612682 136.2558607008418 C 0.0 **** -0.24
20452 H 75.75968922981336 137.5258830329282 135.59368471210908 H 0.0 **** 0.06
20453 H 76.57880282991621 137.47946678700924 137.17231680527556 H 0.0 **** 0.06
20454 H 76.03777158884351 139.03472762648323 136.49588653948092 H 0.0 **** 0.06
20455 H 77.40948457062355 138.17290412149254 135.75932585184185 H 0.0 **** 0.06
20456 C 80.2361602795954 23.81843446146769 38.38675673916421 C 0.0 **** -0.24
20457 H 80.9971198707088 23.6369435640421 39.14552351804868 H 0.0 **** 0.06
20458 H 80.70289972433915 24.24389269960386 37.49750249090289 H 0.0 **** 0.06
20459 H 79.49355912097624 24.514679007588953 38.7752094370903 H 0.0 **** 0.06
20460 H 79.75113020083035 22.877132732831697 38.12711586309533 H 0.0 **** 0.06
20461 C 17.68843380546523 128.24349360745924 14.62533386113278 C 0.0 **** -0.24
20462 H 17.55022839508363 127.81501099511354 15.618274654151449 H 0.0 **** 0.06
20463 H 16.83657498368475 127.98216646846983 13.995495587311233 H 0.0 **** 0.06
20464 H 18.60258018221616 127.84711329428875 14.18276911701652 H 0.0 **** 0.06
20465 H 17.763458519508617 129.32795703420402 14.703691005266194 H 0.0 **** 0.06
20466 C 142.84391968616973 119.67523608171352 88.62654044202341 C 0.0 **** -0.24
20467 H 142.54326192638317 120.33925272743424 87.81582328623401 H 0.0 **** 0.06
20468 H 143.4528056004466 120.22832198370115 89.34171273780962 H 0.0 **** 0.06
20469 H 143.4230150436859 118.84608747750998 88.22035005224052 H 0.0 **** 0.06
20470 H 141.95630661504103 119.2878721999828 89.12667316492397 H 0.0 **** 0.06
20471 C 31.869999128095508 11.445300467327705 88.66431484439175 C 0.0 **** -0.24
20472 H 31.43824786284481 12.324173759029748 89.14286793046575 H 0.0 **** 0.06
20473 H 32.51024300978346 10.923093243062027 89.37571268837905 H 0.0 **** 0.06
20474 H 32.46191694257399 11.755783239041442 87.8021279114332 H 0.0 **** 0.06
20475 H 31.071305637136014 10.780382801807704 88.33682338026445 H 0.0 **** 0.06
20476 C 52.3491233023137 8.007432443647673 96.22800498072309 C 0.0 **** -0.24
20477 H 52.1470003646136 7.725309104301459 95.19498939342532 H 0.0 **** 0.06
20478 H 51.40673199875731 8.18779460417531 96.74590519618431 H 0.0 **** 0.06
20479 H 52.952823484803815 8.91525586002345 96.24450486275401 H 0.0 **** 0.06
20480 H 52.8903275767383 7.202398099702634 96.7257309539956 H 0.0 **** 0.06
20481 C 25.702004415425705 64.77637218589634 123.33745833424543 C 0.0 **** -0.24
20482 H 26.1460301288638 65.65794568614405 122.87529515236913 H 0.0 **** 0.06
20483 H 26.152913741472204 63.878126196011195 122.9139758006339 H 0.0 **** 0.06
20484 H 24.628859380378174 64.76815835822119 123.14756958221666 H 0.0 **** 0.06
20485 H 25.881328139824745 64.8013383430096 124.4121248692263 H 0.0 **** 0.06
20486 C 38.746954364520825 74.74891442129419 104.57933479192931 C 0.0 **** -0.24
20487 H 38.88397437372606 75.81361258804169 104.38918529932354 H 0.0 **** 0.06
20488 H 39.72065231760212 74.26125973819501 104.62736284137506 H 0.0 **** 0.06
20489 H 38.15853194981349 74.30859790667095 103.77400881242423 H 0.0 **** 0.06
20490 H 38.22433233294943 74.613829709418 105.52633892071682 H 0.0 **** 0.06
20491 C 34.90292263141146 95.33361473990172 114.51887868802935 C 0.0 **** -0.24
20492 H 34.157666633971786 94.57506076244155 114.28099884556791 H 0.0 **** 0.06
20493 H 34.42595589517779 96.15721842404261 115.05027702395351 H 0.0 **** 0.06
20494 H 35.35003859497499 95.70449362605908 113.59699712170404 H 0.0 **** 0.06
20495 H 35.6780218270365 94.8950717266386 115.14832113166811 H 0.0 **** 0.06
20496 C 74.01071064491539 88.54671765248528 125.67836865601652 C 0.0 **** -0.24
20497 H 74.44022734159577 87.58039657039174 125.41231134667217 H 0.0 **** 0.06
20498 H 74.59111570376682 88.99075915817758 126.48741785780379 H 0.0 **** 0.06
20499 H 72.97985839016165 88.40906553240947 126.00339784723525 H 0.0 **** 0.06
20500 H 74.03319725084309 89.20505758817436 124.8105597338914 H 0.0 **** 0.06
20501 C 26.827150046458428 2.9150194160008027 52.4731849241538 C 0.0 **** -0.24
20502 H 27.21742707347923 3.4522259285024006 53.33736342104433 H 0.0 **** 0.06
20503 H 25.789589137549115 2.635431066113483 52.65867949414749 H 0.0 **** 0.06
20504 H 27.421711645093808 2.017573758294816 52.3039830918556 H 0.0 **** 0.06
20505 H 26.878263380485805 3.5566548241055216 51.59309178020456 H 0.0 **** 0.06
20506 C 34.174865305787 127.25634387494266 2.6628039593647372 C 0.0 **** -0.24
20507 H 35.08374151332281 126.65406710571172 2.6892854106401103 H 0.0 **** 0.06
20508 H 33.912383495731525 127.56024425903495 3.6757833832277527 H 0.0 **** 0.06
20509 H 33.36212123409727 126.66761735147251 2.2370708867753706 H 0.0 **** 0.06
20510 H 34.34273380487508 128.14087834041956 2.048765350972843 H 0.0 **** 0.06
20511 C 120.8278252943446 78.49354714132159 40.038909005603 C 0.0 **** -0.24
20512 H 120.21029144273884 79.38887109510587 40.10122591549175 H 0.0 **** 0.06
20513 H 121.26263358354582 78.420540770271 39.04127762979394 H 0.0 **** 0.06
20514 H 120.21355414013719 77.61465941237806 40.233680097641724 H 0.0 **** 0.06
20515 H 121.62573563177376 78.55064038693254 40.78039669787363 H 0.0 **** 0.06
20516 C 145.3489161687398 43.502567147082004 131.24824246248403 C 0.0 **** -0.24
20517 H 146.07934298791906 42.73998250639153 130.97855041596762 H 0.0 **** 0.06
20518 H 144.34867131362253 43.069946590107136 131.2310621993432 H 0.0 **** 0.06
20519 H 145.40194282559773 44.32435291364281 130.53308732847748 H 0.0 **** 0.06
20520 H 145.56693777266594 43.87689651903986 132.2489820005324 H 0.0 **** 0.06
20521 C 116.90369785818574 86.24510927239491 43.98772162493452 C 0.0 **** -0.24
20522 H 116.87885545950603 87.2397736090022 43.542946192482816 H 0.0 **** 0.06
20523 H 116.19517704157157 85.59800296337494 43.47041400832353 H 0.0 **** 0.06
20524 H 116.63173999698894 86.31265699566599 45.04179029667722 H 0.0 **** 0.06
20525 H 117.90763103348264 85.83169394583112 43.898019981673656 H 0.0 **** 0.06
20526 C 32.2617059092542 37.41655899263725 76.33686325371403 C 0.0 **** -0.24
20527 H 32.58253011058743 36.377224396984786 76.40714776946001 H 0.0 **** 0.06
20528 H 32.096695360424064 37.813690045212525 77.33937360171336 H 0.0 **** 0.06
20529 H 31.334470129414697 37.471890465561955 75.76656883943687 H 0.0 **** 0.06
20530 H 33.03269243747736 38.00200696674949 75.83630764960836 H 0.0 **** 0.06
20531 C 33.14102772350125 15.261234864652579 58.098316043347154 C 0.0 **** -0.24
20532 H 33.85544064205476 14.63843918023258 57.56008914386314 H 0.0 **** 0.06
20533 H 32.640700664453135 14.663589082443707 58.86088398797557 H 0.0 **** 0.06
20534 H 32.40117951850701 15.652143067714462 57.39931610126075 H 0.0 **** 0.06
20535 H 33.66631889498035 16.089584421410905 58.5723610132207 H 0.0 **** 0.06
20536 C 65.46006559925783 88.23143644360341 109.78307205421717 C 0.0 **** -0.24
20537 H 64.69182653482542 87.91210015721184 109.07856827563174 H 0.0 **** 0.06
20538 H 65.01065495479756 88.38295252660552 110.76505498367189 H 0.0 **** 0.06
20539 H 65.90397380188037 89.16444748528288 109.43762546885503 H 0.0 **** 0.06
20540 H 66.2312482216008 87.4644077511591 109.85131293186717 H 0.0 **** 0.06
20541 C 18.618025024484666 42.94112808649291 34.26985194185783 C 0.0 **** -0.24
20542 H 19.430470006214648 43.54205704609279 34.68040654323387 H 0.0 **** 0.06
20543 H 18.361954052819783 43.308554699580796 33.27628573258871 H 0.0 **** 0.06
20544 H 17.747741294920502 43.01394143424942 34.92189559157247 H 0.0 **** 0.06
20545 H 18.936142471924654 41.90007706139646 34.20263150012443 H 0.0 **** 0.06
20546 C 43.049287462956386 97.25608515499664 86.1260995599282 C 0.0 **** -0.24
20547 H 42.68807515880184 96.22860060786562 86.07925224326961 H 0.0 **** 0.06
20548 H 43.23767482439678 97.52787635946643 87.16554859166368 H 0.0 **** 0.06
20549 H 42.29699712091758 97.92465694042318 85.70641333434283 H 0.0 **** 0.06
20550 H 43.972378148824305 97.34307264995525 85.55412386278768 H 0.0 **** 0.06
20551 C 27.040264346879525 133.93142241606304 127.21225635912441 C 0.0 **** -0.24
20552 H 26.510448354082982 133.5319694403655 128.07649057708335 H 0.0 **** 0.06
20553 H 27.964059072601913 134.40757923045754 127.54140904366267 H 0.0 **** 0.06
20554 H 26.41220593039037 134.667138773831 126.70906198241317 H 0.0 **** 0.06
20555 H 27.273560836155383 133.12131493455783 126.52225921968835 H 0.0 **** 0.06
20556 C 22.71077857122353 8.997545112191588 19.62428977765174 C 0.0 **** -0.24
20557 H 22.139925656310453 8.077019290207296 19.740653844008392 H 0.0 **** 0.06
20558 H 23.76514609339324 8.755893473002246 19.488816128928562 H 0.0 **** 0.06
20559 H 22.590888330562166 9.614091409845045 20.514475395346807 H 0.0 **** 0.06
20560 H 22.348426774883762 9.542582986598937 18.753044490514895 H 0.0 **** 0.06
20561 C 83.1148164386967 144.00870059938234 25.36805045265615 C 0.0 **** -0.24
20562 H 82.36740424855473 144.29440397091435 26.109061337069477 H 0.0 **** 0.06
20563 H 83.20947316442837 144.80109498704326 24.624881050238145 H 0.0 **** 0.06
20564 H 82.80570447110131 143.08510228539012 24.878488980381462 H 0.0 **** 0.06
20565 H 84.07408486224064 143.85552581093333 25.860470991942094 H 0.0 **** 0.06
20566 C 144.92969344369862 133.89575806838945 39.48973780630715 C 0.0 **** -0.24
20567 H 145.13816481362866 134.59888046647905 38.68363914741866 H 0.0 **** 0.06
20568 H 145.57600792782014 134.1164807219212 40.340046357018394 H 0.0 **** 0.06
20569 H 145.12038792537157 132.880039320827 39.142549756410716 H 0.0 **** 0.06
20570 H 143.8868192908601 133.98748727874346 39.79162636469076 H 0.0 **** 0.06
20571 C 9.785016489625377 74.25647147201389 127.62908573221009 C 0.0 **** -0.24
20572 H 9.347647178832318 75.14304840447451 128.08972329424336 H 0.0 **** 0.06
20573 H 9.313282874091755 74.07961239494222 126.66217996168656 H 0.0 **** 0.06
20574 H 9.623195180186002 73.39417839239701 128.27618232915816 H 0.0 **** 0.06
20575 H 10.854962704936725 74.41069237930878 127.48941293288198 H 0.0 **** 0.06
20576 C 21.876842798293495 26.373347646404795 6.690833877771169 C 0.0 **** -0.24
20577 H 21.46126508575921 25.46701497753719 6.249027600036467 H 0.0 **** 0.06
20578 H 21.09766224191671 26.89497872409376 7.247764044184301 H 0.0 **** 0.06
20579 H 22.255272595220987 27.02188405008735 5.900790270738284 H 0.0 **** 0.06
20580 H 22.69111088788128 26.10874188929978 7.36535278219398 H 0.0 **** 0.06
20581 C 27.07986249798043 93.14358957337915 53.963644505654926 C 0.0 **** -0.24
20582 H 27.180621504554722 93.05896054163587 55.045645444196396 H 0.0 **** 0.06
20583 H 27.31017742421554 92.18350756324499 53.50174510737645 H 0.0 **** 0.06
20584 H 27.769163169646987 93.90176189835306 53.592089946916005 H 0.0 **** 0.06
20585 H 26.057201175980993 93.42985254213879 53.71593125402238 H 0.0 **** 0.06
20586 C 101.30163412651683 38.28305773046564 38.12071762579768 C 0.0 **** -0.24
20587 H 102.26445234325087 38.6434430951131 37.75710933250764 H 0.0 **** 0.06
20588 H 100.49824010545211 38.80390676810957 37.599779231555544 H 0.0 **** 0.06
20589 H 101.22403126673706 38.47355753636953 39.191596302431265 H 0.0 **** 0.06
20590 H 101.2212906045919 37.212318474516216 37.93573705036971 H 0.0 **** 0.06
20591 C 30.91296166931869 5.36471481168067 16.587549735677037 C 0.0 **** -0.24
20592 H 31.19031885586392 6.326579545704277 16.15567391160075 H 0.0 **** 0.06
20593 H 31.642441042762982 5.0844031762323425 17.34756205327414 H 0.0 **** 0.06
20594 H 30.895338352794795 4.607168847238086 15.80327742526623 H 0.0 **** 0.06
20595 H 29.925197407785305 5.441087787159972 17.04108626469386 H 0.0 **** 0.06
20596 C 124.45073948077743 55.94054773573805 83.19111567564718 C 0.0 **** -0.24
20597 H 123.36606301646475 55.839397749739874 83.22156426153927 H 0.0 **** 0.06
20598 H 124.82979761301328 56.09519050007128 84.20150918605074 H 0.0 **** 0.06
20599 H 124.71792864933599 56.79405241594441 82.56843744899149 H 0.0 **** 0.06
20600 H 124.88903656477828 55.034538693027116 82.77287680101954 H 0.0 **** 0.06
20601 C 44.098009132365064 62.26130367760517 140.52318177752917 C 0.0 **** -0.24
20602 H 44.74584660924796 62.89500310330459 139.91780246478652 H 0.0 **** 0.06
20603 H 43.206681983952876 62.00103475611722 139.95184430630144 H 0.0 **** 0.06
20604 H 43.80745560163854 62.79756421015303 141.42666325328761 H 0.0 **** 0.06
20605 H 44.63276657132076 61.35121015678385 140.7969897192337 H 0.0 **** 0.06
20606 C 0.3695893553970322 52.31501821049622 72.9947367373515 C 0.0 **** -0.24
20607 H 1.1839522098439481 53.00400768986759 72.7686855155437 H 0.0 **** 0.06
20608 H -0.047146460959449854 52.55333430899927 73.97312835935975 H 0.0 **** 0.06
20609 H 0.748824187638828 51.29363196268544 72.9982751536318 H 0.0 **** 0.06
20610 H -0.40751025427136156 52.41125490821264 72.23580906262053 H 0.0 **** 0.06
20611 C 61.43127941118075 16.28500677144163 24.872634376408392 C 0.0 **** -0.24
20612 H 61.69586095435517 16.828530486198787 23.96571703974545 H 0.0 **** 0.06
20613 H 61.56077845953672 15.215001328248178 24.704974322958158 H 0.0 **** 0.06
20614 H 60.39225795352098 16.490265130029314 25.128823509966686 H 0.0 **** 0.06
20615 H 62.07758207765772 16.60558062649875 25.68937223502592 H 0.0 **** 0.06
20616 C 115.75109119161023 118.8788966648534 2.3170239751670465 C 0.0 **** -0.24
20617 H 115.70892792347398 118.82466288147101 1.229826482270255 H 0.0 **** 0.06
20618 H 116.61824425049518 118.32267621820755 2.6743108394052797 H 0.0 **** 0.06
20619 H 114.84321296158755 118.44578748328404 2.7382057422267394 H 0.0 **** 0.06
20620 H 115.83402914660788 119.92004348981554 2.6261501739415394 H 0.0 **** 0.06
20621 C 40.26716793106124 61.987128142247684 79.71663820878845 C 0.0 **** -0.24
20622 H 40.317212525505866 62.16330630771253 80.79187973248693 H 0.0 **** 0.06
20623 H 39.336852512609454 62.39811838461256 79.32402804250492 H 0.0 **** 0.06
20624 H 40.3020442336521 60.91460573025097 79.52295073597696 H 0.0 **** 0.06
20625 H 41.113529029117444 62.47200320779402 79.22965303049273 H 0.0 **** 0.06
20626 C 44.449018946672794 8.932246935174227 11.155736284058122 C 0.0 **** -0.24
20627 H 43.42706664969833 9.294568648772781 11.032915035481608 H 0.0 **** 0.06
20628 H 45.11327643414032 9.776805614263559 11.337593626046385 H 0.0 **** 0.06
20629 H 44.759660099698834 8.411558612449255 10.249633504092088 H 0.0 **** 0.06
20630 H 44.491449798408865 8.246273265914425 12.002039568596643 H 0.0 **** 0.06
20631 C 62.34840256108387 122.18742372466532 98.60345945361725 C 0.0 **** -0.24
20632 H 61.47049832037008 121.56473593267809 98.77352272126963 H 0.0 **** 0.06
20633 H 63.14300734873888 121.89109310732097 99.28950970336079 H 0.0 **** 0.06
20634 H 62.09169060336991 123.2324780419223 98.77534578083173 H 0.0 **** 0.06
20635 H 62.68982654871749 122.06135943243409 97.57539720591922 H 0.0 **** 0.06
20636 C 124.64413520367317 63.96756458259701 119.30834294719848 C 0.0 **** -0.24
20637 H 125.32656628158635 63.80652044624841 118.4733207179879 H 0.0 **** 0.06
20638 H 123.63453520056275 64.11964983408156 118.9272532239225 H 0.0 **** 0.06
20639 H 124.95842137305648 64.8477309058951 119.86904957450191 H 0.0 **** 0.06
20640 H 124.65926138524834 63.09515159108675 119.96216270874702 H 0.0 **** 0.06
20641 C 30.50994893596163 119.2877535223251 97.30972914502472 C 0.0 **** -0.24
20642 H 29.919326815560282 120.08023438641077 96.84981493035542 H 0.0 **** 0.06
20643 H 30.36414550219257 119.3068069972144 98.39049316411082 H 0.0 **** 0.06
20644 H 31.564818804699883 119.44031769804043 97.08170455634095 H 0.0 **** 0.06
20645 H 30.189943444753 118.3220622402305 96.9167426764035 H 0.0 **** 0.06
20646 C 84.44912431640012 120.65022905452827 87.39619306387115 C 0.0 **** -0.24
20647 H 85.15268979118572 121.45697892277553 87.59945329641782 H 0.0 **** 0.06
20648 H 84.59517250664476 119.84943869629194 88.12093177707945 H 0.0 **** 0.06
20649 H 84.61715096756025 120.26623971118494 86.39041889356851 H 0.0 **** 0.06
20650 H 83.429719284078 121.02963011116401 87.47404383065094 H 0.0 **** 0.06
20651 C 67.62920141429213 63.175530939168794 139.83451127896268 C 0.0 **** -0.24
20652 H 67.05285396199143 63.94178806570679 140.35267255069007 H 0.0 **** 0.06
20653 H 67.11252230703519 62.89019330173582 138.918006709557 H 0.0 **** 0.06
20654 H 67.73347810046674 62.30273078670936 140.47931726700256 H 0.0 **** 0.06
20655 H 68.61637190115853 63.566884198589975 139.58984514166903 H 0.0 **** 0.06
20656 C 20.85538686712971 109.30020968910041 36.680962806200455 C 0.0 **** -0.24
20657 H 21.55921949332034 108.5238497703851 36.380913816612946 H 0.0 **** 0.06
20658 H 20.773676254206777 110.0418020836414 35.885756787475685 H 0.0 **** 0.06
20659 H 21.21278479859356 109.78114801718881 37.59154258308726 H 0.0 **** 0.06
20660 H 19.87839978571955 108.85340510744645 36.86416045223871 H 0.0 **** 0.06
20661 C 147.55805053114926 82.49780234716239 44.43885824166364 C 0.0 **** -0.24
20662 H 147.25559265099486 82.85071508173868 43.45315225130136 H 0.0 **** 0.06
20663 H 147.44606438083434 83.30444348858518 45.16420691653846 H 0.0 **** 0.06
20664 H 148.6002737793932 82.17908209050994 44.40669289163054 H 0.0 **** 0.06
20665 H 146.93034042856283 81.65530024195864 44.73184078525239 H 0.0 **** 0.06
20666 C 147.46200973784354 75.13429750776034 137.62115864420238 C 0.0 **** -0.24
20667 H 148.23877202318147 75.182537268537 138.38374223238665 H 0.0 **** 0.06
20668 H 147.40394571685644 76.0907812472717 137.10053886719064 H 0.0 **** 0.06
20669 H 146.50270482238756 74.91829407786021 138.09204515012482 H 0.0 **** 0.06
20670 H 147.70236529182537 74.3460832167231 136.90748299439662 H 0.0 **** 0.06
20671 C 87.10187461067747 56.71914168297123 131.8754458782934 C 0.0 **** -0.24
20672 H 86.36575017045465 56.87920061258539 131.0869495420201 H 0.0 **** 0.06
20673 H 88.10505952419217 56.76443048995148 131.4500925159592 H 0.0 **** 0.06
20674 H 86.94304074917139 55.7395999071815 132.32677525862093 H 0.0 **** 0.06
20675 H 86.99307535950933 57.49209147156118 132.63619868205544 H 0.0 **** 0.06
20676 C 66.82298753710305 36.427908772353156 48.23371039129188 C 0.0 **** -0.24
20677 H 66.26762799676072 36.562871016389465 49.16200585458654 H 0.0 **** 0.06
20678 H 67.7801518373299 36.944958690189765 48.30549749906385 H 0.0 **** 0.06
20679 H 66.24873370533095 36.83745891926539 47.40337813527148 H 0.0 **** 0.06
20680 H 66.99481614304815 35.36462689776901 48.066118410854045 H 0.0 **** 0.06
20681 C 127.68482905807186 142.1972507770959 46.936113000902765 C 0.0 **** -0.24
20682 H 127.56771482310853 142.1025760348773 45.856282247862794 H 0.0 **** 0.06
20683 H 127.14146741433433 143.07622735887236 47.28413140246596 H 0.0 **** 0.06
20684 H 128.741639430872 142.30283110833048 47.178373318388964 H 0.0 **** 0.06
20685 H 127.2864920884483 141.30680650197007 47.422719766433374 H 0.0 **** 0.06
20686 C 80.65068712477972 5.855749438841997 96.87829533991557 C 0.0 **** -0.24
20687 H 81.36548832632641 6.542409027598467 97.32958489441634 H 0.0 **** 0.06
20688 H 81.1789647230676 5.154522514609482 96.23150936207998 H 0.0 **** 0.06
20689 H 79.92675299944293 6.419322859743232 96.2895433775022 H 0.0 **** 0.06
20690 H 80.13101235772012 5.305106542800161 97.66234381897605 H 0.0 **** 0.06
20691 C 98.27138574117055 17.38922732180646 92.30665312346747 C 0.0 **** -0.24
20692 H 97.95038317544562 18.351621302086613 91.90829065388411 H 0.0 **** 0.06
20693 H 99.03487296830613 16.96317594605776 91.65588361224914 H 0.0 **** 0.06
20694 H 97.41657043065466 16.713442987915016 92.35626024787595 H 0.0 **** 0.06
20695 H 98.68149743179487 17.528939005126887 93.3071797621333 H 0.0 **** 0.06
20696 C 75.3965024078939 149.36210280669712 114.02198428560477 C 0.0 **** -0.24
20697 H 75.32966056545168 150.43564100562367 114.20251804980249 H 0.0 **** 0.06
20698 H 74.88572698528885 149.11944405954347 113.08973661919397 H 0.0 **** 0.06
20699 H 74.9266395078189 148.8248851440494 114.8454516490787 H 0.0 **** 0.06
20700 H 76.44439358666195 149.07173332007642 113.94881934008576 H 0.0 **** 0.06
20701 C 12.691494769527623 7.82423105991748 109.32021143841885 C 0.0 **** -0.24
20702 H 12.564250465680004 8.892064343942337 109.50020720501905 H 0.0 **** 0.06
20703 H 13.513435905381783 7.448740434255797 109.9297325969562 H 0.0 **** 0.06
20704 H 12.91534722582341 7.6590074966869395 108.26619068653926 H 0.0 **** 0.06
20705 H 11.77349291843177 7.299420085633841 109.58410443764396 H 0.0 **** 0.06
20706 C 79.49195441408602 69.20372975476033 133.89589682026005 C 0.0 **** -0.24
20707 H 80.40008422546484 68.76270029144274 133.48612651161235 H 0.0 **** 0.06
20708 H 79.55917337402167 70.2905204357113 133.83928288365385 H 0.0 **** 0.06
20709 H 79.37768558940266 68.8994605321234 134.93595082462443 H 0.0 **** 0.06
20710 H 78.63062909631591 68.86218043912467 133.32125930914148 H 0.0 **** 0.06
20711 C 71.1515311130444 119.46061802311897 82.22775400446793 C 0.0 **** -0.24
20712 H 71.55285773093242 120.44061293067517 82.48546004234315 H 0.0 **** 0.06
20713 H 71.18496985433485 119.32756278614914 81.14583178690563 H 0.0 **** 0.06
20714 H 70.11896952366762 119.38989546291555 82.57058543514671 H 0.0 **** 0.06
20715 H 71.74796749466482 118.68562816286078 82.70833574950498 H 0.0 **** 0.06
20716 C 122.83857826239088 99.70260626816021 134.1977099591152 C 0.0 **** -0.24
20717 H 122.47076664635378 100.72267056892086 134.09284874655495 H 0.0 **** 0.06
20718 H 123.34937449527294 99.59713168413136 135.15507865623482 H 0.0 **** 0.06
20719 H 123.53330759367597 99.48211233329323 133.38789638387703 H 0.0 **** 0.06
20720 H 121.99982122273556 99.0071446004662 134.1548005833851 H 0.0 **** 0.06
20721 C 26.860800765189325 103.78706716243802 48.98781075162333 C 0.0 **** -0.24
20722 H 27.380571340851724 102.953074572322 49.45978893480196 H 0.0 **** 0.06
20723 H 25.787015568640754 103.60430895609981 49.00705198806452 H 0.0 **** 0.06
20724 H 27.195603503070444 103.88529750659943 47.95461742451923 H 0.0 **** 0.06
20725 H 27.08330113476032 104.70633330320065 49.53057853820317 H 0.0 **** 0.06
20726 C 49.20176094448871 25.868311348418928 112.6898500892655 C 0.0 **** -0.24
20727 H 49.58562632452299 25.92735504287269 113.70825408158238 H 0.0 **** 0.06
20728 H 49.992867085111925 26.131527317154692 111.98784873191305 H 0.0 **** 0.06
20729 H 48.368582017161685 26.56173457979243 112.57526569777751 H 0.0 **** 0.06
20730 H 48.85991805291377 24.853026561678263 112.48894782441816 H 0.0 **** 0.06
20731 C 143.06953097575501 62.41577206848859 104.6774914623869 C 0.0 **** -0.24
20732 H 143.39047726383285 62.61602707361061 103.65512464682108 H 0.0 **** 0.06
20733 H 143.03325481707031 61.33843401926521 104.84240140967988 H 0.0 **** 0.06
20734 H 142.07954760187522 62.84199174215752 104.83722925247473 H 0.0 **** 0.06
20735 H 143.77584117365268 62.86734117777104 105.37449773641002 H 0.0 **** 0.06
20736 C 11.789264819956486 95.94445825841055 100.7278632098459 C 0.0 **** -0.24
20737 H 12.290990176427023 94.98181119454503 100.62945192594722 H 0.0 **** 0.06
20738 H 11.855144765776615 96.28345724963785 101.76150192067797 H 0.0 **** 0.06
20739 H 10.741470140642427 95.83808176025266 100.44551083429292 H 0.0 **** 0.06
20740 H 12.269826027287472 96.67356719863702 100.07483518957028 H 0.0 **** 0.06
20741 C 33.188569497454125 132.02618767846508 118.28716848353787 C 0.0 **** -0.24
20742 H 32.44006435813406 132.7613925170901 118.58101938099765 H 0.0 **** 0.06
20743 H 32.87318241727687 131.0356566362895 118.61695443620425 H 0.0 **** 0.06
20744 H 34.14364037177927 132.2760044047284 118.75037119232798 H 0.0 **** 0.06
20745 H 33.29749785001136 132.0321663942398 117.20329012270122 H 0.0 **** 0.06
20746 C 90.57311470009756 11.686520680542287 55.30533118372419 C 0.0 **** -0.24
20747 H 89.58330353507321 12.108884617796434 55.12821230691681 H 0.0 **** 0.06
20748 H 91.17768537818377 11.79082080165233 54.4049994545274 H 0.0 **** 0.06
20749 H 90.47579805356406 10.630752885971106 55.559416482233715 H 0.0 **** 0.06
20750 H 91.05141453546477 12.21550523062649 56.12962487849114 H 0.0 **** 0.06
20751 C 74.51501191773718 89.43366913802596 50.57715016776652 C 0.0 **** -0.24
20752 H 74.91140826057267 88.46191658269584 50.28347112724238 H 0.0 **** 0.06
20753 H 74.46525094812633 89.49260859458856 51.66456475369729 H 0.0 **** 0.06
20754 H 73.51604972139515 89.56071252549037 50.16017056918329 H 0.0 **** 0.06
20755 H 75.16841784402006 90.22163486490345 50.2005094231975 H 0.0 **** 0.06
20756 C 35.84231769585638 73.57282119042341 150.285855146953 C 0.0 **** -0.24
20757 H 36.84351095005856 73.99236044321634 150.38527533352007 H 0.0 **** 0.06
20758 H 35.19104218158649 74.00373072706279 151.0465427790114 H 0.0 **** 0.06
20759 H 35.887128257199336 72.49123720760363 150.4154607204497 H 0.0 **** 0.06
20760 H 35.448468414508895 73.80399969846667 149.2956669028452 H 0.0 **** 0.06
20761 C 57.18972138397116 52.624943049459134 73.92626116952157 C 0.0 **** -0.24
20762 H 56.708874387208596 52.60182831078724 74.90431657028614 H 0.0 **** 0.06
20763 H 56.70936882731968 53.38054116840638 73.30407035251864 H 0.0 **** 0.06
20764 H 57.094777608231766 51.649043543511794 73.4518201738647 H 0.0 **** 0.06
20765 H 58.24514020990755 52.870137195144 74.0463587518628 H 0.0 **** 0.06
20766 C 98.90085446539467 95.49714362996879 105.68210765788054 C 0.0 **** -0.24
20767 H 98.80717192855212 94.4195646434134 105.5447773272734 H 0.0 **** 0.06
20768 H 99.84590627752817 95.83574783986855 105.25806317160787 H 0.0 **** 0.06
20769 H 98.8748445091747 95.73019748167586 106.74687753483859 H 0.0 **** 0.06
20770 H 98.07412148603544 96.00010947312552 105.18025565477627 H 0.0 **** 0.06
20771 C 39.882298154691824 65.21748261346691 97.0642209152139 C 0.0 **** -0.24
20772 H 39.2802156912375 65.80361664568376 97.75762703143046 H 0.0 **** 0.06
20773 H 40.55471397767302 65.88022355604014 96.51780993916107 H 0.0 **** 0.06
20774 H 39.228312303710695 64.70336847218229 96.36002305031302 H 0.0 **** 0.06
20775 H 40.46654834336404 64.48452732785924 97.62024765618119 H 0.0 **** 0.06
20776 C 11.44037831169291 58.68063200571328 31.19969228530448 C 0.0 **** -0.24
20777 H 11.868050866535526 57.67766977358724 31.188010575852275 H 0.0 **** 0.06
20778 H 12.225588464528187 59.40661380371577 31.409418081931335 H 0.0 **** 0.06
20779 H 10.674777543879685 58.73960313694968 31.974084561691768 H 0.0 **** 0.06
20780 H 10.993610119980218 58.89696844576949 30.229692706958986 H 0.0 **** 0.06
20781 C 68.05627391897426 130.12813540863092 110.36556461769236 C 0.0 **** -0.24
20782 H 68.82061876884055 129.35869519488745 110.25569105351447 H 0.0 **** 0.06
20783 H 68.50866753867467 131.0325143074881 110.77193795482931 H 0.0 **** 0.06
20784 H 67.27866832444208 129.77308852806817 111.04177814288876 H 0.0 **** 0.06
20785 H 67.61870109892097 130.3460143014104 109.39095478568 H 0.0 **** 0.06
20786 C 81.80213038573007 71.38172248343108 48.870623540486704 C 0.0 **** -0.24
20787 H 81.0563759759095 70.93202602175813 48.21393412246991 H 0.0 **** 0.06
20788 H 81.41323327257348 71.42129608881623 49.88774075139179 H 0.0 **** 0.06
20789 H 82.02648726117965 72.39187531833505 48.526844895863036 H 0.0 **** 0.06
20790 H 82.71138631585032 70.78139767735132 48.85177567384136 H 0.0 **** 0.06
20791 C 149.39018447038765 38.2571612307577 25.032692189642887 C 0.0 **** -0.24
20792 H 150.3225254740947 38.203362658154326 24.47015110800342 H 0.0 **** 0.06
20793 H 149.4914206476456 38.989867196836954 25.833877386955464 H 0.0 **** 0.06
20794 H 149.16621343500628 37.27962730846188 25.458758920612695 H 0.0 **** 0.06
20795 H 148.58126636434676 38.55689635299078 24.36590821930949 H 0.0 **** 0.06
20796 C 150.0136229798007 135.94980149043363 39.02590240079826 C 0.0 **** -0.24
20797 H 149.4455921727292 135.44317954813843 39.806611514474454 H 0.0 **** 0.06
20798 H 149.545745641202 135.76422156125824 38.05887376424368 H 0.0 **** 0.06
20799 H 151.03460379737487 135.56892830624707 39.01535478541203 H 0.0 **** 0.06
20800 H 150.0272606956217 137.02138581827293 39.223825386473976 H 0.0 **** 0.06
20801 C 149.30467502882112 44.570843178276704 22.527925320098127 C 0.0 **** -0.24
20802 H 148.51784614674014 45.27564885590321 22.79758949624005 H 0.0 **** 0.06
20803 H 149.94403149106378 45.01563236966099 21.76512365062905 H 0.0 **** 0.06
20804 H 148.85577231426632 43.65616359635602 22.138597491027824 H 0.0 **** 0.06
20805 H 149.9000593872487 44.33606253471672 23.410374189337283 H 0.0 **** 0.06
20806 C 12.281066996687741 22.351830348995605 59.90804955327056 C 0.0 **** -0.24
20807 H 13.28731145258456 22.72907817824799 59.72643004990721 H 0.0 **** 0.06
20808 H 11.638612020778055 23.172700468043928 60.22849514568081 H 0.0 **** 0.06
20809 H 12.3138937505135 21.589291047082583 60.68625306296536 H 0.0 **** 0.06
20810 H 11.884785093839866 21.91767506463114 58.99009131403997 H 0.0 **** 0.06
20811 C 51.22334234241423 126.14041075280969 144.8759370497109 C 0.0 **** -0.24
20812 H 51.51892459388711 126.97407630835588 145.51260520783208 H 0.0 **** 0.06
20813 H 50.675008682115816 125.40792276092478 145.46777317532542 H 0.0 **** 0.06
20814 H 52.11365790731071 125.67361434317539 144.45276705244748 H 0.0 **** 0.06
20815 H 50.58761688613521 126.50581221677228 144.06934892467683 H 0.0 **** 0.06
20816 C 24.704860064157067 17.5788997766208 113.85481012581116 C 0.0 **** -0.24
20817 H 24.74264907635402 16.752817879242826 113.1448846626607 H 0.0 **** 0.06
20818 H 24.01083078047978 17.335763059071354 114.6592617200802 H 0.0 **** 0.06
20819 H 24.367938245237447 18.481438038320817 113.34396778953621 H 0.0 **** 0.06
20820 H 25.698801564315303 17.746528396609932 114.26925724199671 H 0.0 **** 0.06
20821 C 19.69222640674156 130.68977112887396 134.45242723083499 C 0.0 **** -0.24
20822 H 19.682503984115826 129.60188048414796 134.52030879820606 H 0.0 **** 0.06
20823 H 20.421035009804392 131.00093213883156 133.703172684033 H 0.0 **** 0.06
20824 H 19.962580096955143 131.11192648552193 135.4204345808028 H 0.0 **** 0.06
20825 H 18.70213028954099 131.04453551833683 134.1650626310575 H 0.0 **** 0.06
20826 C 76.59521404150067 53.16243110166522 139.9139251863712 C 0.0 **** -0.24
20827 H 76.89044794395491 52.37087132105853 139.22515560124486 H 0.0 **** 0.06
20828 H 75.70901788298889 53.66674574704801 139.52798787295117 H 0.0 **** 0.06
20829 H 77.40841349518269 53.8811745780429 140.0111770223894 H 0.0 **** 0.06
20830 H 76.37271888788177 52.73071214612716 140.88940922520572 H 0.0 **** 0.06
20831 C 75.54577749258866 18.720258615995327 113.48130212645468 C 0.0 **** -0.24
20832 H 76.21953251420712 19.344320919924527 112.894890270169 H 0.0 **** 0.06
20833 H 75.82400024337 18.775575974765502 114.5345208284826 H 0.0 **** 0.06
20834 H 75.61802117539898 17.687365940072695 113.13980091675141 H 0.0 **** 0.06
20835 H 74.52174287702121 19.073035957955746 113.35664757823007 H 0.0 **** 0.06
20836 C 109.46193836260649 11.724486910158795 126.23700362638132 C 0.0 **** -0.24
20837 H 110.5126066912426 11.53955044443287 126.45924680039477 H 0.0 **** 0.06
20838 H 109.37590003265133 12.187646867223108 125.25338947858893 H 0.0 **** 0.06
20839 H 109.04292396033615 12.389968521566267 126.9905137923599 H 0.0 **** 0.06
20840 H 108.91778807955934 10.780174090935887 126.24231809036434 H 0.0 **** 0.06
20841 C 24.42738814739878 12.739614853448444 145.7862267720524 C 0.0 **** -0.24
20842 H 23.54521393208573 12.249378473260691 146.19775735707455 H 0.0 **** 0.06
20843 H 24.527881546350834 13.733153771999667 146.22354815408124 H 0.0 **** 0.06
20844 H 24.321955217309863 12.827561359868014 144.70462526720843 H 0.0 **** 0.06
20845 H 25.312548500774753 12.148320320949637 146.0178889417521 H 0.0 **** 0.06
20846 C 101.37701324792783 59.570678478430196 147.01186186469576 C 0.0 **** -0.24
20847 H 101.70603144008831 60.49929953263886 147.47823451641565 H 0.0 **** 0.06
20848 H 102.16218098203078 59.19685460175482 146.35491680495275 H 0.0 **** 0.06
20849 H 100.47424605862099 59.755848084566196 146.43102793903 H 0.0 **** 0.06
20850 H 101.1673488979236 58.830857589232835 147.78497144846307 H 0.0 **** 0.06
20851 C 84.05868966498383 29.74488800573215 75.59553205419597 C 0.0 **** -0.24
20852 H 83.15492249081821 30.165987761470603 76.03680340078635 H 0.0 **** 0.06
20853 H 84.2635564478457 30.239166663684756 74.64635364050334 H 0.0 **** 0.06
20854 H 83.91788158523681 28.677510735021627 75.42767407589918 H 0.0 **** 0.06
20855 H 84.89900410144199 29.897840086512076 76.27389025658825 H 0.0 **** 0.06
20856 C 107.13851442269204 61.74025933366107 43.67692536721461 C 0.0 **** -0.24
20857 H 107.55775499049243 62.59844633849747 44.20204429744874 H 0.0 **** 0.06
20858 H 107.90853989096352 61.284006795996845 43.05452846994879 H 0.0 **** 0.06
20859 H 106.30980873020657 62.06779872954587 43.04934087443648 H 0.0 **** 0.06
20860 H 106.77893576493123 61.01094318584086 44.40279355663273 H 0.0 **** 0.06
20861 C 60.69098319995899 116.18350205939014 62.09334390957531 C 0.0 **** -0.24
20862 H 61.17837525168571 115.3322326633325 62.5680721136315 H 0.0 **** 0.06
20863 H 61.07402626685524 117.10833923862425 62.52459056923044 H 0.0 **** 0.06
20864 H 59.61483683977045 116.12438909038976 62.258283829614356 H 0.0 **** 0.06
20865 H 60.89598889260199 116.16833855866373 61.022428294285305 H 0.0 **** 0.06
20866 C 18.818490017879355 52.20389127518416 110.21209641633212 C 0.0 **** -0.24
20867 H 19.612505177714837 52.40030630525422 110.93188493400848 H 0.0 **** 0.06
20868 H 18.74133831670892 51.1299884077263 110.03890354493407 H 0.0 **** 0.06
20869 H 19.045282433672128 52.708119199101674 109.27349701755006 H 0.0 **** 0.06
20870 H 17.87257885192608 52.577107056863326 110.60505512027979 H 0.0 **** 0.06
20871 C 138.86717166212767 115.85738761275306 17.5357928653477 C 0.0 **** -0.24
20872 H 138.00773287419932 116.34988855839029 17.992264469431603 H 0.0 **** 0.06
20873 H 138.95664112364975 116.1731418505153 16.495867868626902 H 0.0 **** 0.06
20874 H 138.73019633055284 114.77642499344464 17.577889079799945 H 0.0 **** 0.06
20875 H 139.77207191960687 116.13057009705645 18.077921366171637 H 0.0 **** 0.06
20876 C 92.5081819551948 9.829392776436492 60.89767310253485 C 0.0 **** -0.24
20877 H 92.5556076318278 10.782276933831099 61.42600928159666 H 0.0 **** 0.06
20878 H 91.79660055404813 9.904073770480409 60.075924291032905 H 0.0 **** 0.06
20879 H 92.18853061322869 9.048310473937619 61.587228703790515 H 0.0 **** 0.06
20880 H 93.49483868733861 9.5837840409705 60.50379195679963 H 0.0 **** 0.06
20881 C 48.38092214940497 60.805987640978344 146.6155084965107 C 0.0 **** -0.24
20882 H 49.31915560509219 60.53529129865154 147.10116990633847 H 0.0 **** 0.06
20883 H 48.25696669378584 61.88812040690695 146.6443559036379 H 0.0 **** 0.06
20884 H 47.551743177486 60.33012224346798 147.1392210564667 H 0.0 **** 0.06
20885 H 48.3986784767381 60.468605187423535 145.57964641988295 H 0.0 **** 0.06
20886 C 16.257691965999356 96.22689948597939 17.60268990278766 C 0.0 **** -0.24
20887 H 17.316945924946864 96.40441709694309 17.417549358376704 H 0.0 **** 0.06
20888 H 16.06460942897703 96.2629591862767 18.674234240419963 H 0.0 **** 0.06
20889 H 15.981373240204633 95.24570128316068 17.215501879074395 H 0.0 **** 0.06
20890 H 15.667779145353308 96.99455059753902 17.10102552318449 H 0.0 **** 0.06
20891 C 125.07446521393031 87.0309339036325 72.67227685520388 C 0.0 **** -0.24
20892 H 125.0450587173063 86.03379121030413 73.11173811339694 H 0.0 **** 0.06
20893 H 125.99718585694711 87.53109421507654 72.96771515524887 H 0.0 **** 0.06
20894 H 124.2191057901861 87.60811789183361 73.02302943596248 H 0.0 **** 0.06
20895 H 125.03660049035959 86.95045381703083 71.5852410897773 H 0.0 **** 0.06
20896 C 123.48061717167417 1.7253449399795215 42.516543360201254 C 0.0 **** -0.24
20897 H 123.70493155560723 1.0580927032465013 43.34812976939136 H 0.0 **** 0.06
20898 H 124.14091145094932 1.4972631033247978 41.67972340905102 H 0.0 **** 0.06
20899 H 123.63284421125906 2.7588155947669577 42.82911630901553 H 0.0 **** 0.06
20900 H 122.44366195592619 1.5872140391495293 42.21019678816987 H 0.0 **** 0.06
20901 C 35.37011862487324 131.27212977033867 100.54850164277244 C 0.0 **** -0.24
20902 H 35.18527501995041 132.34319447558684 100.46699263416409 H 0.0 **** 0.06
20903 H 36.439851581323126 131.09734728122248 100.66716081169679 H 0.0 **** 0.06
20904 H 35.01753068526327 130.77316022200267 99.64580921462655 H 0.0 **** 0.06
20905 H 34.83885370131716 130.87678054872978 101.4137779144539 H 0.0 **** 0.06
20906 C 11.19523444484576 51.60755022740638 135.28299537513914 C 0.0 **** -0.24
20907 H 11.310001508577663 50.614824136802085 135.71872571575193 H 0.0 **** 0.06
20908 H 10.4383994497761 51.573980434087986 134.49830282373793 H 0.0 **** 0.06
20909 H 12.145867654803396 51.93060887727532 134.8588726487961 H 0.0 **** 0.06
20910 H 10.88458185708614 52.30983656795564 136.0569400574087 H 0.0 **** 0.06
20911 C 49.94013860654778 39.227767009622355 110.09257319694318 C 0.0 **** -0.24
20912 H 49.680925949177876 38.18210084380742 110.26102373539182 H 0.0 **** 0.06
20913 H 50.5016607788118 39.60417559557558 110.94736960208782 H 0.0 **** 0.06
20914 H 49.02877337145681 39.81269525004173 109.9692774582157 H 0.0 **** 0.06
20915 H 50.549511230462045 39.30968695837855 109.19292960897901 H 0.0 **** 0.06
20916 C 82.26128576168601 0.7001783019049981 86.83804842295142 C 0.0 **** -0.24
20917 H 83.31650704506542 0.5577269866948313 86.60170924743763 H 0.0 **** 0.06
20918 H 82.15970416866264 1.4893626135235536 87.5830543210595 H 0.0 **** 0.06
20919 H 81.85027821560476 -0.22844752707567295 87.23434548152304 H 0.0 **** 0.06
20920 H 81.72092253065179 0.980027394205365 85.93390654470872 H 0.0 **** 0.06
20921 C 128.679133927467 34.703572443910716 87.9172744112287 C 0.0 **** -0.24
20922 H 128.61200422257846 35.78480987041234 87.79656519144746 H 0.0 **** 0.06
20923 H 128.24365962040017 34.41667349930938 88.87469836419884 H 0.0 **** 0.06
20924 H 129.7257491234533 34.399732871706824 87.88793762280277 H 0.0 **** 0.06
20925 H 128.13585736424906 34.21380594870929 87.1085093792044 H 0.0 **** 0.06
20926 C 27.484189755015052 5.828787562726234 65.39058305111342 C 0.0 **** -0.24
20927 H 27.625322156233096 5.966411486419361 64.31879260237025 H 0.0 **** 0.06
20928 H 26.989440264345717 6.70769755220428 65.80671132518853 H 0.0 **** 0.06
20929 H 28.45392234599393 5.696697883805911 65.87050752890718 H 0.0 **** 0.06
20930 H 26.8679239074836 4.947138434480763 65.56672703766765 H 0.0 **** 0.06
20931 C 12.284274708551784 91.89657506510852 12.933878120527766 C 0.0 **** -0.24
20932 H 11.375120444408246 92.37164213849255 12.565024096793934 H 0.0 **** 0.06
20933 H 12.451263521215026 90.96451113437558 12.392040389710019 H 0.0 **** 0.06
20934 H 12.177544528186687 91.68506371964331 13.998083985728158 H 0.0 **** 0.06
20935 H 13.131924655413101 92.56408809491082 12.778796182528822 H 0.0 **** 0.06
20936 C 30.129517147144888 56.20146912066363 74.82222923393537 C 0.0 **** -0.24
20937 H 29.317895500256682 55.80821615022208 75.43536864035491 H 0.0 **** 0.06
20938 H 30.35804919484935 57.221152715512375 75.13341242659621 H 0.0 **** 0.06
20939 H 29.827396731030134 56.19834546075799 73.77539498454729 H 0.0 **** 0.06
20940 H 31.01342525641836 55.57606819577293 74.94737163440189 H 0.0 **** 0.06
20941 C 26.10678646073049 100.39432511527153 103.46398782460125 C 0.0 **** -0.24
20942 H 26.867710134220573 99.61475039434202 103.45631621139518 H 0.0 **** 0.06
20943 H 26.27779957727418 101.06149987189634 104.3098157643388 H 0.0 **** 0.06
20944 H 25.12073272225038 99.93841444433627 103.55318406339939 H 0.0 **** 0.06
20945 H 26.16100224077664 100.96371353644973 102.5357249390052 H 0.0 **** 0.06
20946 C 67.42335574576677 144.81189713960143 121.36782131221283 C 0.0 **** -0.24
20947 H 68.35133243656622 144.36562508551523 121.00944298990571 H 0.0 **** 0.06
20948 H 67.6499672656733 145.71485788731235 121.9338447685909 H 0.0 **** 0.06
20949 H 66.90270258304537 144.10124231276274 122.00921858606021 H 0.0 **** 0.06
20950 H 66.79095291011336 145.0641602585756 120.51582042828794 H 0.0 **** 0.06
20951 C 6.4139504493043695 54.32241467309147 46.677170589687435 C 0.0 **** -0.24
20952 H 5.371534341476838 54.630889952215156 46.76222455889052 H 0.0 **** 0.06
20953 H 6.612371887781936 53.9911106436909 45.657151418126446 H 0.0 **** 0.06
20954 H 6.6072468114354805 53.50304614396438 47.36892790449676 H 0.0 **** 0.06
20955 H 7.063026712087314 55.16377016593434 46.91956575733617 H 0.0 **** 0.06
20956 C 22.986764934461732 57.873274776865046 115.81576711855762 C 0.0 **** -0.24
20957 H 23.5924636359237 58.777944848903516 115.77162421194295 H 0.0 **** 0.06
20958 H 23.53945605707292 57.09153334220089 116.33554907947088 H 0.0 **** 0.06
20959 H 22.754075331043147 57.542922742614095 114.80335239553013 H 0.0 **** 0.06
20960 H 22.06029189480099 58.082409918718696 116.35132917164701 H 0.0 **** 0.06
20961 C 62.55934959326382 137.66314980792495 141.60059503174267 C 0.0 **** -0.24
20962 H 61.545268624527566 138.06347767308299 141.6094208350726 H 0.0 **** 0.06
20963 H 63.2217429303935 138.36440132193272 141.0921406097951 H 0.0 **** 0.06
20964 H 62.56791613550966 136.70819445861045 141.07666820415426 H 0.0 **** 0.06
20965 H 62.90097436982188 137.51821221407178 142.62636798727834 H 0.0 **** 0.06
20966 C 35.94137546879263 28.72684662632986 32.11906647009736 C 0.0 **** -0.24
20967 H 35.1471045694276 29.388872355587836 32.46483832822848 H 0.0 **** 0.06
20968 H 35.50936176834114 27.783956677241548 31.785635600936843 H 0.0 **** 0.06
20969 H 36.63878551930935 28.539243820951782 32.93498856401207 H 0.0 **** 0.06
20970 H 36.470622969482875 29.1977020322918 31.290407452571337 H 0.0 **** 0.06
20971 C 12.76556605704674 113.53741497935697 53.01944805895468 C 0.0 **** -0.24
20972 H 12.529649695817099 114.55104885994258 53.3419232884732 H 0.0 **** 0.06
20973 H 12.159522717949542 113.28185417135678 52.15017213423653 H 0.0 **** 0.06
20974 H 12.551433661302724 112.83906776934653 53.829164685056554 H 0.0 **** 0.06
20975 H 13.82132981060068 113.47611359491633 52.75717246534188 H 0.0 **** 0.06
20976 C 64.08062500435037 93.44726901260944 121.66874898841473 C 0.0 **** -0.24
20977 H 64.75379021825418 93.27999998109104 122.5091263575573 H 0.0 **** 0.06
20978 H 63.213537933011 94.01478147710517 122.00669439465742 H 0.0 **** 0.06
20979 H 63.75394596982552 92.48766703862643 121.26889861738744 H 0.0 **** 0.06
20980 H 64.60145947199105 94.00596748257038 120.892150055439 H 0.0 **** 0.06
20981 C 67.79540878285879 122.52893270369653 106.66894346901789 C 0.0 **** -0.24
20982 H 68.34575728118044 121.5986829664602 106.81222453952584 H 0.0 **** 0.06
20983 H 68.44055318538743 123.26152425577253 106.1835294014444 H 0.0 **** 0.06
20984 H 67.47232445612302 122.9121754495411 107.636663462621 H 0.0 **** 0.06
20985 H 66.92270715811921 122.34113498772054 106.04234836306632 H 0.0 **** 0.06
20986 C 12.968518326534678 136.46452689369235 51.717679809332225 C 0.0 **** -0.24
20987 H 12.44917161974675 137.39281986459272 51.956096773778796 H 0.0 **** 0.06
20988 H 14.02047310417376 136.67628033700728 51.5284548699027 H 0.0 **** 0.06
20989 H 12.521253433730266 136.01603936874525 50.83045179536546 H 0.0 **** 0.06
20990 H 12.881335723852004 135.77384096741858 52.556640263328774 H 0.0 **** 0.06
20991 C 29.19560217237676 68.69130811163352 106.44788866740417 C 0.0 **** -0.24
20992 H 28.481367993193388 68.77447991165995 105.62864665405901 H 0.0 **** 0.06
20993 H 29.385729868209303 69.68086267760836 106.86501424798233 H 0.0 **** 0.06
20994 H 30.128168127226665 68.26878011495026 106.07406208971518 H 0.0 **** 0.06
20995 H 28.786690156729172 68.04305098129805 107.22240794522715 H 0.0 **** 0.06
20996 C 72.8681016333058 55.99698122383788 130.61316536068884 C 0.0 **** -0.24
20997 H 73.56393776783301 55.70290687900109 131.39842761502246 H 0.0 **** 0.06
20998 H 72.9716931820237 55.32205861414485 129.76378456805068 H 0.0 **** 0.06
20999 H 73.08887470189211 57.016678013661405 130.29665751788764 H 0.0 **** 0.06
21000 H 71.8482162595032 55.94792486512202 130.99423854291322 H 0.0 **** 0.06
21001 C 38.505972056123746 102.89897605957192 99.05594021798747 C 0.0 **** -0.24
21002 H 38.57599346869109 103.27544772122691 98.03477636175136 H 0.0 **** 0.06
21003 H 37.46481973813844 102.91721642088355 99.37857257126029 H 0.0 **** 0.06
21004 H 39.10245365426077 103.52804446634148 99.71645752686607 H 0.0 **** 0.06
21005 H 38.88003587251745 101.8758340294507 99.09166315347576 H 0.0 **** 0.06
21006 C 74.03287442713918 140.7265789426199 50.16318411626226 C 0.0 **** -0.24
21007 H 74.83404284422356 141.360144283096 50.543332243989184 H 0.0 **** 0.06
21008 H 74.41736775759242 139.7207478061229 49.99036300986195 H 0.0 **** 0.06
21009 H 73.65768640284409 141.1378277001124 49.2255925626996 H 0.0 **** 0.06
21010 H 73.22379351058636 140.68682144728515 50.89158843173044 H 0.0 **** 0.06
21011 C 78.31239570788476 38.95336615368751 104.9993901182867 C 0.0 **** -0.24
21012 H 77.9065463884593 39.21400165664727 104.02244594883766 H 0.0 **** 0.06
21013 H 77.8506643529125 38.03053890834747 105.35082506599812 H 0.0 **** 0.06
21014 H 78.10221519327034 39.75733218870039 105.70559850973731 H 0.0 **** 0.06
21015 H 79.39039885969665 38.81331849012008 104.92009108752373 H 0.0 **** 0.06
21016 C 143.40668383179545 61.953564125152155 21.415645826237586 C 0.0 **** -0.24
21017 H 144.2163914716736 61.41091537007375 20.927505108596087 H 0.0 **** 0.06
21018 H 143.79757250015732 62.48203887445126 22.285931424349776 H 0.0 **** 0.06
21019 H 142.63738329691893 61.25015334479497 21.733957683677197 H 0.0 **** 0.06
21020 H 142.97694693389616 62.67109773122914 20.71707787298738 H 0.0 **** 0.06
21021 C 136.12301432748362 69.05675431900917 49.86953702880166 C 0.0 **** -0.24
21022 H 135.11083755775826 69.42078077050894 50.046071490087826 H 0.0 **** 0.06
21023 H 136.07950325176705 68.11643847795759 49.31891062912595 H 0.0 **** 0.06
21024 H 136.6222707908396 68.89719617925081 50.8239780058266 H 0.0 **** 0.06
21025 H 136.67657462455216 69.79285798807076 49.28726660981354 H 0.0 **** 0.06
21026 C 110.48779929419739 115.87956248131272 74.50082822588541 C 0.0 **** -0.24
21027 H 111.25656287024135 116.61362817204846 74.26162000747792 H 0.0 **** 0.06
21028 H 110.8633445821955 115.19565068840743 75.26233981518192 H 0.0 **** 0.06
21029 H 110.22911440982143 115.31737770652924 73.60302650680747 H 0.0 **** 0.06
21030 H 109.60205538525956 116.39140880705108 74.87730207108596 H 0.0 **** 0.06
21031 C 54.09408174313528 122.50286488027626 20.957935647118518 C 0.0 **** -0.24
21032 H 54.71797884368817 121.90825230830717 21.624746532553075 H 0.0 **** 0.06
21033 H 53.5227803888059 121.83833206654708 20.307939129516825 H 0.0 **** 0.06
21034 H 54.726166340581855 123.14997306515687 20.349726352600783 H 0.0 **** 0.06
21035 H 53.409646006218196 123.11184889066755 21.54718145580574 H 0.0 **** 0.06
21036 C 126.65108129862844 142.42908058584433 64.76152932021867 C 0.0 **** -0.24
21037 H 125.83005453463406 141.7886565889332 65.08312631057794 H 0.0 **** 0.06
21038 H 127.42735034116563 141.81956203356805 64.29816011764689 H 0.0 **** 0.06
21039 H 127.06472291442626 142.95034573725235 65.62563278054009 H 0.0 **** 0.06
21040 H 126.2825312674677 143.15791115289613 64.04056377623317 H 0.0 **** 0.06
21041 C 66.73271277951545 1.1327276763295053 14.829387427123464 C 0.0 **** -0.24
21042 H 65.87916794041618 0.6369744002153226 15.292455892889649 H 0.0 **** 0.06
21043 H 67.05082792564613 0.5651861615897893 13.95463667364703 H 0.0 **** 0.06
21044 H 67.55223456777925 1.190229799188085 15.544752351950393 H 0.0 **** 0.06
21045 H 66.44521473346316 2.1388793416287264 14.524577360992112 H 0.0 **** 0.06
21046 C 54.1740380232352 77.93259999891623 61.58939932192652 C 0.0 **** -0.24
21047 H 54.528289667297855 77.06567321480154 62.14644705787501 H 0.0 **** 0.06
21048 H 53.35857477958493 77.63291579478667 60.93082998278524 H 0.0 **** 0.06
21049 H 54.991872733805195 78.33926116356903 60.99346424721648 H 0.0 **** 0.06
21050 H 53.81918859477017 78.69186291994177 62.28531248604702 H 0.0 **** 0.06
21051 C 116.95283158359045 130.28209667982193 76.10327780154714 C 0.0 **** -0.24
21052 H 116.27890689143088 130.71886939964494 76.8406648135773 H 0.0 **** 0.06
21053 H 117.67469244294985 131.0322209102669 75.78154655930925 H 0.0 **** 0.06
21054 H 116.37700688641665 129.93874929072317 75.2437343305201 H 0.0 **** 0.06
21055 H 117.4796600882285 129.43808447262606 76.5484548494161 H 0.0 **** 0.06
21056 C 38.67415624744454 56.58310920879188 16.748144998400875 C 0.0 **** -0.24
21057 H 38.902320880613516 55.677983136310445 17.311463022640197 H 0.0 **** 0.06
21058 H 37.68798879603696 56.48774764778668 16.293087380139724 H 0.0 **** 0.06
21059 H 39.42221051635394 56.72475212579943 15.968831494510795 H 0.0 **** 0.06
21060 H 38.682362512071755 57.44122853985547 17.41986021897415 H 0.0 **** 0.06
21061 C 121.0177796692822 92.78815024201614 11.957965433600975 C 0.0 **** -0.24
21062 H 120.57728490111971 93.28682686418082 11.095046873362321 H 0.0 **** 0.06
21063 H 122.10191974668017 92.89966408814263 11.926430317631684 H 0.0 **** 0.06
21064 H 120.75951844867048 91.73000059780051 11.937158971795128 H 0.0 **** 0.06
21065 H 120.63344162185744 93.23832132346149 12.873341724013642 H 0.0 **** 0.06
21066 C 11.35914518288979 143.99331651966634 118.10392999579474 C 0.0 **** -0.24
21067 H 10.504125981725508 144.54528717464197 118.49513335696636 H 0.0 **** 0.06
21068 H 11.874709637868932 144.60276812812518 117.36185216521974 H 0.0 **** 0.06
21069 H 11.013409711836971 143.07019831541987 117.63924383198096 H 0.0 **** 0.06
21070 H 12.042443052375916 143.7568760550651 118.91851783509352 H 0.0 **** 0.06
21071 C 75.51474739850788 22.53000027018507 70.46755550467748 C 0.0 **** -0.24
21072 H 74.94182091689176 22.97597134841783 71.28072863390241 H 0.0 **** 0.06
21073 H 76.325265639863 23.201504922367263 70.18277629631649 H 0.0 **** 0.06
21074 H 74.86153761495288 22.364633834962433 69.6108522890919 H 0.0 **** 0.06
21075 H 75.93020796895135 21.577032883913574 70.79635359867888 H 0.0 **** 0.06
21076 C 10.582591653450635 76.60402485490374 82.93332735624864 C 0.0 **** -0.24
21077 H 10.668802102578866 76.35480888736512 81.87552224284065 H 0.0 **** 0.06
21078 H 11.160056695069215 77.50565247829942 83.14148666457794 H 0.0 **** 0.06
21079 H 10.96558027197608 75.779128338947 83.53382125797475 H 0.0 **** 0.06
21080 H 9.535317927654262 76.77765551167906 83.18065835304816 H 0.0 **** 0.06
21081 C 68.57907381097884 125.72563676829515 54.122885834430605 C 0.0 **** -0.24
21082 H 69.39195665447535 126.44355779556065 54.01007007823837 H 0.0 **** 0.06
21083 H 68.86608200919001 124.96126149129373 54.84434073846266 H 0.0 **** 0.06
21084 H 68.37155939315939 125.25798340079251 53.16014256777109 H 0.0 **** 0.06
21085 H 67.68565541832685 126.24174074521835 54.475007632575554 H 0.0 **** 0.06
21086 C 104.52055987888563 107.20161310471616 76.27769730023867 C 0.0 **** -0.24
21087 H 105.44993876686242 107.0440307588654 76.82487932321662 H 0.0 **** 0.06
21088 H 104.70348442289664 107.86584932822814 75.4329823552036 H 0.0 **** 0.06
21089 H 103.78111861009448 107.6513714102968 76.94063136648072 H 0.0 **** 0.06
21090 H 104.14685950379261 106.2448390241147 75.91337620434811 H 0.0 **** 0.06
21091 C 143.1963292793086 40.12425464606011 116.79081821191063 C 0.0 **** -0.24
21092 H 143.216151424607 41.1718574075647 116.49378631670491 H 0.0 **** 0.06
21093 H 142.49603140244434 39.99280720112765 117.61556600931677 H 0.0 **** 0.06
21094 H 144.19353889823614 39.817557919959654 117.10921834138206 H 0.0 **** 0.06
21095 H 142.88166822103886 39.51263715974777 115.94490924957536 H 0.0 **** 0.06
21096 C 91.87269003112672 96.478763648772 76.36813088511732 C 0.0 **** -0.24
21097 H 92.6622643469725 95.77448049071339 76.63009102592169 H 0.0 **** 0.06
21098 H 91.20563390975374 96.60934410963796 77.22094587209403 H 0.0 **** 0.06
21099 H 91.30736887284203 96.09220821435733 75.52070458581495 H 0.0 **** 0.06
21100 H 92.3158155522433 97.43823508743856 76.1022910897081 H 0.0 **** 0.06
21101 C 123.1617638824204 126.0270953357919 70.17922809110911 C 0.0 **** -0.24
21102 H 123.33149915621247 126.08777916234013 71.2537884010409 H 0.0 **** 0.06
21103 H 122.4601713180384 126.80590746054474 69.87900973516638 H 0.0 **** 0.06
21104 H 122.74762563372674 125.04950194213603 69.93179898412806 H 0.0 **** 0.06
21105 H 124.10578082947872 126.16622977333822 69.65332024827204 H 0.0 **** 0.06
21106 C 5.597073535818112 60.00020040303053 44.700682993806595 C 0.0 **** -0.24
21107 H 6.10651976405515 60.757851060906944 45.296369586062895 H 0.0 **** 0.06
21108 H 5.390983919051223 60.39817747190489 43.70714295850922 H 0.0 **** 0.06
21109 H 4.6596368315168775 59.72778514800581 45.18614757423501 H 0.0 **** 0.06
21110 H 6.231339943072925 59.11827628804059 44.61488998921419 H 0.0 **** 0.06
21111 C 29.519730865729457 3.5856801482451317 100.00413122670501 C 0.0 **** -0.24
21112 H 29.737167655655867 3.5923078234654042 101.07255334707882 H 0.0 **** 0.06
21113 H 28.48122361557364 3.8749655706906765 99.84271832645351 H 0.0 **** 0.06
21114 H 29.68426107695322 2.584275402015578 99.60712391526609 H 0.0 **** 0.06
21115 H 30.176779783830767 4.290643582033425 99.49624176397471 H 0.0 **** 0.06
21116 C 138.330772991382 74.6708720379053 130.47387973358087 C 0.0 **** -0.24
21117 H 138.7125923010776 73.88015862062858 131.12061911963485 H 0.0 **** 0.06
21118 H 137.26348894121315 74.51965714831121 130.30684572059795 H 0.0 **** 0.06
21119 H 138.85604638080005 74.64388353522637 129.51952133834604 H 0.0 **** 0.06
21120 H 138.49102130775063 75.63811091071895 130.9503164325282 H 0.0 **** 0.06
21121 C 112.20761346246924 148.06714237073726 105.65276382932012 C 0.0 **** -0.24
21122 H 112.98770873857167 147.8029681722378 104.93861199267496 H 0.0 **** 0.06
21123 H 112.14660540350401 147.3002048151726 106.4254826135462 H 0.0 **** 0.06
21124 H 111.25079889725659 148.1404882919407 105.13586660002824 H 0.0 **** 0.06
21125 H 112.44605954689472 149.02657274230518 106.11193843049227 H 0.0 **** 0.06
21126 C 43.65527698135419 106.99861639419647 80.33840981828132 C 0.0 **** -0.24
21127 H 43.649640801810065 108.06541570725604 80.56134687558591 H 0.0 **** 0.06
21128 H 44.63309450516944 106.7130935781967 79.94918862993438 H 0.0 **** 0.06
21129 H 42.88966719032692 106.78025715629515 79.59301970300305 H 0.0 **** 0.06
21130 H 43.44731573931851 106.43629776565759 81.24815776606647 H 0.0 **** 0.06
21131 C 36.75197972298801 12.229108676451176 47.075399245498545 C 0.0 **** -0.24
21132 H 37.41660153971165 12.56879522407283 46.28047572269924 H 0.0 **** 0.06
21133 H 36.6073350785895 11.151579367986074 46.99148837625327 H 0.0 **** 0.06
21134 H 35.79048725260844 12.7334741022282 46.98510976554765 H 0.0 **** 0.06
21135 H 37.19529708039889 12.461902194017284 48.04301143124782 H 0.0 **** 0.06
21136 C 105.02666743412412 20.721537506169824 14.52953746775259 C 0.0 **** -0.24
21137 H 105.28406699017818 21.75153736388401 14.77651772447652 H 0.0 **** 0.06
21138 H 105.11510372487503 20.101797224097766 15.421715970553322 H 0.0 **** 0.06
21139 H 105.70496973194857 20.352659611301192 13.760386921689587 H 0.0 **** 0.06
21140 H 104.00232572372725 20.682370716376113 14.159299032814289 H 0.0 **** 0.06
21141 C 41.887449203460875 126.51414745625334 128.99285501525063 C 0.0 **** -0.24
21142 H 41.814252586172955 125.65319515697996 128.32723580446884 H 0.0 **** 0.06
21143 H 42.75116676799877 126.39479327414642 129.64652084023564 H 0.0 **** 0.06
21144 H 40.98199749445848 126.58370991155499 129.5957710577929 H 0.0 **** 0.06
21145 H 42.00154217218832 127.42205965947238 128.40136395378786 H 0.0 **** 0.06
21146 C 131.21855361222032 34.05247076215805 111.95193694135459 C 0.0 **** -0.24
21147 H 131.9083818176876 33.734533800213825 112.73358815026195 H 0.0 **** 0.06
21148 H 130.9376657527457 33.191193518371136 111.3448273577785 H 0.0 **** 0.06
21149 H 131.70205722979824 34.79884709110026 111.32299493325603 H 0.0 **** 0.06
21150 H 130.3268518701356 34.48258974392772 112.40736545181174 H 0.0 **** 0.06
21151 C 129.61133277030697 45.40182109529066 143.05705461951976 C 0.0 **** -0.24
21152 H 128.73659305420932 44.75591406844127 142.9764317110647 H 0.0 **** 0.06
21153 H 129.40243303482958 46.357640148285 142.575034520409 H 0.0 **** 0.06
21154 H 130.46062938641714 44.9248213842821 142.56817937227075 H 0.0 **** 0.06
21155 H 129.84469388329407 45.56798487023592 144.1090002905732 H 0.0 **** 0.06
21156 C 17.91462710682751 142.78604454981252 57.422827301511745 C 0.0 **** -0.24
21157 H 18.214374223253316 143.8116076684035 57.64199275666755 H 0.0 **** 0.06
21158 H 16.90373456466446 142.61683101150027 57.794089392528264 H 0.0 **** 0.06
21159 H 18.601847079811563 142.09429164912157 57.9090742396595 H 0.0 **** 0.06
21160 H 17.938319636547618 142.62375607529455 56.345366588332155 H 0.0 **** 0.06
21161 C 42.90007765149352 109.83314732148676 13.930108512403883 C 0.0 **** -0.24
21162 H 42.59062072897569 110.08622771969357 14.94325763385769 H 0.0 **** 0.06
21163 H 43.92331206416458 110.17199009266301 13.767481937116543 H 0.0 **** 0.06
21164 H 42.23733472531808 110.32032430149906 13.214773699954158 H 0.0 **** 0.06
21165 H 42.849218074749274 108.7523623448119 13.794559051846235 H 0.0 **** 0.06
21166 C 115.92493972945712 126.20807741156233 3.3908619763814762 C 0.0 **** -0.24
21167 H 115.46276385699392 126.36930175934013 2.4170690580091865 H 0.0 **** 0.06
21168 H 117.00848156534371 126.15911677999674 3.2746144017245022 H 0.0 **** 0.06
21169 H 115.56198475467752 125.2714251073967 3.8143435481394405 H 0.0 **** 0.06
21170 H 115.66756616966009 127.0317196899151 4.056815227305478 H 0.0 **** 0.06
21171 C 18.742471133438812 21.951936062119728 63.73489286496289 C 0.0 **** -0.24
21172 H 17.937833664349625 21.45612069145062 63.19234597482338 H 0.0 **** 0.06
21173 H 19.23067261322427 22.674680202276477 63.081525672731246 H 0.0 **** 0.06
21174 H 19.469866579870143 21.20938979883016 64.0636989065936 H 0.0 **** 0.06
21175 H 18.33114730568846 22.467164316085984 64.60417252017236 H 0.0 **** 0.06
21176 C 108.47659168188721 18.620420439116756 101.37270073745972 C 0.0 **** -0.24
21177 H 108.79024634481999 19.59201967333204 101.75434083186855 H 0.0 **** 0.06
21178 H 107.4229263214715 18.462635525423615 101.60063861254663 H 0.0 **** 0.06
21179 H 109.0721414218624 17.83792581907504 101.8436701479941 H 0.0 **** 0.06
21180 H 108.62484962924174 18.588723827188446 100.29371586441404 H 0.0 **** 0.06
21181 C 1.3634233150269495 114.49712872374357 118.6204977901583 C 0.0 **** -0.24
21182 H 0.9195656979444493 113.59332491642681 119.03952240368521 H 0.0 **** 0.06
21183 H 0.8964060987127311 115.37316476461064 119.0706791561697 H 0.0 **** 0.06
21184 H 1.203779177627979 114.51318397023226 117.54258988832485 H 0.0 **** 0.06
21185 H 2.432868844957369 114.50704301357479 118.8304702685184 H 0.0 **** 0.06
21186 C 139.20814657149285 103.45329218478491 37.0696847018209 C 0.0 **** -0.24
21187 H 140.24970918238824 103.58269005093575 36.777123648261075 H 0.0 **** 0.06
21188 H 139.0588718112337 102.43892972534465 37.44072561490065 H 0.0 **** 0.06
21189 H 138.56435413331124 103.62232488781638 36.207248803215926 H 0.0 **** 0.06
21190 H 138.95989044952117 104.16725859724227 37.855082911729376 H 0.0 **** 0.06
21191 C 111.13793751908854 149.25589514788922 81.00447197487134 C 0.0 **** -0.24
21192 H 111.45666183316435 148.9333817596255 81.99528395534003 H 0.0 **** 0.06
21193 H 111.49986046114022 150.26675476297373 80.81762687082616 H 0.0 **** 0.06
21194 H 110.04909582772903 149.24379120515763 80.95172954285746 H 0.0 **** 0.06
21195 H 111.54575984268781 148.57864285783944 80.25416486033313 H 0.0 **** 0.06
21196 C 144.8580982758295 1.19702203626926 84.35072176967276 C 0.0 **** -0.24
21197 H 145.11868256114923 2.150136317854134 83.89094196749737 H 0.0 **** 0.06
21198 H 145.4783679452198 0.4071315679412635 83.9265907930904 H 0.0 **** 0.06
21199 H 143.8073770126801 0.9763192937161023 84.16107042672093 H 0.0 **** 0.06
21200 H 145.02847815710157 1.254707282440421 85.42645065981496 H 0.0 **** 0.06
21201 C 63.32079715980346 29.097822481839444 22.792611712842728 C 0.0 **** -0.24
21202 H 62.79218731835611 28.600836836959914 21.978829549993378 H 0.0 **** 0.06
21203 H 63.22527061784879 30.17805591341738 22.681310732135785 H 0.0 **** 0.06
21204 H 64.37548724802218 28.820828941485274 22.762018400699247 H 0.0 **** 0.06
21205 H 62.891524651030835 28.790230275327204 23.74592835314911 H 0.0 **** 0.06
21206 C 90.99982375838069 130.92928352551354 62.093526904685746 C 0.0 **** -0.24
21207 H 90.69910869126528 130.8819819210509 63.13965044016558 H 0.0 **** 0.06
21208 H 91.12670006414015 129.91734042083684 61.70552930991954 H 0.0 **** 0.06
21209 H 91.9417591838223 131.47068208355816 62.01057084618387 H 0.0 **** 0.06
21210 H 90.23138369245562 131.4449815451018 61.51723104476088 H 0.0 **** 0.06
21211 C 93.83666907075266 53.57398244596814 20.074957544998398 C 0.0 **** -0.24
21212 H 93.77789020274241 52.81828151504217 20.858892279272197 H 0.0 **** 0.06
21213 H 92.83845476926746 53.76912835399742 19.683842799732986 H 0.0 **** 0.06
21214 H 94.47928225031515 53.213672397744276 19.271121439507652 H 0.0 **** 0.06
21215 H 94.25263023032342 54.4929450496024 20.487943657939212 H 0.0 **** 0.06
21216 C 51.80300549355799 60.0765789646793 0.6396141086691784 C 0.0 **** -0.24
21217 H 51.06427403167561 60.85286117326369 0.440711529097662 H 0.0 **** 0.06
21218 H 51.60557456448538 59.62771075337193 1.6131888866871087 H 0.0 **** 0.06
21219 H 52.80093872553371 60.51686711835707 0.6373448594797679 H 0.0 **** 0.06
21220 H 51.74190685233046 59.31155596970295 -0.13395956689538124 H 0.0 **** 0.06
21221 C 7.116982399786366 113.3448228317092 106.66874575297983 C 0.0 **** -0.24
21222 H 7.244653270906355 112.41763668282377 107.22656511650136 H 0.0 **** 0.06
21223 H 7.119545030954356 113.12866751831851 105.60001293931201 H 0.0 **** 0.06
21224 H 7.933702705585091 114.02628562862068 106.90377517562679 H 0.0 **** 0.06
21225 H 6.167869277504536 113.80640860893678 106.94412802182372 H 0.0 **** 0.06
21226 C 58.09383626575466 128.06503265420648 107.2431113583887 C 0.0 **** -0.24
21227 H 58.358227873730215 128.33289454293322 108.26587308770824 H 0.0 **** 0.06
21228 H 57.093925697014555 128.4376295496336 107.01687485591272 H 0.0 **** 0.06
21229 H 58.111047345404245 126.98130497244162 107.13561945711847 H 0.0 **** 0.06
21230 H 58.81115233010222 128.51090985004046 106.55361611000156 H 0.0 **** 0.06
21231 C 32.944267784389666 116.3076680715715 42.62712064553034 C 0.0 **** -0.24
21232 H 32.105762902389145 116.43527976892571 43.31095268701142 H 0.0 **** 0.06
21233 H 32.67687921118625 115.5873588553828 41.85395089132214 H 0.0 **** 0.06
21234 H 33.81101286292062 115.94382959685115 43.17847171241215 H 0.0 **** 0.06
21235 H 33.18420548268807 117.26504038126765 42.16428411467234 H 0.0 **** 0.06
21236 C 12.99669517680428 82.9918237805886 13.908407015975456 C 0.0 **** -0.24
21237 H 12.59818563021662 83.74607169403737 13.229501478587565 H 0.0 **** 0.06
21238 H 13.54482790663289 82.24235510187995 13.336882984046156 H 0.0 **** 0.06
21239 H 12.175447983676207 82.51209692930756 14.44106045586443 H 0.0 **** 0.06
21240 H 13.66773921835292 83.46483559064434 14.625225819450122 H 0.0 **** 0.06
21241 C 64.56974176023111 123.77420998907284 137.53683433529073 C 0.0 **** -0.24
21242 H 65.4862406927692 123.18584900448302 137.48474240105634 H 0.0 **** 0.06
21243 H 63.93992638307458 123.39425438067686 138.34159257898324 H 0.0 **** 0.06
21244 H 64.03571875456751 123.6992358262241 136.5903509840282 H 0.0 **** 0.06
21245 H 64.818762238437 124.81772284510107 137.73210911494044 H 0.0 **** 0.06
21246 C 14.224517913351093 142.02934622884092 90.90013564106161 C 0.0 **** -0.24
21247 H 15.206983469539722 142.44180578638435 91.13176262846551 H 0.0 **** 0.06
21248 H 14.196270138082497 140.97672783429508 91.18465123420276 H 0.0 **** 0.06
21249 H 14.034540765194066 142.1227304815652 89.83103436580359 H 0.0 **** 0.06
21250 H 13.461230238592378 142.5767095583373 91.45395765686865 H 0.0 **** 0.06
21251 C 135.80185835400883 47.763373058736136 117.76555498297243 C 0.0 **** -0.24
21252 H 136.49289995981601 48.52954316871924 117.41233636821609 H 0.0 **** 0.06
21253 H 136.36401262458435 46.87765471066285 118.06396094976266 H 0.0 **** 0.06
21254 H 135.1085491810619 47.502467567162114 116.96622577465179 H 0.0 **** 0.06
21255 H 135.24394733926624 48.144545655307724 118.62095386120016 H 0.0 **** 0.06
21256 C 26.246757730977535 68.62714617789754 61.41830218256422 C 0.0 **** -0.24
21257 H 26.71419303849271 69.53985589446081 61.7875916126973 H 0.0 **** 0.06
21258 H 26.959413205591716 67.80423370126157 61.47758735252583 H 0.0 **** 0.06
21259 H 25.940529305226903 68.76978302455898 60.38199703301146 H 0.0 **** 0.06
21260 H 25.372277315652184 68.39630117127194 62.02633758905549 H 0.0 **** 0.06
21261 C 42.49917548468078 38.97931213903351 41.00590305842563 C 0.0 **** -0.24
21262 H 41.99148690953139 39.03683425253365 40.04220545968013 H 0.0 **** 0.06
21263 H 43.11303532942409 38.078546182287454 41.038419335207365 H 0.0 **** 0.06
21264 H 41.758763133531176 38.9446125264181 41.80423063594576 H 0.0 **** 0.06
21265 H 43.13284558859971 39.85579705646629 41.134688960000744 H 0.0 **** 0.06
21266 C 149.4126261354971 97.69124713154243 97.89957628608065 C 0.0 **** -0.24
21267 H 148.63574839486517 97.77599032632911 98.6608824869256 H 0.0 **** 0.06
21268 H 148.96390614707988 97.37589513820336 96.95769626726948 H 0.0 **** 0.06
21269 H 150.151464920745 96.95531767839043 98.2146977302209 H 0.0 **** 0.06
21270 H 149.8960031496589 98.65847870365073 97.76606901298999 H 0.0 **** 0.06
21271 C 11.135584740804035 109.39337564401988 110.22567975895551 C 0.0 **** -0.24
21272 H 10.556858958721392 108.48410604379411 110.06364661002594 H 0.0 **** 0.06
21273 H 11.927234825824598 109.45739595776551 109.47894015377808 H 0.0 **** 0.06
21274 H 11.577110165138748 109.36987045709192 111.22246274691558 H 0.0 **** 0.06
21275 H 10.481314366263462 110.2608454275116 110.13823297662405 H 0.0 **** 0.06
21276 C 125.1773425141554 79.16267696039131 37.901035927195096 C 0.0 **** -0.24
21277 H 125.74376387634037 79.44808481169514 38.787350585273245 H 0.0 **** 0.06
21278 H 125.71199732920915 79.49039196632557 37.00810721906966 H 0.0 **** 0.06
21279 H 124.19554273518663 79.63429328123041 37.929367693231086 H 0.0 **** 0.06
21280 H 125.06069140264971 78.0794956922665 37.87715458037032 H 0.0 **** 0.06
21281 C 107.54219221775081 99.43107016476428 86.15479712550852 C 0.0 **** -0.24
21282 H 108.29515743797317 98.72641023391215 86.5060238290712 H 0.0 **** 0.06
21283 H 108.03106898770407 100.25280061785655 85.63097552488566 H 0.0 **** 0.06
21284 H 106.98673089772375 99.82303733163639 87.006893922204 H 0.0 **** 0.06
21285 H 106.85752968214338 98.92345771928328 85.47542513850898 H 0.0 **** 0.06
21286 C 134.8019334607204 33.36616187566392 92.25783075712815 C 0.0 **** -0.24
21287 H 134.02925605585543 32.708465414063255 92.65410770854766 H 0.0 **** 0.06
21288 H 134.35191175026415 34.08410415417546 91.57197957962143 H 0.0 **** 0.06
21289 H 135.54661932506028 32.77327969353621 91.72686356300488 H 0.0 **** 0.06
21290 H 135.28144419552032 33.899595538801805 93.07872141656895 H 0.0 **** 0.06
21291 C 82.61440087648052 64.40537279810736 28.123648363498802 C 0.0 **** -0.24
21292 H 83.16335982942397 64.53309839464495 27.19075891765074 H 0.0 **** 0.06
21293 H 83.26412197090443 64.64965551311029 28.964239791836043 H 0.0 **** 0.06
21294 H 82.28154432113516 63.37065080155162 28.20988301743065 H 0.0 **** 0.06
21295 H 81.74815779185346 65.06682286051442 28.12923499533848 H 0.0 **** 0.06
21296 C 99.62334918219462 146.90769102529038 144.0074367122732 C 0.0 **** -0.24
21297 H 100.46175928036367 146.93213049548055 144.70479441585408 H 0.0 **** 0.06
21298 H 99.46380485600979 147.90564315983556 143.59712745341415 H 0.0 **** 0.06
21299 H 98.72537672759469 146.5818001961249 144.5313232287924 H 0.0 **** 0.06
21300 H 99.84561228110516 146.21298294867128 143.19740937378072 H 0.0 **** 0.06
21301 C 31.44801849855626 83.54717227127341 61.219978083392846 C 0.0 **** -0.24
21302 H 31.200407880230152 84.45250162568847 61.774513238119084 H 0.0 **** 0.06
21303 H 31.689925969379154 83.80694542179737 60.1889110603301 H 0.0 **** 0.06
21304 H 30.595096315806167 82.86843257870412 61.23323222505746 H 0.0 **** 0.06
21305 H 32.3066438288096 83.06080945890352 61.68325581006485 H 0.0 **** 0.06
21306 C 90.05741134587298 5.2550313445314885 12.862338445385006 C 0.0 **** -0.24
21307 H 91.0549407633606 5.560807534125701 12.547313913148884 H 0.0 **** 0.06
21308 H 89.53058171982242 4.811323086030654 12.01665820734496 H 0.0 **** 0.06
21309 H 89.50653260891269 6.125684964492933 13.218107153895204 H 0.0 **** 0.06
21310 H 90.13919338954479 4.523157385106714 13.66562772715426 H 0.0 **** 0.06
21311 C 59.817976586155396 27.246733146946042 71.70679490133816 C 0.0 **** -0.24
21312 H 60.051373692599014 26.572033574114954 72.53051254989992 H 0.0 **** 0.06
21313 H 60.65045219159893 27.25985425229132 71.00246491524788 H 0.0 **** 0.06
21314 H 59.65532965141351 28.25152989541013 72.09585393059874 H 0.0 **** 0.06
21315 H 58.917301702376164 26.901985200624125 71.19942218957698 H 0.0 **** 0.06
21316 C 11.925066917302274 82.38748447087356 93.75843366953546 C 0.0 **** -0.24
21317 H 10.842048199704038 82.30090221638132 93.66695974142812 H 0.0 **** 0.06
21318 H 12.332387307014244 81.45202648755573 94.14349338921807 H 0.0 **** 0.06
21319 H 12.168574671667841 83.19889250191453 94.44335586705563 H 0.0 **** 0.06
21320 H 12.357192123880111 82.59588474427366 92.77980574878524 H 0.0 **** 0.06
21321 C 1.7453462331498208 1.09075994472866 66.56610617146328 C 0.0 **** -0.24
21322 H 1.3565054429029146 1.8897345760438498 65.93479098666216 H 0.0 **** 0.06
21323 H 1.399234187271336 1.2366503168906036 67.58990643347698 H 0.0 **** 0.06
21324 H 2.8344162266845423 1.1081122489669042 66.54368106104579 H 0.0 **** 0.06
21325 H 1.38848731912584 0.12969443537798497 66.19565065366226 H 0.0 **** 0.06
21326 C 89.60862929839752 66.76969510140923 6.175408959371168 C 0.0 **** -0.24
21327 H 89.81307756175426 66.53131197797326 7.219410824651902 H 0.0 **** 0.06
21328 H 90.28624347255003 66.2044335253949 5.534569735182117 H 0.0 **** 0.06
21329 H 89.75770710656572 67.83690671922392 6.010470597011022 H 0.0 **** 0.06
21330 H 88.57821282518972 66.50545868243363 5.937017471356285 H 0.0 **** 0.06
21331 C 38.08872680172901 37.433493130505724 23.58660407636485 C 0.0 **** -0.24
21332 H 39.15668004179 37.22834460576894 23.669546793338057 H 0.0 **** 0.06
21333 H 37.524092381281065 36.554588066194015 23.900297240061875 H 0.0 **** 0.06
21334 H 37.84468481722698 37.672219359400856 22.551543801023115 H 0.0 **** 0.06
21335 H 37.83114087472052 38.2778189238731 24.22539973935433 H 0.0 **** 0.06
21336 C 67.965272113382 81.50548595707994 18.07388953442895 C 0.0 **** -0.24
21337 H 68.39076089166804 80.72774615482511 18.706731948675554 H 0.0 **** 0.06
21338 H 68.73205081127826 81.88223124585778 17.396677666421773 H 0.0 **** 0.06
21339 H 67.59734003243149 82.32055459875531 18.69680731672348 H 0.0 **** 0.06
21340 H 67.13992281026363 81.09121705362382 17.493950463935015 H 0.0 **** 0.06
21341 C 4.854074676463881 106.7584368666401 98.05543538398507 C 0.0 **** -0.24
21342 H 5.400952563269186 107.29820345813343 97.281379738955 H 0.0 **** 0.06
21343 H 5.338568035485366 106.9184274528034 99.0187908175701 H 0.0 **** 0.06
21344 H 4.850710850009932 105.69446851192808 97.82186857704119 H 0.0 **** 0.06
21345 H 3.8287621764699793 107.12471031460146 98.09812602657536 H 0.0 **** 0.06
21346 C 5.377210764979225 121.78417698620088 69.87521714042694 C 0.0 **** -0.24
21347 H 6.288574842344815 121.4583099033279 70.37546568560504 H 0.0 **** 0.06
21348 H 4.5134182106262415 121.33455494035285 70.36499966933849 H 0.0 **** 0.06
21349 H 5.405700181919258 121.47292008649286 68.83083215811493 H 0.0 **** 0.06
21350 H 5.3018977642938125 122.8702982622754 69.9293467543136 H 0.0 **** 0.06
21351 C 72.24063749756763 100.06394890596052 139.2235749737383 C 0.0 **** -0.24
21352 H 73.12941606658993 99.68053500125953 138.72242138838797 H 0.0 **** 0.06
21353 H 71.35965517769486 99.84632600907501 138.61835520214126 H 0.0 **** 0.06
21354 H 72.33445681364421 101.14190883724007 139.3546390863136 H 0.0 **** 0.06
21355 H 72.13940051247883 99.58634500546704 140.19770383622406 H 0.0 **** 0.06
21356 C 24.75130191451973 60.51758913733357 129.86685758818413 C 0.0 **** -0.24
21357 H 24.20875545752807 60.014641740784555 130.66728543512642 H 0.0 **** 0.06
21358 H 24.73433900402705 61.59386609216472 130.03747015406285 H 0.0 **** 0.06
21359 H 24.27851786711284 60.29387472618345 128.91006627126745 H 0.0 **** 0.06
21360 H 25.7835953294109 60.1679739902016 129.8526084922799 H 0.0 **** 0.06
21361 C 45.01778784589001 103.55526548003671 38.46727751861434 C 0.0 **** -0.24
21362 H 45.22631822942998 103.52251261308574 37.39760568275048 H 0.0 **** 0.06
21363 H 44.777742287654306 102.55179920517871 38.82054667253752 H 0.0 **** 0.06
21364 H 44.17320513745214 104.21775185226768 38.652524060156765 H 0.0 **** 0.06
21365 H 45.89532434912164 103.92721718319116 38.996494972856254 H 0.0 **** 0.06
21366 C 8.135848654200203 125.25939600136331 18.486188316846246 C 0.0 **** -0.24
21367 H 7.3616759919012225 126.0133431708303 18.627290489682082 H 0.0 **** 0.06
21368 H 8.218650193314005 124.65139921978198 19.38727061923943 H 0.0 **** 0.06
21369 H 9.089570651009609 125.7502726188709 18.29069149562077 H 0.0 **** 0.06
21370 H 7.874126637691546 124.62396298294965 17.640789649045693 H 0.0 **** 0.06
21371 C 103.61725473060874 79.78402699095642 82.10551483861457 C 0.0 **** -0.24
21372 H 102.54508584865992 79.93317099976878 81.97825749072993 H 0.0 **** 0.06
21373 H 103.99211700519744 79.14234549605189 81.30852262104969 H 0.0 **** 0.06
21374 H 103.80704681493093 79.31357786347822 83.07070606186457 H 0.0 **** 0.06
21375 H 104.12531365714632 80.74813617704669 82.06523916051964 H 0.0 **** 0.06
21376 C 93.72979751146156 84.45270385968028 97.90797350645276 C 0.0 **** -0.24
21377 H 93.33646903273953 85.44603792528439 97.69069570059554 H 0.0 **** 0.06
21378 H 93.31756837881724 84.0985222092133 98.85297667870368 H 0.0 **** 0.06
21379 H 94.81567579420445 84.5006996471498 97.979542959417 H 0.0 **** 0.06
21380 H 93.44791607511362 83.76809189530282 97.10831559240272 H 0.0 **** 0.06
21381 C 29.36098843437093 29.363658763772037 51.78562417138801 C 0.0 **** -0.24
21382 H 29.84313785570162 29.079019612858787 52.72050060720278 H 0.0 **** 0.06
21383 H 30.0680868935991 29.24858487411052 50.96336673130617 H 0.0 **** 0.06
21384 H 29.03741701710939 30.40188091122917 51.84457092765206 H 0.0 **** 0.06
21385 H 28.495841071284424 28.721462546924016 51.61370375690808 H 0.0 **** 0.06
21386 C 145.40337187049133 129.0922978430138 81.47707630714758 C 0.0 **** -0.24
21387 H 146.44797776505814 128.78351376299997 81.46398623163893 H 0.0 **** 0.06
21388 H 145.0849920966495 129.25425204229578 82.50703438970993 H 0.0 **** 0.06
21389 H 144.7893405238688 128.3128554037272 81.02559708976314 H 0.0 **** 0.06
21390 H 145.29078315022542 130.0172472735036 80.91137955170633 H 0.0 **** 0.06
21391 C 47.4879107661732 44.73069182354743 96.69851475996253 C 0.0 **** -0.24
21392 H 47.549549582022024 45.454099281065155 97.51155214663558 H 0.0 **** 0.06
21393 H 46.75682067220373 45.07068868089267 95.96503408910004 H 0.0 **** 0.06
21394 H 47.18037029287379 43.76316436749899 97.09685382276942 H 0.0 **** 0.06
21395 H 48.46314642637867 44.6352532788797 96.2230115435199 H 0.0 **** 0.06
21396 C 8.853977187637504 10.289010409888817 26.12982314370595 C 0.0 **** -0.24
21397 H 8.284183660820602 9.55559037574045 26.700502457504285 H 0.0 **** 0.06
21398 H 9.127707699939009 9.863771876197973 25.163805902324384 H 0.0 **** 0.06
21399 H 9.756304274739286 10.556864492773002 26.678844522931 H 0.0 **** 0.06
21400 H 8.245334948682299 11.180880583412716 25.975040180627047 H 0.0 **** 0.06
21401 C 110.99138248265406 88.82942967922756 88.1719477838712 C 0.0 **** -0.24
21402 H 111.96689484980068 88.86301828966324 88.65670328640492 H 0.0 **** 0.06
21403 H 110.9945800067765 88.05614934064215 87.40273465700068 H 0.0 **** 0.06
21404 H 110.7782792510349 89.79560256245182 87.71617766399096 H 0.0 **** 0.06
21405 H 110.22646127833444 88.60075167744489 88.91382000622326 H 0.0 **** 0.06
21406 C 135.57786281943643 3.9527109834940575 140.67426721787552 C 0.0 **** -0.24
21407 H 135.9827769043027 4.135901963028118 141.6698445147416 H 0.0 **** 0.06
21408 H 134.66267725703707 4.53003065153348 140.54318377545246 H 0.0 **** 0.06
21409 H 135.35742704406172 2.890880735672681 140.56141287197102 H 0.0 **** 0.06
21410 H 136.30918429541256 4.253878554562618 139.92477242380605 H 0.0 **** 0.06
21411 C 31.50656476683423 51.30349743389547 101.14846427304246 C 0.0 **** -0.24
21412 H 31.667872303206536 51.68218607321296 100.13931152627225 H 0.0 **** 0.06
21413 H 32.11704672776466 50.41315175760832 101.30370243532803 H 0.0 **** 0.06
21414 H 30.453371261497523 51.04907884189282 101.2764845282602 H 0.0 **** 0.06
21415 H 31.786112890777417 52.06809880449879 101.87281505143295 H 0.0 **** 0.06
21416 C 11.066437191428605 11.948511493647885 16.65199960390224 C 0.0 **** -0.24
21417 H 11.012104896726186 11.806528924130845 15.572644965265035 H 0.0 **** 0.06
21418 H 10.142407410020951 11.59691833186423 17.111265001325854 H 0.0 **** 0.06
21419 H 11.201655692059092 13.007699183108656 16.872659765150622 H 0.0 **** 0.06
21420 H 11.908595436010643 11.382840718045514 17.050415897249984 H 0.0 **** 0.06
21421 C 90.1247828612954 136.26869211582496 87.92057907840426 C 0.0 **** -0.24
21422 H 89.58803701991944 135.7145838996846 88.69075923774392 H 0.0 **** 0.06
21423 H 89.79115355830955 135.9381400610575 86.93695958379993 H 0.0 **** 0.06
21424 H 91.19439495076884 136.08659977042788 88.02183527192894 H 0.0 **** 0.06
21425 H 89.92481763628453 137.3345740869538 88.03360581872596 H 0.0 **** 0.06
21426 C 31.971915102699967 97.2775721686877 122.03535609173099 C 0.0 **** -0.24
21427 H 30.98283328844599 96.82100350858224 122.06133072859575 H 0.0 **** 0.06
21428 H 32.67362807831043 96.59576997587902 121.55313807549817 H 0.0 **** 0.06
21429 H 32.304719651033224 97.48175286383757 123.05330838973038 H 0.0 **** 0.06
21430 H 31.926611175589954 98.21035498197743 121.473601477557 H 0.0 **** 0.06
21431 C 9.733268117198861 15.682774146495206 103.54722234782186 C 0.0 **** -0.24
21432 H 9.255395291096193 14.777810488539615 103.1693045019256 H 0.0 **** 0.06
21433 H 10.640250817308356 15.414200961460864 104.08871316447052 H 0.0 **** 0.06
21434 H 9.048535985053206 16.20064772262711 104.21894130372353 H 0.0 **** 0.06
21435 H 9.987229238535576 16.335136129746985 102.7125157958216 H 0.0 **** 0.06
21436 C 81.17371159087175 114.62536883521955 70.23221752770328 C 0.0 **** -0.24
21437 H 80.95285667254839 114.45529131013495 71.28607056858823 H 0.0 **** 0.06
21438 H 82.13824529901252 114.17955359308564 69.9863780860403 H 0.0 **** 0.06
21439 H 81.20684503089932 115.69642892693088 70.03625608684689 H 0.0 **** 0.06
21440 H 80.39623243521577 114.16748629412814 69.62059327305349 H 0.0 **** 0.06
21441 C 53.820392814174795 46.169598077021305 18.149126460726848 C 0.0 **** -0.24
21442 H 54.43093904133946 46.49966800187943 17.308523914302583 H 0.0 **** 0.06
21443 H 53.79007310867297 45.07989531646082 18.17092370848792 H 0.0 **** 0.06
21444 H 52.80815186142087 46.55864046515384 18.037471768448967 H 0.0 **** 0.06
21445 H 54.25068306745925 46.540731462169845 19.078730545085563 H 0.0 **** 0.06
21446 C 67.94365535471619 91.79050740002461 37.57140817299694 C 0.0 **** -0.24
21447 H 68.85448546314231 91.3314963881989 37.185092316468655 H 0.0 **** 0.06
21448 H 68.03149786211819 92.875505523947 37.511472671832905 H 0.0 **** 0.06
21449 H 67.79978212309504 91.49371871229812 38.61031117701296 H 0.0 **** 0.06
21450 H 67.09169456002687 91.46110688736971 36.97780684289356 H 0.0 **** 0.06
21451 C 66.32511298744268 110.31702852969954 13.922628135859604 C 0.0 **** -0.24
21452 H 67.25659827892456 109.8824400723658 13.561138889263596 H 0.0 **** 0.06
21453 H 65.91683496720074 109.69161061668444 14.71724629459861 H 0.0 **** 0.06
21454 H 65.60970934755609 110.37440744314517 13.102568529882134 H 0.0 **** 0.06
21455 H 66.51668096443073 111.31756080104492 14.309094605173641 H 0.0 **** 0.06
21456 C 36.32558795897387 32.978730092999456 72.03739511292119 C 0.0 **** -0.24
21457 H 36.56779259309698 32.946056442919144 73.09938372457826 H 0.0 **** 0.06
21458 H 35.79244650778523 32.06966230345705 71.75867582940135 H 0.0 **** 0.06
21459 H 37.24619190359232 33.053477157902705 71.45828653033918 H 0.0 **** 0.06
21460 H 35.698249695828565 33.84562985156498 71.83512322092311 H 0.0 **** 0.06
21461 C 135.74251975927422 43.6022832274445 100.69466946314776 C 0.0 **** -0.24
21462 H 134.96541676114896 44.05155063053917 100.07663451293047 H 0.0 **** 0.06
21463 H 135.8176358321772 44.146520229509406 101.63634518370742 H 0.0 **** 0.06
21464 H 136.69730795617153 43.6499324355334 100.1704466502016 H 0.0 **** 0.06
21465 H 135.48971848759908 42.561129614196034 100.89525150575162 H 0.0 **** 0.06
21466 C 90.10856799612439 95.9019591322685 111.72364436394297 C 0.0 **** -0.24
21467 H 89.57970945641064 96.67616185019168 111.16839554235635 H 0.0 **** 0.06
21468 H 90.60329725263904 96.3484999811051 112.58698309715224 H 0.0 **** 0.06
21469 H 90.854289026607 95.4377767563318 111.07697798142082 H 0.0 **** 0.06
21470 H 89.39954512192335 95.14656506461014 112.06120149975966 H 0.0 **** 0.06
21471 C 108.38164964800022 138.10602238443315 9.418730526571721 C 0.0 **** -0.24
21472 H 107.67187409752539 137.97772583758183 10.235644309618124 H 0.0 **** 0.06
21473 H 108.1346035802644 137.41651517721368 8.611271829355985 H 0.0 **** 0.06
21474 H 109.39021141289196 137.89959029773505 9.777558425053542 H 0.0 **** 0.06
21475 H 108.32974214511724 139.13109114081192 9.049920019663375 H 0.0 **** 0.06
21476 C 99.1065651815073 119.01923877748138 147.2385888892523 C 0.0 **** -0.24
21477 H 99.73707122084474 118.42169362949275 147.89684066974155 H 0.0 **** 0.06
21478 H 99.42851090364556 120.05989629746122 147.27424494015997 H 0.0 **** 0.06
21479 H 98.06905460964282 118.94811265858371 147.56735541134464 H 0.0 **** 0.06
21480 H 99.19024651041505 118.64633748557415 146.21741967088724 H 0.0 **** 0.06
21481 C 115.23917138947759 124.56194034370037 68.55063279907328 C 0.0 **** -0.24
21482 H 115.52290477345743 124.77117203867198 69.58248306974475 H 0.0 **** 0.06
21483 H 114.77661541412927 125.4471023358978 68.11492340966703 H 0.0 **** 0.06
21484 H 114.53198208545432 123.73306719350353 68.52960771704362 H 0.0 **** 0.06
21485 H 116.12784327876737 124.29639084936883 67.97722695888399 H 0.0 **** 0.06
21486 C 60.80147474348411 102.80742213870363 93.41071822005419 C 0.0 **** -0.24
21487 H 61.39160818225912 102.61684964856639 92.51410618117484 H 0.0 **** 0.06
21488 H 59.741348059840035 102.7362547959379 93.17011676371212 H 0.0 **** 0.06
21489 H 61.022977661293766 103.8082047679188 93.7848734850888 H 0.0 **** 0.06
21490 H 61.052316391415005 102.07127963138541 94.17402165692678 H 0.0 **** 0.06
21491 C 38.53124432049664 96.65855205779147 30.72961000515994 C 0.0 **** -0.24
21492 H 39.260700466464385 95.90290192397563 30.43700940198488 H 0.0 **** 0.06
21493 H 38.93569561286351 97.25729827247824 31.546595108389127 H 0.0 **** 0.06
21494 H 37.61408475580904 96.17072349495032 31.05692490500465 H 0.0 **** 0.06
21495 H 38.31569014813239 97.30404032411306 29.87784783215676 H 0.0 **** 0.06
21496 C 49.17350530155653 12.160600127074645 52.878670751567 C 0.0 **** -0.24
21497 H 49.58436303343747 11.162172968382848 53.02973242926173 H 0.0 **** 0.06
21498 H 48.28325966538763 12.283261915556487 53.49708513269391 H 0.0 **** 0.06
21499 H 48.907752543556555 12.289162420493604 51.829232947044474 H 0.0 **** 0.06
21500 H 49.917337822011575 12.90536218524808 53.16071351438977 H 0.0 **** 0.06
21501 C 87.85463894213814 141.08048583695654 48.467905328542656 C 0.0 **** -0.24
21502 H 86.98973790737813 140.6811335341036 48.99567833653407 H 0.0 **** 0.06
21503 H 87.5792154376567 141.30909416773258 47.438545530757665 H 0.0 **** 0.06
21504 H 88.65691185370008 140.34176150901638 48.47301151978837 H 0.0 **** 0.06
21505 H 88.19470060981246 141.98916702522132 48.963802508448225 H 0.0 **** 0.06
21506 C 119.6084743166707 102.31516014939974 65.59337102851566 C 0.0 **** -0.24
21507 H 120.07041417696404 103.15686853462425 65.07648895560143 H 0.0 **** 0.06
21508 H 119.59645525077927 102.50934003557175 66.66535104553603 H 0.0 **** 0.06
21509 H 120.18086350464155 101.40909175956928 65.39356815298504 H 0.0 **** 0.06
21510 H 118.58653478942558 102.18573173427198 65.23512471504478 H 0.0 **** 0.06
21511 C 90.31102487843772 80.49472482666525 65.54853107185063 C 0.0 **** -0.24
21512 H 89.24097213364189 80.65350218095367 65.67685218116749 H 0.0 **** 0.06
21513 H 90.48541593438357 79.48584183673742 65.17272339941434 H 0.0 **** 0.06
21514 H 90.81372114927187 80.61696084600416 66.50748272170193 H 0.0 **** 0.06
21515 H 90.70336140665226 81.220540845167 64.83644355704834 H 0.0 **** 0.06
21516 C 4.439017677007456 76.59587472272318 21.463799275249187 C 0.0 **** -0.24
21517 H 4.01418151813877 75.67517349417986 21.062371804653232 H 0.0 **** 0.06
21518 H 3.9536439342178085 77.45306516761511 20.995788162040377 H 0.0 **** 0.06
21519 H 5.5081614608342875 76.62397746307843 21.25486323817661 H 0.0 **** 0.06
21520 H 4.27833154356577 76.62967303817146 22.541591992925504 H 0.0 **** 0.06
21521 C 146.45171777346255 126.83863794345015 51.22592550915316 C 0.0 **** -0.24
21522 H 146.1191406772361 127.55075344947247 50.47012692767184 H 0.0 **** 0.06
21523 H 145.61966200377833 126.59731429338964 51.887721997011994 H 0.0 **** 0.06
21524 H 147.26257085014373 127.27847034642221 51.80658653679829 H 0.0 **** 0.06
21525 H 146.8045650255356 125.92996453095705 50.738696701793955 H 0.0 **** 0.06
21526 C 147.98468044231146 82.32693806096933 80.03994330978516 C 0.0 **** -0.24
21527 H 147.06227401964884 82.57414163551562 79.51480879990098 H 0.0 **** 0.06
21528 H 148.34172378775068 81.35201113598049 79.70699428925532 H 0.0 **** 0.06
21529 H 147.7945382370311 82.29717965571206 81.11257224999807 H 0.0 **** 0.06
21530 H 148.73937254080397 83.08407492116567 79.82492905517557 H 0.0 **** 0.06
21531 C 26.48931129900126 119.11254252525252 33.262688729892716 C 0.0 **** -0.24
21532 H 26.483248277727796 120.0042039866038 33.88976095032649 H 0.0 **** 0.06
21533 H 25.775401265365417 118.38778514372548 33.65464880787039 H 0.0 **** 0.06
21534 H 27.488768865843724 118.67679442868236 33.26351175134505 H 0.0 **** 0.06
21535 H 26.212667629927353 119.38381150701359 32.24457977159935 H 0.0 **** 0.06
21536 C 101.95513819196665 10.513411677748707 68.95019477127232 C 0.0 **** -0.24
21537 H 100.9071331729564 10.255685872773029 68.7971281987808 H 0.0 **** 0.06
21538 H 102.1202616997013 11.550077264428296 68.65587659447999 H 0.0 **** 0.06
21539 H 102.58219032852371 9.858558734536757 68.34607335651992 H 0.0 **** 0.06
21540 H 102.20878540143393 10.389215799982253 70.00349719755445 H 0.0 **** 0.06
21541 C 104.64701326649534 28.619576151715677 75.88655599797467 C 0.0 **** -0.24
21542 H 104.67186446531049 27.876483544742086 75.08967440771356 H 0.0 **** 0.06
21543 H 105.55294131399184 29.226045909189082 75.84609163578274 H 0.0 **** 0.06
21544 H 104.58988520620609 28.115766213713385 76.85182769117435 H 0.0 **** 0.06
21545 H 103.77435993045124 29.25994312698208 75.75863113525364 H 0.0 **** 0.06
21546 C 73.49746423218934 76.38187261811726 24.88082381626836 C 0.0 **** -0.24
21547 H 73.60878214066528 75.29905089933476 24.941601691081956 H 0.0 **** 0.06
21548 H 72.81477642052917 76.63176242411981 24.067550807433264 H 0.0 **** 0.06
21549 H 74.46991775005725 76.83647402826335 24.69151665983034 H 0.0 **** 0.06
21550 H 73.09610340401312 76.75910990278845 25.8217728187536 H 0.0 **** 0.06
21551 C 13.771945101347853 60.05529140862852 34.97003945920107 C 0.0 **** -0.24
21552 H 12.848165067382695 60.617528510291166 34.832662666382404 H 0.0 **** 0.06
21553 H 14.172148316104312 60.2524181446868 35.96506707544462 H 0.0 **** 0.06
21554 H 14.499140692921515 60.36232524852208 34.21856273607762 H 0.0 **** 0.06
21555 H 13.568313876743389 58.989495461815835 34.865145139421905 H 0.0 **** 0.06
21556 C 47.44769469938571 133.51377297603133 63.02500824997263 C 0.0 **** -0.24
21557 H 48.08889389438602 133.06663264919231 63.78528099058411 H 0.0 **** 0.06
21558 H 47.208737946344826 132.76653250617267 62.26689486069007 H 0.0 **** 0.06
21559 H 47.96619721688769 134.3509852253766 62.55936544983854 H 0.0 **** 0.06
21560 H 46.52715587495568 133.86799541588442 63.4896223291142 H 0.0 **** 0.06
21561 C 105.38814021402828 53.15202660183493 79.00782518403409 C 0.0 **** -0.24
21562 H 104.89363530560075 54.073229394523054 78.69850040219595 H 0.0 **** 0.06
21563 H 106.27502269057902 53.39467452589054 79.59277896288114 H 0.0 **** 0.06
21564 H 105.6792548115954 52.58329601615169 78.12492355780762 H 0.0 **** 0.06
21565 H 104.70318584306256 52.55905968536442 79.61360585076332 H 0.0 **** 0.06
21566 C 37.979164205778005 36.98997827842256 75.83354329352666 C 0.0 **** -0.24
21567 H 37.697909596565964 35.947213942378376 75.97832880091259 H 0.0 **** 0.06
21568 H 37.191768364146284 37.63626046649174 76.22139842850841 H 0.0 **** 0.06
21569 H 38.11803265674868 37.184065899902485 74.770201854653 H 0.0 **** 0.06
21570 H 38.910189536879855 37.19257841819935 76.3636022771044 H 0.0 **** 0.06
21571 C 13.070887767743613 26.884766198584124 137.1547803089031 C 0.0 **** -0.24
21572 H 12.304127859377132 26.470742750652477 137.80937430611542 H 0.0 **** 0.06
21573 H 12.899879765626707 27.9536022305803 137.02489459352998 H 0.0 **** 0.06
21574 H 13.025752447095726 26.389404594792666 136.18428599614694 H 0.0 **** 0.06
21575 H 14.053444301839903 26.72516678938407 137.59814601140758 H 0.0 **** 0.06
21576 C 34.99973563524043 84.21869913682919 120.53237022067113 C 0.0 **** -0.24
21577 H 35.408743877623095 83.92234991307714 119.56613738050756 H 0.0 **** 0.06
21578 H 35.81643905908467 84.436936748714 121.21992845025484 H 0.0 **** 0.06
21579 H 34.39369528672114 83.40613913340744 120.93306189781573 H 0.0 **** 0.06
21580 H 34.38033312908152 85.10667854195007 120.40776853475923 H 0.0 **** 0.06
21581 C 48.17225546750126 141.8272971152603 45.63291909634481 C 0.0 **** -0.24
21582 H 48.788391039409746 141.2571212746861 46.32788020073443 H 0.0 **** 0.06
21583 H 47.83424364455965 141.17342637323094 44.827566609702075 H 0.0 **** 0.06
21584 H 48.75865017668343 142.64568169934034 45.215209387399625 H 0.0 **** 0.06
21585 H 47.30823327345675 142.23114885876285 46.16032964782781 H 0.0 **** 0.06
21586 C 34.07025401987505 88.32288011755719 94.06715421943943 C 0.0 **** -0.24
21587 H 33.195523249195446 88.40163441880657 94.71238232400854 H 0.0 **** 0.06
21588 H 34.55877804697107 87.36225071124889 94.2346085527049 H 0.0 **** 0.06
21589 H 34.76585140831213 89.12946021277753 94.29911609493115 H 0.0 **** 0.06
21590 H 33.76048454896369 88.39804246704983 93.02492633150086 H 0.0 **** 0.06
21591 C 10.964502906976726 140.15628050307768 12.52041693990364 C 0.0 **** -0.24
21592 H 11.688153037067423 140.55843123614213 11.810953210101928 H 0.0 **** 0.06
21593 H 10.054498715916402 140.75631895101193 12.49004009681704 H 0.0 **** 0.06
21594 H 11.386703418356774 140.18695664825955 13.525035374340888 H 0.0 **** 0.06
21595 H 10.730411602350756 139.12512305116505 12.255692448422764 H 0.0 **** 0.06
21596 C 142.66057998515768 20.08701627072599 54.240684288743395 C 0.0 **** -0.24
21597 H 142.52889614523687 19.04955401551873 53.93412124068166 H 0.0 **** 0.06
21598 H 143.58971310974377 20.474955574294185 53.82165891536323 H 0.0 **** 0.06
21599 H 142.70235955752295 20.14176861415759 55.32842236619743 H 0.0 **** 0.06
21600 H 141.8214905515882 20.682085938713698 53.8794786459447 H 0.0 **** 0.06
21601 C 139.736670655709 106.77005917313994 90.27367751899071 C 0.0 **** -0.24
21602 H 140.00216520490483 106.47662692302043 91.28941156393572 H 0.0 **** 0.06
21603 H 140.54836390077244 107.35458432825186 89.84093522743098 H 0.0 **** 0.06
21604 H 138.82719857552345 107.36967299905649 90.29508413937863 H 0.0 **** 0.06
21605 H 139.5694695161127 105.8776737531959 89.67023693571333 H 0.0 **** 0.06
21606 C 6.264091619883544 38.6027390752834 64.66054934483034 C 0.0 **** -0.24
21607 H 7.304100705061302 38.54014045624995 64.98261306801672 H 0.0 **** 0.06
21608 H 6.086206814363777 37.88058751450614 63.86472741532222 H 0.0 **** 0.06
21609 H 6.059825743194665 39.60848810494224 64.29203359254709 H 0.0 **** 0.06
21610 H 5.6093771252956515 38.38434823550811 65.50338432550187 H 0.0 **** 0.06
21611 C 72.46473746661133 22.106720097468667 121.78615182812463 C 0.0 **** -0.24
21612 H 71.97274123885578 22.65240756205013 122.59198582273093 H 0.0 **** 0.06
21613 H 71.81143981337627 22.079123237447988 120.9142039718068 H 0.0 **** 0.06
21614 H 72.67670590037795 21.08910138334437 122.11431493070602 H 0.0 **** 0.06
21615 H 73.39812216677146 22.60625909020507 121.52633788447197 H 0.0 **** 0.06
21616 C 141.62542036380438 50.03650766389703 51.93998588590469 C 0.0 **** -0.24
21617 H 142.33583180198474 50.670224312099606 51.410430193802384 H 0.0 **** 0.06
21618 H 141.52946804173638 49.08313582808461 51.41889296198511 H 0.0 **** 0.06
21619 H 140.65365647326473 50.531259044354755 51.97460635372714 H 0.0 **** 0.06
21620 H 141.98051653751978 49.86173391333651 52.95587876818385 H 0.0 **** 0.06
21621 C 143.83386149465943 19.433980954295663 98.10962097685919 C 0.0 **** -0.24
21622 H 143.19851941544363 20.084193178955303 97.50997281959155 H 0.0 **** 0.06
21623 H 143.3518877352872 19.237450756798353 99.06752163708506 H 0.0 **** 0.06
21624 H 144.79463747430736 19.920735513330015 98.27953868870145 H 0.0 **** 0.06
21625 H 143.99166459626503 18.493686204776367 97.58207057939208 H 0.0 **** 0.06
21626 C 84.91192310556278 75.4608248813938 54.1317309960737 C 0.0 **** -0.24
21627 H 83.92806071642633 75.36358176714614 54.59029401870147 H 0.0 **** 0.06
21628 H 84.8768647283556 75.07945157191152 53.11146545470396 H 0.0 **** 0.06
21629 H 85.63859188403381 74.88867544025115 54.70928966761859 H 0.0 **** 0.06
21630 H 85.20434595646157 76.51036383349118 54.11895151248838 H 0.0 **** 0.06
21631 C 66.7780651157023 133.2558340233779 20.042414732249142 C 0.0 **** -0.24
21632 H 66.9212459490862 133.06233632758193 18.97930355461392 H 0.0 **** 0.06
21633 H 65.73356669210426 133.50906712900832 20.227456798993956 H 0.0 **** 0.06
21634 H 67.4137872123718 134.08603126377048 20.348689784413352 H 0.0 **** 0.06
21635 H 67.04254567241185 132.3657559386698 20.612032559308204 H 0.0 **** 0.06
21636 C 45.872451414845216 105.07658801135415 0.736016984659507 C 0.0 **** -0.24
21637 H 44.82286754031611 104.80954296669734 0.8589523998822273 H 0.0 **** 0.06
21638 H 46.491423008600066 104.18994971001996 0.8748520955529422 H 0.0 **** 0.06
21639 H 46.144137865322364 105.82913169236707 1.4774170298206286 H 0.0 **** 0.06
21640 H 46.03052682922839 105.4781731321417 -0.2641404938709826 H 0.0 **** 0.06
21641 C 43.39663364868457 130.0738417128891 122.00235741479123 C 0.0 **** -0.24
21642 H 42.62995128293889 130.01914928654637 121.22911140335061 H 0.0 **** 0.06
21643 H 42.965679572937006 130.49601313968918 122.91072649761234 H 0.0 **** 0.06
21644 H 44.21429559438363 130.7079675320567 121.65872112998393 H 0.0 **** 0.06
21645 H 43.775051610305525 129.07341472437457 122.21043466761795 H 0.0 **** 0.06
21646 C 117.71263500989845 140.4728449544728 98.2842797046763 C 0.0 **** -0.24
21647 H 118.72174646661806 140.19992961400575 97.9755876773965 H 0.0 **** 0.06
21648 H 117.41392689772094 139.86040137983218 99.1343113335537 H 0.0 **** 0.06
21649 H 117.02285617683181 140.30636451889563 97.45592593516001 H 0.0 **** 0.06
21650 H 117.69223741141467 141.52522988431974 98.56835258320486 H 0.0 **** 0.06
21651 C 138.25422886891243 94.39806449707373 39.778141829218896 C 0.0 **** -0.24
21652 H 138.59165776517065 93.5356037807581 39.202780412615084 H 0.0 **** 0.06
21653 H 138.56676471684764 94.28694561967365 40.81620897757165 H 0.0 **** 0.06
21654 H 137.16692891740283 94.46191818571361 39.73136555701018 H 0.0 **** 0.06
21655 H 138.68928265252507 95.30592194433098 39.36166073513351 H 0.0 **** 0.06
21656 C 61.05378096406349 133.9819726527105 85.70879518450155 C 0.0 **** -0.24
21657 H 60.012143495433435 133.8047387385941 85.44066832084897 H 0.0 **** 0.06
21658 H 61.64393436984342 133.09406912475137 85.47977378146044 H 0.0 **** 0.06
21659 H 61.12234797941812 134.2002315428784 86.77457663938472 H 0.0 **** 0.06
21660 H 61.43602544764369 134.82982992937738 85.13939399316968 H 0.0 **** 0.06
21661 C 31.081901645290657 32.16179959027312 63.160825134773006 C 0.0 **** -0.24
21662 H 31.0395728723434 32.84196976567908 64.01157321415121 H 0.0 **** 0.06
21663 H 30.70512257041773 31.18302192402092 63.460079782879404 H 0.0 **** 0.06
21664 H 32.11431341766493 32.06660710786491 62.823401317548644 H 0.0 **** 0.06
21665 H 30.469418393678353 32.55485984862682 62.35043243982517 H 0.0 **** 0.06
21666 C 150.11220003098222 31.85310612704245 40.58864984145853 C 0.0 **** -0.24
21667 H 151.09849596599264 31.78983969048781 40.130794942541854 H 0.0 **** 0.06
21668 H 149.46321151373115 32.47311211227489 39.96893860019054 H 0.0 **** 0.06
21669 H 150.19943114807367 32.29557023749274 41.58072630446809 H 0.0 **** 0.06
21670 H 149.68590868935826 30.85370393341671 40.67276531505637 H 0.0 **** 0.06
21671 C 69.54758470418722 128.12063642353846 148.17274675567685 C 0.0 **** -0.24
21672 H 70.13234037128521 128.20706167142845 149.08784124401302 H 0.0 **** 0.06
21673 H 69.85429857716463 127.22659576776894 147.6292144056509 H 0.0 **** 0.06
21674 H 69.7136218256349 128.9996670026004 147.55084695704343 H 0.0 **** 0.06
21675 H 68.48927459867127 128.0484715308109 148.42397462303006 H 0.0 **** 0.06
21676 C 2.4938928002590615 87.88829703943571 72.01389150382064 C 0.0 **** -0.24
21677 H 2.2033050316825893 87.09065295609155 72.69834470691046 H 0.0 **** 0.06
21678 H 1.8271739017491768 88.74009135845097 72.14489074109673 H 0.0 **** 0.06
21679 H 2.4260857479087576 87.5277477225548 70.9875504919863 H 0.0 **** 0.06
21680 H 3.5191098460205694 88.19247921174052 72.22450653995216 H 0.0 **** 0.06
21681 C 2.3067737338311076 48.975886398520714 147.5115236108277 C 0.0 **** -0.24
21682 H 2.8036946416848707 48.49198181771763 146.67121389458762 H 0.0 **** 0.06
21683 H 1.2294337901552979 48.97841665368699 147.3437834756296 H 0.0 **** 0.06
21684 H 2.663670841040897 50.00131364349872 147.6035446740248 H 0.0 **** 0.06
21685 H 2.529915087408426 48.43036988939875 148.42919959383545 H 0.0 **** 0.06
21686 C 13.79589462280768 36.36231183909439 92.17416516891149 C 0.0 **** -0.24
21687 H 13.790199874834798 37.430099653849794 92.39457220393376 H 0.0 **** 0.06
21688 H 14.475345510879208 36.1668668191693 91.34441687751826 H 0.0 **** 0.06
21689 H 12.789457406935867 36.04330132260853 91.90236207596354 H 0.0 **** 0.06
21690 H 14.126943072397069 35.81199168571399 93.05380547456252 H 0.0 **** 0.06
21691 C 105.7152420556182 22.43274387106854 125.51987138115803 C 0.0 **** -0.24
21692 H 105.70136236787795 22.018351065307655 124.51172632877511 H 0.0 **** 0.06
21693 H 104.81105003220819 22.131630754528857 126.04853587352368 H 0.0 **** 0.06
21694 H 105.76029039872338 23.520166541964528 125.46548349326272 H 0.0 **** 0.06
21695 H 106.59043537611791 22.059224085302702 126.05242761430938 H 0.0 **** 0.06
21696 C 62.737479432033396 6.873888045479482 13.704744375064848 C 0.0 **** -0.24
21697 H 62.346100096546536 7.860539530959535 13.949812722582067 H 0.0 **** 0.06
21698 H 63.7158899728893 6.745817569840309 14.167921722197121 H 0.0 **** 0.06
21699 H 62.83143482272881 6.778883690549485 12.622690743109644 H 0.0 **** 0.06
21700 H 62.055616596048935 6.110106796429811 14.078988639588914 H 0.0 **** 0.06
21701 C 19.03635236019447 99.83903557525875 116.60613155549396 C 0.0 **** -0.24
21702 H 18.700591211902832 99.85867933811315 117.64230866841035 H 0.0 **** 0.06
21703 H 20.085383549678845 100.13192277246225 116.55914060009945 H 0.0 **** 0.06
21704 H 18.438858229907893 100.5335003739466 116.01672775571552 H 0.0 **** 0.06
21705 H 18.922046259928628 98.83113497639484 116.20649421790046 H 0.0 **** 0.06
21706 C 106.16218482422603 15.345271270609459 17.067230073178763 C 0.0 **** -0.24
21707 H 105.71009181513422 15.91407447222366 16.25440331960612 H 0.0 **** 0.06
21708 H 105.3858065523548 15.029112553407089 17.76503017681484 H 0.0 **** 0.06
21709 H 106.88762486698432 15.969909959209843 17.589146506637782 H 0.0 **** 0.06
21710 H 106.6643227976737 14.467538531897162 16.660337975328112 H 0.0 **** 0.06
21711 C 106.91957786488929 10.714833099498577 45.804743700034905 C 0.0 **** -0.24
21712 H 106.15941107114692 10.00875738983418 45.471389533507036 H 0.0 **** 0.06
21713 H 106.6475238804342 11.105241796527451 46.78590077160064 H 0.0 **** 0.06
21714 H 106.98801977388739 11.53668627649246 45.09262607447876 H 0.0 **** 0.06
21715 H 107.88236981667147 10.208565733701725 45.86891900413177 H 0.0 **** 0.06
21716 C 66.12587457051181 93.94548409033482 63.71469266637682 C 0.0 **** -0.24
21717 H 66.09737124360853 94.68444200119718 64.5163492649697 H 0.0 **** 0.06
21718 H 67.01992504610428 94.1011548304196 63.10956300138356 H 0.0 **** 0.06
21719 H 65.23912202904931 94.05437432843439 63.089932436404894 H 0.0 **** 0.06
21720 H 66.14720656816361 92.94407727945786 64.14505279758403 H 0.0 **** 0.06
21721 C 98.35162479077766 99.53727817790833 8.066225144571405 C 0.0 **** -0.24
21722 H 98.102518409251 100.26465279277765 8.839568343759964 H 0.0 **** 0.06
21723 H 97.70410712891892 98.66565360719808 8.1650380664546 H 0.0 **** 0.06
21724 H 99.39224329164735 99.2325342936868 8.176555457731183 H 0.0 **** 0.06
21725 H 98.20773111080294 99.98850278302963 7.083855817759996 H 0.0 **** 0.06
21726 C 28.628116708701356 102.00227273821437 106.83410674005863 C 0.0 **** -0.24
21727 H 29.49169979798279 102.13670307070038 107.48584459829924 H 0.0 **** 0.06
21728 H 27.71963258907644 102.26706203157607 107.37569767693681 H 0.0 **** 0.06
21729 H 28.57209707633868 100.96151930099273 106.51666772271513 H 0.0 **** 0.06
21730 H 28.731093069681577 102.64412278184074 105.95951091799056 H 0.0 **** 0.06
21731 C 139.48331302708576 11.0348794215804 146.2984194880288 C 0.0 **** -0.24
21732 H 138.69580737408646 11.447367817567283 145.66841661430573 H 0.0 **** 0.06
21733 H 139.0799045224099 10.812740234939326 147.28594377330717 H 0.0 **** 0.06
21734 H 140.29208763230434 11.760556962756368 146.39017059671218 H 0.0 **** 0.06
21735 H 139.8670159673158 10.119509135274484 145.8476892104698 H 0.0 **** 0.06
21736 C 122.2131626610899 93.14893244748686 139.10749959702122 C 0.0 **** -0.24
21737 H 122.69738569608607 92.79910032798978 138.19549518766377 H 0.0 **** 0.06
21738 H 122.61271891817155 92.60352350321291 139.9629651984265 H 0.0 **** 0.06
21739 H 121.13915312699096 92.97783154487192 139.03604697462652 H 0.0 **** 0.06
21740 H 122.40407598113983 94.2143979423313 139.23355056735903 H 0.0 **** 0.06
21741 C 120.11341483973887 59.02511656276259 102.72420763553697 C 0.0 **** -0.24
21742 H 119.88294644798232 59.72632151212832 101.92301766299965 H 0.0 **** 0.06
21743 H 119.41890048732775 58.18582296555523 102.68248749186714 H 0.0 **** 0.06
21744 H 120.01807422531458 59.52843059570502 103.68618145244506 H 0.0 **** 0.06
21745 H 121.13365799617513 58.65893776256024 102.60485306741157 H 0.0 **** 0.06
21746 C 31.28598255957337 37.88609094248909 82.07125856129815 C 0.0 **** -0.24
21747 H 32.222020209852474 38.36382393699853 81.78234650160715 H 0.0 **** 0.06
21748 H 30.98552720410089 37.1777208029539 81.2986054416391 H 0.0 **** 0.06
21749 H 30.511605307598245 38.643779489593214 82.19091816071116 H 0.0 **** 0.06
21750 H 31.424942988993223 37.35718081043666 83.01439618215173 H 0.0 **** 0.06
21751 C 3.5759499990938934 149.38460656838862 86.52412701872868 C 0.0 **** -0.24
21752 H 3.0518322927088093 149.79220874807223 87.38899787826495 H 0.0 **** 0.06
21753 H 4.3518777074475565 150.08127927882578 86.20721567406815 H 0.0 **** 0.06
21754 H 2.867082872324886 149.23399348232982 85.70994302386691 H 0.0 **** 0.06
21755 H 4.029897066106912 148.43067509501563 86.79147186545242 H 0.0 **** 0.06
21756 C 49.55850466596746 104.04259489927306 28.72897373483778 C 0.0 **** -0.24
21757 H 50.45402186643136 103.76522293767805 29.287135277308508 H 0.0 **** 0.06
21758 H 48.94459601094215 103.15677654719248 28.565234601363876 H 0.0 **** 0.06
21759 H 49.84769862504584 104.46734804115844 27.76809597046047 H 0.0 **** 0.06
21760 H 48.990405098194685 104.7789270189485 29.296933550572923 H 0.0 **** 0.06
21761 C 56.708223812188976 3.4241720861317617 149.75568773254759 C 0.0 **** -0.24
21762 H 57.22016162435051 4.3852953486897945 149.7155478466252 H 0.0 **** 0.06
21763 H 55.718141527754085 3.5583229425265017 150.19080160554387 H 0.0 **** 0.06
21764 H 57.284602095216485 2.7316958839932113 150.36919997294467 H 0.0 **** 0.06
21765 H 56.61148149312811 3.022208431257752 148.74748358546628 H 0.0 **** 0.06
21766 C 80.94152246447135 129.35148886163455 26.384251083562305 C 0.0 **** -0.24
21767 H 80.83471853561232 129.17472092044875 25.314042461045716 H 0.0 **** 0.06
21768 H 81.97171630167077 129.6309467945277 26.60515243838603 H 0.0 **** 0.06
21769 H 80.68707559776863 128.44140021403888 26.928451384817038 H 0.0 **** 0.06
21770 H 80.27348729027068 130.15649110561606 26.687798140997614 H 0.0 **** 0.06
21771 C 135.61545704916782 107.37799054824093 130.10277469606643 C 0.0 **** -0.24
21772 H 135.06022617111103 106.44150990925597 130.1516434238686 H 0.0 **** 0.06
21773 H 134.92656941508938 108.21482988589732 130.21568269576798 H 0.0 **** 0.06
21774 H 136.12064684287773 107.44952364522523 129.13912963541674 H 0.0 **** 0.06
21775 H 136.3545662662105 107.40480271476103 130.90350820939898 H 0.0 **** 0.06
21776 C 57.57756486610519 108.48813328577815 126.79070245437129 C 0.0 **** -0.24
21777 H 56.918570276137544 109.10027208086059 127.40651631727208 H 0.0 **** 0.06
21778 H 58.505448919249176 108.2981901413914 127.33106002449489 H 0.0 **** 0.06
21779 H 57.796912740922565 109.01320762905463 125.86135542253732 H 0.0 **** 0.06
21780 H 57.087153931074326 107.5409179844592 126.56675432862703 H 0.0 **** 0.06
21781 C 131.20645560281145 126.68907633463988 128.19077220075292 C 0.0 **** -0.24
21782 H 130.37453274174243 125.99553119681485 128.06201647697634 H 0.0 **** 0.06
21783 H 131.14798442163942 127.14645238469664 129.17844914897455 H 0.0 **** 0.06
21784 H 131.15289608875491 127.4648275086484 127.42701112945167 H 0.0 **** 0.06
21785 H 132.14738724651025 126.14876092744407 128.0944584934365 H 0.0 **** 0.06
21786 C 24.282018440172862 41.77445161137251 90.93908958984414 C 0.0 **** -0.24
21787 H 24.411627074524688 40.816689545736196 91.4427868211171 H 0.0 **** 0.06
21788 H 23.55586955740347 41.664989130459844 90.13255483539032 H 0.0 **** 0.06
21789 H 25.23682198239868 42.099322723145804 90.52694713661816 H 0.0 **** 0.06
21790 H 23.922634427918524 42.514634953731715 91.65388272762345 H 0.0 **** 0.06
21791 C 10.846399817521835 27.593898796772947 27.56556180540457 C 0.0 **** -0.24
21792 H 10.592103280038451 26.568359683319926 27.831682546992937 H 0.0 **** 0.06
21793 H 11.930716692643415 27.69628218049573 27.51400533789547 H 0.0 **** 0.06
21794 H 10.452329295539137 28.273564688783324 28.32196925495805 H 0.0 **** 0.06
21795 H 10.411227302123343 27.83739789429444 26.596912997648502 H 0.0 **** 0.06
21796 C 25.76111320809906 13.381297316525945 45.67007392056588 C 0.0 **** -0.24
21797 H 26.634989829397796 12.744424767521139 45.80975038756537 H 0.0 **** 0.06
21798 H 26.0839722121803 14.402705702028953 45.47189115354449 H 0.0 **** 0.06
21799 H 25.150107509738234 13.360618731355174 46.572763753649696 H 0.0 **** 0.06
21800 H 25.175563051212066 13.013958992818146 44.827250655930115 H 0.0 **** 0.06
21801 C 88.96371719469848 128.8755130739752 87.72123103260557 C 0.0 **** -0.24
21802 H 89.57310139939578 129.56680130026635 87.13895191624076 H 0.0 **** 0.06
21803 H 88.39620600611073 128.23442711801914 87.04613892224361 H 0.0 **** 0.06
21804 H 88.27602007473186 129.43873911570233 88.35127987560762 H 0.0 **** 0.06
21805 H 89.61068791804728 128.26173207739743 88.34780444999265 H 0.0 **** 0.06
21806 C 107.52738374725159 33.17565952734812 149.4249490191417 C 0.0 **** -0.24
21807 H 107.40308176578712 34.17309756982186 149.00434490478966 H 0.0 **** 0.06
21808 H 108.58258050079435 32.99672851402809 149.6294996437175 H 0.0 **** 0.06
21809 H 107.16452584850349 32.43350221083931 148.71351162554453 H 0.0 **** 0.06
21810 H 106.9591175485338 33.098579679951584 150.351796202498 H 0.0 **** 0.06
21811 C 149.85767157403316 114.97734849023782 109.39422833858366 C 0.0 **** -0.24
21812 H 150.9402300110357 115.07544797701676 109.30206936656832 H 0.0 **** 0.06
21813 H 149.5323262074279 114.06103659900337 108.90086800108581 H 0.0 **** 0.06
21814 H 149.37518241006651 115.83467964608936 108.92514202405569 H 0.0 **** 0.06
21815 H 149.58597938877824 114.93894591246213 110.44937813912539 H 0.0 **** 0.06
21816 C 16.294011748155597 10.883322366941371 44.94948108351997 C 0.0 **** -0.24
21817 H 15.668905444067057 10.025332750784536 45.19844782751795 H 0.0 **** 0.06
21818 H 15.66484970300337 11.761313915908389 44.805160523380906 H 0.0 **** 0.06
21819 H 16.846687836082005 10.67593224806184 44.03306252697526 H 0.0 **** 0.06
21820 H 16.99542337381346 11.068524482230131 45.76330011072187 H 0.0 **** 0.06
21821 C 111.44771852301716 140.42605143473847 103.9563557688762 C 0.0 **** -0.24
21822 H 111.9132778220046 141.18374072605943 103.32702126589484 H 0.0 **** 0.06
21823 H 112.22250126300099 139.8393564987338 104.45136010600393 H 0.0 **** 0.06
21824 H 110.8324337216934 139.76950742064903 103.3414833922429 H 0.0 **** 0.06
21825 H 110.8236880774154 140.91103523629107 104.7074624349685 H 0.0 **** 0.06
21826 C 34.31857605375808 52.603877425739825 0.258448173316026 C 0.0 **** -0.24
21827 H 34.60292280727765 53.551634116589355 0.7164401927407198 H 0.0 **** 0.06
21828 H 34.73751172134001 51.78046057383358 0.8366903978310916 H 0.0 **** 0.06
21829 H 34.701218524184185 52.56519355357892 -0.761154082232963 H 0.0 **** 0.06
21830 H 33.23148519083054 52.5203728593811 0.24192666802906615 H 0.0 **** 0.06
21831 C 16.13259544338024 19.509720785263006 133.15921463171628 C 0.0 **** -0.24
21832 H 15.63414114670087 19.80616707167073 132.23662459525065 H 0.0 **** 0.06
21833 H 15.89441598313789 18.469317886088206 133.38335049108363 H 0.0 **** 0.06
21834 H 15.792433312762228 20.144960579967957 133.9773085303604 H 0.0 **** 0.06
21835 H 17.21139419262954 19.61748475166899 133.03985916656237 H 0.0 **** 0.06
21836 C 90.52149941675002 62.14771694510438 146.20276218176681 C 0.0 **** -0.24
21837 H 91.29331218395457 62.721000341244675 145.68754111662346 H 0.0 **** 0.06
21838 H 90.74812496493935 62.109128995392496 147.2680275467135 H 0.0 **** 0.06
21839 H 90.49178276971271 61.1362227107699 145.79957393516446 H 0.0 **** 0.06
21840 H 89.55411756268596 62.62766882247425 146.05340341337867 H 0.0 **** 0.06
21841 C 81.77955314170134 124.1101781613521 16.636428730654302 C 0.0 **** -0.24
21842 H 82.34239336252239 124.05731546245993 17.56867222086734 H 0.0 **** 0.06
21843 H 80.72067098463006 124.24900224850354 16.85899783203095 H 0.0 **** 0.06
21844 H 81.91549610696836 123.18436929565154 16.07792186658253 H 0.0 **** 0.06
21845 H 82.13993129620275 124.94963186865259 16.042909989760687 H 0.0 **** 0.06
21846 C 70.623865234118 63.203560279996594 37.682804003827115 C 0.0 **** -0.24
21847 H 71.55080681945407 63.47804897739215 37.18068879377097 H 0.0 **** 0.06
21848 H 69.88168524450356 63.98860162982885 37.53191831499508 H 0.0 **** 0.06
21849 H 70.81087901686925 63.08146373824472 38.74996790214153 H 0.0 **** 0.06
21850 H 70.25109833803418 62.26643626566418 37.269600786282915 H 0.0 **** 0.06
21851 C 76.94898390084956 80.80762415432514 22.704047865817074 C 0.0 **** -0.24
21852 H 77.42290575824373 81.7721506127559 22.886177674211467 H 0.0 **** 0.06
21853 H 77.38765571041921 80.05689845756692 23.361985921231735 H 0.0 **** 0.06
21854 H 77.10495561931505 80.51642307991878 21.665937951967294 H 0.0 **** 0.06
21855 H 75.87984556579336 80.8845020357142 22.903272653113447 H 0.0 **** 0.06
21856 C 25.359092177443472 53.04492757125041 133.6778014520617 C 0.0 **** -0.24
21857 H 24.821759491166148 52.59297687251892 134.51167113132394 H 0.0 **** 0.06
21858 H 26.22934800532647 53.582765840364814 134.05612054219174 H 0.0 **** 0.06
21859 H 24.701394237535425 53.73991032217117 133.1548741979852 H 0.0 **** 0.06
21860 H 25.68391605439365 52.265104354217655 132.9894892718468 H 0.0 **** 0.06
21861 C 144.12594283615607 32.47566451977971 57.37518125684291 C 0.0 **** -0.24
21862 H 144.75559108096797 32.02712175872587 58.14260415686695 H 0.0 **** 0.06
21863 H 143.13038904611403 32.654968590732366 57.78238540859064 H 0.0 **** 0.06
21864 H 144.05375591806197 31.798316668080673 56.52402531691581 H 0.0 **** 0.06
21865 H 144.56290644899263 33.420345706544666 57.05201917860197 H 0.0 **** 0.06
21866 C 26.119387564856744 104.24782282328722 31.06147086265286 C 0.0 **** -0.24
21867 H 26.730853335050476 104.06220134670629 31.944834199007282 H 0.0 **** 0.06
21868 H 26.765539570369917 104.47077979153484 30.213072831374433 H 0.0 **** 0.06
21869 H 25.45995527928718 105.09542277021846 31.248491930799915 H 0.0 **** 0.06
21870 H 25.52101943634387 103.36425446407928 30.840932896682176 H 0.0 **** 0.06
21871 C 70.62737467082536 83.21262333452978 15.639361324328888 C 0.0 **** -0.24
21872 H 70.20370367120219 82.37772246451152 15.082258226372119 H 0.0 **** 0.06
21873 H 71.47588234514546 83.62206684560391 15.090219939565657 H 0.0 **** 0.06
21874 H 70.96128480519596 82.86434961705794 16.61667136576841 H 0.0 **** 0.06
21875 H 69.86995778291106 83.98601435855159 15.767955549065618 H 0.0 **** 0.06
21876 C 120.7298353047395 108.31341431159888 12.068553198891465 C 0.0 **** -0.24
21877 H 120.26885988192386 109.29274744165554 12.201119418318314 H 0.0 **** 0.06
21878 H 120.82424898605395 107.82273085786744 13.038230648685385 H 0.0 **** 0.06
21879 H 121.71842005275191 108.43456927336575 11.62472757288893 H 0.0 **** 0.06
21880 H 120.10833237082714 107.70481319749774 11.411946574315522 H 0.0 **** 0.06
21881 C 49.113278028788045 104.58765419106786 81.2945229012162 C 0.0 **** -0.24
21882 H 49.67959477603256 103.95249175411433 81.97535877632194 H 0.0 **** 0.06
21883 H 48.80262083435866 104.00420317897837 80.42713282106632 H 0.0 **** 0.06
21884 H 49.73940356562434 105.41883594474737 80.96756533485191 H 0.0 **** 0.06
21885 H 48.23330857235783 104.97520782597556 81.80673513818633 H 0.0 **** 0.06
21886 C 25.164457544876882 97.29701651450668 139.0290818698031 C 0.0 **** -0.24
21887 H 25.897226695353112 96.81964947316223 139.6784434832405 H 0.0 **** 0.06
21888 H 24.470743644869287 96.54595129052493 138.6504374981689 H 0.0 **** 0.06
21889 H 25.675417266922807 97.7740975140299 138.19284783479188 H 0.0 **** 0.06
21890 H 24.6137770442796 98.04904682488618 139.594288812345 H 0.0 **** 0.06
21891 C 80.29210493001617 58.03553373779086 20.713470121204523 C 0.0 **** -0.24
21892 H 79.75303148605002 57.28863871992773 21.294503737240234 H 0.0 **** 0.06
21893 H 80.18291532097714 57.81765908433573 19.65069649677102 H 0.0 **** 0.06
21894 H 81.34865669450718 58.01328350933629 20.982148018061338 H 0.0 **** 0.06
21895 H 79.88445552644419 59.02394961536103 20.92573058370604 H 0.0 **** 0.06
21896 C 68.3487786990122 41.861234738228916 8.529428295973275 C 0.0 **** -0.24
21897 H 68.27807570969077 42.72294639962638 9.193711074446469 H 0.0 **** 0.06
21898 H 67.36637493395068 41.39985602857263 8.428542148912868 H 0.0 **** 0.06
21899 H 69.04943712772177 41.1383581605258 8.946888102797686 H 0.0 **** 0.06
21900 H 68.7019831911249 42.18588193135355 7.550808726868297 H 0.0 **** 0.06
21901 C 11.335605541731013 11.104883161581142 68.71451317793938 C 0.0 **** -0.24
21902 H 12.110906645413536 11.597092480335846 69.30270678034287 H 0.0 **** 0.06
21903 H 11.753381954329143 10.221211639014342 68.2328442377919 H 0.0 **** 0.06
21904 H 10.9658014205462 11.793166791138816 67.95486785232531 H 0.0 **** 0.06
21905 H 10.51566197577489 10.810613206544161 69.36881829498441 H 0.0 **** 0.06
21906 C 113.45698477904445 115.25812328450618 47.98164280635382 C 0.0 **** -0.24
21907 H 112.39129156957107 115.46767345506592 48.073898937856825 H 0.0 **** 0.06
21908 H 113.61662798745805 114.5357723099398 47.1808503142197 H 0.0 **** 0.06
21909 H 113.82926022964908 114.84785457166024 48.920678523250785 H 0.0 **** 0.06
21910 H 113.99004604294832 116.18031008811565 47.751987317866224 H 0.0 **** 0.06
21911 C 43.5229647212694 87.89406075423645 96.35483470500353 C 0.0 **** -0.24
21912 H 42.94369625565227 88.45664817792195 95.6231593031792 H 0.0 **** 0.06
21913 H 43.40001868827909 86.82612103015003 96.17142929524852 H 0.0 **** 0.06
21914 H 43.17206312579029 88.1339752693568 97.35851422456653 H 0.0 **** 0.06
21915 H 44.57628543426247 88.15995145643232 96.26491196130576 H 0.0 **** 0.06
21916 C 98.75577025372883 99.31470780946496 72.30632333181816 C 0.0 **** -0.24
21917 H 97.87802482324395 98.7695636036113 72.65294304477413 H 0.0 **** 0.06
21918 H 99.50450606901194 98.60719677933645 71.94919544525419 H 0.0 **** 0.06
21919 H 99.16908275510934 99.89699393429082 73.12986454438999 H 0.0 **** 0.06
21920 H 98.47186881626862 99.98397457411986 71.49491011306623 H 0.0 **** 0.06
21921 C 0.39743002922461557 76.33149901179222 63.160394842980565 C 0.0 **** -0.24
21922 H 0.5499625975372631 75.47821757197215 62.499710292789246 H 0.0 **** 0.06
21923 H -0.30936416593060656 76.06046913725184 63.94478139494309 H 0.0 **** 0.06
21924 H 0.0010780722813379384 77.16916418001573 62.58690146017037 H 0.0 **** 0.06
21925 H 1.3485823961372212 76.61653856791156 63.610544959381286 H 0.0 **** 0.06
21926 C 50.7526696129342 20.422818699639947 113.03181183897398 C 0.0 **** -0.24
21927 H 51.62187548350428 20.364745008099135 113.68774333119877 H 0.0 **** 0.06
21928 H 50.63413440984098 19.478011524510237 112.50121001413301 H 0.0 **** 0.06
21929 H 50.89507991484457 21.229173581993336 112.31267375995778 H 0.0 **** 0.06
21930 H 49.86127244658155 20.620276408323207 113.62792177758895 H 0.0 **** 0.06
21931 C 110.95068683799488 43.639839396092356 34.81227045947617 C 0.0 **** -0.24
21932 H 110.77768535252844 43.81107698907857 35.87542600289507 H 0.0 **** 0.06
21933 H 111.9961012137903 43.842345778261034 34.57789371474048 H 0.0 **** 0.06
21934 H 110.31182121494427 44.303401230589 34.229225090515286 H 0.0 **** 0.06
21935 H 110.717096648958 42.603808858257906 34.56837333651424 H 0.0 **** 0.06
21936 C 61.2497040078195 141.63214292964904 30.293951433287475 C 0.0 **** -0.24
21937 H 61.97171266947643 142.4458508533959 30.361777592734967 H 0.0 **** 0.06
21938 H 60.88593631095998 141.38597058072358 31.292096594070614 H 0.0 **** 0.06
21939 H 61.72811429850846 140.75695229909513 29.85581174091905 H 0.0 **** 0.06
21940 H 60.41251293959235 141.9408319844452 29.66802758715923 H 0.0 **** 0.06
21941 C 104.32222431489976 46.86172081187074 37.03793939544262 C 0.0 **** -0.24
21942 H 105.10249895200229 46.29339607285492 37.54468191780138 H 0.0 **** 0.06
21943 H 104.64044473963583 47.89912107655607 36.92926566971449 H 0.0 **** 0.06
21944 H 103.40528378504746 46.822156513855276 37.62601440551757 H 0.0 **** 0.06
21945 H 104.1402991325657 46.43211837982847 36.05271989208556 H 0.0 **** 0.06
21946 C 113.47861734264158 108.31744915006108 98.26383667420518 C 0.0 **** -0.24
21947 H 113.02402267376978 107.57857103833958 98.9227503694444 H 0.0 **** 0.06
21948 H 112.92342582196669 109.25387847711865 98.32863651722857 H 0.0 **** 0.06
21949 H 113.45597717755906 107.95208284629884 97.23740823010593 H 0.0 **** 0.06
21950 H 114.51231932601557 108.48710021970815 98.56659770232443 H 0.0 **** 0.06
21951 C 75.45833934337442 24.767221785790298 122.47863635547957 C 0.0 **** -0.24
21952 H 75.56811788536035 24.343532899757577 121.48021615616905 H 0.0 **** 0.06
21953 H 75.55411223381932 23.97610930185624 123.22138060729064 H 0.0 **** 0.06
21954 H 74.47810180819542 25.23541158638585 122.56841480418773 H 0.0 **** 0.06
21955 H 76.23355096198105 25.51623377522867 122.64254333107597 H 0.0 **** 0.06
21956 C 145.04392456739538 31.539145829536857 15.925204536592958 C 0.0 **** -0.24
21957 H 145.3492298978861 32.29089317050125 15.196553648402926 H 0.0 **** 0.06
21958 H 143.9597369155675 31.42661402763205 15.897093281368427 H 0.0 **** 0.06
21959 H 145.3510814733313 31.85454602324019 16.922535901243464 H 0.0 **** 0.06
21960 H 145.51563120280875 30.58701935895281 15.68329236564739 H 0.0 **** 0.06
21961 C 95.96564054181653 51.82113038088305 95.24026439289975 C 0.0 **** -0.24
21962 H 96.01699196112594 52.64535920655244 95.95230258765586 H 0.0 **** 0.06
21963 H 96.96964568077487 51.58242597590491 94.88939066594436 H 0.0 **** 0.06
21964 H 95.34272303297183 52.11076501505019 94.39423955649121 H 0.0 **** 0.06
21965 H 95.53410715895797 50.94667401297811 95.72728952909856 H 0.0 **** 0.06
21966 C 72.14378008623062 124.67155049295083 83.11407391224166 C 0.0 **** -0.24
21967 H 72.01606099706942 125.04706798582465 82.09887938666746 H 0.0 **** 0.06
21968 H 71.40736917573007 125.13933851479334 83.76823203981454 H 0.0 **** 0.06
21969 H 73.14753489728707 124.91055085575293 83.46665527999141 H 0.0 **** 0.06
21970 H 72.00313385075602 123.59108730075455 83.1217796850908 H 0.0 **** 0.06
21971 C 92.7623943709056 50.888801464243 73.97568254985461 C 0.0 **** -0.24
21972 H 93.61823617494436 50.64783138576118 73.34547885558098 H 0.0 **** 0.06
21973 H 93.11137953918464 51.33319892940422 74.90829863578867 H 0.0 **** 0.06
21974 H 92.20453146880163 49.977751370653436 74.19287878351614 H 0.0 **** 0.06
21975 H 92.11555983075593 51.594745959896926 73.45499365820226 H 0.0 **** 0.06
21976 C 49.75373738535315 139.7983077936876 93.96628685635486 C 0.0 **** -0.24
21977 H 49.16709418648945 139.57617170885754 94.85706615547656 H 0.0 **** 0.06
21978 H 50.5039714546793 139.02020979150356 93.82308822087388 H 0.0 **** 0.06
21979 H 50.24683209921646 140.76216737610983 94.0872362028829 H 0.0 **** 0.06
21980 H 49.096104397524414 139.83364869478186 93.0979416802017 H 0.0 **** 0.06
21981 C 104.80087099240076 123.43486200218882 36.85900796255072 C 0.0 **** -0.24
21982 H 104.0707606527722 123.87464890354431 36.17901172352185 H 0.0 **** 0.06
21983 H 104.40283022421927 122.5063129164256 37.26820794450171 H 0.0 **** 0.06
21984 H 105.00508345422595 124.13283690023633 37.671569857655896 H 0.0 **** 0.06
21985 H 105.72331608562881 123.22853728103706 36.31789745974626 H 0.0 **** 0.06
21986 C 125.35663221461272 76.72104824337254 131.51451250028452 C 0.0 **** -0.24
21987 H 125.42566209149504 77.73616771796628 131.90530759574762 H 0.0 **** 0.06
21988 H 126.05316826842471 76.07728563567917 132.0512635593762 H 0.0 **** 0.06
21989 H 125.60669000253891 76.72375129265333 130.4537140887458 H 0.0 **** 0.06
21990 H 124.34073943783575 76.34941560251394 131.64757459465062 H 0.0 **** 0.06
21991 C 69.87337619503361 95.00283613244173 140.4620336551314 C 0.0 **** -0.24
21992 H 69.02065998847209 95.58069922126437 140.81646524655275 H 0.0 **** 0.06
21993 H 70.74194068958022 95.21894620735897 141.0854417864223 H 0.0 **** 0.06
21994 H 70.09131190520891 95.27332271519977 139.42902082536298 H 0.0 **** 0.06
21995 H 69.64075125511546 93.93973725205733 140.518103854052 H 0.0 **** 0.06
21996 C 23.708543118394445 57.90897285005258 94.60642298803975 C 0.0 **** -0.24
21997 H 23.225732566682694 57.283817561490196 95.35886926064623 H 0.0 **** 0.06
21998 H 24.764806476217927 58.020517437513945 94.85144953799445 H 0.0 **** 0.06
21999 H 23.232865472153847 58.889019508487365 94.58945922449358 H 0.0 **** 0.06
22000 H 23.609640062454076 57.44004551888116 93.62714731309461 H 0.0 **** 0.06
22001 C 99.02471887074864 97.14075663761089 40.01534512903362 C 0.0 **** -0.24
22002 H 98.23416674539038 97.8886519852666 39.94751888279217 H 0.0 **** 0.06
22003 H 99.32051540883674 96.83346174691394 39.01295264543677 H 0.0 **** 0.06
22004 H 98.65784436016673 96.27508128281097 40.567879110371166 H 0.0 **** 0.06
22005 H 99.88337256356078 97.56630870029278 40.534736853211314 H 0.0 **** 0.06
22006 C 123.1236151169277 19.569214868403122 142.9923912160139 C 0.0 **** -0.24
22007 H 122.22948431078889 20.16264033306865 143.18169462210687 H 0.0 **** 0.06
22008 H 123.13761826468506 19.256967872845053 141.9479170764252 H 0.0 **** 0.06
22009 H 123.11844488708284 18.68962726222378 143.6355299002358 H 0.0 **** 0.06
22010 H 124.00889111540035 20.169012980641895 143.20468848599953 H 0.0 **** 0.06
22011 C 67.56747734349847 24.581881387967655 121.55944858570393 C 0.0 **** -0.24
22012 H 68.57959300681291 24.64143463034236 121.15802510067078 H 0.0 **** 0.06
22013 H 67.2529470505467 23.538356292041044 121.59841780298109 H 0.0 **** 0.06
22014 H 66.88832259607997 25.14280146495861 120.91645167683401 H 0.0 **** 0.06
22015 H 67.5489101719156 25.005600788451602 122.563660526288 H 0.0 **** 0.06
22016 C 66.73759092632054 2.9574579327429262 87.31111292177528 C 0.0 **** -0.24
22017 H 66.47542029565096 2.731348696459605 88.34427536176148 H 0.0 **** 0.06
22018 H 67.64840153158218 3.556612265298156 87.29016909969815 H 0.0 **** 0.06
22019 H 65.9261664719815 3.5145293233991595 86.84291819890652 H 0.0 **** 0.06
22020 H 66.90148915527385 2.027869030833017 86.76639527609086 H 0.0 **** 0.06
22021 C 35.034287820995026 37.29553634503304 99.98875546701514 C 0.0 **** -0.24
22022 H 34.83974086237442 36.250263049808495 99.74895201142786 H 0.0 **** 0.06
22023 H 35.77563685866902 37.695415315743446 99.29662403939204 H 0.0 **** 0.06
22024 H 35.41150678401847 37.36948951593345 101.0089717600216 H 0.0 **** 0.06
22025 H 34.109280617773635 37.86633129477866 99.90125506935694 H 0.0 **** 0.06
22026 C 132.6592690224748 148.50716817696798 40.65961549231497 C 0.0 **** -0.24
22027 H 133.44483834021577 148.0030910282122 40.09617908976503 H 0.0 **** 0.06
22028 H 132.08463712613016 147.7704994257952 41.22040849484506 H 0.0 **** 0.06
22029 H 132.00000128147772 149.0349042900497 39.970098892423835 H 0.0 **** 0.06
22030 H 133.10862714847008 149.22031857900137 41.35038842655081 H 0.0 **** 0.06
22031 C 51.515872040456244 80.27168054718565 105.83407977680528 C 0.0 **** -0.24
22032 H 50.97121678532184 80.61432354460626 106.71364552076662 H 0.0 **** 0.06
22033 H 52.071100249970385 81.10534961820841 105.40392049582309 H 0.0 **** 0.06
22034 H 50.81119637189059 79.8846616187545 105.09768514475488 H 0.0 **** 0.06
22035 H 52.21065255892266 79.48200254060451 106.12169444063497 H 0.0 **** 0.06
22036 C 68.84135529385946 119.55665008722707 14.504673854758394 C 0.0 **** -0.24
22037 H 67.92459009736606 119.07481654367706 14.843566863494566 H 0.0 **** 0.06
22038 H 69.69945775148673 118.95564015718674 14.805061451536318 H 0.0 **** 0.06
22039 H 68.91704271220183 120.54791164855925 14.951499783946296 H 0.0 **** 0.06
22040 H 68.82355760557775 119.64707919506077 13.418838562654052 H 0.0 **** 0.06
22041 C 57.8089670161755 70.30874639742683 123.09045750014482 C 0.0 **** -0.24
22042 H 58.74418381619904 70.64525293721185 122.64371669694302 H 0.0 **** 0.06
22043 H 57.11181381495351 71.1451270743787 123.14618255163336 H 0.0 **** 0.06
22044 H 58.0020293074912 69.92882420038147 124.0939930407882 H 0.0 **** 0.06
22045 H 57.3787748437949 69.51682858016437 122.47775991508834 H 0.0 **** 0.06
22046 C 72.68268726677144 98.58728539725456 115.93392046882946 C 0.0 **** -0.24
22047 H 72.20100360746818 99.33679307940764 116.56161192054145 H 0.0 **** 0.06
22048 H 73.64468492470775 98.9676054502965 115.58827657673271 H 0.0 **** 0.06
22049 H 72.04751867306554 98.36987762095606 115.07463516363828 H 0.0 **** 0.06
22050 H 72.83874281180275 97.67600404775072 116.51064694378215 H 0.0 **** 0.06
22051 C 122.51950636287025 124.92067065609965 40.151537909989884 C 0.0 **** -0.24
22052 H 121.54613512943435 125.14612177715131 39.71651642036255 H 0.0 **** 0.06
22053 H 123.16466400445522 125.79609335167876 40.07274558265652 H 0.0 **** 0.06
22054 H 122.97196388614795 124.08546273980627 39.616168467962495 H 0.0 **** 0.06
22055 H 122.39496112046972 124.65380994004565 41.2014152153032 H 0.0 **** 0.06
22056 C 73.7541815752165 102.5837837309313 39.79718281402229 C 0.0 **** -0.24
22057 H 74.08721036129779 102.88570663037827 40.790658485164215 H 0.0 **** 0.06
22058 H 74.49028144119384 102.89761735949709 39.056467647987574 H 0.0 **** 0.06
22059 H 72.7950241136493 103.05248084525697 39.57809961898353 H 0.0 **** 0.06
22060 H 73.64519238977496 101.50018145538195 39.764063100469514 H 0.0 **** 0.06
22061 C 100.72527759034668 35.41243398920476 130.41337411978688 C 0.0 **** -0.24
22062 H 100.65070708322452 34.32663386781658 130.35847604297254 H 0.0 **** 0.06
22063 H 101.64771206488487 35.738485465765706 129.9330725993545 H 0.0 **** 0.06
22064 H 100.73090478859868 35.723000281724836 131.4586733276782 H 0.0 **** 0.06
22065 H 99.87256314270186 35.86130892137004 129.9053487282659 H 0.0 **** 0.06
22066 C 52.24245907530499 43.57744234421624 40.27785839337548 C 0.0 **** -0.24
22067 H 51.32470761143189 43.80218954746145 40.82119109508672 H 0.0 **** 0.06
22068 H 51.99664406444187 43.076700695827 39.34138561353667 H 0.0 **** 0.06
22069 H 52.873473754229636 42.92776029047076 40.88314934350997 H 0.0 **** 0.06
22070 H 52.77490732237982 44.505310484658224 40.066138993228776 H 0.0 **** 0.06
22071 C 114.52772451372468 108.7130130404261 22.488062491934045 C 0.0 **** -0.24
22072 H 114.86746989348379 108.03823486181814 23.27355912316318 H 0.0 **** 0.06
22073 H 113.88920301072031 108.169401563324 21.792412219824286 H 0.0 **** 0.06
22074 H 115.39045930821047 109.11236234791487 21.954558696058285 H 0.0 **** 0.06
22075 H 113.9647955771554 109.53352051383773 22.933056855458872 H 0.0 **** 0.06
22076 C 134.14972248340194 111.31946758894296 37.9497834891358 C 0.0 **** -0.24
22077 H 134.36863702249 110.30506498324584 38.28477050418957 H 0.0 **** 0.06
22078 H 133.0887138588084 111.40162250914486 37.713183056520975 H 0.0 **** 0.06
22079 H 134.74015871828848 111.5432680595533 37.06117958779035 H 0.0 **** 0.06
22080 H 134.40206417892168 112.02513311895373 38.740892387998855 H 0.0 **** 0.06
22081 C 75.21658193423474 59.25742911338557 64.1843603036606 C 0.0 **** -0.24
22082 H 75.50623321049565 59.68389511583291 63.22418513414546 H 0.0 **** 0.06
22083 H 76.06011965534074 59.31027110278524 64.87384444468674 H 0.0 **** 0.06
22084 H 74.92534131636802 58.21629840656033 64.04590369774877 H 0.0 **** 0.06
22085 H 74.3763975752658 59.818728110345944 64.59272429438896 H 0.0 **** 0.06
22086 C 114.85540444608473 5.213577411742818 4.883533545765204 C 0.0 **** -0.24
22087 H 113.88223086244425 5.7034679439105105 4.890667267269919 H 0.0 **** 0.06
22088 H 115.21731717824316 5.138868331117379 3.857236671008536 H 0.0 **** 0.06
22089 H 114.76285766699395 4.215227551011537 5.310880155983568 H 0.0 **** 0.06
22090 H 115.56058982746141 5.797795025111753 5.475317178108298 H 0.0 **** 0.06
22091 C 83.85390935513774 86.01674225218855 125.03434985439515 C 0.0 **** -0.24
22092 H 84.52775180469537 86.69373802032747 125.5594075328379 H 0.0 **** 0.06
22093 H 83.05854926998836 85.70056389959 125.70990673488251 H 0.0 **** 0.06
22094 H 84.40958481737609 85.1436509851652 124.69197007903097 H 0.0 **** 0.06
22095 H 83.41972396741922 86.53042900129324 124.17605998998442 H 0.0 **** 0.06
22096 C 105.05395225511896 80.58459016440949 45.641244913549514 C 0.0 **** -0.24
22097 H 104.42822786576968 80.4686879650346 46.52556166188195 H 0.0 **** 0.06
22098 H 105.73089419497379 81.42733548375926 45.78195534878979 H 0.0 **** 0.06
22099 H 104.42256604129378 80.76746742262654 44.77153240048192 H 0.0 **** 0.06
22100 H 105.633194906591 79.67458598557195 45.4848996934567 H 0.0 **** 0.06
22101 C 86.69705466525245 19.490134976215018 113.40958023249459 C 0.0 **** -0.24
22102 H 87.6676743060791 19.978478889218394 113.32077576997966 H 0.0 **** 0.06
22103 H 85.92573927326383 20.243039088250413 113.57444526728631 H 0.0 **** 0.06
22104 H 86.71455792812074 18.79743040983513 114.25066910053778 H 0.0 **** 0.06
22105 H 86.48082712435112 18.942837672810157 112.49209791960226 H 0.0 **** 0.06
22106 C 95.37110635917477 53.12411328212107 9.942822954515435 C 0.0 **** -0.24
22107 H 94.44272536577054 53.64046739020293 10.186660287543162 H 0.0 **** 0.06
22108 H 95.26570932531143 52.0620943407728 10.167143621084875 H 0.0 **** 0.06
22109 H 96.18531499798345 53.54231669351405 10.534661347053031 H 0.0 **** 0.06
22110 H 95.58945675114086 53.25206198783556 8.882300563131025 H 0.0 **** 0.06
22111 C 140.82046339930656 42.55176278788329 71.00090906474131 C 0.0 **** -0.24
22112 H 140.55067262635512 41.54413134685933 71.31742337473024 H 0.0 **** 0.06
22113 H 141.38170658324356 43.04266204509665 71.79607476909102 H 0.0 **** 0.06
22114 H 139.91489022750542 43.12065307466639 70.78943668495246 H 0.0 **** 0.06
22115 H 141.4338658495795 42.49810250192493 70.10249800911956 H 0.0 **** 0.06
22116 C 132.47824884387228 70.16305255308 11.562269774022553 C 0.0 **** -0.24
22117 H 131.6189362755543 70.74994626792792 11.238987955148957 H 0.0 **** 0.06
22118 H 133.20486013255126 70.10640421197698 10.7506549948408 H 0.0 **** 0.06
22119 H 132.15199654817803 69.15864631663686 11.83049543097954 H 0.0 **** 0.06
22120 H 132.938007460084 70.63903965885214 12.429070683660598 H 0.0 **** 0.06
22121 C 16.678039929332108 31.387519355532504 87.79203523748033 C 0.0 **** -0.24
22122 H 16.714615735562205 31.217623619703005 88.86859976084571 H 0.0 **** 0.06
22123 H 15.966047976075828 30.696836451468357 87.34026309672518 H 0.0 **** 0.06
22124 H 17.666489808858643 31.221035655678776 87.36471045498449 H 0.0 **** 0.06
22125 H 16.36440555065031 32.412879686758316 87.59622372032317 H 0.0 **** 0.06
22126 C 148.32581571089145 117.82798739548556 75.47359701602284 C 0.0 **** -0.24
22127 H 148.31973778318178 118.88849703023456 75.22228078324656 H 0.0 **** 0.06
22128 H 149.09383129208715 117.32114201949369 74.88810801690283 H 0.0 **** 0.06
22129 H 147.3518513001984 117.395555920271 75.2472504160844 H 0.0 **** 0.06
22130 H 148.5394728714702 117.70725640488106 76.53499094902838 H 0.0 **** 0.06
22131 C 102.15429792900375 25.413032236851535 94.30928385680488 C 0.0 **** -0.24
22132 H 101.81189281040815 24.517770685256252 93.79076003444818 H 0.0 **** 0.06
22133 H 102.07295725166148 25.262207283678237 95.38610558807711 H 0.0 **** 0.06
22134 H 101.53602644011801 26.261474540148498 94.01404573125252 H 0.0 **** 0.06
22135 H 103.19257766864723 25.610846119520943 94.04627384013205 H 0.0 **** 0.06
22136 C 52.252077514037325 52.250556736357225 146.72572924332488 C 0.0 **** -0.24
22137 H 52.20992130302787 51.4661425036943 147.48165229748005 H 0.0 **** 0.06
22138 H 53.048951568958216 52.951904612274035 146.97528769448164 H 0.0 **** 0.06
22139 H 51.2992360856374 52.777831172042255 146.69524449609068 H 0.0 **** 0.06
22140 H 52.4525699079916 51.80475157324335 145.75164812341765 H 0.0 **** 0.06
22141 C 122.15054854111462 101.97558955873207 113.19626500811968 C 0.0 **** -0.24
22142 H 122.0515491026707 101.01222765403004 112.69581876408115 H 0.0 **** 0.06
22143 H 121.20564036977883 102.51534635354008 113.13484327960676 H 0.0 **** 0.06
22144 H 122.93488790372625 102.55843515315271 112.71231119024502 H 0.0 **** 0.06
22145 H 122.41079422719541 101.81627504777022 114.24281866821114 H 0.0 **** 0.06
22146 C 95.91289804926566 81.93292541143548 110.77807554101936 C 0.0 **** -0.24
22147 H 96.62839225797138 81.17191337650824 111.09068108957727 H 0.0 **** 0.06
22148 H 95.43811080007958 82.36767515792583 111.65758915941602 H 0.0 **** 0.06
22149 H 95.15447065093932 81.4787398493284 110.1414337319854 H 0.0 **** 0.06
22150 H 96.43340657079271 82.71296228058168 110.22156958286438 H 0.0 **** 0.06
22151 C 66.15712300228728 57.589682733639165 103.46171591726943 C 0.0 **** -0.24
22152 H 67.24171850388227 57.6599105007908 103.54169795738932 H 0.0 **** 0.06
22153 H 65.8914747044884 56.67624470103786 102.92907396807539 H 0.0 **** 0.06
22154 H 65.77760130699684 58.45303222098869 102.9146177067147 H 0.0 **** 0.06
22155 H 65.7191811482257 57.56989240609482 104.45870322325902 H 0.0 **** 0.06
22156 C 145.60560463919967 26.496528986561344 72.55089228376808 C 0.0 **** -0.24
22157 H 144.69723609730048 27.086631416832944 72.68061612004195 H 0.0 **** 0.06
22158 H 146.39589764274155 27.13115893233683 72.14936357954974 H 0.0 **** 0.06
22159 H 145.40985087306714 25.6779870005102 71.85831018749643 H 0.0 **** 0.06
22160 H 145.91578019394345 26.092393217920005 73.51342738068413 H 0.0 **** 0.06
22161 C 148.19914825355602 0.8301770728948554 55.147544542795174 C 0.0 **** -0.24
22162 H 147.55925920949585 -0.0511907355889889 55.094278063397326 H 0.0 **** 0.06
22163 H 147.69699325562726 1.672497785143264 54.67230393209934 H 0.0 **** 0.06
22164 H 149.13813280923338 0.6281001724147472 54.63171566358068 H 0.0 **** 0.06
22165 H 148.4021683308954 1.0688969037032052 56.191412908823565 H 0.0 **** 0.06
22166 C 106.2437809006404 50.77462916409152 110.13574715515256 C 0.0 **** -0.24
22167 H 107.18940408050149 50.267572535625746 110.32719389910557 H 0.0 **** 0.06
22168 H 105.61205422349126 50.71046185036057 111.02132742874875 H 0.0 **** 0.06
22169 H 105.74043187699148 50.29793255419389 109.29391960211348 H 0.0 **** 0.06
22170 H 106.43509164132404 51.82173391027443 109.89960872147907 H 0.0 **** 0.06
22171 C 4.448561642669301 12.78011403904135 78.44843486735448 C 0.0 **** -0.24
22172 H 3.7733942124137414 13.503842394252395 78.90459238229977 H 0.0 **** 0.06
22173 H 4.971820239851734 13.247894777331844 77.61375280253054 H 0.0 **** 0.06
22174 H 3.8753038982461163 11.92670195624595 78.08697001365388 H 0.0 **** 0.06
22175 H 5.174751657516833 12.44385996182865 79.18917016310462 H 0.0 **** 0.06
22176 C 126.19894451289662 131.67013017757165 16.492502694891755 C 0.0 **** -0.24
22177 H 125.76273684416142 130.69227743800167 16.694837437066163 H 0.0 **** 0.06
22178 H 127.2428450373221 131.54826195708588 16.20261075902193 H 0.0 **** 0.06
22179 H 126.13896501150998 132.28692159570687 17.388128296946142 H 0.0 **** 0.06
22180 H 125.65027978241204 132.15115053383516 15.682576818822703 H 0.0 **** 0.06
22181 C 3.1869757598410047 16.90129713581925 4.133526560757474 C 0.0 **** -0.24
22182 H 3.360228616527621 15.837200727996674 4.297254394703373 H 0.0 **** 0.06
22183 H 3.555287376445733 17.181018523935933 3.1458631421644156 H 0.0 **** 0.06
22184 H 3.7144571992194244 17.47606129303523 4.894401029433595 H 0.0 **** 0.06
22185 H 2.1191055261853933 17.10916754300618 4.195820358543557 H 0.0 **** 0.06
22186 C 95.54513318394106 21.10934228406886 126.70495975206016 C 0.0 **** -0.24
22187 H 94.85181573754784 21.759057667339626 126.17038296537791 H 0.0 **** 0.06
22188 H 96.56933844892791 21.399668418482072 126.4705097573196 H 0.0 **** 0.06
22189 H 95.38167706064092 20.07535709415844 126.40106962423522 H 0.0 **** 0.06
22190 H 95.37634174333408 21.203468721596252 127.77821982705207 H 0.0 **** 0.06
22191 C 65.63828861393523 105.18847604577606 62.96848764216524 C 0.0 **** -0.24
22192 H 66.2061358753816 105.5013599124356 63.845001005655746 H 0.0 **** 0.06
22193 H 65.18046528242462 106.06221390888449 62.502713560044526 H 0.0 **** 0.06
22194 H 64.86144585446182 104.48686454262786 63.269680353396524 H 0.0 **** 0.06
22195 H 66.3074595377273 104.70540627797529 62.25571741439698 H 0.0 **** 0.06
22196 C 0.5157023450037173 38.94598048062643 118.52823540156706 C 0.0 **** -0.24
22197 H -0.5303538382277111 39.074702043729076 118.8057614259283 H 0.0 **** 0.06
22198 H 0.8988907320336921 39.87926525107201 118.11606593686369 H 0.0 **** 0.06
22199 H 0.5980433672854701 38.157130161457175 117.78149075841063 H 0.0 **** 0.06
22200 H 1.0943558189614464 38.673435788878216 119.41107856289787 H 0.0 **** 0.06
22201 C 29.6981148721815 86.67980310914453 11.962171649331594 C 0.0 **** -0.24
22202 H 29.14241607903182 87.47412083673396 11.46476774117258 H 0.0 **** 0.06
22203 H 29.72631507692971 86.87299315199147 13.034223800242273 H 0.0 **** 0.06
22204 H 30.716129400065668 86.64989543780239 11.571392295011833 H 0.0 **** 0.06
22205 H 29.2093642818349 85.7234790077335 11.776498414717025 H 0.0 **** 0.06
22206 C 15.299036472215562 6.26788003250374 57.33930942189697 C 0.0 **** -0.24
22207 H 16.17781638380626 6.659288682250519 57.853423884402744 H 0.0 **** 0.06
22208 H 15.539766727329209 5.302348396733805 56.89301004339424 H 0.0 **** 0.06
22209 H 14.996020295793471 6.964059846832299 56.55789832040952 H 0.0 **** 0.06
22210 H 14.485423143817002 6.145759574333624 58.05374094387439 H 0.0 **** 0.06
22211 C 58.910906617935865 129.133006796908 146.15096648426083 C 0.0 **** -0.24
22212 H 59.17421374294187 129.66095434468687 145.23426683922702 H 0.0 **** 0.06
22213 H 58.474453962932586 129.83542197631473 146.8618501039674 H 0.0 **** 0.06
22214 H 59.8064243653088 128.6863339989934 146.58298136773772 H 0.0 **** 0.06
22215 H 58.187657436806916 128.34948716752004 145.92367126589374 H 0.0 **** 0.06
22216 C 117.66535829513593 93.29661900801764 83.39390992079998 C 0.0 **** -0.24
22217 H 118.46351867191034 92.56419133810058 83.50757673118913 H 0.0 **** 0.06
22218 H 118.0031910539936 94.26286897067072 83.76893596233342 H 0.0 **** 0.06
22219 H 116.79124013282227 92.97327724634187 83.95900462269717 H 0.0 **** 0.06
22220 H 117.4032129977817 93.38771298668865 82.3394530734536 H 0.0 **** 0.06
22221 C 6.955791915799466 52.0030498140182 146.41919240502875 C 0.0 **** -0.24
22222 H 7.653622331038854 52.109429113638754 147.24908673554953 H 0.0 **** 0.06
22223 H 7.277739587693873 52.63433656323133 145.5899540297714 H 0.0 **** 0.06
22224 H 5.958945055482538 52.30516881757205 146.7402686066584 H 0.0 **** 0.06
22225 H 6.932529469185383 50.9619651989407 146.09496992223984 H 0.0 **** 0.06
22226 C 1.6685865286902697 121.51748883032845 51.249980378968615 C 0.0 **** -0.24
22227 H 2.176191080868506 122.4789366261901 51.17755656812294 H 0.0 **** 0.06
22228 H 1.3017696371212537 121.37685209822239 52.267458740399306 H 0.0 **** 0.06
22229 H 2.3661344415110364 120.71769929917453 51.00177665354096 H 0.0 **** 0.06
22230 H 0.8290402575871099 121.49610547542524 50.55497440577544 H 0.0 **** 0.06
22231 C 2.3151155747694183 29.15788308904409 36.14721931547435 C 0.0 **** -0.24
22232 H 1.7087908193098542 28.849018057189262 36.99925816403999 H 0.0 **** 0.06
22233 H 3.2747837243200237 28.641301394772775 36.17781185500878 H 0.0 **** 0.06
22234 H 2.479867140611187 30.23457600365041 36.190644883782355 H 0.0 **** 0.06
22235 H 1.7954049917291535 28.907405338495522 35.222056457227886 H 0.0 **** 0.06
22236 C 28.65300177878271 126.610346078099 120.04541198511335 C 0.0 **** -0.24
22237 H 27.580171418017756 126.68516595516441 120.22319412471889 H 0.0 **** 0.06
22238 H 28.93869251780859 125.55881738358008 119.99001546861778 H 0.0 **** 0.06
22239 H 29.19110571507612 127.09097748752868 120.86167483479768 H 0.0 **** 0.06
22240 H 28.899690372207488 127.10372919484615 119.10565334747939 H 0.0 **** 0.06
22241 C 4.326597431851297 82.31609501527876 113.15550069366407 C 0.0 **** -0.24
22242 H 3.2900344414439076 82.62054539737036 113.30318836073536 H 0.0 **** 0.06
22243 H 4.613936506648145 82.49994243704768 112.11991105912074 H 0.0 **** 0.06
22244 H 4.428249557192828 81.25386158649604 113.3786250645353 H 0.0 **** 0.06
22245 H 4.971246479094901 82.89067080334249 113.82005898735895 H 0.0 **** 0.06
22246 C 97.32033563693219 4.55019262085159 43.20293927484535 C 0.0 **** -0.24
22247 H 96.95477927856277 5.1050667458248995 44.06744362220597 H 0.0 **** 0.06
22248 H 97.49198887612448 3.510404056688145 43.48643265539407 H 0.0 **** 0.06
22249 H 98.25448797772438 4.991385615884809 42.8573461923676 H 0.0 **** 0.06
22250 H 96.5798449134613 4.592128223964494 42.40486513213675 H 0.0 **** 0.06
22251 C 24.02882383210561 34.49268292211701 110.63538404150763 C 0.0 **** -0.24
22252 H 23.1533427903871 34.32617690448865 110.0077287405327 H 0.0 **** 0.06
22253 H 23.7489221736704 34.393628864804896 111.68423715057894 H 0.0 **** 0.06
22254 H 24.41901660731252 35.49415155073547 110.45574650581976 H 0.0 **** 0.06
22255 H 24.794462129855233 33.75537122798431 110.39214140715906 H 0.0 **** 0.06
22256 C 16.228846884051855 110.62320454112846 141.65786882723717 C 0.0 **** -0.24
22257 H 17.167516991188847 110.50215445087666 142.19840539691742 H 0.0 **** 0.06
22258 H 15.83361721165447 111.62425734261357 141.83548735884065 H 0.0 **** 0.06
22259 H 15.51017618920946 109.88107747709454 142.00691950055727 H 0.0 **** 0.06
22260 H 16.404077144154627 110.48532889392932 140.59066305263335 H 0.0 **** 0.06
22261 C 49.198410174021646 80.30804774816502 13.31092656909459 C 0.0 **** -0.24
22262 H 50.04431366157803 80.99618538425815 13.29680529001564 H 0.0 **** 0.06
22263 H 48.31215398490083 80.83052368091708 13.674110313620758 H 0.0 **** 0.06
22264 H 49.422379272925824 79.47029524276755 13.970124573264968 H 0.0 **** 0.06
22265 H 49.01500313248549 79.9386039357176 12.302137890280846 H 0.0 **** 0.06
22266 C 49.73833640380013 107.09308828974967 10.302490511780377 C 0.0 **** -0.24
22267 H 50.65090530881619 107.4069533794442 9.796470595965275 H 0.0 **** 0.06
22268 H 49.08884338104161 107.95694232736936 10.449059786830901 H 0.0 **** 0.06
22269 H 49.99095366327711 106.66039972013006 11.271032014459195 H 0.0 **** 0.06
22270 H 49.222869639388364 106.34935719795483 9.695463714129971 H 0.0 **** 0.06
22271 C 86.43689879135735 85.74527048866378 19.174882012275276 C 0.0 **** -0.24
22272 H 87.39728480117108 85.70445030267057 19.688604604272626 H 0.0 **** 0.06
22273 H 86.56785770692758 85.44112532339129 18.13602591401309 H 0.0 **** 0.06
22274 H 86.04902049273656 86.76233032809387 19.209640000207827 H 0.0 **** 0.06
22275 H 85.73415665653243 85.07108083841436 19.66496497245447 H 0.0 **** 0.06
22276 C 42.531294443264485 0.7987212684466272 78.42919602168169 C 0.0 **** -0.24
22277 H 43.226851718145355 1.1620653224008493 79.18453210278821 H 0.0 **** 0.06
22278 H 43.076558805076544 0.22020317684174984 77.68221734354174 H 0.0 **** 0.06
22279 H 42.04343152378169 1.6455035684089978 77.94692434005316 H 0.0 **** 0.06
22280 H 41.779689106964824 0.16666496169014522 78.90111835760112 H 0.0 **** 0.06
22281 C 146.14576328498921 120.12116789986955 105.17970380563004 C 0.0 **** -0.24
22282 H 146.35426730002993 121.18933569839389 105.11638613916408 H 0.0 **** 0.06
22283 H 146.437586579456 119.75259563002736 106.16418042149822 H 0.0 **** 0.06
22284 H 146.71288280441556 119.59499720654837 104.41239141513186 H 0.0 **** 0.06
22285 H 145.08066182118083 119.94890524197429 105.02763178102332 H 0.0 **** 0.06
22286 C 126.9746477367186 133.69915724384015 79.92026986016609 C 0.0 **** -0.24
22287 H 126.02149589620343 133.4202102909177 80.3679690899704 H 0.0 **** 0.06
22288 H 127.29040231913905 134.666969924921 80.31115498418586 H 0.0 **** 0.06
22289 H 126.86185446874669 133.76408181941832 78.83746239356992 H 0.0 **** 0.06
22290 H 127.72481248646822 132.94665507692014 80.16333532492368 H 0.0 **** 0.06
22291 C 32.255407975608335 30.236287749927115 102.69838192105277 C 0.0 **** -0.24
22292 H 31.207429690083416 30.00363428942336 102.8859754840047 H 0.0 **** 0.06
22293 H 32.32408632229803 31.018131704296074 101.94249583687898 H 0.0 **** 0.06
22294 H 32.767337550654815 29.34145655276086 102.34340199458714 H 0.0 **** 0.06
22295 H 32.72220096891846 30.580339527569414 103.62127744914177 H 0.0 **** 0.06
22296 C 112.9798225621077 134.8466621198722 106.31070313510061 C 0.0 **** -0.24
22297 H 112.02676337863966 135.329790538317 106.09697999050279 H 0.0 **** 0.06
22298 H 113.47097368030626 134.58319612754832 105.37346476163275 H 0.0 **** 0.06
22299 H 112.80731460498345 133.9446709039485 106.89754751081942 H 0.0 **** 0.06
22300 H 113.61545289083801 135.5307345282701 106.87412354412841 H 0.0 **** 0.06
22301 C 75.43592346689022 26.35435740035441 12.298783336700524 C 0.0 **** -0.24
22302 H 75.80247416212322 27.2886884797122 12.724475152396877 H 0.0 **** 0.06
22303 H 74.7491380465838 26.57341479371398 11.480301704429422 H 0.0 **** 0.06
22304 H 74.91528801540076 25.78410021026889 13.068137578661975 H 0.0 **** 0.06
22305 H 76.2770677734654 25.772216361663624 11.921247138256376 H 0.0 **** 0.06
22306 C 102.33093539160748 123.56235817382861 103.21099621177741 C 0.0 **** -0.24
22307 H 101.55287989024151 123.95046881293007 102.55399374919921 H 0.0 **** 0.06
22308 H 102.1571001209063 122.50126677362033 103.3919819890164 H 0.0 **** 0.06
22309 H 102.31074511349169 124.10130432550261 104.15793700315662 H 0.0 **** 0.06
22310 H 103.30466947048726 123.69594551177067 102.73863418107183 H 0.0 **** 0.06
22311 C 4.746701855063435 13.487256349030133 141.01097130627292 C 0.0 **** -0.24
22312 H 4.187169023397956 13.66635974479425 141.92933805440654 H 0.0 **** 0.06
22313 H 4.128970381770557 12.919556881253868 140.31489470439624 H 0.0 **** 0.06
22314 H 5.65013091210281 12.922018859793582 141.24044028414644 H 0.0 **** 0.06
22315 H 5.01956849193877 14.441483533044106 140.5601645092742 H 0.0 **** 0.06
22316 C 63.99374890287308 132.42548571323664 122.55134283328421 C 0.0 **** -0.24
22317 H 63.73561500767818 131.57595624473743 123.18400947237875 H 0.0 **** 0.06
22318 H 64.95552104398558 132.24151680150243 122.0708188149295 H 0.0 **** 0.06
22319 H 64.05928553784415 133.32649542640203 123.16131654816265 H 0.0 **** 0.06
22320 H 63.22618536904616 132.55742639756633 121.78954803361673 H 0.0 **** 0.06
22321 C 68.39174277580828 131.85077420372247 140.11277048698105 C 0.0 **** -0.24
22322 H 68.75037966382364 132.4939141439697 140.91621996997316 H 0.0 **** 0.06
22323 H 67.30172667968031 131.82349768430586 140.13013207729662 H 0.0 **** 0.06
22324 H 68.78351000560522 130.84371627660974 140.25204436847213 H 0.0 **** 0.06
22325 H 68.73046245109802 132.2434674842889 139.15408469405892 H 0.0 **** 0.06
22326 C 124.30014018173166 13.922364565311625 15.830282878214774 C 0.0 **** -0.24
22327 H 125.22659317966325 13.517936319246331 15.42251318590317 H 0.0 **** 0.06
22328 H 123.66170492665476 14.26094064478346 15.013472499286905 H 0.0 **** 0.06
22329 H 124.52820838491768 14.762641370765436 16.48551126821164 H 0.0 **** 0.06
22330 H 123.7843543273891 13.147447652425654 16.397719420387233 H 0.0 **** 0.06
22331 C 110.06128774727249 61.26871572247711 130.15717315396208 C 0.0 **** -0.24
22332 H 110.01736753202196 60.73463441054969 129.20749021422458 H 0.0 **** 0.06
22333 H 109.47220855808256 62.1830114929524 130.08732741926227 H 0.0 **** 0.06
22334 H 111.09775014271044 61.51970088337691 130.38434195250514 H 0.0 **** 0.06
22335 H 109.65864026425679 60.63579606612848 130.94835974268162 H 0.0 **** 0.06
22336 C 14.26375785198529 76.62496485465115 105.69824610755289 C 0.0 **** -0.24
22337 H 14.591435276122219 77.09251796044558 104.77005105180719 H 0.0 **** 0.06
22338 H 13.459123236375845 77.21491572459846 106.13789211793416 H 0.0 **** 0.06
22339 H 15.100914826514689 76.57629080343116 106.39502551481762 H 0.0 **** 0.06
22340 H 13.904150680450833 75.61661216325771 105.49066466531256 H 0.0 **** 0.06
22341 C 8.535276252939354 9.153104570369777 54.00696133910202 C 0.0 **** -0.24
22342 H 9.475025614873516 8.624437320846027 54.16938237380026 H 0.0 **** 0.06
22343 H 8.460579938761839 9.444090495434978 52.959012796272134 H 0.0 **** 0.06
22344 H 8.506458672475958 10.043498358242715 54.63456385010613 H 0.0 **** 0.06
22345 H 7.702570415680498 8.499673868203388 54.26387324328067 H 0.0 **** 0.06
22346 C 6.46297526972171 76.04663069273968 115.88165959869724 C 0.0 **** -0.24
22347 H 6.16768847252041 75.42146473785228 115.03849784025113 H 0.0 **** 0.06
22348 H 6.603012461676201 75.42336951147973 116.76440958571663 H 0.0 **** 0.06
22349 H 5.684137665902142 76.78384431419961 116.07508277281221 H 0.0 **** 0.06
22350 H 7.396063273117761 76.55762632340233 115.6446538579172 H 0.0 **** 0.06
22351 C 69.20511953512148 99.15147324544432 26.626068542691144 C 0.0 **** -0.24
22352 H 69.6301766172241 99.00476507518474 27.61825633724459 H 0.0 **** 0.06
22353 H 69.64268959639747 100.04152868666762 26.17207151836567 H 0.0 **** 0.06
22354 H 68.12607033704901 99.27850675829137 26.708359292367618 H 0.0 **** 0.06
22355 H 69.42241714064355 98.28247133868501 26.005010638691374 H 0.0 **** 0.06
22356 C 103.09867107432886 128.69537097679748 41.285576868255845 C 0.0 **** -0.24
22357 H 102.95681784712166 127.61485977362922 41.3205870510877 H 0.0 **** 0.06
22358 H 104.07609590191207 128.94697591565915 41.697951900679854 H 0.0 **** 0.06
22359 H 102.3193311188874 129.18260225792739 41.87019241634182 H 0.0 **** 0.06
22360 H 103.04252363084198 129.0346163140497 40.250913360727125 H 0.0 **** 0.06
22361 C 36.77912552459287 132.57181290572476 83.27388173577391 C 0.0 **** -0.24
22362 H 37.526099473193455 131.8631667413419 83.63031403543374 H 0.0 **** 0.06
22363 H 35.869797864351455 132.47211897742918 83.86856643976543 H 0.0 **** 0.06
22364 H 36.55316855518399 132.3652590303707 82.22759858088067 H 0.0 **** 0.06
22365 H 37.16610248133432 133.58625030150097 83.36893477447973 H 0.0 **** 0.06
22366 C 75.2024691810124 136.19313112660873 35.24029546131743 C 0.0 **** -0.24
22367 H 75.04929857491663 135.19699352716685 35.65533537349013 H 0.0 **** 0.06
22368 H 75.3203674423362 136.12217663095097 34.15894309095455 H 0.0 **** 0.06
22369 H 76.09766840570127 136.63518818186137 35.67609052883576 H 0.0 **** 0.06
22370 H 74.33978767098822 136.8178161266873 35.4713511622504 H 0.0 **** 0.06
22371 C 11.426723418283736 102.34679152169537 74.30090874768416 C 0.0 **** -0.24
22372 H 12.22698848759569 103.05855245061053 74.09931344337926 H 0.0 **** 0.06
22373 H 11.78011679582054 101.33561920777765 74.09535288877979 H 0.0 **** 0.06
22374 H 10.572161508823932 102.56958104517571 73.66262180105583 H 0.0 **** 0.06
22375 H 11.128550969265575 102.42234306101327 75.3463701869633 H 0.0 **** 0.06
22376 C 55.078513952993305 106.11251660079445 12.169251400238998 C 0.0 **** -0.24
22377 H 54.44500472627125 106.85019848014794 12.661082634251983 H 0.0 **** 0.06
22378 H 56.1259697563444 106.35130525295334 12.35414275497272 H 0.0 **** 0.06
22379 H 54.88576518061508 106.12735917149728 11.096016042574192 H 0.0 **** 0.06
22380 H 54.855581203669956 105.12082418934729 12.56440539283085 H 0.0 **** 0.06
22381 C 51.211069101958685 89.55174783556409 63.44865676815161 C 0.0 **** -0.24
22382 H 51.00002179320357 89.76173827239548 62.399815237857496 H 0.0 **** 0.06
22383 H 50.96652108834887 90.42789488468128 64.04968765090872 H 0.0 **** 0.06
22384 H 52.26901251234693 89.31560328506991 63.56450575325461 H 0.0 **** 0.06
22385 H 50.61111081161549 88.70436209400307 63.77849898979598 H 0.0 **** 0.06
22386 C 6.611222895972247 14.822915394260349 82.76259366785557 C 0.0 **** -0.24
22387 H 6.750375054533976 15.763149554639995 83.29759828479999 H 0.0 **** 0.06
22388 H 6.412885052444494 14.02411380987212 83.47736539384626 H 0.0 **** 0.06
22389 H 7.514082134770263 14.58963432748942 82.19820140807578 H 0.0 **** 0.06
22390 H 5.768239510924587 14.915850389276272 82.07779545908548 H 0.0 **** 0.06
22391 C 36.58296387550914 84.44494103728503 86.5197566590621 C 0.0 **** -0.24
22392 H 37.30052644580641 85.00849937369803 85.92474457058444 H 0.0 **** 0.06
22393 H 36.09182257129905 83.70359804423786 85.88959774054393 H 0.0 **** 0.06
22394 H 35.83587544430654 85.12564201130341 86.92858616285501 H 0.0 **** 0.06
22395 H 37.101916677538355 83.94220558300621 87.33592976527238 H 0.0 **** 0.06
22396 C 24.37214564865466 125.50417581219969 56.56950668000087 C 0.0 **** -0.24
22397 H 23.512549629883168 125.98276536690634 57.038198677876494 H 0.0 **** 0.06
22398 H 24.96770711057566 126.255019725436 56.05098433883792 H 0.0 **** 0.06
22399 H 24.027118411511722 124.7564039341653 55.85597260250756 H 0.0 **** 0.06
22400 H 24.980726959336273 125.02225182692156 57.33564609218017 H 0.0 **** 0.06
22401 C 59.86411975361192 90.17848909252281 107.29284222182379 C 0.0 **** -0.24
22402 H 59.48411371795136 90.25699284142789 106.27501463289114 H 0.0 **** 0.06
22403 H 59.91266650610868 91.17125920222423 107.74076545569339 H 0.0 **** 0.06
22404 H 60.86155122459239 89.73894190008605 107.27505963362829 H 0.0 **** 0.06
22405 H 59.199381882629524 89.54620255797177 107.88093299988661 H 0.0 **** 0.06
22406 C 75.93840405512005 145.9705850712104 85.40178938776766 C 0.0 **** -0.24
22407 H 75.56289783707952 146.93861280218138 85.06890817037686 H 0.0 **** 0.06
22408 H 77.02371663871355 145.94966750327237 85.30458072807606 H 0.0 **** 0.06
22409 H 75.50310519262932 145.18188926179124 84.788950691675 H 0.0 **** 0.06
22410 H 75.66292799513641 145.81354286676836 86.44514129761966 H 0.0 **** 0.06
22411 C 42.34088809562152 111.65925378607862 141.04690703948947 C 0.0 **** -0.24
22412 H 41.459435697722114 111.45343260422415 141.65369511900036 H 0.0 **** 0.06
22413 H 43.00833961601812 110.79891044928702 141.07224928438174 H 0.0 **** 0.06
22414 H 42.858352876835525 112.53317716244764 141.44296464395038 H 0.0 **** 0.06
22415 H 42.03665869292399 111.8535859035898 140.01851413044284 H 0.0 **** 0.06
22416 C 45.22675717764781 7.190458133056367 79.00595160492792 C 0.0 **** -0.24
22417 H 45.55208814892711 7.467884159218549 78.00393164656028 H 0.0 **** 0.06
22418 H 46.00184086182995 6.596243470969537 79.4891561924338 H 0.0 **** 0.06
22419 H 44.30793153380452 6.607103898211111 78.94106107846687 H 0.0 **** 0.06
22420 H 45.0430308383216 8.092638016619674 79.5901892339065 H 0.0 **** 0.06
22421 C 114.01538590442397 113.87751727192047 108.98666430068101 C 0.0 **** -0.24
22422 H 113.41664772610056 114.04049062732189 108.08980823063723 H 0.0 **** 0.06
22423 H 114.18935903180318 114.83093686367779 109.48605787037161 H 0.0 **** 0.06
22424 H 114.97163349860483 113.4336924557622 108.70758259607243 H 0.0 **** 0.06
22425 H 113.4847763010008 113.20468605723353 109.65972006202634 H 0.0 **** 0.06
22426 C 62.78061218935619 112.15737866253801 2.705770993380394 C 0.0 **** -0.24
22427 H 63.27570751109994 111.8097702108015 3.612964192979465 H 0.0 **** 0.06
22428 H 62.137431664158896 111.36774170677569 2.3175986529801875 H 0.0 **** 0.06
22429 H 63.53126121050104 112.41467652463768 1.9577005527102074 H 0.0 **** 0.06
22430 H 62.179239594030435 113.03679863671954 2.9342703648124413 H 0.0 **** 0.06
22431 C 121.68525746294175 124.23705020122303 84.50644099616302 C 0.0 **** -0.24
22432 H 121.86180858086941 125.01534597918187 83.76389141836398 H 0.0 **** 0.06
22433 H 120.6271630234361 124.2205557997756 84.77064855061379 H 0.0 **** 0.06
22434 H 122.27886085850757 124.44324171312566 85.3975395223706 H 0.0 **** 0.06
22435 H 121.97153748892218 123.26950247681008 84.09390052732691 H 0.0 **** 0.06
22436 C 38.53057432915318 92.96709591637341 14.635328286544564 C 0.0 **** -0.24
22437 H 38.40750220776985 92.02963391226209 14.094299936170444 H 0.0 **** 0.06
22438 H 38.63860180313864 92.76080400051168 15.700143384277737 H 0.0 **** 0.06
22439 H 37.655452581128 93.59716482464202 14.473916982536593 H 0.0 **** 0.06
22440 H 39.42019837944113 93.482393739468 14.272629097961328 H 0.0 **** 0.06
22441 C 90.77252410382066 92.96774857106129 132.9367702093739 C 0.0 **** -0.24
22442 H 91.64550392333862 92.4814205320223 132.5016854478453 H 0.0 **** 0.06
22443 H 89.88574326853585 92.36374422102816 132.74045658540226 H 0.0 **** 0.06
22444 H 90.64674054919028 93.9548471370941 132.49190123800867 H 0.0 **** 0.06
22445 H 90.91200847556706 93.06926230057528 134.0132146207404 H 0.0 **** 0.06
22446 C 130.5325680435779 141.03616189696783 23.01821070727243 C 0.0 **** -0.24
22447 H 130.18283373795387 140.66876560015777 23.98346631775061 H 0.0 **** 0.06
22448 H 129.81108232979935 140.76896859554165 22.245845766295105 H 0.0 **** 0.06
22449 H 131.49688094812038 140.58474772839332 22.78634149867284 H 0.0 **** 0.06
22450 H 130.6379905237446 142.11968998847453 23.059349655458306 H 0.0 **** 0.06
22451 C 51.29045607299888 72.23576130723313 42.22425658657009 C 0.0 **** -0.24
22452 H 52.09485566785544 72.21314393089503 42.96067854109627 H 0.0 **** 0.06
22453 H 51.31214299420415 73.18600762831502 41.69244550824324 H 0.0 **** 0.06
22454 H 50.33184528780204 72.12429152107404 42.73077936640679 H 0.0 **** 0.06
22455 H 51.42448795418032 71.41859617474324 41.51639640496143 H 0.0 **** 0.06
22456 C 132.46272408765975 57.536132844837425 74.4616267646843 C 0.0 **** -0.24
22457 H 131.9790553003777 56.5662751566328 74.34490891917352 H 0.0 **** 0.06
22458 H 132.1421919576415 58.20056114811308 73.65922993949385 H 0.0 **** 0.06
22459 H 133.54466469826932 57.41022058780493 74.42060112107154 H 0.0 **** 0.06
22460 H 132.18316723464636 57.96644005210885 75.42391840530723 H 0.0 **** 0.06
22461 C 148.7382687770342 111.14179430183249 17.703325176531393 C 0.0 **** -0.24
22462 H 148.27208911632033 112.11092588284238 17.52043161353737 H 0.0 **** 0.06
22463 H 148.00951122551757 110.46780954694064 18.15316342540649 H 0.0 **** 0.06
22464 H 149.58347948251526 111.26795795229158 18.380071869909045 H 0.0 **** 0.06
22465 H 149.08792901183233 110.7229297181449 16.759749709330492 H 0.0 **** 0.06
22466 C 139.63046884887692 145.43912279436438 44.90719371252351 C 0.0 **** -0.24
22467 H 140.17858794852063 145.88848256296959 45.73527748478898 H 0.0 **** 0.06
22468 H 138.66829357404336 145.94023444021448 44.79518303643724 H 0.0 **** 0.06
22469 H 139.4676242305434 144.38132390219084 45.110185251718576 H 0.0 **** 0.06
22470 H 140.2067465755219 145.5487798403828 43.98769882280254 H 0.0 **** 0.06
22471 C 52.304226827495015 65.53576099947571 104.55829864481497 C 0.0 **** -0.24
22472 H 52.69852871594004 66.36141062366468 103.96611101106087 H 0.0 **** 0.06
22473 H 52.09786579944023 64.68689303537099 103.90577138832897 H 0.0 **** 0.06
22474 H 51.38317889294332 65.84932529407439 105.04960874721961 H 0.0 **** 0.06
22475 H 53.03715289947887 65.24678752802535 105.3114142939482 H 0.0 **** 0.06
22476 C 43.05787892983324 127.44117875545464 91.55278560266544 C 0.0 **** -0.24
22477 H 42.74709696662262 128.1401236755931 92.32936210018755 H 0.0 **** 0.06
22478 H 44.069380465498 127.09222530959516 91.76121215701423 H 0.0 **** 0.06
22479 H 43.0385299852249 127.94160745075834 90.58451795792749 H 0.0 **** 0.06
22480 H 42.37572528164242 126.5911774565691 91.53559034438378 H 0.0 **** 0.06
22481 C 14.518903847107005 61.212740136074814 132.8297286532527 C 0.0 **** -0.24
22482 H 14.605586407526438 62.081173695867335 132.17584042731386 H 0.0 **** 0.06
22483 H 15.36610869708504 61.18867206995492 133.51497397174813 H 0.0 **** 0.06
22484 H 14.512176249339866 60.30463714519166 132.22695159773855 H 0.0 **** 0.06
22485 H 13.59169962896393 61.27832014132193 133.39878144032093 H 0.0 **** 0.06
22486 C 22.89125547074184 114.19591731272618 120.20541519222404 C 0.0 **** -0.24
22487 H 23.26465153323022 113.23923282779504 119.83926947865943 H 0.0 **** 0.06
22488 H 22.633905377330763 114.10539674075744 121.26117959504556 H 0.0 **** 0.06
22489 H 22.0064570247863 114.48197134220447 119.63744401682779 H 0.0 **** 0.06
22490 H 23.662974537364747 114.95686484806305 120.08336985219073 H 0.0 **** 0.06
22491 C 9.726729437147952 70.61109719415258 17.39132183940837 C 0.0 **** -0.24
22492 H 8.756718802560073 70.95486448554634 17.033607059782398 H 0.0 **** 0.06
22493 H 10.451731084198656 71.4221058313804 17.311910611453705 H 0.0 **** 0.06
22494 H 10.058693538909864 69.76728086519594 16.78544613757625 H 0.0 **** 0.06
22495 H 9.641316735342798 70.30012213240964 18.431750407888792 H 0.0 **** 0.06
22496 C 62.971515089764964 16.862837556010675 43.182351809063704 C 0.0 **** -0.24
22497 H 63.437070973247216 15.96485888470616 42.77545190748725 H 0.0 **** 0.06
22498 H 62.941098871531224 16.79469171186753 44.27025461623532 H 0.0 **** 0.06
22499 H 61.9569304157921 16.95290923511257 42.79508253246374 H 0.0 **** 0.06
22500 H 63.552729253080315 17.73720357491655 42.8887761628595 H 0.0 **** 0.06
22501 C 81.33176131155551 73.01448961268551 67.0734482890757 C 0.0 **** -0.24
22502 H 81.53018433165971 73.02889694304432 68.14531499316857 H 0.0 **** 0.06
22503 H 81.08919630755793 71.99769120998862 66.7632020279629 H 0.0 **** 0.06
22504 H 82.21599529371804 73.35721731506567 66.53542180627308 H 0.0 **** 0.06
22505 H 80.49226861836183 73.6727161536133 66.8506135821936 H 0.0 **** 0.06
22506 C 51.815970010262916 37.35282237796046 127.74042555914417 C 0.0 **** -0.24
22507 H 50.74994562625811 37.205285189246034 127.91025263177553 H 0.0 **** 0.06
22508 H 51.97166032814201 38.285413313133546 127.19676094862564 H 0.0 **** 0.06
22509 H 52.20929452699171 36.521264232027946 127.1551671710915 H 0.0 **** 0.06
22510 H 52.33409966800036 37.399391183004724 128.6975872172041 H 0.0 **** 0.06
22511 C 51.33864421704858 80.1493977667418 72.9345364086513 C 0.0 **** -0.24
22512 H 51.36011696600039 79.4772020369569 72.07587910772577 H 0.0 **** 0.06
22513 H 51.12046956164497 79.57719550826118 73.83711600958932 H 0.0 **** 0.06
22514 H 50.56733783799447 80.90474950947737 72.78597101046822 H 0.0 **** 0.06
22515 H 52.30844305539762 80.63535754553476 73.03805338249182 H 0.0 **** 0.06
22516 C 131.4604387804204 104.15921288805119 112.6811662925901 C 0.0 **** -0.24
22517 H 132.52728972607198 103.94945897527911 112.59808876900179 H 0.0 **** 0.06
22518 H 131.17716679064793 104.90156490704187 111.9350470390434 H 0.0 **** 0.06
22519 H 131.24204664598975 104.54236909059976 113.67738195275645 H 0.0 **** 0.06
22520 H 130.89660348445958 103.24197411611694 112.513162558827 H 0.0 **** 0.06
22521 C 137.0902672776343 67.19922261071994 123.60411838582745 C 0.0 **** -0.24
22522 H 136.81787483156666 66.14578305729847 123.66907181605633 H 0.0 **** 0.06
22523 H 137.44677872735275 67.5422407434092 124.57662171189138 H 0.0 **** 0.06
22524 H 136.21728299913883 67.78275346504293 123.31119572260688 H 0.0 **** 0.06
22525 H 137.87829109561636 67.32576847304111 122.86244321892526 H 0.0 **** 0.06
22526 C 129.3132948626628 36.005272364760316 96.34502732163159 C 0.0 **** -0.24
22527 H 129.63039027586774 35.73239141414697 95.33872172521532 H 0.0 **** 0.06
22528 H 130.17731315924337 36.33377880116153 96.92258111550353 H 0.0 **** 0.06
22529 H 128.85967856952118 35.1403344963248 96.82944268284191 H 0.0 **** 0.06
22530 H 128.5836711458859 36.81404599242863 96.28892928187346 H 0.0 **** 0.06
22531 C 32.18554710120991 32.06164869923546 35.0757621687157 C 0.0 **** -0.24
22532 H 33.14915096164353 31.787721585125325 34.645741199389306 H 0.0 **** 0.06
22533 H 31.608948379296088 31.15894421760467 35.27970099974658 H 0.0 **** 0.06
22534 H 31.639976175634423 32.69133700466665 34.373279094297914 H 0.0 **** 0.06
22535 H 32.34510336695274 32.60852109988974 36.00444554753312 H 0.0 **** 0.06
22536 C 54.66457470603794 81.05942545320953 33.11702482542054 C 0.0 **** -0.24
22537 H 55.467751823170715 81.27993107388613 33.81980306609083 H 0.0 **** 0.06
22538 H 54.374151957118755 80.01322854663209 33.21473948627819 H 0.0 **** 0.06
22539 H 55.01110193929671 81.24633046306961 32.100742941240426 H 0.0 **** 0.06
22540 H 53.807980679615525 81.69705570627491 33.33214981964119 H 0.0 **** 0.06
22541 C 90.44896679104768 129.46096107716298 129.33433393357376 C 0.0 **** -0.24
22542 H 90.19658084361346 130.28949623955336 128.67193199157208 H 0.0 **** 0.06
22543 H 89.66979473287766 128.7013732201734 129.27787470472555 H 0.0 **** 0.06
22544 H 90.52818434906588 129.82664778241602 130.35808600054335 H 0.0 **** 0.06
22545 H 91.40169806969493 129.02842573466663 129.02877743543416 H 0.0 **** 0.06
22546 C 11.043969539972522 14.644151051686634 114.79723697097633 C 0.0 **** -0.24
22547 H 11.910090203658513 14.155225189794976 115.24305304985639 H 0.0 **** 0.06
22548 H 10.75893781480707 15.503100455506598 115.40454110563924 H 0.0 **** 0.06
22549 H 10.213182169660143 13.939429188884617 114.75019486305068 H 0.0 **** 0.06
22550 H 11.294445475076941 14.977345421482596 113.79009408079988 H 0.0 **** 0.06
22551 C 31.642001029226947 150.06606850335825 9.22235986390291 C 0.0 **** -0.24
22552 H 32.05698951084311 150.66246252369578 8.410402240358508 H 0.0 **** 0.06
22553 H 30.911813302615926 150.6602773427284 9.772572782133835 H 0.0 **** 0.06
22554 H 32.44297452458126 149.75921568706244 9.894434463115516 H 0.0 **** 0.06
22555 H 31.154284906513965 149.18214243252513 8.810935287806416 H 0.0 **** 0.06
22556 C 57.78931253354412 115.09084446620031 101.99897701925259 C 0.0 **** -0.24
22557 H 57.70708523627175 114.87497824773541 100.93388175615517 H 0.0 **** 0.06
22558 H 57.1664948842417 114.39356161130868 102.56023659986923 H 0.0 **** 0.06
22559 H 57.45576559037474 116.11119888876547 102.18895540260874 H 0.0 **** 0.06
22560 H 58.82789494900206 114.98401436209602 102.31147080286541 H 0.0 **** 0.06
22561 C 148.48420138005125 125.79747089296163 0.25042747232555485 C 0.0 **** -0.24
22562 H 148.734359766096 125.35891445442383 1.2161357584441816 H 0.0 **** 0.06
22563 H 149.34844534353542 125.73477413753221 -0.41173566185915433 H 0.0 **** 0.06
22564 H 148.205760573407 126.84223824401741 0.3869938261680659 H 0.0 **** 0.06
22565 H 147.64918193554772 125.25291978781057 -0.1898770685686486 H 0.0 **** 0.06
22566 C 58.77686561804744 91.97518447810084 49.952333287231255 C 0.0 **** -0.24
22567 H 59.35513742043044 91.38259119515165 50.66180593438452 H 0.0 **** 0.06
22568 H 58.54920213902638 91.36966819147223 49.073800458539324 H 0.0 **** 0.06
22569 H 59.35531252503506 92.8489906881533 49.652249349122044 H 0.0 **** 0.06
22570 H 57.84777513811929 92.29775900187386 50.4215773779339 H 0.0 **** 0.06
22571 C 82.3911540222797 45.609451016940056 61.84180684887468 C 0.0 **** -0.24
22572 H 81.68359626410921 44.980728594926404 62.382292386929805 H 0.0 **** 0.06
22573 H 83.13798467699053 45.99568545002546 62.5353084071582 H 0.0 **** 0.06
22574 H 81.85830907609858 46.440868094281484 61.379090484576295 H 0.0 **** 0.06
22575 H 82.88374957394922 45.01940690890177 61.068861791313225 H 0.0 **** 0.06
22576 C 28.910545567468475 17.762988821810154 124.9870943832343 C 0.0 **** -0.24
22577 H 28.539006110939226 17.997608892097617 125.98424146992382 H 0.0 **** 0.06
22578 H 29.033270078158516 18.684862456211306 124.41763216278788 H 0.0 **** 0.06
22579 H 28.19853763747519 17.112976910791815 124.47762923169198 H 0.0 **** 0.06
22580 H 29.872341506625688 17.255607973854694 125.06775889124394 H 0.0 **** 0.06
22581 C 19.277071943649872 18.93862754663101 21.808513015834627 C 0.0 **** -0.24
22582 H 19.992898627335336 18.19038448526615 22.148485006934727 H 0.0 **** 0.06
22583 H 19.092852502411887 19.654868689362672 22.609541307634025 H 0.0 **** 0.06
22584 H 18.341293579335144 18.44830476581518 21.537199606716797 H 0.0 **** 0.06
22585 H 19.679232025311023 19.46001872299925 20.939867521691582 H 0.0 **** 0.06
22586 C 106.8978843753451 41.8179401639039 60.68962014949162 C 0.0 **** -0.24
22587 H 107.5874802760974 42.40509020486289 61.29599940573709 H 0.0 **** 0.06
22588 H 107.31173311003936 40.82259216948367 60.529370149167676 H 0.0 **** 0.06
22589 H 106.75121965214056 42.30992040292895 59.72791624545593 H 0.0 **** 0.06
22590 H 105.94114232783129 41.73557059804446 61.20524829994318 H 0.0 **** 0.06
22591 C 87.03565010106026 143.56451213570207 123.62177233169064 C 0.0 **** -0.24
22592 H 86.09734560784604 143.3010489967178 123.13604272540545 H 0.0 **** 0.06
22593 H 87.08053503369246 143.09616573127698 124.60585440824423 H 0.0 **** 0.06
22594 H 87.09693146049047 144.64782917596966 123.73140496653741 H 0.0 **** 0.06
22595 H 87.86996002034334 143.21326590113998 123.01425151675755 H 0.0 **** 0.06
22596 C 127.91801287843668 13.124131487338524 61.77030847378262 C 0.0 **** -0.24
22597 H 127.34514047298372 14.01629662238365 61.51729056007039 H 0.0 **** 0.06
22598 H 128.33036295893754 12.686625886070047 60.86082853349819 H 0.0 **** 0.06
22599 H 127.26664056991572 12.400547633369918 62.259038414478226 H 0.0 **** 0.06
22600 H 128.7310108962556 13.394338223525466 62.4444479540403 H 0.0 **** 0.06
22601 C 94.56960168474029 134.26307688499975 23.959019746136065 C 0.0 **** -0.24
22602 H 93.75442581102621 134.72781921689872 23.405442017897485 H 0.0 **** 0.06
22603 H 94.15843841955561 133.64214814969978 24.756074841276273 H 0.0 **** 0.06
22604 H 95.20398394915819 135.03657991159503 24.391020518606 H 0.0 **** 0.06
22605 H 95.15946877282718 133.64341590366288 23.283911935987362 H 0.0 **** 0.06
22606 C 129.14692700471034 135.55831712087218 139.54132775959795 C 0.0 **** -0.24
22607 H 130.06374548220919 136.13434388190848 139.41468833253708 H 0.0 **** 0.06
22608 H 128.76554325279784 135.70053710065008 140.55303741969163 H 0.0 **** 0.06
22609 H 129.357066090099 134.50135683762744 139.37819897005159 H 0.0 **** 0.06
22610 H 128.4023571862256 135.89652630862253 138.82070454797167 H 0.0 **** 0.06
22611 C 65.9588344718573 25.22876977331893 55.43458148143117 C 0.0 **** -0.24
22612 H 65.11571622461862 25.14566350812683 54.74874662203921 H 0.0 **** 0.06
22613 H 66.89099602321615 25.13443850864965 54.87732575225439 H 0.0 **** 0.06
22614 H 65.8990242307967 24.436566259104126 56.18049085286971 H 0.0 **** 0.06
22615 H 65.92893211475494 26.19915358068741 55.93174308283507 H 0.0 **** 0.06
22616 C 8.974315065944097 45.21605652098978 115.25353396494438 C 0.0 **** -0.24
22617 H 8.49479255505139 44.24326638396761 115.3617235652398 H 0.0 **** 0.06
22618 H 9.959367102252088 45.088479794571555 114.80419983197754 H 0.0 **** 0.06
22619 H 9.078353738212513 45.680704532295664 116.23328985829505 H 0.0 **** 0.06
22620 H 8.362523506181674 45.85316121152235 114.61288876169294 H 0.0 **** 0.06
22621 C 5.893289088331752 31.194938049702486 57.22475216402208 C 0.0 **** -0.24
22622 H 5.22537851587035 30.69355209416569 56.52477212778773 H 0.0 **** 0.06
22623 H 5.540701564641317 31.031189594184227 58.24365206516775 H 0.0 **** 0.06
22624 H 5.907171330123276 32.26357334040878 57.011619894989735 H 0.0 **** 0.06
22625 H 6.899756515116309 30.790564116844465 57.11850004262868 H 0.0 **** 0.06
22626 C 17.175603660826596 65.88921930730523 8.478818609267925 C 0.0 **** -0.24
22627 H 17.98091772664418 65.1554890612425 8.523154742380193 H 0.0 **** 0.06
22628 H 17.314784881545876 66.52826796344813 7.606939672620605 H 0.0 **** 0.06
22629 H 17.19011470297167 66.49817063335958 9.38292546592448 H 0.0 **** 0.06
22630 H 16.217944783625143 65.37327023957731 8.403422648399449 H 0.0 **** 0.06
22631 C 148.34844893287365 133.8961883111902 5.467210450786212 C 0.0 **** -0.24
22632 H 147.54842723304725 133.23029282933598 5.142753992265995 H 0.0 **** 0.06
22633 H 148.70906076967043 134.4724128278507 4.615151243659341 H 0.0 **** 0.06
22634 H 149.1668908918195 133.30681043478944 5.880286657959999 H 0.0 **** 0.06
22635 H 147.9681333778481 134.57544103718266 6.230092023008723 H 0.0 **** 0.06
22636 C 20.116802666959224 146.63796422689518 72.18827488117938 C 0.0 **** -0.24
22637 H 20.14129156068544 147.57639405114983 71.63473877011205 H 0.0 **** 0.06
22638 H 20.98326244285137 146.58296233232102 72.84819516035657 H 0.0 **** 0.06
22639 H 20.140025403522472 145.80252444583738 71.48893766567454 H 0.0 **** 0.06
22640 H 19.20396852838767 146.58996099599642 72.78168788625243 H 0.0 **** 0.06
22641 C 105.15772307218388 35.38581076374017 2.009591147282528 C 0.0 **** -0.24
22642 H 104.35160891336328 34.69120119773507 2.247376816771734 H 0.0 **** 0.06
22643 H 106.05410212215297 34.824583695662824 1.74808547827503 H 0.0 **** 0.06
22644 H 105.36133349013862 36.015464658161505 2.876516348825053 H 0.0 **** 0.06
22645 H 104.861132385337 36.01126650762353 1.1674340531980683 H 0.0 **** 0.06
22646 C 124.58073260500574 73.0631030294847 48.973921230782736 C 0.0 **** -0.24
22647 H 125.25151937427712 73.91802697692404 49.0598202562139 H 0.0 **** 0.06
22648 H 123.86851205403191 73.07647515419222 49.79958253859084 H 0.0 **** 0.06
22649 H 125.16123109922303 72.14207099819677 49.009360218582 H 0.0 **** 0.06
22650 H 124.04264893632985 73.11685652723833 48.02696925274773 H 0.0 **** 0.06
22651 C 46.268403659473066 37.745461027439234 80.67092707103825 C 0.0 **** -0.24
22652 H 46.366620805715485 36.69322144313898 80.40396877129064 H 0.0 **** 0.06
22653 H 47.13379516439342 38.05258289715458 81.25978295550716 H 0.0 **** 0.06
22654 H 45.360508066090645 37.88668939270252 81.25796425109888 H 0.0 **** 0.06
22655 H 46.212412863802086 38.34716994063325 79.7648504587655 H 0.0 **** 0.06
22656 C 73.94598861628572 79.20339076459442 101.71580715104031 C 0.0 **** -0.24
22657 H 74.99906004607266 79.44791908515526 101.85348769984549 H 0.0 **** 0.06
22658 H 73.35454368330869 79.7009766532073 102.48435035526194 H 0.0 **** 0.06
22659 H 73.81029907759631 78.12420356088543 101.79512207839858 H 0.0 **** 0.06
22660 H 73.62092189577555 79.53884624204494 100.73188913242902 H 0.0 **** 0.06
22661 C 67.79144792244395 72.75835774202618 91.63821079932063 C 0.0 **** -0.24
22662 H 68.07267744180533 72.15401541022085 92.49983121234285 H 0.0 **** 0.06
22663 H 67.55063563242874 73.7701876719591 91.96681569680307 H 0.0 **** 0.06
22664 H 66.92047787071431 72.3170574088538 91.15340395272352 H 0.0 **** 0.06
22665 H 68.62123966408049 72.79449860976199 90.9328201539981 H 0.0 **** 0.06
22666 C 35.255899008986745 126.819092869521 106.36499206654847 C 0.0 **** -0.24
22667 H 36.017534836266194 126.03909062611356 106.36169581812734 H 0.0 **** 0.06
22668 H 34.63800465345255 126.71859649346494 107.25794143215975 H 0.0 **** 0.06
22669 H 34.63212765505192 126.72233121685508 105.47677422277505 H 0.0 **** 0.06
22670 H 35.73912555154643 127.79661249141422 106.36486619734202 H 0.0 **** 0.06
22671 C 118.3251369967782 5.649939072850486 133.22611037639476 C 0.0 **** -0.24
22672 H 119.12949888549223 6.061788509935013 132.61692119133045 H 0.0 **** 0.06
22673 H 118.60169993634482 4.651533116080657 133.5670590859195 H 0.0 **** 0.06
22674 H 117.41257413248799 5.591318541183796 132.6313917863224 H 0.0 **** 0.06
22675 H 118.15595452166234 6.294063789198219 134.08860101300075 H 0.0 **** 0.06
22676 C 46.91042616724553 10.753839718040552 38.545746266249736 C 0.0 **** -0.24
22677 H 46.65961320457842 11.813773304247178 38.598539947213496 H 0.0 **** 0.06
22678 H 46.42058064979972 10.22356593790127 39.36290634826106 H 0.0 **** 0.06
22679 H 47.990305422904896 10.632398873261877 38.630140547485205 H 0.0 **** 0.06
22680 H 46.571746384970425 10.34702920783829 37.593327940003455 H 0.0 **** 0.06
22681 C 61.733493730520536 34.559454827930395 17.473092595094755 C 0.0 **** -0.24
22682 H 61.32567228114635 34.57426595527862 16.46302589880645 H 0.0 **** 0.06
22683 H 61.81018517123289 35.57958966926963 17.849129570540725 H 0.0 **** 0.06
22684 H 62.72265550976829 34.100810005919925 17.45943911130658 H 0.0 **** 0.06
22685 H 61.07505315453136 33.98095576032968 18.121776919777943 H 0.0 **** 0.06
22686 C 28.746044463393915 48.950550646141366 138.67510063956277 C 0.0 **** -0.24
22687 H 29.352861156100744 48.09169163192186 138.9608053061552 H 0.0 **** 0.06
22688 H 29.23322088065808 49.8664248957559 139.00915747384437 H 0.0 **** 0.06
22689 H 27.76383214954967 48.87137235058299 139.13984057882757 H 0.0 **** 0.06
22690 H 28.63448191628855 48.97176080903708 137.59080989057784 H 0.0 **** 0.06
22691 C 1.1227469036887214 33.242676901500744 129.60015903485186 C 0.0 **** -0.24
22692 H 1.5285529574730106 32.988160951535676 130.5796959624963 H 0.0 **** 0.06
22693 H 0.22102668688239646 32.65783598143282 129.4181666222184 H 0.0 **** 0.06
22694 H 1.8621279801197943 33.01941571357704 128.83180787475297 H 0.0 **** 0.06
22695 H 0.879206870519937 34.3044851363007 129.57385344193838 H 0.0 **** 0.06
22696 C 113.80863434385537 82.84051592286286 87.30830036465761 C 0.0 **** -0.24
22697 H 114.04245697903474 82.6248957448624 86.26512854549588 H 0.0 **** 0.06
22698 H 113.21778284559849 83.75521701153636 87.3666608724132 H 0.0 **** 0.06
22699 H 114.73499049874567 82.97001352737327 87.86841923421542 H 0.0 **** 0.06
22700 H 113.24019200286023 82.01264607225494 87.7321473895845 H 0.0 **** 0.06
22701 C 86.77469187449175 147.2389353218218 42.541189303931105 C 0.0 **** -0.24
22702 H 87.67602622231934 147.84782499297822 42.46978026488078 H 0.0 **** 0.06
22703 H 86.11072266821871 147.47456419793969 41.70915479150594 H 0.0 **** 0.06
22704 H 86.26752986044153 147.4505798739558 43.48266833675835 H 0.0 **** 0.06
22705 H 87.04616666037134 146.18413516282405 42.50258182335206 H 0.0 **** 0.06
22706 C 137.0807810693123 81.9978439608189 31.042902512472494 C 0.0 **** -0.24
22707 H 138.15150058961683 82.06549117659831 31.2331865490944 H 0.0 **** 0.06
22708 H 136.86437703708495 82.38397378548225 30.046901743772764 H 0.0 **** 0.06
22709 H 136.54162937978913 82.58463533717239 31.7869057627168 H 0.0 **** 0.06
22710 H 136.7663318899021 80.95523408671431 31.10518340468849 H 0.0 **** 0.06
22711 C 8.170912060099567 91.94555337755855 47.91900854617043 C 0.0 **** -0.24
22712 H 7.877680155186454 92.82582169328558 47.3468020866069 H 0.0 **** 0.06
22713 H 7.373402339899428 91.20323923296098 47.87879087142218 H 0.0 **** 0.06
22714 H 8.351448659242408 92.23084684426715 48.955853130452425 H 0.0 **** 0.06
22715 H 9.081680750614368 91.52356638579295 47.4942829290943 H 0.0 **** 0.06
22716 C 37.08707703173485 35.846265285176514 55.006683851488845 C 0.0 **** -0.24
22717 H 37.782078239477585 35.007488157328055 54.98172986246628 H 0.0 **** 0.06
22718 H 36.983720054865216 36.20121301704643 56.032018880771716 H 0.0 **** 0.06
22719 H 36.11520528908983 35.52424509243099 54.633141641462345 H 0.0 **** 0.06
22720 H 37.468332104887054 36.652651793385246 54.37903513961089 H 0.0 **** 0.06
22721 C 54.949584256995706 24.693442774163373 32.324703145826874 C 0.0 **** -0.24
22722 H 55.40069137244063 24.51388017953724 33.30068425997719 H 0.0 **** 0.06
22723 H 53.96179951835023 25.13512522607352 32.45636333993136 H 0.0 **** 0.06
22724 H 54.857279316920994 23.749356722699687 31.78758042511467 H 0.0 **** 0.06
22725 H 55.579831447521826 25.375793755906813 31.75468728052232 H 0.0 **** 0.06
22726 C 127.50672623469644 56.54818778350422 33.830087777001495 C 0.0 **** -0.24
22727 H 126.61502586605589 56.605222574856356 34.45396833511366 H 0.0 **** 0.06
22728 H 128.00983905544098 55.59651884513279 34.00143889910862 H 0.0 **** 0.06
22729 H 128.1800759808898 57.36729461151532 34.082009582819055 H 0.0 **** 0.06
22730 H 127.219997989931 56.62322892179394 32.780123823245034 H 0.0 **** 0.06
22731 C 138.49698097014735 63.22311868443917 52.18697883567525 C 0.0 **** -0.24
22732 H 137.75588262840083 63.428194617291226 52.95852438654285 H 0.0 **** 0.06
22733 H 138.45437183648858 64.00272776444727 51.42610983029647 H 0.0 **** 0.06
22734 H 138.28545603611946 62.256373308664024 51.72822168158051 H 0.0 **** 0.06
22735 H 139.49131218003603 63.2039207501616 52.633160827110586 H 0.0 **** 0.06
22736 C 108.07691491605583 101.449266516831 2.254674403847986 C 0.0 **** -0.24
22737 H 108.03566865216503 100.45490738889096 1.8095877037577281 H 0.0 **** 0.06
22738 H 107.87100535898942 102.19853472753132 1.4904408810565997 H 0.0 **** 0.06
22739 H 109.06815246697958 101.61942216129914 2.6727408955061094 H 0.0 **** 0.06
22740 H 107.33089535277337 101.52365799335645 3.046902440304251 H 0.0 **** 0.06
22741 C 132.4181326630796 58.2762721353148 140.81441085502175 C 0.0 **** -0.24
22742 H 132.0042069978956 59.089557757468185 141.4094473899145 H 0.0 **** 0.06
22743 H 131.6164527592181 57.60272089686089 140.51116416898282 H 0.0 **** 0.06
22744 H 133.14881092621144 57.72759348488148 141.4084440927259 H 0.0 **** 0.06
22745 H 132.90408448139107 58.685012699452216 139.9276343783022 H 0.0 **** 0.06
22746 C 104.76889230641194 9.9326218981289 149.23778583388207 C 0.0 **** -0.24
22747 H 105.51731971455968 10.60814051808012 148.82248531220293 H 0.0 **** 0.06
22748 H 104.90539336240602 9.857805515148357 150.3169556449613 H 0.0 **** 0.06
22749 H 104.88016020055846 8.945689774571179 148.7876236875222 H 0.0 **** 0.06
22750 H 103.77226070173003 10.318936937072294 149.0231823949901 H 0.0 **** 0.06
22751 C 140.86164376121764 63.632232986782526 97.2197518185768 C 0.0 **** -0.24
22752 H 140.20853275395697 62.939982782156775 96.68830647463496 H 0.0 **** 0.06
22753 H 141.87118999180188 63.224168855553174 97.25749464590757 H 0.0 **** 0.06
22754 H 140.4892756675405 63.77452674580748 98.23428371827333 H 0.0 **** 0.06
22755 H 140.87441404900662 64.59037069699448 96.69991478316254 H 0.0 **** 0.06
22756 C 40.98761916423686 110.96692112348926 53.387820075524616 C 0.0 **** -0.24
22757 H 41.17502290419003 110.55097372805038 52.3977331615488 H 0.0 **** 0.06
22758 H 41.90929312414548 110.94623072873092 53.969879801771185 H 0.0 **** 0.06
22759 H 40.22524307460333 110.37287326570974 53.89193943598079 H 0.0 **** 0.06
22760 H 40.64174889160276 111.99598181868292 53.290094309867655 H 0.0 **** 0.06
22761 C 7.5794871811094 124.42611266739792 62.6706945094526 C 0.0 **** -0.24
22762 H 8.141513728556511 123.88791661631748 63.43360252114999 H 0.0 **** 0.06
22763 H 6.716394984533931 123.8318319473482 62.369650006956604 H 0.0 **** 0.06
22764 H 8.218503699519722 124.603160398249 61.80585321944058 H 0.0 **** 0.06
22765 H 7.242243007265344 125.3810930509205 63.07421939653575 H 0.0 **** 0.06
22766 C 76.91394767145218 49.031756172469045 104.87334274989188 C 0.0 **** -0.24
22767 H 77.24953011450563 49.070835659447425 103.83743799085663 H 0.0 **** 0.06
22768 H 77.24023511701327 48.09525532013387 105.32598847283198 H 0.0 **** 0.06
22769 H 75.82615902378726 49.09187375924003 104.905079325876 H 0.0 **** 0.06
22770 H 77.34020425291641 49.870429722534965 105.4249635731562 H 0.0 **** 0.06
22771 C 68.41988673562835 109.72301676333414 139.55969132812254 C 0.0 **** -0.24
22772 H 68.808240205318 110.49471839343177 138.89616242457518 H 0.0 **** 0.06
22773 H 68.69276586225007 108.74009874996351 139.17366840145507 H 0.0 **** 0.06
22774 H 67.33432891648829 109.80290502171907 139.6135295769921 H 0.0 **** 0.06
22775 H 68.84369506165143 109.85354671776626 140.55571439002696 H 0.0 **** 0.06
22776 C 132.05183483511803 49.77238215825167 143.6684277362499 C 0.0 **** -0.24
22777 H 131.99872338555983 50.253876949384576 144.64524217623136 H 0.0 **** 0.06
22778 H 131.45822832716078 50.339728903603714 142.95177547860357 H 0.0 **** 0.06
22779 H 131.66167899428717 48.757096056833774 143.74216408465182 H 0.0 **** 0.06
22780 H 133.08967749985956 49.739164171987355 143.33624605513234 H 0.0 **** 0.06
22781 C 7.233019510902977 42.326277264815985 95.14581575001164 C 0.0 **** -0.24
22782 H 6.807033136860042 42.8007086745538 96.0295656640424 H 0.0 **** 0.06
22783 H 6.954836610525376 41.271838134492015 95.13048839377649 H 0.0 **** 0.06
22784 H 8.318009839860594 42.41633459982175 95.17216094941381 H 0.0 **** 0.06
22785 H 6.849207020655001 42.81617997433122 94.25127018369119 H 0.0 **** 0.06
22786 C 73.13042577246144 70.27517350576747 17.339672299152255 C 0.0 **** -0.24
22787 H 72.7300601254502 71.18373849716131 16.889339637258615 H 0.0 **** 0.06
22788 H 72.57044156737842 69.41351661275044 16.975660502006292 H 0.0 **** 0.06
22789 H 73.04012808268394 70.33661665817064 18.423255002931796 H 0.0 **** 0.06
22790 H 74.1805890077059 70.16734918986624 17.067195507001486 H 0.0 **** 0.06
22791 C 52.787675594496434 16.82160343077237 5.019728853936925 C 0.0 **** -0.24
22792 H 52.10625899616127 17.667302693304293 4.922838758423012 H 0.0 **** 0.06
22793 H 53.81336482111594 17.163503085203587 4.87912749423424 H 0.0 **** 0.06
22794 H 52.54587829661844 16.073274918974818 4.263885583445642 H 0.0 **** 0.06
22795 H 52.68283815315367 16.38254164920002 6.011225853461241 H 0.0 **** 0.06
22796 C 0.9492250542103022 31.339431507384177 148.0343525451294 C 0.0 **** -0.24
22797 H 0.7726931809500428 30.317392236273065 147.70098388382775 H 0.0 **** 0.06
22798 H 1.5389945042063644 31.325627507255035 148.95097620472677 H 0.0 **** 0.06
22799 H -0.005562479739559478 31.82942329719714 148.22361763372263 H 0.0 **** 0.06
22800 H 1.4907750114244216 31.885282988811184 147.26183245824035 H 0.0 **** 0.06
22801 C 83.991614445995 49.675616124339825 14.74792641599035 C 0.0 **** -0.24
22802 H 83.35121961597073 50.55772480237904 14.737668068278765 H 0.0 **** 0.06
22803 H 83.70469018210429 49.02929730663146 15.577185677334484 H 0.0 **** 0.06
22804 H 85.03037633030954 49.98383939087026 14.868912654727296 H 0.0 **** 0.06
22805 H 83.87978464671102 49.13466965126568 13.80860726412888 H 0.0 **** 0.06
22806 C 21.821016851651365 38.47799345491878 76.64956552218993 C 0.0 **** -0.24
22807 H 22.330094071502316 37.53064188812094 76.83096268149147 H 0.0 **** 0.06
22808 H 22.447984933162644 39.112832087235574 76.02372176539328 H 0.0 **** 0.06
22809 H 21.633684710292414 38.976724503281304 77.60056000065896 H 0.0 **** 0.06
22810 H 20.873881018167566 38.290516737198374 76.14398104166776 H 0.0 **** 0.06
22811 C 127.710677308497 4.142191902218116 96.54912052041118 C 0.0 **** -0.24
22812 H 128.38878611600558 3.3111853290587305 96.74201942227602 H 0.0 **** 0.06
22813 H 126.70671398192727 3.757474759648318 96.37227366385501 H 0.0 **** 0.06
22814 H 128.05093421606568 4.690275390907431 95.66969271584476 H 0.0 **** 0.06
22815 H 127.69856205198496 4.80885312387673 97.41081970425968 H 0.0 **** 0.06
22816 C 126.46114479938436 77.33784553629846 15.21006924237993 C 0.0 **** -0.24
22817 H 126.73801638905894 78.27187208374944 15.698830952882908 H 0.0 **** 0.06
22818 H 126.8406088114447 77.33636124168166 14.188006933829307 H 0.0 **** 0.06
22819 H 125.37518725438642 77.24475632658715 15.193513326501723 H 0.0 **** 0.06
22820 H 126.88924738697247 76.499756665015 15.759014286872507 H 0.0 **** 0.06
22821 C 28.642137932612826 42.11391425474318 126.04944027288903 C 0.0 **** -0.24
22822 H 29.492125365868375 42.61313735405987 126.51330027218248 H 0.0 **** 0.06
22823 H 28.531763417031357 41.115697051221375 126.4722716093847 H 0.0 **** 0.06
22824 H 28.807447864046182 42.03864860614621 124.97510645193697 H 0.0 **** 0.06
22825 H 27.736401946445028 42.69105904670634 126.23695751203408 H 0.0 **** 0.06
22826 C 11.632657130395899 113.76216561283225 117.19531709149483 C 0.0 **** -0.24
22827 H 12.416520535309871 114.51527462267028 117.2839427958058 H 0.0 **** 0.06
22828 H 10.662457494909859 114.22432200659644 117.37635190063217 H 0.0 **** 0.06
22829 H 11.803344801458195 112.9736347244759 117.92859688767687 H 0.0 **** 0.06
22830 H 11.651989664569726 113.33603812997437 116.19213110979426 H 0.0 **** 0.06
22831 C 86.56457112388634 53.25952765573692 124.1546298452499 C 0.0 **** -0.24
22832 H 86.37349342749485 52.70900077836248 123.23342250757494 H 0.0 **** 0.06
22833 H 87.26830801372932 54.068145014755956 123.95602255250671 H 0.0 **** 0.06
22834 H 86.98589810734398 52.58416705956334 124.89952993019651 H 0.0 **** 0.06
22835 H 85.6291177930598 53.675116871995044 124.52939531560881 H 0.0 **** 0.06
22836 C 114.8544507306947 103.87449359507121 34.64163609423764 C 0.0 **** -0.24
22837 H 115.07741188246929 102.80780241558307 34.66452134584111 H 0.0 **** 0.06
22838 H 113.85155734306689 104.04388697323566 35.03569862909268 H 0.0 **** 0.06
22839 H 114.90650535646698 104.23312892108288 33.61357407878492 H 0.0 **** 0.06
22840 H 115.58065377670762 104.41069599972377 35.252370564179074 H 0.0 **** 0.06
22841 C 41.48706006464187 66.09023001427524 2.9910386960366964 C 0.0 **** -0.24
22842 H 41.946621216267545 65.10468776135984 3.0703136853030344 H 0.0 **** 0.06
22843 H 41.07404714122063 66.37662430689454 3.9584926406720626 H 0.0 **** 0.06
22844 H 40.68843009962964 66.0601258126006 2.249958138397403 H 0.0 **** 0.06
22845 H 42.23880648635293 66.81819206186272 2.6864963389720344 H 0.0 **** 0.06
22846 C 103.85686638921173 23.106620731350525 57.095901334481766 C 0.0 **** -0.24
22847 H 103.16726183276741 23.354118013413924 57.90345019716038 H 0.0 **** 0.06
22848 H 104.56038484142881 22.347679460203018 57.439068115600506 H 0.0 **** 0.06
22849 H 104.40279088650264 24.001217105383517 56.79734274476087 H 0.0 **** 0.06
22850 H 103.29465135900251 22.722988005958108 56.24409225819399 H 0.0 **** 0.06
22851 C 65.36499230256973 53.259201247481116 140.80392595473208 C 0.0 **** -0.24
22852 H 65.81147937704642 54.246225782936875 140.68083101151242 H 0.0 **** 0.06
22853 H 66.08843679861687 52.58937497685022 141.26921009114457 H 0.0 **** 0.06
22854 H 65.0791253538101 52.86532566533856 139.82885540372015 H 0.0 **** 0.06
22855 H 64.48189199959336 53.33777532256619 141.43749475873116 H 0.0 **** 0.06
22856 C 45.40172435273391 107.02570833786089 17.031307073129398 C 0.0 **** -0.24
22857 H 45.57393313842866 107.2369051717371 18.087097557236 H 0.0 **** 0.06
22858 H 46.35920911335069 106.93102883255975 16.519654664571526 H 0.0 **** 0.06
22859 H 44.830984420147246 107.84143262351719 16.587354026026944 H 0.0 **** 0.06
22860 H 44.8416733273979 106.09532697611078 16.934009192803806 H 0.0 **** 0.06
22861 C 60.679989761788775 47.79383614338778 91.28195926329767 C 0.0 **** -0.24
22862 H 60.42190696371114 48.84666814957424 91.16765475466315 H 0.0 **** 0.06
22863 H 59.794742729232624 47.18187671765028 91.10463500911246 H 0.0 **** 0.06
22864 H 61.0484290676076 47.61719354720145 92.2928353096618 H 0.0 **** 0.06
22865 H 61.45448702795072 47.530053233994465 90.56190854444557 H 0.0 **** 0.06
22866 C 100.2871488507171 134.91747620593753 110.29514144083143 C 0.0 **** -0.24
22867 H 100.99744795779355 134.0903705080938 110.32283393257492 H 0.0 **** 0.06
22868 H 100.77515491247087 135.82725681642827 110.64541536829987 H 0.0 **** 0.06
22869 H 99.43807704942826 134.68771096278593 110.9395159619016 H 0.0 **** 0.06
22870 H 99.93845613475725 135.0621780205359 109.27274658173152 H 0.0 **** 0.06
22871 C 3.4607434292327923 56.295766938098296 33.97303803253786 C 0.0 **** -0.24
22872 H 2.8791852570577987 55.81716132046964 33.185085470318796 H 0.0 **** 0.06
22873 H 3.112755738045479 55.945941548442846 34.945114294112585 H 0.0 **** 0.06
22874 H 3.3364226822154137 57.37727124684963 33.90927044747235 H 0.0 **** 0.06
22875 H 4.513755675646848 56.043794151628134 33.85165282216005 H 0.0 **** 0.06
22876 C 129.68736225388295 143.13739859696386 56.040333779459914 C 0.0 **** -0.24
22877 H 128.6178728136627 143.18010651149882 56.2466705401025 H 0.0 **** 0.06
22878 H 130.09815676369112 144.14731567073 56.04863331841018 H 0.0 **** 0.06
22879 H 129.85116838696763 142.68639636577785 55.062169691460355 H 0.0 **** 0.06
22880 H 130.1806644259073 142.53782981155268 56.805366277071826 H 0.0 **** 0.06
22881 C 144.59227535328412 130.6300956659273 97.27669784406818 C 0.0 **** -0.24
22882 H 144.25711770616522 131.00625500459304 96.31036096179537 H 0.0 **** 0.06
22883 H 143.74541294184905 130.20648271651123 97.81602111131127 H 0.0 **** 0.06
22884 H 145.02045155698465 131.44849633422908 97.8557919483825 H 0.0 **** 0.06
22885 H 145.34849601406867 129.8587897749281 97.12414591897013 H 0.0 **** 0.06
22886 C 78.42371165483422 10.075733108716463 6.164193779244954 C 0.0 **** -0.24
22887 H 77.6128941710746 9.64237306466994 6.749099357998631 H 0.0 **** 0.06
22888 H 78.57127329243693 9.489425823671155 5.257676385536001 H 0.0 **** 0.06
22889 H 79.34017060048367 10.071030315202158 6.754845447720896 H 0.0 **** 0.06
22890 H 78.16958800151971 11.101900714573667 5.896114039064344 H 0.0 **** 0.06
22891 C 136.14384922523558 56.4583871748131 137.19629688304113 C 0.0 **** -0.24
22892 H 135.87819240799496 57.25674155524233 137.8897622746058 H 0.0 **** 0.06
22893 H 135.33455497499494 56.31604646190141 136.47988957245457 H 0.0 **** 0.06
22894 H 136.30582071069745 55.5345633452597 137.7514178104948 H 0.0 **** 0.06
22895 H 137.05646489193794 56.72729855722308 136.6649271659851 H 0.0 **** 0.06
22896 C 78.88547195551558 19.42292175650863 103.1395327581417 C 0.0 **** -0.24
22897 H 78.04471702825461 19.950186066609547 103.59018226509018 H 0.0 **** 0.06
22898 H 79.80575768307419 19.976113219639046 103.3311676345465 H 0.0 **** 0.06
22899 H 78.72914241665437 19.340829714981624 102.06404475423797 H 0.0 **** 0.06
22900 H 78.96347089197536 18.426444733978826 103.57273033688217 H 0.0 **** 0.06
22901 C 146.75722509183637 27.603347937501184 90.63230417823362 C 0.0 **** -0.24
22902 H 146.11936663595887 27.23716259765169 89.8284700322119 H 0.0 **** 0.06
22903 H 147.37644782135473 28.420626668162015 90.26156545902288 H 0.0 **** 0.06
22904 H 147.3963718741753 26.794710047490014 90.98617649962208 H 0.0 **** 0.06
22905 H 146.13614612528104 27.96130842037107 91.4537149838358 H 0.0 **** 0.06
22906 C 74.01199422011331 149.6500683030483 145.57900794378426 C 0.0 **** -0.24
22907 H 73.29375774086799 149.73884610545622 144.763937796671 H 0.0 **** 0.06
22908 H 73.4944198152237 149.34380969416304 146.4879583687335 H 0.0 **** 0.06
22909 H 74.49671232917302 150.6119673255298 145.742167565453 H 0.0 **** 0.06
22910 H 74.76389481876629 148.90438584665466 145.32030994286288 H 0.0 **** 0.06
22911 C 50.20941130198135 112.909942236575 78.52927005908236 C 0.0 **** -0.24
22912 H 49.187857237036596 112.53041216865702 78.56268751997247 H 0.0 **** 0.06
22913 H 50.364557154059796 113.60638850387889 79.35332154257718 H 0.0 **** 0.06
22914 H 50.37635619253069 113.42285749033445 77.58223425211341 H 0.0 **** 0.06
22915 H 50.908895814047966 112.07802795819802 78.61965029307723 H 0.0 **** 0.06
22916 C 124.05285872370452 84.53272505557719 89.90691002577414 C 0.0 **** -0.24
22917 H 123.08350731463922 84.7109725290603 90.3731322821474 H 0.0 **** 0.06
22918 H 124.76301590189301 84.19712596142354 90.66192557101542 H 0.0 **** 0.06
22919 H 124.41185110822626 85.45598992356248 89.45319656971238 H 0.0 **** 0.06
22920 H 123.94973929279807 83.76647815519077 89.13845927200306 H 0.0 **** 0.06
22921 C 40.0869925286207 33.58177934431524 145.37020976651988 C 0.0 **** -0.24
22922 H 39.18538954490768 33.086021102432795 145.73021575971075 H 0.0 **** 0.06
22923 H 40.93921323250285 33.266416785493874 145.9725044006772 H 0.0 **** 0.06
22924 H 39.96424089692445 34.661689365781655 145.45185448575307 H 0.0 **** 0.06
22925 H 40.257578192994345 33.31297175954322 144.32883403526395 H 0.0 **** 0.06
22926 C 37.99512131032608 4.762852599447978 101.17843649537967 C 0.0 **** -0.24
22927 H 37.7333044585933 5.00572507207524 100.14877277905998 H 0.0 **** 0.06
22928 H 37.529498001194355 5.483378233558806 101.85109334715764 H 0.0 **** 0.06
22929 H 39.078042241184576 4.801171285954183 101.29689080587607 H 0.0 **** 0.06
22930 H 37.638158570379694 3.7607131947811254 101.41571417254953 H 0.0 **** 0.06
22931 C 51.20262528028867 129.09027269681863 92.49019086810173 C 0.0 **** -0.24
22932 H 51.09610932798152 130.15859875860903 92.30444042490322 H 0.0 **** 0.06
22933 H 51.54182346261767 128.9315299527626 93.51413707793256 H 0.0 **** 0.06
22934 H 51.93287434406531 128.67232941347194 91.79676370876646 H 0.0 **** 0.06
22935 H 50.24103761426855 128.59766677821082 92.34593396566967 H 0.0 **** 0.06
22936 C 31.7857647337014 41.21752803282364 56.67742565427011 C 0.0 **** -0.24
22937 H 32.07178598673636 41.614676495835454 57.65086152200766 H 0.0 **** 0.06
22938 H 30.73876809056793 41.45234967479337 56.48214800651694 H 0.0 **** 0.06
22939 H 31.92349863564783 40.13546941891897 56.672518942832426 H 0.0 **** 0.06
22940 H 32.40952446673242 41.665701719671006 55.90442914585283 H 0.0 **** 0.06
22941 C 51.850870623796794 41.0775364911314 47.00710726164152 C 0.0 **** -0.24
22942 H 52.37273159587795 41.23472168870097 47.951270085174315 H 0.0 **** 0.06
22943 H 50.91298680471388 41.63229321832347 47.01434430145878 H 0.0 **** 0.06
22944 H 51.64431069462532 40.01533494214273 46.878840653916654 H 0.0 **** 0.06
22945 H 52.47501723173784 41.42898199810891 46.184359049788895 H 0.0 **** 0.06
22946 C 69.41656442092376 70.11064954596004 98.91170500755754 C 0.0 **** -0.24
22947 H 68.41592180418196 70.4584084631479 98.65525312389548 H 0.0 **** 0.06
22948 H 70.1289715910608 70.47686968801688 98.17301611099708 H 0.0 **** 0.06
22949 H 69.43087058536578 69.02007893507627 98.92106535873086 H 0.0 **** 0.06
22950 H 69.68900561793659 70.48592318983177 99.89770649792393 H 0.0 **** 0.06
22951 C 92.07672198220695 54.35471227988863 125.87306530464012 C 0.0 **** -0.24
22952 H 91.04836118051774 54.1777731439672 126.18931854930725 H 0.0 **** 0.06
22953 H 92.09025285540508 55.113066360501165 125.08967618051936 H 0.0 **** 0.06
22954 H 92.50340523059863 53.42793193393139 125.49096055635323 H 0.0 **** 0.06
22955 H 92.66299751112105 54.70089020888119 126.72426523958997 H 0.0 **** 0.06
22956 C 6.04706742015378 90.16441683198829 143.9998340026843 C 0.0 **** -0.24
22957 H 6.342628020201687 89.22119162063242 144.45908078821023 H 0.0 **** 0.06
22958 H 5.46798287539761 90.74966573834263 144.71391332527946 H 0.0 **** 0.06
22959 H 5.439973330545655 89.96302778094886 143.11703067614224 H 0.0 **** 0.06
22960 H 6.93726121445539 90.7215127677275 143.71012973897626 H 0.0 **** 0.06
22961 C 22.218083779640786 143.83428162671584 42.1012929303667 C 0.0 **** -0.24
22962 H 21.43921462754576 143.7701456942043 42.860889465647006 H 0.0 **** 0.06
22963 H 22.788019319159616 144.75323628490997 42.24082187070712 H 0.0 **** 0.06
22964 H 21.760846870476563 143.83668716701027 41.111680826063036 H 0.0 **** 0.06
22965 H 22.884085268656257 142.97521541086167 42.19017367356423 H 0.0 **** 0.06
22966 C 138.9277167585245 122.50640902369173 31.197086151614542 C 0.0 **** -0.24
22967 H 138.0232043193252 122.98763222841984 31.570095515815638 H 0.0 **** 0.06
22968 H 138.69950480827148 121.48138565141937 30.9024339335856 H 0.0 **** 0.06
22969 H 139.68472736592128 122.49992631091732 31.981087035571818 H 0.0 **** 0.06
22970 H 139.3021714923988 123.0578085617691 30.335137978691478 H 0.0 **** 0.06
22971 C 5.299841941064784 62.39131678792978 131.08088115891948 C 0.0 **** -0.24
22972 H 6.074264758815929 62.00560919805156 130.41881666689983 H 0.0 **** 0.06
22973 H 5.6662964671652105 62.39251188277814 132.1073752559683 H 0.0 **** 0.06
22974 H 4.414510617808986 61.758599034439214 131.01040270074938 H 0.0 **** 0.06
22975 H 5.042476481063147 63.40856967415846 130.78529008907856 H 0.0 **** 0.06
22976 C 111.47589256563735 25.277158333444014 65.61586882849127 C 0.0 **** -0.24
22977 H 112.00218555074015 25.018592180011666 66.5346537425545 H 0.0 **** 0.06
22978 H 110.79715721829088 24.46741571146582 65.34559351313456 H 0.0 **** 0.06
22979 H 112.1987549332106 25.428830518862874 64.81441513636315 H 0.0 **** 0.06
22980 H 110.90565325095885 26.192938580834202 65.76929672439087 H 0.0 **** 0.06
22981 C 34.178712706830815 61.09100892750982 128.25000832216926 C 0.0 **** -0.24
22982 H 33.934182320180305 60.69407823921668 127.2640020059407 H 0.0 **** 0.06
22983 H 35.08611759239665 61.691513651245174 128.18487047699494 H 0.0 **** 0.06
22984 H 34.338429901123035 60.26446595048111 128.9432107812616 H 0.0 **** 0.06
22985 H 33.355933664132486 61.71087872607825 128.60678357031065 H 0.0 **** 0.06
22986 C 105.30797757221471 146.9632092610349 29.501823075806286 C 0.0 **** -0.24
22987 H 105.07136034436864 145.9189868905586 29.298745763366554 H 0.0 **** 0.06
22988 H 104.91192862271718 147.24217825466465 30.478189302700933 H 0.0 **** 0.06
22989 H 104.85903853040786 147.593687979762 28.732826398337366 H 0.0 **** 0.06
22990 H 106.3900605786353 147.09848422577002 29.49594290858999 H 0.0 **** 0.06
22991 C 63.71331937392853 12.19989654609234 38.904625680941706 C 0.0 **** -0.24
22992 H 64.59098323827158 12.24575092267829 39.548423751805885 H 0.0 **** 0.06
22993 H 63.47855902416812 13.199540553299897 38.5379487820544 H 0.0 **** 0.06
22994 H 62.86724376610053 11.811623610564986 39.471134865514955 H 0.0 **** 0.06
22995 H 63.917491104466606 11.54101792781183 38.05948934504565 H 0.0 **** 0.06
22996 C 99.20140410818156 3.1491097589234585 147.51692480697355 C 0.0 **** -0.24
22997 H 98.31728479162982 3.0272990746807693 148.14188291555556 H 0.0 **** 0.06
22998 H 100.04933185394779 2.6506456699692933 147.98620676696626 H 0.0 **** 0.06
22999 H 99.4212052551214 4.210740639349069 147.40180820378512 H 0.0 **** 0.06
23000 H 99.01639131330522 2.708372275516041 146.53699611392503 H 0.0 **** 0.06
23001 C 119.31455100014627 56.673973498208824 127.74417276679654 C 0.0 **** -0.24
23002 H 118.72134918326735 56.71946050713346 128.65839597853628 H 0.0 **** 0.06
23003 H 119.67125136842192 55.65442601734259 127.59390530931219 H 0.0 **** 0.06
23004 H 120.16553871133452 57.34923164737661 127.83046188935424 H 0.0 **** 0.06
23005 H 118.69784586755283 56.971830488233365 126.89597320851217 H 0.0 **** 0.06
23006 C 124.19877072974923 10.561362197415605 11.414245288601336 C 0.0 **** -0.24
23007 H 125.18031041309179 10.138481001402454 11.628251890748437 H 0.0 **** 0.06
23008 H 123.43074508622054 9.96359978842412 11.903990281272527 H 0.0 **** 0.06
23009 H 124.03035751745638 10.559555822586248 10.337072493127948 H 0.0 **** 0.06
23010 H 124.15609331561485 11.584885295239445 11.786260852482123 H 0.0 **** 0.06
23011 C 28.409144201481453 64.89871694211257 70.45221298389524 C 0.0 **** -0.24
23012 H 28.115870619393817 64.09123871853151 69.78107065818324 H 0.0 **** 0.06
23013 H 29.279192890596697 64.59040611383773 71.03281631959251 H 0.0 **** 0.06
23014 H 27.584473840105197 65.12885705092941 71.12635227764034 H 0.0 **** 0.06
23015 H 28.658373140614366 65.78394296722769 69.86686837275826 H 0.0 **** 0.06
23016 C 147.52376758748102 72.84977151886238 28.2544311698625 C 0.0 **** -0.24
23017 H 147.2925738943136 72.20257532211255 29.10078810536899 H 0.0 **** 0.06
23018 H 148.5200690980577 72.61531657985617 27.880134963689756 H 0.0 **** 0.06
23019 H 147.49127423581768 73.89089579849073 28.57458562931251 H 0.0 **** 0.06
23020 H 146.7902822480895 72.6894535491075 27.464343906811678 H 0.0 **** 0.06
23021 C 62.60065301428119 47.844946244686284 100.6369075972776 C 0.0 **** -0.24
23022 H 62.21093271412573 47.85886587549052 101.65505583655448 H 0.0 **** 0.06
23023 H 61.86960011601789 47.38159325763287 99.97400023533436 H 0.0 **** 0.06
23024 H 63.529209987436644 47.2749649191874 100.61114507870184 H 0.0 **** 0.06
23025 H 62.79276923908898 48.86716989558677 100.30774544259157 H 0.0 **** 0.06
23026 C 75.03549530744657 145.67380709508217 92.40913768119837 C 0.0 **** -0.24
23027 H 74.27643475725236 146.38466806551628 92.08329687703029 H 0.0 **** 0.06
23028 H 75.24362343530883 144.9693535280866 91.60298050807792 H 0.0 **** 0.06
23029 H 74.67321897528801 145.1311566774226 93.28259225163116 H 0.0 **** 0.06
23030 H 75.94870406193695 146.21005010930273 92.66768108805411 H 0.0 **** 0.06
23031 C 140.88926202542257 64.93923060329286 12.445870323949293 C 0.0 **** -0.24
23032 H 141.22478823301745 64.03845155756709 12.959798099508532 H 0.0 **** 0.06
23033 H 141.4952111622377 65.78693159033995 12.764117280595656 H 0.0 **** 0.06
23034 H 139.84355672111636 65.12813424553984 12.690174114793365 H 0.0 **** 0.06
23035 H 140.99060383624288 64.80259636983122 11.369321021866142 H 0.0 **** 0.06
23036 C 18.55124371411884 118.0883481515964 1.6392446839495562 C 0.0 **** -0.24
23037 H 18.691986187624224 119.15236456492586 1.8247306609563054 H 0.0 **** 0.06
23038 H 18.69877239193005 117.53517189815436 2.566196551903232 H 0.0 **** 0.06
23039 H 19.273873448516923 117.75027582660697 0.8950229857410648 H 0.0 **** 0.06
23040 H 17.54091118418188 117.91529723644705 1.2677731969868375 H 0.0 **** 0.06
23041 C 12.504365259219725 93.5842270911177 116.91510537474714 C 0.0 **** -0.24
23042 H 11.737720698481155 94.05073922149577 117.53335291034749 H 0.0 **** 0.06
23043 H 13.401283557741579 93.41956384162498 117.51273409472405 H 0.0 **** 0.06
23044 H 12.741532041839037 94.23881372999435 116.07678997393897 H 0.0 **** 0.06
23045 H 12.137315804669925 92.62989066181555 116.5382086507954 H 0.0 **** 0.06
23046 C 149.81026810439187 29.979337774026988 16.89226500597246 C 0.0 **** -0.24
23047 H 150.427886723166 29.289887575538387 17.467415534594437 H 0.0 **** 0.06
23048 H 150.44165057094347 30.749105103499573 16.44846671331615 H 0.0 **** 0.06
23049 H 149.0780487211514 30.445337883134584 17.551782377040652 H 0.0 **** 0.06
23050 H 149.29292837926374 29.432851825230443 16.10377455157348 H 0.0 **** 0.06
23051 C 141.96144375156052 21.776324892678076 114.56003698068339 C 0.0 **** -0.24
23052 H 142.04049826696163 22.82999254266798 114.29257418522188 H 0.0 **** 0.06
23053 H 141.27285296256716 21.278808864897087 113.87566786825936 H 0.0 **** 0.06
23054 H 141.5870455524604 21.688551347995315 115.57955610634728 H 0.0 **** 0.06
23055 H 142.9435914875407 21.30999457778387 114.49156584139872 H 0.0 **** 0.06
23056 C 57.43515446919167 146.1401315202253 100.92524069307242 C 0.0 **** -0.24
23057 H 56.872250830352755 146.42775991446706 100.03776852405664 H 0.0 **** 0.06
23058 H 58.475659144368194 146.44641178836056 100.8111532171636 H 0.0 **** 0.06
23059 H 57.386363828383026 145.05830050986964 101.05154842715753 H 0.0 **** 0.06
23060 H 57.007080113428515 146.62753318816306 101.80092524043155 H 0.0 **** 0.06
23061 C 80.34445423666888 16.587459133667522 135.77919490583037 C 0.0 **** -0.24
23062 H 79.87958836122455 15.816616022140948 135.16518670573691 H 0.0 **** 0.06
23063 H 81.33843544735947 16.81097345260855 135.3901676194779 H 0.0 **** 0.06
23064 H 80.42730629126214 16.23317889325145 136.80685854024557 H 0.0 **** 0.06
23065 H 79.73316437426746 17.48978315660534 135.75355195780054 H 0.0 **** 0.06
23066 C 47.354330406081516 32.132234902932396 136.0460789454396 C 0.0 **** -0.24
23067 H 48.29348955038731 31.652823710970637 136.32022207297928 H 0.0 **** 0.06
23068 H 47.2904176589051 32.213409361489795 134.9612977108562 H 0.0 **** 0.06
23069 H 47.31210511052572 33.12786038796176 136.48797871907664 H 0.0 **** 0.06
23070 H 46.52095354581736 31.535769056520536 136.41655561947005 H 0.0 **** 0.06
23071 C 4.743477088186818 59.204385257634925 102.15305272915721 C 0.0 **** -0.24
23072 H 4.603721946735874 59.85302747373984 101.28796760079754 H 0.0 **** 0.06
23073 H 4.844831011814424 59.813942238309295 103.05141188989514 H 0.0 **** 0.06
23074 H 5.6431922348504315 58.60434188467346 102.01619479100628 H 0.0 **** 0.06
23075 H 3.8797777259737174 58.54637352750507 102.25609889499535 H 0.0 **** 0.06
23076 C 52.18709912054038 72.0415099528733 12.930895708508942 C 0.0 **** -0.24
23077 H 53.05343790137388 72.45162455349595 13.44975369419491 H 0.0 **** 0.06
23078 H 52.521589501934386 71.45252632014905 12.076099827276941 H 0.0 **** 0.06
23079 H 51.55106071170681 72.8553372625683 12.585415365873715 H 0.0 **** 0.06
23080 H 51.6238117061846 71.4041177657407 13.613217487224617 H 0.0 **** 0.06
23081 C 68.83884960338 18.58877648950071 58.376031593687955 C 0.0 **** -0.24
23082 H 68.05629805734176 19.341012569379643 58.47789650740472 H 0.0 **** 0.06
23083 H 69.61195728694616 18.957769641151046 57.702268254986706 H 0.0 **** 0.06
23084 H 68.4097780667665 17.671820118762255 57.970107743364366 H 0.0 **** 0.06
23085 H 69.27456258652305 18.383533456027415 59.353400482563714 H 0.0 **** 0.06
23086 C 56.2312627430904 44.70588957509631 15.885844328365721 C 0.0 **** -0.24
23087 H 55.98427597189989 44.36172172399546 16.890482836790113 H 0.0 **** 0.06
23088 H 55.91386412102459 45.74204318628162 15.76868080274349 H 0.0 **** 0.06
23089 H 55.718627600199724 44.083276386133946 15.153374896346207 H 0.0 **** 0.06
23090 H 57.30772852300058 44.63642235732294 15.732136221504874 H 0.0 **** 0.06
23091 C 49.97316014906133 17.957053266595864 67.46608940413954 C 0.0 **** -0.24
23092 H 51.005331629977334 17.636017128374306 67.32504570821322 H 0.0 **** 0.06
23093 H 49.491135819766725 18.064250213074473 66.49388424165429 H 0.0 **** 0.06
23094 H 49.958231643117415 18.9142383263667 67.98787614809358 H 0.0 **** 0.06
23095 H 49.43887666899282 17.212738011980804 68.05646254443263 H 0.0 **** 0.06
23096 C 93.3630666620601 62.40554476261869 24.58935376421846 C 0.0 **** -0.24
23097 H 94.16968315795418 61.90549432313102 25.124271349628202 H 0.0 **** 0.06
23098 H 92.46851119848475 62.420925943583455 25.212147015750112 H 0.0 **** 0.06
23099 H 93.1529814701334 61.86779346485616 23.664364430544865 H 0.0 **** 0.06
23100 H 93.6616776601739 63.428092491361696 24.35583258330658 H 0.0 **** 0.06
23101 C 118.86643317388558 42.706948094223335 45.43596249540067 C 0.0 **** -0.24
23102 H 119.14669532832835 43.54170169904924 44.79371720107409 H 0.0 **** 0.06
23103 H 119.72586417965562 42.40658803758362 46.0361472181456 H 0.0 **** 0.06
23104 H 118.54220435038349 41.86841410592935 44.82038482269874 H 0.0 **** 0.06
23105 H 118.05215993673903 43.01165170427511 46.093086741002566 H 0.0 **** 0.06
23106 C 14.332632947867694 43.43618998069954 112.64338827689586 C 0.0 **** -0.24
23107 H 15.254353195356828 43.02110277149848 112.23344688565895 H 0.0 **** 0.06
23108 H 13.561953688484493 43.43840584319619 111.87215609621369 H 0.0 **** 0.06
23109 H 14.513349926514877 44.45690632584609 112.97935252214485 H 0.0 **** 0.06
23110 H 14.004183280285304 42.82915240188909 113.48627298481303 H 0.0 **** 0.06
23111 C 142.87330574884294 8.528909077927949 96.61000646293152 C 0.0 **** -0.24
23112 H 143.3097310572829 7.554392305122832 96.82870143039199 H 0.0 **** 0.06
23113 H 141.8560024499959 8.396682878717684 96.24012032577465 H 0.0 **** 0.06
23114 H 143.47305644199983 9.034540358605994 95.85313157090556 H 0.0 **** 0.06
23115 H 142.85318787594673 9.130173058171607 97.51872554272191 H 0.0 **** 0.06
23116 C 17.581129127666763 12.89734561746613 89.46579426961283 C 0.0 **** -0.24
23117 H 18.068667405666304 13.440395067593329 90.2756592087355 H 0.0 **** 0.06
23118 H 16.856405618763596 13.54697857777478 88.97683387108953 H 0.0 **** 0.06
23119 H 17.071003067629277 12.022354051130975 89.86981367612108 H 0.0 **** 0.06
23120 H 18.330342134990758 12.577573229767893 88.74064461505274 H 0.0 **** 0.06
23121 C 41.54561795105556 125.74715239767755 14.019827211635402 C 0.0 **** -0.24
23122 H 41.42623736043966 125.59466515978792 12.947063766732242 H 0.0 **** 0.06
23123 H 42.402961977583175 125.17409883140327 14.37414817614939 H 0.0 **** 0.06
23124 H 40.645762300517234 125.41366298012373 14.536491602477781 H 0.0 **** 0.06
23125 H 41.70877709211091 126.8062538209487 14.21976410299493 H 0.0 **** 0.06
23126 C 150.16165543947125 136.85853988435048 85.26437211886764 C 0.0 **** -0.24
23127 H 149.10545122335327 136.8516832158227 85.53309709645347 H 0.0 **** 0.06
23128 H 150.74956416709165 137.21174191527734 86.11202308845174 H 0.0 **** 0.06
23129 H 150.31652901524296 137.52129234068516 84.41312959687212 H 0.0 **** 0.06
23130 H 150.4750390216733 135.8482117253669 85.0013564786787 H 0.0 **** 0.06
23131 C 49.02967030983149 134.04622812289972 8.018519333807859 C 0.0 **** -0.24
23132 H 49.051556665233136 133.06880489256048 8.501042204215821 H 0.0 **** 0.06
23133 H 48.431593001957694 134.73355893457847 8.617575595977648 H 0.0 **** 0.06
23134 H 48.58906564222434 133.95109587226688 7.026210482405368 H 0.0 **** 0.06
23135 H 50.04613894814304 134.43049028223152 7.930232277275742 H 0.0 **** 0.06
23136 C 68.351716028781 74.211771374219 138.76380537863233 C 0.0 **** -0.24
23137 H 68.01531482948869 73.33156834332296 138.21721751817418 H 0.0 **** 0.06
23138 H 67.5389245179775 74.93522257055203 138.82234413400437 H 0.0 **** 0.06
23139 H 69.19976044020379 74.65937793486188 138.24548739725526 H 0.0 **** 0.06
23140 H 68.65304187280191 73.92184247871919 139.7705061595463 H 0.0 **** 0.06
23141 C 9.570631626506575 121.738232508506 135.26667462170533 C 0.0 **** -0.24
23142 H 10.457924421422703 121.94239221557476 135.86717345388487 H 0.0 **** 0.06
23143 H 9.863642632451636 121.23454668233867 134.34558091436506 H 0.0 **** 0.06
23144 H 9.072191639689592 122.67755534942799 135.02643582854674 H 0.0 **** 0.06
23145 H 8.891067535783733 121.09929492661522 135.8297384366181 H 0.0 **** 0.06
23146 C 42.396091006479196 4.169330134193217 61.46775564789948 C 0.0 **** -0.24
23147 H 42.716082148359064 4.182302908255338 60.42575955009019 H 0.0 **** 0.06
23148 H 43.08311973979937 3.5553320093580965 62.050575797839144 H 0.0 **** 0.06
23149 H 41.39038322124992 3.753292405593527 61.53321532314132 H 0.0 **** 0.06
23150 H 42.39461340104042 5.185549410274689 61.86034912320031 H 0.0 **** 0.06
23151 C 96.60020854181835 5.360684354820478 37.61781682923268 C 0.0 **** -0.24
23152 H 96.95431554154789 6.03123888747308 36.834288038258435 H 0.0 **** 0.06
23153 H 95.51630673957061 5.4432045343763775 37.703372767577264 H 0.0 **** 0.06
23154 H 97.06262202438927 5.633153597863782 38.565700107673706 H 0.0 **** 0.06
23155 H 96.86788037296935 4.334903233798002 37.363680292389944 H 0.0 **** 0.06
23156 C 129.38120551324207 77.08412183959983 43.9199965053414 C 0.0 **** -0.24
23157 H 129.7973704903766 77.44122523311287 44.861574612530674 H 0.0 **** 0.06
23158 H 129.9846014068266 77.4574834810675 43.091623991339304 H 0.0 **** 0.06
23159 H 128.35748740278632 77.44350267548813 43.815688661491805 H 0.0 **** 0.06
23160 H 129.38612449683683 75.99472769970932 43.91063429715901 H 0.0 **** 0.06
23161 C 126.70470186459497 149.54415231539866 99.84318212495408 C 0.0 **** -0.24
23162 H 127.32618161363615 150.42873823642233 99.9847560564316 H 0.0 **** 0.06
23163 H 126.33982771941491 149.51697696059418 98.81569300239649 H 0.0 **** 0.06
23164 H 125.8583062743187 149.58118195597862 100.52842351691598 H 0.0 **** 0.06
23165 H 127.2962020879245 148.64995092177466 100.04372113621469 H 0.0 **** 0.06
23166 C 149.78675434870814 93.2555689995421 68.99113217608209 C 0.0 **** -0.24
23167 H 150.81818658742904 93.54699969978518 68.7924737431959 H 0.0 **** 0.06
23168 H 149.60318183682762 92.264651543168 68.57619941089507 H 0.0 **** 0.06
23169 H 149.1102360946908 93.97475791728878 68.52926656693444 H 0.0 **** 0.06
23170 H 149.61711083650366 93.23570182312508 70.06803462601704 H 0.0 **** 0.06
23171 C 123.23314674695322 120.87199671204685 48.61270708544791 C 0.0 **** -0.24
23172 H 123.7116032299028 121.85156603841288 48.610750993787036 H 0.0 **** 0.06
23173 H 123.62784909015087 120.27295406603504 47.79198882895204 H 0.0 **** 0.06
23174 H 122.15662308551694 120.99318584512399 48.48895526348443 H 0.0 **** 0.06
23175 H 123.43605719995796 120.3705399270324 49.558280919003096 H 0.0 **** 0.06
23176 C 131.96733299070368 124.55801053963538 59.289425911769285 C 0.0 **** -0.24
23177 H 132.4314189104824 125.50270333959273 59.008974139011585 H 0.0 **** 0.06
23178 H 132.49617567529654 124.13292305181633 60.142670036985706 H 0.0 **** 0.06
23179 H 132.01688181443157 123.86480616673637 58.44861549154618 H 0.0 **** 0.06
23180 H 130.9248166484667 124.7304017846192 59.55670930958031 H 0.0 **** 0.06
23181 C 68.90676507380272 57.68660357766633 137.05213879477 C 0.0 **** -0.24
23182 H 69.46541645814966 58.07794052057102 137.90189198411994 H 0.0 **** 0.06
23183 H 68.95765908545411 58.39516542474807 136.22538466282177 H 0.0 **** 0.06
23184 H 67.86579725303784 57.538091402038305 137.34030478119425 H 0.0 **** 0.06
23185 H 69.3370691235906 56.73467342198953 136.74164745224468 H 0.0 **** 0.06
23186 C 144.96480041324804 34.19180427908944 149.51390383348925 C 0.0 **** -0.24
23187 H 145.6967287691665 33.45384706233712 149.18893547919836 H 0.0 **** 0.06
23188 H 144.34264084554485 33.76491924240466 150.30130409114074 H 0.0 **** 0.06
23189 H 144.33722881738913 34.477138913265904 148.66955169984044 H 0.0 **** 0.06
23190 H 145.48213563952004 35.07259858699837 149.89617884988837 H 0.0 **** 0.06
23191 C 66.6251494641091 104.61303777554615 148.36102176684406 C 0.0 **** -0.24
23192 H 67.2788064973252 104.48126664868907 149.22378266601527 H 0.0 **** 0.06
23193 H 65.71578918857372 105.12893877602436 148.67001132586924 H 0.0 **** 0.06
23194 H 66.3686430452753 103.63756013791819 147.94817154204702 H 0.0 **** 0.06
23195 H 67.13943115725516 105.20458704150526 147.60293778303034 H 0.0 **** 0.06
23196 C 82.84792672186731 102.66586400166508 111.61980121543623 C 0.0 **** -0.24
23197 H 83.66962445346607 102.02250493578384 111.93284817214847 H 0.0 **** 0.06
23198 H 81.89945086557891 102.16864990319286 111.82441840863457 H 0.0 **** 0.06
23199 H 82.93003647518667 102.8671317710113 110.55135618475494 H 0.0 **** 0.06
23200 H 82.89259509323773 103.60516939667225 112.17058209620707 H 0.0 **** 0.06
23201 C 11.13541036732326 81.30733847507169 47.996418352740974 C 0.0 **** -0.24
23202 H 11.857431960028777 81.64978930333295 47.25527685114709 H 0.0 **** 0.06
23203 H 10.198812961113589 81.85091069029316 47.86933154745198 H 0.0 **** 0.06
23204 H 11.527736399368365 81.48849044715396 48.996767145311836 H 0.0 **** 0.06
23205 H 10.957660148782423 80.24016345950682 47.86429786705311 H 0.0 **** 0.06
23206 C 99.75940826715828 132.58930400481273 139.358303686795 C 0.0 **** -0.24
23207 H 99.9579955686626 133.16717227946032 140.261032788651 H 0.0 **** 0.06
23208 H 100.47103177465084 131.76654336291972 139.2888602152921 H 0.0 **** 0.06
23209 H 99.86184960483217 133.23354138909616 138.48496042401135 H 0.0 **** 0.06
23210 H 98.74583985093625 132.1900215383962 139.397965624735 H 0.0 **** 0.06
23211 C 130.30379896587166 57.127589067980296 28.563244150230844 C 0.0 **** -0.24
23212 H 129.22214267495997 57.05604598855683 28.682281045715627 H 0.0 **** 0.06
23213 H 130.63292234423812 58.12924587909174 28.840977732742886 H 0.0 **** 0.06
23214 H 130.56815788170871 56.933214652037165 27.524195352541142 H 0.0 **** 0.06
23215 H 130.78945042595936 56.39369264877253 29.206013293067883 H 0.0 **** 0.06
23216 C 72.1051972476057 97.25300444186053 67.17923048916005 C 0.0 **** -0.24
23217 H 71.48318933357478 98.00335547629192 67.6662345207392 H 0.0 **** 0.06
23218 H 72.67607662601137 97.71919304270386 66.37582621416541 H 0.0 **** 0.06
23219 H 71.47009571343159 96.46805027585805 66.76649989137704 H 0.0 **** 0.06
23220 H 72.79085898704409 96.81989918224326 67.90775523819649 H 0.0 **** 0.06
23221 C 7.202258334632944 150.27432642742014 98.87231538658375 C 0.0 **** -0.24
23222 H 7.658567357163378 149.40087417137966 99.3393579527754 H 0.0 **** 0.06
23223 H 7.561132639193943 151.17792221321926 99.36492513798513 H 0.0 **** 0.06
23224 H 6.118662468705423 150.21261820127728 98.97047118262145 H 0.0 **** 0.06
23225 H 7.471130000548925 150.30390098223057 97.81670474155263 H 0.0 **** 0.06
23226 C 73.4552572353334 110.48365952713442 104.19467419881792 C 0.0 **** -0.24
23227 H 74.51388855380662 110.30848088340247 104.38507546223721 H 0.0 **** 0.06
23228 H 73.09624217201235 111.27950292501401 104.84805692971375 H 0.0 **** 0.06
23229 H 72.89511353183327 109.57044431306406 104.39296804429145 H 0.0 **** 0.06
23230 H 73.31702332256474 110.77677916407293 103.1546315570159 H 0.0 **** 0.06
23231 C 15.454015266302179 89.94485809999475 47.53539662677875 C 0.0 **** -0.24
23232 H 14.79031389956674 89.43468470699635 46.83792042120476 H 0.0 **** 0.06
23233 H 14.914853076028862 90.75979144835365 48.01947026989441 H 0.0 **** 0.06
23234 H 16.311154190997684 90.34670969218544 46.994119725601024 H 0.0 **** 0.06
23235 H 15.799739898615542 89.23824655244356 48.290076090414686 H 0.0 **** 0.06
23236 C 52.95339286030077 9.349198826372344 86.48144561476846 C 0.0 **** -0.24
23237 H 53.57100162479554 9.233052556427936 85.59032610794817 H 0.0 **** 0.06
23238 H 53.44332023387578 10.032071113780262 87.17576982101029 H 0.0 **** 0.06
23239 H 52.81914295378553 8.378295455575653 86.95828215796648 H 0.0 **** 0.06
23240 H 51.981656149843744 9.753154383098746 86.1990485106423 H 0.0 **** 0.06
23241 C 1.7224050036165686 54.78869265983744 134.03074412831447 C 0.0 **** -0.24
23242 H 0.8365729588855153 55.11036411151845 133.48372902472556 H 0.0 **** 0.06
23243 H 2.6158250916450285 55.15474381140305 133.522526978501 H 0.0 **** 0.06
23244 H 1.7481309248086916 53.70002495761325 134.07313844966058 H 0.0 **** 0.06
23245 H 1.690109213408757 55.191864015785384 135.0434964996497 H 0.0 **** 0.06
23246 C 80.94877815166402 55.28946335051455 12.229357001646711 C 0.0 **** -0.24
23247 H 80.93130309775052 56.2745392537239 12.69705949204237 H 0.0 **** 0.06
23248 H 80.34818443795095 54.59730474725416 12.819366438466538 H 0.0 **** 0.06
23249 H 81.97638464748812 54.92970417519018 12.180749421665936 H 0.0 **** 0.06
23250 H 80.53966334772701 55.35854177989677 11.221157740511963 H 0.0 **** 0.06
23251 C 64.71805158712169 126.68370688321377 13.549438152847301 C 0.0 **** -0.24
23252 H 64.42115648807145 126.16790966440945 12.635895577619664 H 0.0 **** 0.06
23253 H 64.69452860517328 125.98482076157669 14.38538811020058 H 0.0 **** 0.06
23254 H 64.02934954104178 127.50601254983329 13.741977360591733 H 0.0 **** 0.06
23255 H 65.72910055730293 127.07595694478462 13.432197307367147 H 0.0 **** 0.06
23256 C 27.014171981123127 139.4761314811675 86.12080762493697 C 0.0 **** -0.24
23257 H 26.251751865580076 140.2473842721073 86.23381298867734 H 0.0 **** 0.06
23258 H 26.75367595801859 138.61541095414918 86.7378688291832 H 0.0 **** 0.06
23259 H 27.979497041397423 139.87121615858786 86.4368156920755 H 0.0 **** 0.06
23260 H 27.070122909868616 139.17108006085402 85.0761437620001 H 0.0 **** 0.06
23261 C 33.98227143928346 0.3009693647733265 89.0672977735347 C 0.0 **** -0.24
23262 H 33.46596838389368 -0.4960795616986964 88.53099403699775 H 0.0 **** 0.06
23263 H 34.68046871660767 0.7986245448202389 88.39452340194522 H 0.0 **** 0.06
23264 H 34.528131453822496 -0.12328301866919134 89.90930976912831 H 0.0 **** 0.06
23265 H 33.25283133357048 1.0232495945778766 89.43382319675874 H 0.0 **** 0.06
23266 C 57.99201736348249 56.24339634235636 5.658425239001499 C 0.0 **** -0.24
23267 H 58.0802174185464 56.862458713826584 6.5517146917857225 H 0.0 **** 0.06
23268 H 58.97320722459796 55.849344110176716 5.3909054594736965 H 0.0 **** 0.06
23269 H 57.60404627978619 56.845694896462945 4.836423167548308 H 0.0 **** 0.06
23270 H 57.30992828427995 55.41647372949568 5.85675570634778 H 0.0 **** 0.06
23271 C 126.05491538111482 9.379948012822155 77.55028626675633 C 0.0 **** -0.24
23272 H 125.04033224670678 9.22320060765145 77.18441772850909 H 0.0 **** 0.06
23273 H 126.03406592939058 10.069093151300905 78.39535834262165 H 0.0 **** 0.06
23274 H 126.66747429564543 9.801808618056327 76.7528085375503 H 0.0 **** 0.06
23275 H 126.47830625343158 8.427252324362343 77.86742433575304 H 0.0 **** 0.06
23276 C 47.77850548761191 86.03612061147317 134.7247196476625 C 0.0 **** -0.24
23277 H 48.81910909295934 86.35856000366142 134.7671516834983 H 0.0 **** 0.06
23278 H 47.15015176050301 86.76974374629091 135.23003755101306 H 0.0 **** 0.06
23279 H 47.67854217078769 85.06886968509275 135.21782662089905 H 0.0 **** 0.06
23280 H 47.468643452155845 85.94696979532127 133.6837801137587 H 0.0 **** 0.06
23281 C 32.81066044937765 14.17800179780511 76.07570040761215 C 0.0 **** -0.24
23282 H 31.972523125705038 13.606712416274291 75.67719854271024 H 0.0 **** 0.06
23283 H 32.855323642320855 15.148660691762132 75.58064986835791 H 0.0 **** 0.06
23284 H 33.738377895108414 13.635000803189456 75.89633003912587 H 0.0 **** 0.06
23285 H 32.67567724032787 14.322573947382494 77.14786967188468 H 0.0 **** 0.06
23286 C 16.54198749567996 84.44529440187236 82.00328947661109 C 0.0 **** -0.24
23287 H 17.315510495352896 84.94022791878916 81.41614088874493 H 0.0 **** 0.06
23288 H 15.60848566170506 84.43658521712116 81.44047603901144 H 0.0 **** 0.06
23289 H 16.397403413400127 84.98287163023471 82.94013131532923 H 0.0 **** 0.06
23290 H 16.847789956901693 83.4201915552292 82.21474521055505 H 0.0 **** 0.06
23291 C 81.08301349231371 76.45889550011712 8.079424861052104 C 0.0 **** -0.24
23292 H 82.15409891159524 76.65563859207118 8.039983238945382 H 0.0 **** 0.06
23293 H 80.56907435914516 77.33180593253704 8.483486087241658 H 0.0 **** 0.06
23294 H 80.89512543230305 75.59761163236256 8.719273750844621 H 0.0 **** 0.06
23295 H 80.71481137720738 76.25247709028126 7.074678071367288 H 0.0 **** 0.06
23296 C 59.61166245855907 33.78286923104295 39.59191598737847 C 0.0 **** -0.24
23297 H 59.674921805919126 33.69724618679349 38.50703376322788 H 0.0 **** 0.06
23298 H 60.029041736729454 34.739718122130085 39.90476771679592 H 0.0 **** 0.06
23299 H 60.175063951615016 32.97198147817876 40.0535481918219 H 0.0 **** 0.06
23300 H 58.5684713894976 33.72236877247178 39.900022341315534 H 0.0 **** 0.06
23301 C 44.102500296726404 114.94537257826927 103.62050401960693 C 0.0 **** -0.24
23302 H 45.04464574904536 115.31814538920365 103.21792373877844 H 0.0 **** 0.06
23303 H 43.764807909160936 114.09661063606693 103.02570026624977 H 0.0 **** 0.06
23304 H 43.354092098186186 115.73673155211888 103.5843154736674 H 0.0 **** 0.06
23305 H 44.24947094180949 114.63119782417466 104.65338460425835 H 0.0 **** 0.06
23306 C 143.66483558366681 77.01575562744645 51.04574811872426 C 0.0 **** -0.24
23307 H 143.44960115180007 77.62779858469634 50.169557465435176 H 0.0 **** 0.06
23308 H 143.68597461287195 77.6482729460296 51.933590724130326 H 0.0 **** 0.06
23309 H 144.6324567133922 76.5304711924073 50.920576929640816 H 0.0 **** 0.06
23310 H 142.8899006676883 76.2571084249541 51.15764896652503 H 0.0 **** 0.06
23311 C 125.03219086519213 77.13834832386989 110.36744598035331 C 0.0 **** -0.24
23312 H 124.70988552790674 76.103833063397 110.48103246243373 H 0.0 **** 0.06
23313 H 125.56233143586049 77.25156009876646 109.4214176616032 H 0.0 **** 0.06
23314 H 125.69525652073487 77.40451386954949 111.18996849291175 H 0.0 **** 0.06
23315 H 124.16063592942704 77.79391760104095 110.37674384852217 H 0.0 **** 0.06
23316 C 79.13634663739013 141.28501869454155 100.93811290262073 C 0.0 **** -0.24
23317 H 78.78341949665922 140.74815177124728 100.05739567428265 H 0.0 **** 0.06
23318 H 78.28334303046674 141.70072799689356 101.47640945908557 H 0.0 **** 0.06
23319 H 79.79982530883488 142.09343428610703 100.6293171710243 H 0.0 **** 0.06
23320 H 79.67783818280277 140.5997749974551 101.58918694840509 H 0.0 **** 0.06
23321 C 115.73335337507393 59.80022517921931 51.591439622108595 C 0.0 **** -0.24
23322 H 115.82136417985043 60.71915746185651 51.01152664955602 H 0.0 **** 0.06
23323 H 114.99186183138562 59.14890235320625 51.12883682479307 H 0.0 **** 0.06
23324 H 115.42257156136418 60.04171472719767 52.608255717745934 H 0.0 **** 0.06
23325 H 116.69752652107007 59.29424449757731 51.61662118980934 H 0.0 **** 0.06
23326 C 61.15579706150979 72.22207072126461 120.2048093248817 C 0.0 **** -0.24
23327 H 61.890780941391796 72.55323230672052 119.47165848237898 H 0.0 **** 0.06
23328 H 61.25424103303115 72.81815040572404 121.11149297446565 H 0.0 **** 0.06
23329 H 61.32563274065839 71.17185978621416 120.43942874273722 H 0.0 **** 0.06
23330 H 60.15339146537451 72.34528183197936 119.79460628655198 H 0.0 **** 0.06
23331 C 137.73877885800883 149.51459205462868 94.16624375703867 C 0.0 **** -0.24
23332 H 138.2419884609622 148.97059716782906 93.36659060699911 H 0.0 **** 0.06
23333 H 136.8843272397074 150.05358257397864 93.75766681826197 H 0.0 **** 0.06
23334 H 138.43412052911825 150.2218731177999 94.61680883834208 H 0.0 **** 0.06
23335 H 137.39493991701858 148.80865190981626 94.92319344575962 H 0.0 **** 0.06
23336 C 68.82364469566062 83.07225846412905 129.6142742499682 C 0.0 **** -0.24
23337 H 68.03495152715806 82.90837754875372 128.8809642462137 H 0.0 **** 0.06
23338 H 68.56403728946822 82.57090047998469 130.54621449459393 H 0.0 **** 0.06
23339 H 68.93382044395031 84.14224572829647 129.79443554640727 H 0.0 **** 0.06
23340 H 69.76299145400293 82.67006797064164 129.23325456246653 H 0.0 **** 0.06
23341 C 60.761266641650636 88.83008635356435 101.44719630238129 C 0.0 **** -0.24
23342 H 61.83065743223419 88.62918197574034 101.3865478509592 H 0.0 **** 0.06
23343 H 60.20788254457567 87.94039467438768 101.14470781654589 H 0.0 **** 0.06
23344 H 60.50940163550996 89.65764765170736 100.78404111771772 H 0.0 **** 0.06
23345 H 60.499050699908466 89.09217808431912 102.47139020334444 H 0.0 **** 0.06
23346 C 122.77718597991075 48.911964909388985 114.98255674950406 C 0.0 **** -0.24
23347 H 123.076756503227 49.68824201079843 114.27818194774409 H 0.0 **** 0.06
23348 H 122.29316588270389 48.098334095200414 114.44221710415457 H 0.0 **** 0.06
23349 H 122.08253920977036 49.33050479651075 115.70984669068042 H 0.0 **** 0.06
23350 H 123.65919162927251 48.53126740770807 115.49943584648275 H 0.0 **** 0.06
23351 C 63.197291025350225 94.02028624888466 106.10547607146952 C 0.0 **** -0.24
23352 H 62.50166794882769 94.82324540682413 105.85938940032531 H 0.0 **** 0.06
23353 H 63.71997289578138 93.70366876141117 105.20392382980259 H 0.0 **** 0.06
23354 H 62.64466612166569 93.17666639557699 106.5209021177231 H 0.0 **** 0.06
23355 H 63.91966745876152 94.3778716290027 106.83962080420548 H 0.0 **** 0.06
23356 C 106.87996289127292 110.81531145905657 100.70269858063142 C 0.0 **** -0.24
23357 H 106.52216339180606 111.68533003427027 100.1532992425264 H 0.0 **** 0.06
23358 H 106.40807192377966 109.91566254587164 100.30642687170956 H 0.0 **** 0.06
23359 H 106.62774730774814 110.92370931051093 101.75822628757442 H 0.0 **** 0.06
23360 H 107.96170181862854 110.73666761495107 100.59382008856653 H 0.0 **** 0.06
23361 C 98.65156075207915 39.29584137954018 94.94324516786949 C 0.0 **** -0.24
23362 H 99.32596477409155 39.58385708150698 95.7503441046398 H 0.0 **** 0.06
23363 H 97.62127785577601 39.483333921909804 95.24725704076403 H 0.0 **** 0.06
23364 H 98.77929092488247 38.23581921837665 94.72386535107901 H 0.0 **** 0.06
23365 H 98.88032379377572 39.88160794783688 94.05352754778895 H 0.0 **** 0.06
23366 C 15.564100846174512 142.5847156427765 136.28105129548513 C 0.0 **** -0.24
23367 H 15.888128047730476 142.21646997499093 135.3068690536061 H 0.0 **** 0.06
23368 H 15.343437614183614 143.64992272600634 136.21102917470824 H 0.0 **** 0.06
23369 H 16.35620875836659 142.42405612620004 137.0121600743769 H 0.0 **** 0.06
23370 H 14.66847819414852 142.04682401501105 136.59228939440095 H 0.0 **** 0.06
23371 C 80.37943356967673 64.8209671848906 55.16167420939024 C 0.0 **** -0.24
23372 H 79.48079662157318 64.35707986509476 55.56837148648128 H 0.0 **** 0.06
23373 H 80.6623492044331 64.31556844436643 54.238122179502454 H 0.0 **** 0.06
23374 H 81.19020502437428 64.7375775556747 55.885136915436675 H 0.0 **** 0.06
23375 H 80.18331186885109 65.87273522636217 54.95523361349311 H 0.0 **** 0.06
23376 C 53.99214136513564 59.70134861986156 52.94043934286978 C 0.0 **** -0.24
23377 H 53.07855321089724 60.00291504040821 53.45303750021222 H 0.0 **** 0.06
23378 H 54.40843769845998 58.82014161313556 53.42765595294131 H 0.0 **** 0.06
23379 H 54.71597999320704 60.51535933714014 52.98159370765006 H 0.0 **** 0.06
23380 H 53.76558524178873 59.469978161409 51.899423235934876 H 0.0 **** 0.06
23381 C 30.847539310869827 69.44487532668647 31.567120174482483 C 0.0 **** -0.24
23382 H 30.44062190641374 68.99886899938976 32.474195714830984 H 0.0 **** 0.06
23383 H 30.611421044066752 70.50973601810638 31.548970093468498 H 0.0 **** 0.06
23384 H 30.406697284829228 68.96046996811306 30.695780834875606 H 0.0 **** 0.06
23385 H 31.9286584320285 69.31156035351317 31.549857408506014 H 0.0 **** 0.06
23386 C 103.42800996183013 39.50768300350731 124.79222471594397 C 0.0 **** -0.24
23387 H 103.9267789470614 39.83413177433994 125.7049925928263 H 0.0 **** 0.06
23388 H 102.4460790193096 39.97611874067093 124.7281306111185 H 0.0 **** 0.06
23389 H 103.3146475100624 38.423864825176615 124.80747533810359 H 0.0 **** 0.06
23390 H 104.02680690721576 39.799031994581284 123.92825334335157 H 0.0 **** 0.06
23391 C 94.87566158738215 107.81979113490335 82.47071777354839 C 0.0 **** -0.24
23392 H 95.96309830609749 107.78027949098298 82.42872237146024 H 0.0 **** 0.06
23393 H 94.55506661889333 108.85082873211412 82.6221570248585 H 0.0 **** 0.06
23394 H 94.52094610912852 107.2041350032912 83.29760468172013 H 0.0 **** 0.06
23395 H 94.46181225434171 107.443847504137 81.5342266335578 H 0.0 **** 0.06
23396 C 95.3565578663517 57.09428950803755 91.19238468755741 C 0.0 **** -0.24
23397 H 94.55290650232516 56.66305281558317 91.78870159884853 H 0.0 **** 0.06
23398 H 95.22432296093658 58.17485795742638 91.13330628166997 H 0.0 **** 0.06
23399 H 95.33319111024329 56.66963887365358 90.18955356513646 H 0.0 **** 0.06
23400 H 96.31537180574514 56.870664760549204 91.65989862133102 H 0.0 **** 0.06
23401 C 149.66388627034235 30.789200097701496 106.0820436545282 C 0.0 **** -0.24
23402 H 149.90015511104335 31.81778620547655 105.8073707949805 H 0.0 **** 0.06
23403 H 150.4080353966534 30.42335638400442 106.7904425444085 H 0.0 **** 0.06
23404 H 149.6719297128474 30.163723899742223 105.18975598281742 H 0.0 **** 0.06
23405 H 148.67567435043264 30.755013344696806 106.54127994474106 H 0.0 **** 0.06
23406 C 107.8014574714142 82.41709760253278 19.512602925750187 C 0.0 **** -0.24
23407 H 107.56969721104291 81.99897077357181 18.532983293552896 H 0.0 **** 0.06
23408 H 107.26490822633953 81.8608294354168 20.28113992072995 H 0.0 **** 0.06
23409 H 107.49845634717703 83.46345230698415 19.54088033079018 H 0.0 **** 0.06
23410 H 108.87423354713205 82.34502265311866 19.693448717440234 H 0.0 **** 0.06
23411 C 103.15212624477611 63.841422392833294 93.77644731562174 C 0.0 **** -0.24
23412 H 104.20433025416251 63.57917516546735 93.88447776895737 H 0.0 **** 0.06
23413 H 102.97146691227523 64.2066347147898 92.76542622184775 H 0.0 **** 0.06
23414 H 102.89495975734725 64.61907567017755 94.49536959791934 H 0.0 **** 0.06
23415 H 102.53790168965682 62.959878423768544 93.9601696924864 H 0.0 **** 0.06
23416 C 118.29023766174414 46.552986296056275 14.974596814210237 C 0.0 **** -0.24
23417 H 117.95928607852788 47.50164762788792 14.552621470684564 H 0.0 **** 0.06
23418 H 118.84734399186964 45.994254740188595 14.22273841033423 H 0.0 **** 0.06
23419 H 117.42258701587697 45.97338132769728 15.289515716290623 H 0.0 **** 0.06
23420 H 118.9317909766393 46.74238307973607 15.835729625942491 H 0.0 **** 0.06
23421 C 106.59505264970268 98.89370012794808 40.006699067702215 C 0.0 **** -0.24
23422 H 106.86737691431098 99.42667421707242 40.91792385631973 H 0.0 **** 0.06
23423 H 107.41559848029173 98.95399849462314 39.29157310737301 H 0.0 **** 0.06
23424 H 105.70180239920477 99.34723562456281 39.575301240566745 H 0.0 **** 0.06
23425 H 106.3941011221546 97.84912201609728 40.24349965279711 H 0.0 **** 0.06
23426 C 16.71355453938557 62.94143285032857 40.16604248529296 C 0.0 **** -0.24
23427 H 17.74265832481609 63.1446677818289 40.465357557897676 H 0.0 **** 0.06
23428 H 16.340188741394023 62.07779292413656 40.71679157580273 H 0.0 **** 0.06
23429 H 16.68065092461479 62.732910540237754 39.096690213520944 H 0.0 **** 0.06
23430 H 16.094029399972143 63.80997521144536 40.38703391601322 H 0.0 **** 0.06
23431 C 87.39940845710987 127.2513136659951 75.1911799763442 C 0.0 **** -0.24
23432 H 86.5983911052889 126.53691089048846 75.00130012389457 H 0.0 **** 0.06
23433 H 87.59560849805757 127.82644121131696 74.28528682572566 H 0.0 **** 0.06
23434 H 88.30179431663237 126.71562364737741 75.48443484405388 H 0.0 **** 0.06
23435 H 87.1008726166965 127.92652398910332 75.99269593485775 H 0.0 **** 0.06
23436 C 46.6048047626291 39.60339502286058 1.2650194727031874 C 0.0 **** -0.24
23437 H 47.003941812437034 39.72066190361306 0.25823919609982227 H 0.0 **** 0.06
23438 H 45.825580889099484 40.347309004568444 1.4350097000180995 H 0.0 **** 0.06
23439 H 47.405815258429726 39.74410869689041 1.9918856169435628 H 0.0 **** 0.06
23440 H 46.18489273364236 38.604329790161046 1.3759292704022812 H 0.0 **** 0.06
23441 C 24.499014074239966 1.1515264916792773 27.140016667709745 C 0.0 **** -0.24
23442 H 24.270769983494546 0.2618232843310295 27.727183878685622 H 0.0 **** 0.06
23443 H 25.45196134249622 1.013878010711835 26.628703752046647 H 0.0 **** 0.06
23444 H 24.561933628604123 2.0151825076395653 27.800552683897678 H 0.0 **** 0.06
23445 H 23.711097569864563 1.311930562710387 26.40390824456844 H 0.0 **** 0.06
23446 C 83.59451011591429 7.032487342683197 40.11543806173114 C 0.0 **** -0.24
23447 H 83.34437203521367 8.057369578118255 39.83972106985607 H 0.0 **** 0.06
23448 H 84.63635208521083 6.832446973279531 39.86622003373782 H 0.0 **** 0.06
23449 H 82.95064702518107 6.343039725827396 39.57002926015957 H 0.0 **** 0.06
23450 H 83.44482067055648 6.899395130378565 41.18729301893228 H 0.0 **** 0.06
23451 C 118.87458915397882 100.2874041926296 122.04742063592697 C 0.0 **** -0.24
23452 H 119.41456010821604 101.16751001179347 121.69808039679442 H 0.0 **** 0.06
23453 H 119.57800051358483 99.57885671625684 122.4843856279585 H 0.0 **** 0.06
23454 H 118.36141065372566 99.8192456174068 121.20727667881097 H 0.0 **** 0.06
23455 H 118.1432170173935 100.58435119836778 122.79922231463625 H 0.0 **** 0.06
23456 C 64.70337962247751 30.472624731992596 122.24245954719171 C 0.0 **** -0.24
23457 H 65.33507503610424 29.610996222181427 122.02566076561286 H 0.0 **** 0.06
23458 H 63.78694155770431 30.407341554162883 121.6560152945631 H 0.0 **** 0.06
23459 H 65.23640539830521 31.387629879512986 121.98236991117219 H 0.0 **** 0.06
23460 H 64.45729824103506 30.48504415971439 123.30336535202824 H 0.0 **** 0.06
23461 C 76.10602141705607 146.8251980695893 22.853448233520055 C 0.0 **** -0.24
23462 H 77.01843786154066 147.23611852221893 22.41886202250481 H 0.0 **** 0.06
23463 H 76.18576767364468 146.83615652044432 23.940766013160783 H 0.0 **** 0.06
23464 H 75.97051651367644 145.80058521901643 22.5087391219746 H 0.0 **** 0.06
23465 H 75.2533852595482 147.42880833952805 22.545182690673983 H 0.0 **** 0.06
23466 C 29.9710754357678 36.04749999636797 90.5394353855248 C 0.0 **** -0.24
23467 H 29.308176632838496 35.334539857460555 91.02994278603413 H 0.0 **** 0.06
23468 H 29.706899138856926 36.12181297404034 89.48452688205458 H 0.0 **** 0.06
23469 H 31.002602138829616 35.707563667465195 90.63312875297285 H 0.0 **** 0.06
23470 H 29.865760655516198 37.0244682974792 91.01094700922985 H 0.0 **** 0.06
23471 C 29.54475416935591 25.724462895993405 24.12208693429315 C 0.0 **** -0.24
23472 H 29.707831034512544 24.976435547028927 23.346142664672556 H 0.0 **** 0.06
23473 H 30.16700091829295 26.597068656385318 23.92226533679988 H 0.0 **** 0.06
23474 H 29.809014618876155 25.304784759492392 25.092758435161585 H 0.0 **** 0.06
23475 H 28.495170105741984 26.019562621067138 24.12718130053844 H 0.0 **** 0.06
23476 C 9.246919333184508 93.52382196797416 52.42803409884709 C 0.0 **** -0.24
23477 H 8.802360536431678 94.3329768612031 53.00730373547259 H 0.0 **** 0.06
23478 H 9.529998971778326 92.71118782762557 53.09763411679057 H 0.0 **** 0.06
23479 H 10.13089454357194 93.89244584341483 51.908449920044745 H 0.0 **** 0.06
23480 H 8.523311039622826 93.15807610219613 51.69938226804243 H 0.0 **** 0.06
23481 C 127.18006994261607 114.45592944149331 29.98741068238425 C 0.0 **** -0.24
23482 H 126.414638832112 114.0902367555617 29.302189844754196 H 0.0 **** 0.06
23483 H 126.7481030951952 114.58056687516472 30.981172572750665 H 0.0 **** 0.06
23484 H 127.55779038589431 115.41438845428922 29.632716397940186 H 0.0 **** 0.06
23485 H 127.99764473485506 113.73667769688785 30.034642729534397 H 0.0 **** 0.06
23486 C 149.0625034179203 120.31741270305626 78.65115205582504 C 0.0 **** -0.24
23487 H 148.35929471898598 119.59556498432927 78.23648247773548 H 0.0 **** 0.06
23488 H 149.50156001639405 119.91336294679625 79.56418854939596 H 0.0 **** 0.06
23489 H 148.53869578526212 121.24560437767808 78.87999101530514 H 0.0 **** 0.06
23490 H 149.85072372394586 120.51494388251787 77.92532519591089 H 0.0 **** 0.06
23491 C 50.933289317447475 103.29931124615392 13.83088806676696 C 0.0 **** -0.24
23492 H 51.1903701707802 102.62972720747047 13.01007375394353 H 0.0 **** 0.06
23493 H 50.11351668417231 102.86964716640968 14.406650251522912 H 0.0 **** 0.06
23494 H 50.628649974174465 104.26582545727477 13.428831289310885 H 0.0 **** 0.06
23495 H 51.801267272852826 103.4324141988774 14.476794688297787 H 0.0 **** 0.06
23496 C 84.29413497616996 74.84963527885577 89.65082989753995 C 0.0 **** -0.24
23497 H 83.2218766894921 74.72732351532018 89.49907196807277 H 0.0 **** 0.06
23498 H 84.58882893630931 74.35275443255755 90.5755051930784 H 0.0 **** 0.06
23499 H 84.53227744374725 75.91116928672334 89.7171864654303 H 0.0 **** 0.06
23500 H 84.83223749638223 74.40744878082263 88.81266747653696 H 0.0 **** 0.06
23501 C 144.72514137728106 127.05779872301545 123.84758999918877 C 0.0 **** -0.24
23502 H 144.33123982312912 128.07350886813185 123.8153884207564 H 0.0 **** 0.06
23503 H 145.5906107480454 126.9824933944528 123.18881433093499 H 0.0 **** 0.06
23504 H 143.95585837308653 126.35909210489484 123.51943425987635 H 0.0 **** 0.06
23505 H 145.0232272844466 126.81587211421913 124.86762322532026 H 0.0 **** 0.06
23506 C 38.98549002841571 10.191337037691426 38.46250771591416 C 0.0 **** -0.24
23507 H 39.00300587987357 9.37902929743899 37.736241376428836 H 0.0 **** 0.06
23508 H 38.34580343921624 10.994124495831898 38.09437881460045 H 0.0 **** 0.06
23509 H 39.997720351265514 10.570418162883527 38.608315162647024 H 0.0 **** 0.06
23510 H 38.59621159786133 9.822295057463464 39.41144280740936 H 0.0 **** 0.06
23511 C 30.1274525162667 7.517814671246356 29.360749450322714 C 0.0 **** -0.24
23512 H 30.323631127147806 7.886387041552723 30.36770170879089 H 0.0 **** 0.06
23513 H 29.11275996806272 7.786639893823178 29.066069050477324 H 0.0 **** 0.06
23514 H 30.235617150676816 6.433481166844501 29.34303687169131 H 0.0 **** 0.06
23515 H 30.838027600219803 7.965705862998561 28.665999122699304 H 0.0 **** 0.06
23516 C 22.134980833672103 61.374565189242475 26.425626294179054 C 0.0 **** -0.24
23517 H 22.208442317800575 61.64291512966835 27.480049000806986 H 0.0 **** 0.06
23518 H 21.44524588648892 60.53821925055658 26.310958659234416 H 0.0 **** 0.06
23519 H 23.119440169886303 61.088349492696594 26.05429099311398 H 0.0 **** 0.06
23520 H 21.76762749302594 62.22980194824322 25.858327345943337 H 0.0 **** 0.06
23521 C 7.947570734350279 145.4124565601066 40.11647820197162 C 0.0 **** -0.24
23522 H 8.121853888260972 146.28758212308134 39.49121499260832 H 0.0 **** 0.06
23523 H 8.23144679729998 144.51297619257053 39.56986046954512 H 0.0 **** 0.06
23524 H 6.891742389007618 145.35999167780994 40.380520610662785 H 0.0 **** 0.06
23525 H 8.54603953026745 145.49041393770278 41.02457415492002 H 0.0 **** 0.06
23526 C 58.64512890439225 78.37806924905598 144.10942877547637 C 0.0 **** -0.24
23527 H 58.75649614229822 77.74603380136776 143.22785799037814 H 0.0 **** 0.06
23528 H 58.30310882213948 79.36760779398307 143.80523108149987 H 0.0 **** 0.06
23529 H 59.605703284095455 78.4653923984333 144.617468168056 H 0.0 **** 0.06
23530 H 57.91550077211093 77.93286973385901 144.78549212039377 H 0.0 **** 0.06
23531 C 73.752959345931 137.84888756135322 81.76418027290134 C 0.0 **** -0.24
23532 H 73.79537995337911 136.84236125536168 81.34813007511445 H 0.0 **** 0.06
23533 H 74.53901344607553 138.45844876598176 81.31929877612163 H 0.0 **** 0.06
23534 H 73.89524275847559 137.80133041288533 82.84360707262107 H 0.0 **** 0.06
23535 H 72.78147946673016 138.2904432476812 81.54486119514905 H 0.0 **** 0.06
23536 C 111.02997044327697 146.06415183763983 21.178442250058197 C 0.0 **** -0.24
23537 H 110.06512738058439 145.95571402025067 20.68115294145258 H 0.0 **** 0.06
23538 H 110.96137090779212 145.6680469085408 22.191409899170196 H 0.0 **** 0.06
23539 H 111.30073884380852 147.11868490881517 21.216533080060913 H 0.0 **** 0.06
23540 H 111.78869554480372 145.51347191464978 20.622452750151183 H 0.0 **** 0.06
23541 C 137.53598259310473 135.06949917769333 12.32910884902045 C 0.0 **** -0.24
23542 H 136.8073557535194 135.73748883615602 12.788527210731182 H 0.0 **** 0.06
23543 H 137.0275928020572 134.18002205717397 11.954083735750125 H 0.0 **** 0.06
23544 H 138.27943944334368 134.7770972908897 13.07095893439788 H 0.0 **** 0.06
23545 H 138.02909108367805 135.58204966115676 11.502927564765798 H 0.0 **** 0.06
23546 C 24.8077587912964 108.52611887217383 91.83973901892293 C 0.0 **** -0.24
23547 H 25.830546431969466 108.9012461554381 91.83002287433442 H 0.0 **** 0.06
23548 H 24.153315957436703 109.26716355807748 92.30036673189335 H 0.0 **** 0.06
23549 H 24.766981399744296 107.59911616930263 92.41268641569437 H 0.0 **** 0.06
23550 H 24.480389572203165 108.33695733546024 90.81728031507862 H 0.0 **** 0.06
23551 C 67.48769531379651 68.92110304901146 115.27093105464347 C 0.0 **** -0.24
23552 H 66.5500230359554 68.495697024776 114.91330849204978 H 0.0 **** 0.06
23553 H 67.46131875827757 70.00457897314138 115.15791487566848 H 0.0 **** 0.06
23554 H 68.31560155319164 68.51353170383688 114.69036378091867 H 0.0 **** 0.06
23555 H 67.62310082718852 68.66763070430115 116.32292042894026 H 0.0 **** 0.06
23556 C 88.99182474986932 36.378167944670636 117.0301649964744 C 0.0 **** -0.24
23557 H 89.0989162335806 35.79998638509606 117.94842967172873 H 0.0 **** 0.06
23558 H 89.05570312320489 37.4420946520458 117.26216728577704 H 0.0 **** 0.06
23559 H 88.02569807594445 36.16111485536103 116.57545227418383 H 0.0 **** 0.06
23560 H 89.78961270520216 36.10854042903276 116.33689165450532 H 0.0 **** 0.06
23561 C 24.317402684962843 140.32071177785258 123.23804660934188 C 0.0 **** -0.24
23562 H 24.857598124661926 139.64271004793002 122.57711088379953 H 0.0 **** 0.06
23563 H 23.244455575176318 140.16812024872735 123.11588746377286 H 0.0 **** 0.06
23564 H 24.56904432617327 141.350857224205 122.98488392212072 H 0.0 **** 0.06
23565 H 24.597306850061855 140.1213276577388 124.27175114225874 H 0.0 **** 0.06
23566 C 90.10095878439151 87.42309197248218 29.34255686300844 C 0.0 **** -0.24
23567 H 90.42312031622438 87.27945566779314 30.37369411236361 H 0.0 **** 0.06
23568 H 90.73626510988606 88.16997106147612 28.864621671383645 H 0.0 **** 0.06
23569 H 89.06608598265561 87.76379119416536 29.328708530530633 H 0.0 **** 0.06
23570 H 90.18009324944171 86.47962402551096 28.802317602437313 H 0.0 **** 0.06
23571 C 110.7687600264698 46.366486391822605 125.63839521725464 C 0.0 **** -0.24
23572 H 109.93220559506892 45.66774578547792 125.66735659238341 H 0.0 **** 0.06
23573 H 110.52968565483599 47.24215030109683 126.24298573710703 H 0.0 **** 0.06
23574 H 110.94923851890024 46.67442152754664 124.60910618925169 H 0.0 **** 0.06
23575 H 111.6603137449627 45.88251783075981 126.03465499304855 H 0.0 **** 0.06
23576 C 5.63439629007857 117.46101912415106 103.66499827673944 C 0.0 **** -0.24
23577 H 4.584307026647021 117.69191407081915 103.48395250676045 H 0.0 **** 0.06
23578 H 6.180111876642744 117.48666525684736 102.7207894400071 H 0.0 **** 0.06
23579 H 5.7169598552926395 116.468030533467 104.10614267071527 H 0.0 **** 0.06
23580 H 6.055961693005958 118.19880052640035 104.34803100980945 H 0.0 **** 0.06
23581 C 26.5135690498941 75.83342698844834 20.566782922829987 C 0.0 **** -0.24
23582 H 27.409023428722037 75.76415203621495 19.94881533835604 H 0.0 **** 0.06
23583 H 26.7619567833853 76.31139897420472 21.514780721278953 H 0.0 **** 0.06
23584 H 26.123237565239492 74.83303860375946 20.753924306745716 H 0.0 **** 0.06
23585 H 25.760388620962544 76.42629569756967 20.047739165745895 H 0.0 **** 0.06
23586 C 19.17777829032937 137.28684006426053 15.117973303383067 C 0.0 **** -0.24
23587 H 19.421304637830332 137.50755167018391 16.15750676064186 H 0.0 **** 0.06
23588 H 19.847078159742466 137.8443164547921 14.462255936951678 H 0.0 **** 0.06
23589 H 18.146995146474097 137.57697912671412 14.917080595589674 H 0.0 **** 0.06
23590 H 19.295960614863787 136.21909599327486 14.935830533958715 H 0.0 **** 0.06
23591 C 38.23075737977376 55.43140349207465 68.38490596901968 C 0.0 **** -0.24
23592 H 38.228128083307496 55.67017521858068 69.44844893222282 H 0.0 **** 0.06
23593 H 37.74269761890977 56.23458520441872 67.83177006082758 H 0.0 **** 0.06
23594 H 37.69304996316177 54.49776982433545 68.22079509560768 H 0.0 **** 0.06
23595 H 39.25940089240183 55.32500063114077 68.03973433633658 H 0.0 **** 0.06
23596 C 52.03536446090911 145.2577282800432 119.96635112414405 C 0.0 **** -0.24
23597 H 52.39749993919766 146.28484399838499 119.90535322744053 H 0.0 **** 0.06
23598 H 51.11115316700423 145.16470725883968 119.3958793341322 H 0.0 **** 0.06
23599 H 51.846487264289635 145.00130918943793 121.00907983308208 H 0.0 **** 0.06
23600 H 52.786661403572936 144.58311828263206 119.55720971023744 H 0.0 **** 0.06
23601 C 101.50191688470883 15.702113597561436 17.26091607194823 C 0.0 **** -0.24
23602 H 100.55724906561231 15.678716469515109 16.717810407685192 H 0.0 **** 0.06
23603 H 101.32400553973328 15.465757003999443 18.310400053777613 H 0.0 **** 0.06
23604 H 101.94104043457675 16.697276570144425 17.18259178473707 H 0.0 **** 0.06
23605 H 102.18589070301752 14.968545547741314 16.833446497935768 H 0.0 **** 0.06
23606 C 74.63415301498122 91.6208089260982 36.65309285370165 C 0.0 **** -0.24
23607 H 73.74962315505556 92.16088203839348 36.99102546550142 H 0.0 **** 0.06
23608 H 75.3233974841288 91.49561598366311 37.48911517982543 H 0.0 **** 0.06
23609 H 75.12401251830872 92.18657608071078 35.860003506926034 H 0.0 **** 0.06
23610 H 74.33959484988682 90.64285464813507 36.27354922154791 H 0.0 **** 0.06
23611 C 81.59079580809903 114.51926867045758 6.940574538637975 C 0.0 **** -0.24
23612 H 81.01753452808575 113.84975568726479 6.300148653541555 H 0.0 **** 0.06
23613 H 82.6559991641372 114.33563258820458 6.797742090907661 H 0.0 **** 0.06
23614 H 81.32827182612066 114.33797453576948 7.983504128800007 H 0.0 **** 0.06
23615 H 81.36194626493122 115.55327378951985 6.682121849345208 H 0.0 **** 0.06
23616 C 140.21755670529072 118.43035747512421 22.196289686945704 C 0.0 **** -0.24
23617 H 140.63382569822656 118.82388929562167 21.269676894956604 H 0.0 **** 0.06
23618 H 140.30532796299158 117.34421640867892 22.201879808236697 H 0.0 **** 0.06
23619 H 139.16702550958436 118.71075209267822 22.271072967132426 H 0.0 **** 0.06
23620 H 140.76479015290224 118.84434774961186 23.043667477179525 H 0.0 **** 0.06
23621 C 15.945848065306535 71.35867629451154 40.880332068735754 C 0.0 **** -0.24
23622 H 14.983786453367173 71.87275817970256 40.88274406967531 H 0.0 **** 0.06
23623 H 16.456446704244513 71.54193325507222 41.82594478742055 H 0.0 **** 0.06
23624 H 16.555361742411122 71.73307190551225 40.05869867210414 H 0.0 **** 0.06
23625 H 15.783722560930215 70.28801946963732 40.75599878303244 H 0.0 **** 0.06
23626 C 13.336354117153263 87.39279118763162 14.650133663298533 C 0.0 **** -0.24
23627 H 13.778793410146335 88.37008507217772 14.846301102338174 H 0.0 **** 0.06
23628 H 12.348691966532044 87.52311172838796 14.208743261638574 H 0.0 **** 0.06
23629 H 13.246302956200225 86.84061586942833 15.585794768329066 H 0.0 **** 0.06
23630 H 13.973207864475256 86.83790374498824 13.961178863882111 H 0.0 **** 0.06
23631 C 56.24756400689161 128.28876083122134 47.796919539205575 C 0.0 **** -0.24
23632 H 56.15653970598078 129.37501439030817 47.797439602877404 H 0.0 **** 0.06
23633 H 57.12487836555874 127.99768349858743 48.37613888629345 H 0.0 **** 0.06
23634 H 56.352933762502886 127.93316289440554 46.772477853943926 H 0.0 **** 0.06
23635 H 55.35572317888962 127.85020265354905 48.2444372949609 H 0.0 **** 0.06
23636 C 15.119244829406625 4.278622200457448 45.912843684287395 C 0.0 **** -0.24
23637 H 15.49293889109316 4.558264824217133 44.928008052329574 H 0.0 **** 0.06
23638 H 14.04938952192714 4.480692962640717 45.965021394044584 H 0.0 **** 0.06
23639 H 15.636861884790505 4.860784356126203 46.67556205277913 H 0.0 **** 0.06
23640 H 15.297958358500011 3.2169176899561194 46.08166155714571 H 0.0 **** 0.06
23641 C 72.77602300230791 106.44864898479602 117.11195115028885 C 0.0 **** -0.24
23642 H 73.24770125794618 105.99183542185085 116.24192731412823 H 0.0 **** 0.06
23643 H 73.3251095121791 106.17133673318841 118.01117212591119 H 0.0 **** 0.06
23644 H 71.746752795428 106.09911495914315 117.19209031577223 H 0.0 **** 0.06
23645 H 72.78260517340595 107.53288074166 117.00120979644852 H 0.0 **** 0.06
23646 C 17.06207831395625 14.279206716336546 46.12391550601504 C 0.0 **** -0.24
23647 H 17.27676352282066 15.068857110407237 46.843793961830755 H 0.0 **** 0.06
23648 H 16.184046525472695 13.72043783870484 46.44977751530715 H 0.0 **** 0.06
23649 H 17.916515480446208 13.607026259160222 46.05629165534961 H 0.0 **** 0.06
23650 H 16.869012434425144 14.721879075666607 45.14625949973424 H 0.0 **** 0.06
23651 C 90.3570405545542 114.80435384261595 64.65727544981533 C 0.0 **** -0.24
23652 H 89.48486337951525 114.234560633946 64.33746278376108 H 0.0 **** 0.06
23653 H 91.13104350373399 114.74206686737868 63.891065738383816 H 0.0 **** 0.06
23654 H 90.73717017851513 114.39311200228722 65.59205995825249 H 0.0 **** 0.06
23655 H 90.07544042138018 115.84602033339245 64.80624764267353 H 0.0 **** 0.06
23656 C 15.288994100242832 112.53390603238412 114.94623096740644 C 0.0 **** -0.24
23657 H 15.461643769439718 113.4045479952047 114.31320635160667 H 0.0 **** 0.06
23658 H 14.533780601198742 111.89616796940808 114.48686268744608 H 0.0 **** 0.06
23659 H 14.94397208449493 112.86069706495996 115.92656808754391 H 0.0 **** 0.06
23660 H 16.219160666616006 111.97595500699859 115.05558502307117 H 0.0 **** 0.06
23661 C 59.14231992200317 34.73898804394355 27.836654832774038 C 0.0 **** -0.24
23662 H 60.207416545010005 34.955516264449386 27.907887791302677 H 0.0 **** 0.06
23663 H 58.92344794184481 33.81363902292645 28.370487922573957 H 0.0 **** 0.06
23664 H 58.86292022988488 34.629635936562124 26.788909443376923 H 0.0 **** 0.06
23665 H 58.57465838508786 35.5580170500765 28.280087362105377 H 0.0 **** 0.06
23666 C 144.1918225866454 19.986863231124715 94.22441696614713 C 0.0 **** -0.24
23667 H 143.65919470986967 20.832624242020557 94.6572232461193 H 0.0 **** 0.06
23668 H 144.93353231774455 19.62112762213087 94.93530701754965 H 0.0 **** 0.06
23669 H 144.69153779791972 20.30178729723019 93.3083749250359 H 0.0 **** 0.06
23670 H 143.4836246203372 19.1899397011029 93.99589992319129 H 0.0 **** 0.06
23671 C 71.1842925210901 1.1197544028083541 61.308661145518954 C 0.0 **** -0.24
23672 H 70.69616777769741 2.040782394397496 60.98770754920949 H 0.0 **** 0.06
23673 H 72.13173813969908 1.0079570936498214 60.78103470455443 H 0.0 **** 0.06
23674 H 70.53915143998148 0.2701806819102046 61.08313511802699 H 0.0 **** 0.06
23675 H 71.36826880153174 1.161564609858459 62.38209819990577 H 0.0 **** 0.06
23676 C 104.65658417990412 133.5362730603972 94.83185804728501 C 0.0 **** -0.24
23677 H 103.66135070269891 133.64178718577205 94.40081448340226 H 0.0 **** 0.06
23678 H 104.57090088305134 133.19095896215282 95.86235212513843 H 0.0 **** 0.06
23679 H 105.16520875028473 134.5002863356082 94.81262407066791 H 0.0 **** 0.06
23680 H 105.228158536184 132.8113692708998 94.25155229557257 H 0.0 **** 0.06
23681 C 123.14596057118335 77.96405486829775 49.50435834171816 C 0.0 **** -0.24
23682 H 124.02137667575492 78.4239503920654 49.964071594409006 H 0.0 **** 0.06
23683 H 123.20916001367048 76.8808721383219 49.608120018450364 H 0.0 **** 0.06
23684 H 123.1111510466449 78.2277355130145 48.44734684934818 H 0.0 **** 0.06
23685 H 122.24425492703368 78.32555547658453 49.99930960019552 H 0.0 **** 0.06
23686 C 116.49485776491791 121.12346101262018 46.32108294662832 C 0.0 **** -0.24
23687 H 117.35477630123528 121.07098457751557 45.65312574101962 H 0.0 **** 0.06
23688 H 116.04508201954569 122.11400160672206 46.255565151157015 H 0.0 **** 0.06
23689 H 116.81963183774191 120.93771044752008 47.345057569179815 H 0.0 **** 0.06
23690 H 115.76278237713883 120.37057911210691 46.02980655544013 H 0.0 **** 0.06
23691 C 117.79488690547224 10.380996328926415 106.73224200420702 C 0.0 **** -0.24
23692 H 117.83136894279063 9.755077193938149 107.62417406500879 H 0.0 **** 0.06
23693 H 118.76843590813475 10.373205608219394 106.24305687227678 H 0.0 **** 0.06
23694 H 117.53783201751038 11.401623973141568 107.01591696746726 H 0.0 **** 0.06
23695 H 117.04041177115262 9.99396114922314 106.04747524179066 H 0.0 **** 0.06
23696 C 33.71341329629445 140.79393476948295 112.56075534930335 C 0.0 **** -0.24
23697 H 33.811083816336705 141.27759627314148 111.58802848101351 H 0.0 **** 0.06
23698 H 34.108915555824936 139.78023163327597 112.50264879152724 H 0.0 **** 0.06
23699 H 32.66139076993347 140.75878667938977 112.84371771027713 H 0.0 **** 0.06
23700 H 34.271134807592226 141.3608396126194 113.30622104282907 H 0.0 **** 0.06
23701 C 56.686661655566596 7.094213802278517 135.4078857355086 C 0.0 **** -0.24
23702 H 56.225975101390915 6.173875900843541 135.76651579720115 H 0.0 **** 0.06
23703 H 56.21954263163802 7.949096540986972 135.8980120928697 H 0.0 **** 0.06
23704 H 56.54762744423131 7.1732321195646875 134.32932831698676 H 0.0 **** 0.06
23705 H 57.75216455169212 7.081106398100957 135.63775801651204 H 0.0 **** 0.06
23706 C 14.8541918177024 107.74984531843972 107.96328614705253 C 0.0 **** -0.24
23707 H 15.39297725081073 108.07415119571704 108.85405517948588 H 0.0 **** 0.06
23708 H 14.12106681364287 108.50839059526646 107.6872964566741 H 0.0 **** 0.06
23709 H 14.344954665594827 106.80939143945278 108.16958070189709 H 0.0 **** 0.06
23710 H 15.559396815062684 107.61019249131704 107.14356027360007 H 0.0 **** 0.06
23711 C 107.00607469923418 94.27818330147899 6.029953980650646 C 0.0 **** -0.24
23712 H 107.85132145863756 93.64106030192848 5.767434026900645 H 0.0 **** 0.06
23713 H 106.2387101154226 94.1988652525447 5.260387414589303 H 0.0 **** 0.06
23714 H 107.34199016969993 95.31337246644401 6.102402112221256 H 0.0 **** 0.06
23715 H 106.59575461429662 93.96176608671057 6.988378218456518 H 0.0 **** 0.06
23716 C 3.0825596751666353 132.47993159970437 16.652816305648656 C 0.0 **** -0.24
23717 H 3.4634497519929255 133.35904002531564 17.172360913276606 H 0.0 **** 0.06
23718 H 3.3431488210380564 131.583741125094 17.2164681825231 H 0.0 **** 0.06
23719 H 3.5257513795380646 132.42545468240945 15.658140033341539 H 0.0 **** 0.06
23720 H 1.9988281217920019 132.5517294896871 16.564050066759677 H 0.0 **** 0.06
23721 C 148.9832202247205 138.0862435527702 132.5594952671949 C 0.0 **** -0.24
23722 H 150.0324088898696 138.38124676035542 132.572330061972 H 0.0 **** 0.06
23723 H 148.36141322923677 138.94665862841606 132.81077900090233 H 0.0 **** 0.06
23724 H 148.81973454020564 137.29369176245265 133.28908661868383 H 0.0 **** 0.06
23725 H 148.71923451945563 137.7256782767338 131.56495077905737 H 0.0 **** 0.06
23726 C 112.05435328607082 5.796440083407788 54.992325488638414 C 0.0 **** -0.24
23727 H 113.13672538096456 5.669675796955914 54.971979868111674 H 0.0 **** 0.06
23728 H 111.7345850838244 6.335152603830892 54.10092066314681 H 0.0 **** 0.06
23729 H 111.77252454479644 6.362623006008874 55.87984389800101 H 0.0 **** 0.06
23730 H 111.5753196932602 4.8180555351949295 55.01793699963369 H 0.0 **** 0.06
23731 C 69.57907966623127 96.98526857869223 51.27387265749243 C 0.0 **** -0.24
23732 H 68.79537472412454 96.52768272380172 51.8778894157324 H 0.0 **** 0.06
23733 H 69.68380473541191 98.0352724746646 51.548990815613564 H 0.0 **** 0.06
23734 H 69.31551296943464 96.91012926298609 50.21862094153974 H 0.0 **** 0.06
23735 H 70.52253301385068 96.46795037651859 51.45040925707073 H 0.0 **** 0.06
23736 C 145.97806954140492 24.410526058187813 7.240831767941792 C 0.0 **** -0.24
23737 H 146.41533604703494 25.23621547475542 6.679076047074275 H 0.0 **** 0.06
23738 H 145.21754904784626 23.92065577725927 6.6315163928501875 H 0.0 **** 0.06
23739 H 145.52184945394703 24.793337871570245 8.153006521662022 H 0.0 **** 0.06
23740 H 146.7572977620759 23.693036039991483 7.49696438774216 H 0.0 **** 0.06
23741 C 94.05097333238234 98.34843332430151 5.696243086339734 C 0.0 **** -0.24
23742 H 94.2126600623763 99.06948500854033 6.497428675544683 H 0.0 **** 0.06
23743 H 94.83485368075128 97.59063368084736 5.7255660790851834 H 0.0 **** 0.06
23744 H 94.07783111762478 98.8616472851175 4.73496915269655 H 0.0 **** 0.06
23745 H 93.07950659963755 97.87170090162375 5.827113517357276 H 0.0 **** 0.06
23746 C 73.88265708734656 36.095708992670836 11.287363439957915 C 0.0 **** -0.24
23747 H 73.42295913495838 35.52289329722538 12.092590392660696 H 0.0 **** 0.06
23748 H 74.24721683528514 35.41299364235374 10.518558850918708 H 0.0 **** 0.06
23749 H 74.71579633147417 36.67603956467184 11.683037405950358 H 0.0 **** 0.06
23750 H 73.14318798315946 36.76954534116402 10.85385850515766 H 0.0 **** 0.06
23751 C 57.313020521879054 132.1172732847008 127.23101216435379 C 0.0 **** -0.24
23752 H 57.9953741480181 131.39534180762382 126.78136453908593 H 0.0 **** 0.06
23753 H 57.041035032895564 131.7854995307814 128.23290813913317 H 0.0 **** 0.06
23754 H 56.4155514047558 132.1982598233542 126.6175393797663 H 0.0 **** 0.06
23755 H 57.801609822756205 133.09049322763354 127.28968043470046 H 0.0 **** 0.06
23756 C 68.1622099057168 111.99235238901854 62.601065569295784 C 0.0 **** -0.24
23757 H 67.19178515525701 112.387708486743 62.29927610598784 H 0.0 **** 0.06
23758 H 68.83648432419173 111.99292211489855 61.74428660703758 H 0.0 **** 0.06
23759 H 68.04055204201362 110.97313729697926 62.96768995581917 H 0.0 **** 0.06
23760 H 68.57821469736754 112.61634125634644 63.39250123675197 H 0.0 **** 0.06
23761 C 140.47294817138206 115.65351892715255 36.178580124434404 C 0.0 **** -0.24
23762 H 139.74311711796904 114.85473876313621 36.051649751395416 H 0.0 **** 0.06
23763 H 140.38163468547205 116.07239367408978 37.180791320599155 H 0.0 **** 0.06
23764 H 140.28987287495298 116.43435131926778 35.43972714029121 H 0.0 **** 0.06
23765 H 141.47716800713428 115.2525919521165 36.04215228545178 H 0.0 **** 0.06
23766 C 18.106113028276923 135.04239961796264 140.55765370845086 C 0.0 **** -0.24
23767 H 17.25836939542063 135.3552087662735 141.16665504483737 H 0.0 **** 0.06
23768 H 18.22051831342867 133.95935497484265 140.62370142496803 H 0.0 **** 0.06
23769 H 19.013084271401567 135.52680449483339 140.92053191560038 H 0.0 **** 0.06
23770 H 17.931923157837332 135.3263222156561 139.51950422334383 H 0.0 **** 0.06
23771 C 137.0365000329582 28.530925910559944 45.09640174412405 C 0.0 **** -0.24
23772 H 137.3040452722771 29.0336743240154 44.166461908013815 H 0.0 **** 0.06
23773 H 136.9578331183788 29.265749136632337 45.89740599766293 H 0.0 **** 0.06
23774 H 137.80654868575547 27.801407949129995 45.3476408870205 H 0.0 **** 0.06
23775 H 136.08071933669322 28.023137189404245 44.97209039287705 H 0.0 **** 0.06
23776 C 91.4000367553317 3.983655377606169 108.91211561179487 C 0.0 **** -0.24
23777 H 92.1127236381719 3.7491267512679656 108.12144614008768 H 0.0 **** 0.06
23778 H 90.81742045888411 4.8600291317175675 108.62751977333131 H 0.0 **** 0.06
23779 H 91.93896996995836 4.1890701104453 109.83713737855201 H 0.0 **** 0.06
23780 H 90.73163516233814 3.135121318687254 109.06224152285658 H 0.0 **** 0.06
23781 C 1.4706942155717293 10.658673584748016 143.69929348485044 C 0.0 **** -0.24
23782 H 1.847618732890151 10.442275880278487 144.69958368068018 H 0.0 **** 0.06
23783 H 0.5632520807170316 11.257595566523548 143.77510053016138 H 0.0 **** 0.06
23784 H 1.2471899474087387 9.72294336183387 143.18632925922057 H 0.0 **** 0.06
23785 H 2.2251665938019833 11.210052428243813 143.13889161506222 H 0.0 **** 0.06
23786 C 74.03955552527648 59.10441710399583 107.01083460311351 C 0.0 **** -0.24
23787 H 74.9154520546731 59.6918673694572 106.7362678104909 H 0.0 **** 0.06
23788 H 73.82304171245674 58.3857598856262 106.2195785739324 H 0.0 **** 0.06
23789 H 73.18584926940962 59.768029930866945 107.14362421794179 H 0.0 **** 0.06
23790 H 74.23572472667308 58.57352171237713 107.94179119253091 H 0.0 **** 0.06
23791 C 62.11784295005718 48.093509237061795 122.1006612604592 C 0.0 **** -0.24
23792 H 61.12172850133905 48.23199659405665 122.52246072217353 H 0.0 **** 0.06
23793 H 62.85434557838015 48.086058457782144 122.90387532364007 H 0.0 **** 0.06
23794 H 62.33673688379173 48.91107024809534 121.41305747925405 H 0.0 **** 0.06
23795 H 62.15528980325031 47.14732977904421 121.56257801396215 H 0.0 **** 0.06
23796 C 50.16281657022182 121.22977957607709 18.735027541193574 C 0.0 **** -0.24
23797 H 49.477059012184085 122.0760699072206 18.790541357229188 H 0.0 **** 0.06
23798 H 49.98505306339831 120.67937158995831 17.810533782592074 H 0.0 **** 0.06
23799 H 49.99754375264794 120.5725068047506 19.588113026957615 H 0.0 **** 0.06
23800 H 51.189460090763404 121.59414412610069 18.750193270185264 H 0.0 **** 0.06
23801 C 130.11285033991118 43.78736548949168 115.57362601981363 C 0.0 **** -0.24
23802 H 130.25708569371628 44.09275615985554 114.53810483630038 H 0.0 **** 0.06
23803 H 131.01665649751624 44.00227798755547 116.14466942398288 H 0.0 **** 0.06
23804 H 129.90393235078506 42.71812830584531 115.61227332011116 H 0.0 **** 0.06
23805 H 129.27386655574347 44.33605620185428 116.00116570533702 H 0.0 **** 0.06
23806 C 131.99081157636965 97.22553862860923 6.933363904555989 C 0.0 **** -0.24
23807 H 131.26080445771478 97.71582377997277 7.577781919254733 H 0.0 **** 0.06
23808 H 132.59469318113997 97.98105707777643 6.428748766226306 H 0.0 **** 0.06
23809 H 131.47123320282063 96.62061561879995 6.190669534600346 H 0.0 **** 0.06
23810 H 132.63659625621062 96.58684234911595 7.535783762638317 H 0.0 **** 0.06
23811 C 103.53122702045344 110.19072694213472 138.1464613026304 C 0.0 **** -0.24
23812 H 104.4000387130602 110.50779242232713 138.72244322229042 H 0.0 **** 0.06
23813 H 102.68946373675831 110.02780092408372 138.81955800668595 H 0.0 **** 0.06
23814 H 103.76166378341286 109.26427032809315 137.62065095959883 H 0.0 **** 0.06
23815 H 103.27342294175274 110.96386013244128 137.42271092615306 H 0.0 **** 0.06
23816 C 91.4046093714351 46.33380381605183 39.92502496126093 C 0.0 **** -0.24
23817 H 91.08258005721291 45.32449046826041 40.18021342057071 H 0.0 **** 0.06
23818 H 92.48581763753828 46.34694517975771 39.788784510232546 H 0.0 **** 0.06
23819 H 91.13117339632879 47.01567082573665 40.73059286797903 H 0.0 **** 0.06
23820 H 90.91730959321751 46.648632445118025 39.00202639199054 H 0.0 **** 0.06
23821 C 147.72953220687256 13.15072794720706 145.7985238970505 C 0.0 **** -0.24
23822 H 148.61445835619594 12.769971030041575 146.3084811156937 H 0.0 **** 0.06
23823 H 147.23955643903662 12.336573881425608 145.26541663572652 H 0.0 **** 0.06
23824 H 148.02515525088566 13.924495798574668 145.08870639982328 H 0.0 **** 0.06
23825 H 147.0425245098073 13.573733354984341 146.5305869314028 H 0.0 **** 0.06
23826 C 67.042729712891 53.06521393247927 100.91325012660498 C 0.0 **** -0.24
23827 H 67.15727133450906 53.57991099122238 101.86788130361424 H 0.0 **** 0.06
23828 H 67.8775357118347 52.37865341319798 100.76864680543507 H 0.0 **** 0.06
23829 H 67.02924791359715 53.79606769160735 100.10556797658202 H 0.0 **** 0.06
23830 H 66.10759331871981 52.50463178120002 100.91353772805016 H 0.0 **** 0.06
23831 C 150.38179749728232 20.387853879273706 43.78892079940067 C 0.0 **** -0.24
23832 H 150.38745395758184 21.40644015961717 44.1783518177503 H 0.0 **** 0.06
23833 H 150.44291783046774 20.415653598279953 42.70069059029311 H 0.0 **** 0.06
23834 H 149.46077345671145 19.88978459928512 44.089463875873065 H 0.0 **** 0.06
23835 H 151.2373477012981 19.842909006350766 44.188143074772114 H 0.0 **** 0.06
23836 C 90.14477552002525 72.85153367881081 99.83365676960717 C 0.0 **** -0.24
23837 H 90.37056463124235 71.86725841992947 99.42225670933131 H 0.0 **** 0.06
23838 H 89.20335673635876 73.21050000537556 99.41620092622946 H 0.0 **** 0.06
23839 H 90.94475384930271 73.54464546947092 99.57631624268393 H 0.0 **** 0.06
23840 H 90.05886717918366 72.78020297896028 100.91718439421658 H 0.0 **** 0.06
23841 C 29.388057754020053 146.24872521563216 87.88962057961913 C 0.0 **** -0.24
23842 H 29.82234562105731 147.11849343814268 87.39770114089089 H 0.0 **** 0.06
23843 H 28.537127611517917 145.88958952082695 87.31036938460466 H 0.0 **** 0.06
23844 H 29.055082902034485 146.5260010749817 88.8897137370455 H 0.0 **** 0.06
23845 H 30.136546960305054 145.45994960529373 87.96168589571141 H 0.0 **** 0.06
23846 C 68.09391005503726 90.90039972050576 52.05028646307187 C 0.0 **** -0.24
23847 H 67.90418494453056 91.8991891446114 51.65651295981628 H 0.0 **** 0.06
23848 H 67.7252657065981 90.8380303485531 53.07359474861549 H 0.0 **** 0.06
23849 H 69.16542798410141 90.70278151806119 52.03611494576772 H 0.0 **** 0.06
23850 H 67.58084800586131 90.16377249856185 51.431879509878485 H 0.0 **** 0.06
23851 C 145.451792188724 138.4353496867362 147.85673168935506 C 0.0 **** -0.24
23852 H 144.98095167619303 139.3590707761858 148.19369171468395 H 0.0 **** 0.06
23853 H 145.15306559568145 137.6164644024041 148.51045775065415 H 0.0 **** 0.06
23854 H 146.53555330676383 138.54846223796986 147.8869124552866 H 0.0 **** 0.06
23855 H 145.13733841158037 138.21931835922996 146.8353572256023 H 0.0 **** 0.06
23856 C 150.36233615441475 54.0660111639141 29.348534379543082 C 0.0 **** -0.24
23857 H 150.68874300388833 53.34058774694519 28.603239858148356 H 0.0 **** 0.06
23858 H 150.55186152780342 53.67084461404416 30.345956041307602 H 0.0 **** 0.06
23859 H 149.29582258301528 54.25535558308178 29.22786968768827 H 0.0 **** 0.06
23860 H 150.9147729380106 54.996644714018856 29.214041535751903 H 0.0 **** 0.06
23861 C 48.74959948334485 118.05489250228216 98.38087777377439 C 0.0 **** -0.24
23862 H 49.509363390152544 118.61866482585295 97.83882234659532 H 0.0 **** 0.06
23863 H 48.78257016277104 118.32404182294822 99.43698813272069 H 0.0 **** 0.06
23864 H 48.94297187560123 116.9879374042829 98.27091681604763 H 0.0 **** 0.06
23865 H 47.765445690409024 118.28970468859252 97.97552727221277 H 0.0 **** 0.06
23866 C 84.48539654104505 142.20053385706342 44.66739948351501 C 0.0 **** -0.24
23867 H 83.98219991616939 143.14394995706044 44.87620000173915 H 0.0 **** 0.06
23868 H 85.53631748977453 142.27968805971923 44.94783004669462 H 0.0 **** 0.06
23869 H 84.40904039142383 141.97564014611862 43.603186125123145 H 0.0 **** 0.06
23870 H 84.01464700257144 141.40314145869007 45.24114216494519 H 0.0 **** 0.06
23871 C 104.38428879682886 121.09336866652373 52.421431922762125 C 0.0 **** -0.24
23872 H 103.51590701262438 121.18119611627188 53.073161807679796 H 0.0 **** 0.06
23873 H 105.16171761802144 121.77982031108311 52.7565588311554 H 0.0 **** 0.06
23874 H 104.09771017005528 121.33970064806581 51.39977117958202 H 0.0 **** 0.06
23875 H 104.76180319419223 120.07105402617438 52.4565484141758 H 0.0 **** 0.06
23876 C 44.302195031797396 129.91523721056043 33.530514807756475 C 0.0 **** -0.24
23877 H 43.268254359390085 130.12879090443764 33.800873783793804 H 0.0 **** 0.06
23878 H 44.79531612119251 130.83835024016477 33.22291364366944 H 0.0 **** 0.06
23879 H 44.32210730245288 129.2005549876175 32.708854148378805 H 0.0 **** 0.06
23880 H 44.8234496935695 129.4945379041487 34.3919132347248 H 0.0 **** 0.06
23881 C 133.94482347189546 47.50814152451504 11.056527398636376 C 0.0 **** -0.24
23882 H 134.27233560996802 48.10561787816438 11.906664004513658 H 0.0 **** 0.06
23883 H 133.9668167964245 48.118184132738264 10.154018806470248 H 0.0 **** 0.06
23884 H 132.92859787668442 47.15478573585328 11.23163512231298 H 0.0 **** 0.06
23885 H 134.60996626577491 46.653965325301726 10.935376595271435 H 0.0 **** 0.06
23886 C 123.48383871781516 61.924648285543455 96.15641799530053 C 0.0 **** -0.24
23887 H 122.65742408369482 62.59649121820996 95.92448177349961 H 0.0 **** 0.06
23888 H 123.46922554402198 61.68390014465261 97.22028421827464 H 0.0 **** 0.06
23889 H 124.42736498875797 62.40922814288005 95.90616011541417 H 0.0 **** 0.06
23890 H 123.38055522835515 61.008132703016116 95.57556845391622 H 0.0 **** 0.06
23891 C 3.2844086483980455 141.1178320845323 25.18484201730365 C 0.0 **** -0.24
23892 H 2.897345385206396 141.61116441923332 26.076018035507985 H 0.0 **** 0.06
23893 H 4.140077076607881 141.67650359171643 24.803647544341857 H 0.0 **** 0.06
23894 H 2.5055158853679522 141.0815443137599 24.422804769761072 H 0.0 **** 0.06
23895 H 3.595136889257656 140.1037897144087 25.436966047349102 H 0.0 **** 0.06
23896 C 136.31078981955986 75.31986826518522 51.69403109964588 C 0.0 **** -0.24
23897 H 135.74365506021186 76.06506990114981 52.25079777271793 H 0.0 **** 0.06
23898 H 135.71602042601657 74.96655116402223 50.851180039021955 H 0.0 **** 0.06
23899 H 136.54879669230056 74.48127465263228 52.348103687653776 H 0.0 **** 0.06
23900 H 137.2339699733149 75.76713740913509 51.32645773914308 H 0.0 **** 0.06
23901 C 107.96895486712096 37.659368006303424 46.9190270861406 C 0.0 **** -0.24
23902 H 108.16158344588452 38.62896388997487 47.379442742953245 H 0.0 **** 0.06
23903 H 106.95860515824636 37.64584942601684 46.51115067102597 H 0.0 **** 0.06
23904 H 108.06907422268581 36.87551268129559 47.669704395590884 H 0.0 **** 0.06
23905 H 108.68689508312328 37.488619262853106 46.117738034885065 H 0.0 **** 0.06
23906 C 82.53088169448668 135.29095215842463 148.57822097958962 C 0.0 **** -0.24
23907 H 82.64020007864215 135.69462856360522 147.57160817562047 H 0.0 **** 0.06
23908 H 81.47679478602888 135.10653875100536 148.7826541576236 H 0.0 **** 0.06
23909 H 82.92173643292855 136.0079660305113 149.30039005634336 H 0.0 **** 0.06
23910 H 83.08680632817433 134.35610004457462 148.65652071295168 H 0.0 **** 0.06
23911 C 98.53870408568208 42.054404793092715 42.12854753846547 C 0.0 **** -0.24
23912 H 99.40339645660502 42.22482862616272 41.48559856821805 H 0.0 **** 0.06
23913 H 98.87579216074553 41.883469937565735 43.15049732026503 H 0.0 **** 0.06
23914 H 97.99003823884871 41.18277817983733 41.774879280377945 H 0.0 **** 0.06
23915 H 97.8886015820785 42.929149675740064 42.10094996569978 H 0.0 **** 0.06
23916 C 78.5685569311513 145.7745417637323 133.99710234276031 C 0.0 **** -0.24
23917 H 77.9645855115065 146.06277484053751 134.8578065441015 H 0.0 **** 0.06
23918 H 79.01758262396251 146.6634045595022 133.55399136432683 H 0.0 **** 0.06
23919 H 77.93609103876818 145.28037862035652 133.25907917567008 H 0.0 **** 0.06
23920 H 79.35509312100658 145.0912634491444 134.31787026737535 H 0.0 **** 0.06
23921 C 138.58169555215986 52.37381194635914 32.762032831008526 C 0.0 **** -0.24
23922 H 138.46126682025704 53.17371701763683 33.49367846794402 H 0.0 **** 0.06
23923 H 138.76864847677828 52.806895891178854 31.778912076114324 H 0.0 **** 0.06
23924 H 137.67280420194524 51.77367739461931 32.72768909517498 H 0.0 **** 0.06
23925 H 139.4237426577979 51.743758302495465 33.04762089448246 H 0.0 **** 0.06
23926 C 92.20414697744634 129.6134266103348 92.55220044224711 C 0.0 **** -0.24
23927 H 91.60746220475295 128.8813097579006 92.00744205061375 H 0.0 **** 0.06
23928 H 93.16583581700853 129.17335839920597 92.8176718366451 H 0.0 **** 0.06
23929 H 91.67612557870193 129.90768498683664 93.4594489795106 H 0.0 **** 0.06
23930 H 92.3658214643493 130.48931949790764 91.92448516756988 H 0.0 **** 0.06
23931 C 6.343295551718047 3.8186767431834028 113.62675555415662 C 0.0 **** -0.24
23932 H 7.04619866032683 3.080041592343264 114.01264522037043 H 0.0 **** 0.06
23933 H 5.370962351487748 3.6757504225859634 114.0996812884214 H 0.0 **** 0.06
23934 H 6.244191809991314 3.695632130270866 112.54815138009381 H 0.0 **** 0.06
23935 H 6.712159488075827 4.820336548540325 113.84608519649272 H 0.0 **** 0.06
23936 C 130.23416339136583 23.489118554269908 97.84461596261761 C 0.0 **** -0.24
23937 H 129.55185041578818 23.2377110153555 97.03322166859223 H 0.0 **** 0.06
23938 H 130.82914846799667 24.357437528542903 97.56268090247315 H 0.0 **** 0.06
23939 H 130.89463771450315 22.643294905106472 98.03887752211276 H 0.0 **** 0.06
23940 H 129.66152562828182 23.716979564992585 98.74448144718215 H 0.0 **** 0.06
23941 C 99.25374085812834 29.04865042831804 108.74889018019266 C 0.0 **** -0.24
23942 H 99.88310056967052 28.29903439577609 108.2695253606901 H 0.0 **** 0.06
23943 H 99.67562146568162 29.311139813662123 109.7189528338574 H 0.0 **** 0.06
23944 H 98.25034221981572 28.645055708614535 108.88526820501099 H 0.0 **** 0.06
23945 H 99.20534140140957 29.9384253746 108.11986666697678 H 0.0 **** 0.06
23946 C 89.68631387671303 13.567456672978807 100.66265733514737 C 0.0 **** -0.24
23947 H 88.9382990567943 13.274369247199871 101.40038569374417 H 0.0 **** 0.06
23948 H 90.0751862319182 14.554568683346133 100.91402893169129 H 0.0 **** 0.06
23949 H 89.22840681327162 13.597429239985445 99.67445734826123 H 0.0 **** 0.06
23950 H 90.50079473585785 12.844507566179828 100.66463905515343 H 0.0 **** 0.06
23951 C 11.338577501904041 87.23840022356907 87.15963469336268 C 0.0 **** -0.24
23952 H 10.99489940041326 86.24624517667854 87.45165728969778 H 0.0 **** 0.06
23953 H 12.366109304616806 87.37937530448032 87.49529659804926 H 0.0 **** 0.06
23954 H 10.6993253575993 87.9938806622744 87.61814809805287 H 0.0 **** 0.06
23955 H 11.292847726250585 87.3339877285547 86.0750844283557 H 0.0 **** 0.06
23956 C 132.91210967931863 24.180823693103832 43.01910354573984 C 0.0 **** -0.24
23957 H 133.1742205127089 24.356285559751882 44.0631229794441 H 0.0 **** 0.06
23958 H 132.75775367665932 23.113456928201572 42.857948549928025 H 0.0 **** 0.06
23959 H 133.71956296162531 24.532800270082305 42.37814401626821 H 0.0 **** 0.06
23960 H 131.99652195734825 24.721348731665444 42.78028087539299 H 0.0 **** 0.06
23961 C 52.53674182988806 22.021414802821702 25.05139906768875 C 0.0 **** -0.24
23962 H 52.151261491905615 21.666137562441854 26.006433847940002 H 0.0 **** 0.06
23963 H 51.87269198798592 22.789228469975015 24.65506909849529 H 0.0 **** 0.06
23964 H 52.58991391278832 21.188611244571156 24.349430061977102 H 0.0 **** 0.06
23965 H 53.532739104028636 22.440352190375485 25.194344418847777 H 0.0 **** 0.06
23966 C 71.03879592197478 102.65224970944587 99.44625975637845 C 0.0 **** -0.24
23967 H 72.12236374422821 102.76131639063249 99.40726364667253 H 0.0 **** 0.06
23968 H 70.6243486559859 102.78811391895026 98.44685248288356 H 0.0 **** 0.06
23969 H 70.62089380541289 103.4018488807006 100.11841777033142 H 0.0 **** 0.06
23970 H 70.7873797371658 101.65666085145352 99.81158865358273 H 0.0 **** 0.06
23971 C 143.1981366017974 33.21585517415832 41.475354005464226 C 0.0 **** -0.24
23972 H 142.13147325504366 33.433882609077585 41.53544440267535 H 0.0 **** 0.06
23973 H 143.43614867930634 32.840110234830945 40.48005330305517 H 0.0 **** 0.06
23974 H 143.45756621858544 32.46362950185042 42.219672660987044 H 0.0 **** 0.06
23975 H 143.76549315133434 34.12702856238829 41.66633595315932 H 0.0 **** 0.06
23976 C 88.56711194628778 69.16839455537502 0.043841818172097646 C 0.0 **** -0.24
23977 H 87.5693627901488 69.44941001825751 -0.29259301741569743 H 0.0 **** 0.06
23978 H 89.12943573453552 68.75302024633639 -0.7928616241461555 H 0.0 **** 0.06
23979 H 88.48778959818416 68.42180438239849 0.8344672586333672 H 0.0 **** 0.06
23980 H 89.08267978334636 70.04937114351068 0.4275064865904028 H 0.0 **** 0.06
23981 C 118.59841285274895 96.31711097052262 66.21823908202502 C 0.0 **** -0.24
23982 H 119.31989547147784 97.02857034179078 66.62135434874612 H 0.0 **** 0.06
23983 H 118.57570848551647 96.39834498394366 65.13116684087598 H 0.0 **** 0.06
23984 H 117.60957914680363 96.53557249644253 66.62096843649509 H 0.0 **** 0.06
23985 H 118.89059031207312 95.30571268336799 66.5015734038063 H 0.0 **** 0.06
23986 C 98.91477610022241 75.80721043870028 56.02744443405629 C 0.0 **** -0.24
23987 H 99.74307215606541 76.47766515301038 55.797649712333424 H 0.0 **** 0.06
23988 H 98.30962358164265 75.65666469184706 55.1333550105833 H 0.0 **** 0.06
23989 H 98.29926720191553 76.24597914245899 56.81288654599567 H 0.0 **** 0.06
23990 H 99.30714146126601 74.84853276748471 56.36588646731295 H 0.0 **** 0.06
23991 C 104.17803995917262 21.130819123991905 101.4662661033508 C 0.0 **** -0.24
23992 H 103.72806299656258 20.410310375713678 100.78240471132018 H 0.0 **** 0.06
23993 H 103.40005629305938 21.771502620984315 101.88223074093295 H 0.0 **** 0.06
23994 H 104.90114326464465 21.741542887018873 100.92558173867384 H 0.0 **** 0.06
23995 H 104.68226165690675 20.59905477199181 102.27288597699167 H 0.0 **** 0.06
23996 C 88.08424901900084 53.34916358584644 102.20961828297307 C 0.0 **** -0.24
23997 H 87.23784282103824 53.81766555582112 102.71320341664793 H 0.0 **** 0.06
23998 H 88.35948936397916 53.94066036464427 101.3371764519751 H 0.0 **** 0.06
23999 H 87.80784792390554 52.34274746747499 101.89506539536194 H 0.0 **** 0.06
24000 H 88.92924197095786 53.2965570380114 102.89556209741461 H 0.0 **** 0.06
24001 C 56.69512100656969 38.38737326596464 79.1329411359794 C 0.0 **** -0.24
24002 H 55.787048372377384 38.395606100171165 78.53025067833508 H 0.0 **** 0.06
24003 H 56.49728080041265 38.86034990568436 80.09431972840807 H 0.0 **** 0.06
24004 H 57.48118042524179 38.935846048292376 78.6127452830045 H 0.0 **** 0.06
24005 H 57.015314455170525 37.357600238263274 79.29307910403296 H 0.0 **** 0.06
24006 C 38.16847156207257 102.68480920997023 18.885118627073837 C 0.0 **** -0.24
24007 H 38.84555617231348 102.42592176007199 19.70015682432671 H 0.0 **** 0.06
24008 H 38.53335432655848 102.24503594316276 17.957482660167216 H 0.0 **** 0.06
24009 H 38.12311778790814 103.76909496663883 18.781697504087276 H 0.0 **** 0.06
24010 H 37.172572191799475 102.29863911885468 19.104769778893342 H 0.0 **** 0.06
24011 C 95.19690249041315 32.427530300194405 52.38904880648472 C 0.0 **** -0.24
24012 H 96.27556266315852 32.512500725317636 52.262156349309606 H 0.0 **** 0.06
24013 H 94.70243089984851 32.63344231599143 51.43888269959703 H 0.0 **** 0.06
24014 H 94.86136438695755 33.14628411360832 53.136908174668605 H 0.0 **** 0.06
24015 H 94.94787099935567 31.418664733206754 52.71712508481643 H 0.0 **** 0.06
24016 C 78.55077742708066 52.71060732114172 119.17449319567369 C 0.0 **** -0.24
24017 H 79.14249111635132 53.04137649586448 120.0281477818044 H 0.0 **** 0.06
24018 H 77.9418785468189 51.85420697876957 119.46562052408048 H 0.0 **** 0.06
24019 H 79.21488166576437 52.424940849741304 118.36000400899921 H 0.0 **** 0.06
24020 H 77.9021081018963 53.523346573982266 118.84616480173987 H 0.0 **** 0.06
24021 C 43.86988721893286 69.80981310628927 6.676124311469131 C 0.0 **** -0.24
24022 H 44.514470538991034 69.71795079966033 5.801592341284511 H 0.0 **** 0.06
24023 H 43.74886135745689 70.8643762005452 6.928112373339658 H 0.0 **** 0.06
24024 H 44.323155478423075 69.2849582643104 7.516760228411428 H 0.0 **** 0.06
24025 H 42.89605620688978 69.37412727714698 6.45742720376861 H 0.0 **** 0.06
24026 C 120.86146233700946 63.08224055185454 134.10327448924505 C 0.0 **** -0.24
24027 H 121.58819385247538 62.88782033802667 134.891255785233 H 0.0 **** 0.06
24028 H 121.37226857531503 63.127912340696724 133.14143065569618 H 0.0 **** 0.06
24029 H 120.36295830562712 64.03269647470668 134.2949350526152 H 0.0 **** 0.06
24030 H 120.12275446020628 62.281364087562594 134.08502563702513 H 0.0 **** 0.06
24031 C 17.071160865197072 37.9012038009634 48.96622323468938 C 0.0 **** -0.24
24032 H 16.72997649842486 37.02631653497133 48.41287074229079 H 0.0 **** 0.06
24033 H 17.714171757963157 38.507081195435774 48.328226338453916 H 0.0 **** 0.06
24034 H 17.630952970714787 37.578137575789185 49.84513254398459 H 0.0 **** 0.06
24035 H 16.210023209339056 38.49069712748701 49.281132815288586 H 0.0 **** 0.06
24036 C 79.83945912332672 68.02059273535411 139.92922064091405 C 0.0 **** -0.24
24037 H 79.05614615454974 67.28450999481566 140.11380537949404 H 0.0 **** 0.06
24038 H 80.09184052567838 68.5235275463063 140.8630994937559 H 0.0 **** 0.06
24039 H 79.48394267238007 68.75425128176818 139.20576043341097 H 0.0 **** 0.06
24040 H 80.72230390667829 67.51907421375887 139.53425393098857 H 0.0 **** 0.06
24041 C 56.646509490617234 58.543941844563975 123.19809519935704 C 0.0 **** -0.24
24042 H 57.15360797602115 58.12369176371432 124.06656596778093 H 0.0 **** 0.06
24043 H 56.72520360162325 57.849879369053355 122.36082700392056 H 0.0 **** 0.06
24044 H 57.11338950740803 59.492035732078236 122.92988345562891 H 0.0 **** 0.06
24045 H 55.596184557901296 58.70988794726961 123.43574804986584 H 0.0 **** 0.06
24046 C 81.42524429137076 65.78706515011993 135.88924426022933 C 0.0 **** -0.24
24047 H 82.24727761744185 66.19784357639395 135.3039590818647 H 0.0 **** 0.06
24048 H 80.92572334351418 65.00565197786784 135.31506935406327 H 0.0 **** 0.06
24049 H 80.71281574777893 66.5779466116283 136.12184807154958 H 0.0 **** 0.06
24050 H 81.8151456260832 65.36458320509678 136.8161614610069 H 0.0 **** 0.06
24051 C 26.624746330844516 32.258806182025495 108.00001788657504 C 0.0 **** -0.24
24052 H 26.478724853397978 31.29685165285305 107.5094022842248 H 0.0 **** 0.06
24053 H 27.661656686184813 32.34567457052944 108.32596314807212 H 0.0 **** 0.06
24054 H 25.964448092042744 32.33010960066615 108.86398057113634 H 0.0 **** 0.06
24055 H 26.395172612788826 33.062312624974176 107.29978234899643 H 0.0 **** 0.06
24056 C 64.73576852538817 4.527640952881683 109.0137969231492 C 0.0 **** -0.24
24057 H 65.07352237057938 3.866570167430865 109.81160468294998 H 0.0 **** 0.06
24058 H 65.51974708392186 4.61722676604623 108.26059206806774 H 0.0 **** 0.06
24059 H 64.51446254274776 5.511749232826446 109.42785497208546 H 0.0 **** 0.06
24060 H 63.837207761017254 4.115717513534008 108.55615070708429 H 0.0 **** 0.06
24061 C 8.849171943818135 80.7879808355912 82.13421097308462 C 0.0 **** -0.24
24062 H 9.649231817786045 80.04936476026043 82.07404438986975 H 0.0 **** 0.06
24063 H 7.947647670674343 80.31479882374536 82.52301329014358 H 0.0 **** 0.06
24064 H 8.650918531332792 81.19006315928812 81.14074287211295 H 0.0 **** 0.06
24065 H 9.152053481524376 81.59625201746749 82.80042338873047 H 0.0 **** 0.06
24066 C 97.07637761955311 20.50303326487549 2.4502882980913014 C 0.0 **** -0.24
24067 H 96.02558530505691 20.560979163870947 2.1663107099183954 H 0.0 **** 0.06
24068 H 97.36090438424783 21.41228699464039 2.9795818362288102 H 0.0 **** 0.06
24069 H 97.68886748736348 20.396006013868124 1.5549677875802672 H 0.0 **** 0.06
24070 H 97.2294161763753 19.640594550730256 3.09972665598254 H 0.0 **** 0.06
24071 C 10.491365986207683 50.490174351312874 31.631874764265604 C 0.0 **** -0.24
24072 H 10.22594634208636 50.49636141318433 30.574828120721463 H 0.0 **** 0.06
24073 H 9.585115106753193 50.56320883676403 32.23356638912827 H 0.0 **** 0.06
24074 H 11.140732773411031 51.33805777323539 31.848138341379524 H 0.0 **** 0.06
24075 H 11.012103979386126 49.563090510843836 31.869369902344772 H 0.0 **** 0.06
24076 C 58.6221877402138 6.519524100811509 42.620845236501566 C 0.0 **** -0.24
24077 H 59.58416419693674 6.394156963602768 43.11708392347322 H 0.0 **** 0.06
24078 H 58.78287709891282 6.86902432458885 41.59998967324901 H 0.0 **** 0.06
24079 H 58.024589877204505 7.250894790045834 43.16560409862035 H 0.0 **** 0.06
24080 H 58.09713807488788 5.564647168503711 42.599435652140926 H 0.0 **** 0.06
24081 C 1.7375180130194963 146.36914901225958 109.64048205981624 C 0.0 **** -0.24
24082 H 1.2017752499819494 145.43426006537794 109.80941662257328 H 0.0 **** 0.06
24083 H 2.5004161605534705 146.4945989312859 110.40980011684019 H 0.0 **** 0.06
24084 H 1.0357097410894198 147.2019484778761 109.6845692539548 H 0.0 **** 0.06
24085 H 2.210607788936727 146.34461099260687 108.65922398813927 H 0.0 **** 0.06
24086 C 53.88359450140072 31.023854801928024 139.8593281934906 C 0.0 **** -0.24
24087 H 54.350821549731535 31.769587469133057 140.50385532357873 H 0.0 **** 0.06
24088 H 53.54434610784489 31.500903075223306 138.9392646111222 H 0.0 **** 0.06
24089 H 53.03202231220749 30.581039233786612 140.37418020926847 H 0.0 **** 0.06
24090 H 54.608419970914014 30.245724168800933 139.6196716741672 H 0.0 **** 0.06
24091 C 34.7092604770811 107.88644474711376 144.68451813216774 C 0.0 **** -0.24
24092 H 34.50628372046867 107.58048071761644 143.65883451309594 H 0.0 **** 0.06
24093 H 33.79563549380384 108.27401117467494 145.13565796681576 H 0.0 **** 0.06
24094 H 35.47342352900654 108.66440584291851 144.68648951298417 H 0.0 **** 0.06
24095 H 35.06281994921346 107.02873955356463 145.25655132730486 H 0.0 **** 0.06
24096 C 17.07638459897575 82.14570701806332 125.8364833087738 C 0.0 **** -0.24
24097 H 17.730298855034334 81.57498370227978 125.17554488361311 H 0.0 **** 0.06
24098 H 17.106332061005503 81.71432747291448 126.83777466244211 H 0.0 **** 0.06
24099 H 16.056414880836627 82.11080211119372 125.45520537561242 H 0.0 **** 0.06
24100 H 17.41554939880197 83.18093002687885 125.87619541487348 H 0.0 **** 0.06
24101 C 136.93198821271199 32.27625664563399 33.09871196391856 C 0.0 **** -0.24
24102 H 137.97446716712227 31.990902516206866 33.23902278264475 H 0.0 **** 0.06
24103 H 136.880239876916 33.16198648201472 32.46525931109193 H 0.0 **** 0.06
24104 H 136.48108852484984 32.49432281325344 34.066598881814315 H 0.0 **** 0.06
24105 H 136.39181609125626 31.457669602086767 32.62200151469307 H 0.0 **** 0.06
24106 C 76.45512807435232 10.67462575313246 73.25835286284018 C 0.0 **** -0.24
24107 H 76.24323745318104 11.369920824750835 72.44646519235681 H 0.0 **** 0.06
24108 H 76.85801625332272 9.748190519231628 72.84802569086776 H 0.0 **** 0.06
24109 H 75.53593898573611 10.461287841596544 73.80399270751855 H 0.0 **** 0.06
24110 H 77.18497501933533 11.11948641206007 73.93638161973678 H 0.0 **** 0.06
24111 C 62.69726860622393 107.92071459088329 60.19519991009601 C 0.0 **** -0.24
24112 H 62.18843325939258 107.91891250366369 59.23083024232753 H 0.0 **** 0.06
24113 H 63.7747849559305 107.95544393018638 60.03728588538554 H 0.0 **** 0.06
24114 H 62.439148671098735 107.01481855754143 60.743199855665466 H 0.0 **** 0.06
24115 H 62.384955745590446 108.79403611996746 60.76813941979884 H 0.0 **** 0.06
24116 C 142.82575235283625 33.40819762474136 100.05489197125661 C 0.0 **** -0.24
24117 H 142.26929396136396 33.52813620622581 99.12601833473504 H 0.0 **** 0.06
24118 H 143.22306985762458 32.39409633077122 100.11172418505159 H 0.0 **** 0.06
24119 H 142.16306891766126 33.587144306976015 100.90115978079766 H 0.0 **** 0.06
24120 H 143.64882912371422 34.123105619700254 100.0800854474633 H 0.0 **** 0.06
24121 C 11.099812918496255 132.12892893722145 95.6369113449355 C 0.0 **** -0.24
24122 H 10.307469417527138 131.8274953353643 96.32211499821824 H 0.0 **** 0.06
24123 H 10.817258232401535 133.0578079995965 95.1414156103499 H 0.0 **** 0.06
24124 H 11.251424746781595 131.34984315722824 94.89035883150297 H 0.0 **** 0.06
24125 H 12.023500901851875 132.28105146011143 96.19590218303324 H 0.0 **** 0.06
24126 C 33.51769409522038 52.75385329238256 55.06419498811519 C 0.0 **** -0.24
24127 H 32.52326843180953 52.91885045882259 54.648948031962036 H 0.0 **** 0.06
24128 H 34.23880592077248 52.65666920977955 54.253112104834855 H 0.0 **** 0.06
24129 H 33.515297224399504 51.841857428987595 55.65993505780715 H 0.0 **** 0.06
24130 H 33.792422287568044 53.599947518558196 55.695402185170636 H 0.0 **** 0.06
24131 C 88.88267995729436 1.5047740729819097 75.44636331980647 C 0.0 **** -0.24
24132 H 88.47032135585857 0.617365957233762 75.92633696125228 H 0.0 **** 0.06
24133 H 88.79470334109271 1.4063069837367976 74.3642478720527 H 0.0 **** 0.06
24134 H 89.9322958331683 1.6099822246404543 75.71873292045585 H 0.0 **** 0.06
24135 H 88.33092501704067 2.385003700426495 75.77805566949522 H 0.0 **** 0.06
24136 C 25.926422878389502 78.40954318929553 108.74389476368314 C 0.0 **** -0.24
24137 H 25.996059559036013 78.07624695949258 109.77982085917607 H 0.0 **** 0.06
24138 H 26.92492656635656 78.6370442854105 108.36812596725035 H 0.0 **** 0.06
24139 H 25.305381784823084 79.30340475987421 108.69067902500403 H 0.0 **** 0.06
24140 H 25.481479590615066 77.62102007521042 108.1380224948545 H 0.0 **** 0.06
24141 C 110.44470035553746 115.1435863147994 66.19721298789173 C 0.0 **** -0.24
24142 H 110.5572641607647 115.39758073723904 67.25108238048315 H 0.0 **** 0.06
24143 H 109.65212362724287 115.74951640192818 65.75948898796455 H 0.0 **** 0.06
24144 H 110.1892210806169 114.0874352644097 66.10445077872606 H 0.0 **** 0.06
24145 H 111.3818225806242 115.33754665741644 65.67492875241791 H 0.0 **** 0.06
24146 C 147.7742405296609 113.1130063781373 75.15865846107752 C 0.0 **** -0.24
24147 H 147.26505996646048 112.39189201387597 75.7979578484721 H 0.0 **** 0.06
24148 H 147.63503689207306 112.83358603325848 74.11357800563192 H 0.0 **** 0.06
24149 H 148.83805328668825 113.12093341217803 75.39429384439445 H 0.0 **** 0.06
24150 H 147.35723021376714 114.1061450428632 75.32701073955121 H 0.0 **** 0.06
24151 C 91.26931340935894 110.84939479188766 107.56493053042604 C 0.0 **** -0.24
24152 H 90.62529168815851 110.94678353610227 108.4388006187759 H 0.0 **** 0.06
24153 H 90.80406158801044 110.17713228580094 106.84347548796936 H 0.0 **** 0.06
24154 H 92.2347165336539 110.44510342969674 107.86902554745879 H 0.0 **** 0.06
24155 H 91.41367973298132 111.82914694735886 107.10906039608378 H 0.0 **** 0.06
24156 C 65.95981155611139 78.46456953621559 59.85022842475476 C 0.0 **** -0.24
24157 H 66.3735196766493 77.7209387110419 59.169931263067895 H 0.0 **** 0.06
24158 H 64.96309926789445 78.15453963845933 60.16523094144878 H 0.0 **** 0.06
24159 H 65.89814373927277 79.42667150609158 59.342390521675156 H 0.0 **** 0.06
24160 H 66.60499236965086 78.55614437638907 60.72422171136586 H 0.0 **** 0.06
24161 C 60.3373468100238 149.8611528837291 61.17740538063859 C 0.0 **** -0.24
24162 H 60.59562128719756 150.89721969583348 60.960944533202024 H 0.0 **** 0.06
24163 H 60.542155136286794 149.64701619778958 62.22658054714506 H 0.0 **** 0.06
24164 H 60.93106077507878 149.19899821712937 60.54782823685284 H 0.0 **** 0.06
24165 H 59.278387249037735 149.7008787979917 60.9745400206788 H 0.0 **** 0.06
24166 C 52.70133601327336 9.933088222538217 101.29122495644764 C 0.0 **** -0.24
24167 H 51.63623969084057 9.710805667396812 101.3533358129071 H 0.0 **** 0.06
24168 H 53.024943519039056 10.42495973268516 102.20910137622768 H 0.0 **** 0.06
24169 H 52.887322492022406 10.590059696055015 100.44176454842471 H 0.0 **** 0.06
24170 H 53.2586461029959 9.004877191373808 101.16078620141954 H 0.0 **** 0.06
24171 C 17.959662869067927 54.09948219463145 112.87091402401954 C 0.0 **** -0.24
24172 H 18.937888960504438 53.6254650614604 112.78807098533888 H 0.0 **** 0.06
24173 H 17.958751654284242 54.78485095750733 113.71862053033864 H 0.0 **** 0.06
24174 H 17.197401471409023 53.3339531970329 113.02053838372738 H 0.0 **** 0.06
24175 H 17.746024598959764 54.65121062649996 111.95643994289712 H 0.0 **** 0.06
24176 C 71.23244724525708 125.45202551235423 44.96579487671302 C 0.0 **** -0.24
24177 H 70.28665229366337 124.93724144205919 44.79699395447584 H 0.0 **** 0.06
24178 H 71.51751473680166 125.99367702143076 44.063895408604694 H 0.0 **** 0.06
24179 H 72.00429635929973 124.72344363223579 45.21184128880262 H 0.0 **** 0.06
24180 H 71.11998340210796 126.15517328244127 45.79151856519492 H 0.0 **** 0.06
24181 C 118.87741647273127 8.764658802128224 83.27834511949027 C 0.0 **** -0.24
24182 H 117.86699346820153 8.74994914146415 82.86956954834068 H 0.0 **** 0.06
24183 H 118.83590934014252 8.991539484371756 84.34368018363966 H 0.0 **** 0.06
24184 H 119.46450695423955 9.527248246658871 82.76699438419939 H 0.0 **** 0.06
24185 H 119.34270926137988 7.789925022569371 83.13224529787897 H 0.0 **** 0.06
24186 C 15.618498091811432 45.715878737851924 117.62033820992606 C 0.0 **** -0.24
24187 H 15.1388585430376 45.02950717575709 118.31820959398898 H 0.0 **** 0.06
24188 H 14.858441270029004 46.20196718186111 117.0091188417703 H 0.0 **** 0.06
24189 H 16.301563860338206 45.16021669416111 116.97816586629357 H 0.0 **** 0.06
24190 H 16.17507605933673 46.469470772009245 118.17819529237188 H 0.0 **** 0.06
24191 C 59.182256211787745 142.98688976254022 40.62896167734314 C 0.0 **** -0.24
24192 H 59.50874478341851 144.00207410780132 40.85582829436845 H 0.0 **** 0.06
24193 H 58.71795687675572 142.54874485523203 41.51283252532053 H 0.0 **** 0.06
24194 H 60.04280432163131 142.38587249963368 40.33530766292719 H 0.0 **** 0.06
24195 H 58.460627460256376 143.01077688820595 39.81275164771088 H 0.0 **** 0.06
24196 C 69.67678358382624 62.45059341598514 87.92444703912695 C 0.0 **** -0.24
24197 H 70.49075975003493 61.96047911202058 87.38924306472676 H 0.0 **** 0.06
24198 H 70.08554733545672 63.215605486816 88.58430399131676 H 0.0 **** 0.06
24199 H 69.13456710760323 61.712182666039936 88.51597081657977 H 0.0 **** 0.06
24200 H 68.99701778517361 62.912566275918465 87.20850289437193 H 0.0 **** 0.06
24201 C 2.4334182059169507 10.160030892999515 24.48507410217138 C 0.0 **** -0.24
24202 H 3.274859519917186 9.798755087779654 23.89444920855412 H 0.0 **** 0.06
24203 H 1.637054901689936 10.49257874151354 23.818668123611076 H 0.0 **** 0.06
24204 H 2.757069926448594 10.993689124608323 25.107900710290295 H 0.0 **** 0.06
24205 H 2.06332633740422 9.354738966897543 25.119396099459465 H 0.0 **** 0.06
24206 C 72.93505369905704 76.19039069160047 75.84460844079264 C 0.0 **** -0.24
24207 H 72.39125496556692 77.12534770726563 75.98189945382319 H 0.0 **** 0.06
24208 H 73.9979044352106 76.4016685823382 75.72351971156249 H 0.0 **** 0.06
24209 H 72.5620247604456 75.67933601378459 74.95683706018862 H 0.0 **** 0.06
24210 H 72.78848574752205 75.5546511040844 76.71827286530905 H 0.0 **** 0.06
24211 C 59.59861982931443 28.462652185430542 143.67019928570932 C 0.0 **** -0.24
24212 H 60.24780348157037 28.766300302990942 144.4915493302774 H 0.0 **** 0.06
24213 H 58.87983796307992 27.72507124791956 144.02754992999024 H 0.0 **** 0.06
24214 H 60.20195972299558 28.02551491426876 142.874491130483 H 0.0 **** 0.06
24215 H 59.06657896182958 29.33343799479043 143.28704386719454 H 0.0 **** 0.06
24216 C 123.9422963955338 44.19676884467616 135.26962952819107 C 0.0 **** -0.24
24217 H 124.26949180855136 44.06906475761227 134.23782658811595 H 0.0 **** 0.06
24218 H 123.06153547196446 43.581610766217054 135.4497382805174 H 0.0 **** 0.06
24219 H 123.69705858003256 45.244409026727 135.44534510380157 H 0.0 **** 0.06
24220 H 124.74292245776688 43.89230873739898 135.9440029032345 H 0.0 **** 0.06
24221 C 103.9821576062247 100.3262672409681 98.38739280252437 C 0.0 **** -0.24
24222 H 104.08689565549888 101.04274905747086 97.57233804934955 H 0.0 **** 0.06
24223 H 103.99505232058367 99.31295211398204 97.98449987983062 H 0.0 **** 0.06
24224 H 103.03783077369563 100.49950740489338 98.904216941709 H 0.0 **** 0.06
24225 H 104.8071673423017 100.44954599614854 99.08826278286622 H 0.0 **** 0.06
24226 C 125.77563204779723 41.3970806286887 133.00592150885214 C 0.0 **** -0.24
24227 H 125.71934820937726 41.812373000856084 132.00014776370975 H 0.0 **** 0.06
24228 H 125.90653917478996 40.31575858616908 132.9452624592603 H 0.0 **** 0.06
24229 H 124.85556247355943 41.623116811924575 133.54547792806287 H 0.0 **** 0.06
24230 H 126.6231309279936 41.83637370899956 133.53334237404542 H 0.0 **** 0.06
24231 C 39.49468343592085 42.678582721373246 0.4451550345391766 C 0.0 **** -0.24
24232 H 40.299333041311655 42.1416980026393 -0.056975710860246664 H 0.0 **** 0.06
24233 H 38.747873049141816 42.98181770827094 -0.2897839664675921 H 0.0 **** 0.06
24234 H 39.90047326593509 43.562465886736234 0.9366798313780613 H 0.0 **** 0.06
24235 H 39.03207558339156 42.02959175625472 1.187321531325118 H 0.0 **** 0.06
24236 C 144.21279091036556 88.20602931420869 54.265824265881164 C 0.0 **** -0.24
24237 H 143.56969151024336 88.98134510161161 53.84914443341809 H 0.0 **** 0.06
24238 H 144.56826172095373 88.51854013613695 55.24779879701249 H 0.0 **** 0.06
24239 H 145.06464989151263 88.0475655953913 53.6042420540313 H 0.0 **** 0.06
24240 H 143.6490298494096 87.27834122253672 54.35988129248386 H 0.0 **** 0.06
24241 C 102.21724985463585 96.4867143376258 47.68897390397916 C 0.0 **** -0.24
24242 H 102.59099212479806 95.87321031231853 48.508916597188815 H 0.0 **** 0.06
24243 H 101.84511552859665 97.4322859810835 48.083374456200815 H 0.0 **** 0.06
24244 H 101.40924493112244 95.96064512689904 47.18129518119713 H 0.0 **** 0.06
24245 H 103.02559213372389 96.67944746111738 46.98308849292238 H 0.0 **** 0.06
24246 C 22.04300070536695 16.256840612864238 91.27844941206672 C 0.0 **** -0.24
24247 H 22.21567508350725 16.33257457787485 90.20438170071415 H 0.0 **** 0.06
24248 H 22.364544936652607 15.27521308560155 91.62871537686152 H 0.0 **** 0.06
24249 H 20.980652339877707 16.38768114173518 91.48484998724496 H 0.0 **** 0.06
24250 H 22.612307848287827 17.03071207640776 91.7933569952065 H 0.0 **** 0.06
24251 C 19.01903714804849 100.3655614657736 30.42253039597057 C 0.0 **** -0.24
24252 H 18.167513934912726 100.88233543090902 29.980973679156136 H 0.0 **** 0.06
24253 H 19.94175683837397 100.74765270907605 29.985164233312673 H 0.0 **** 0.06
24254 H 18.938445157547143 99.29690776017274 30.22555922196824 H 0.0 **** 0.06
24255 H 19.02982963718324 100.53687259396486 31.49927898809557 H 0.0 **** 0.06
24256 C 133.05598255880346 121.71383921291827 1.2373795178362137 C 0.0 **** -0.24
24257 H 133.43098599977827 121.91961229036319 2.239757854596764 H 0.0 **** 0.06
24258 H 132.49864811817395 120.77616070254355 1.24302591057344 H 0.0 **** 0.06
24259 H 133.8940327009931 121.63466715027404 0.5452110322808963 H 0.0 **** 0.06
24260 H 132.39943034838518 122.52478266066872 0.9220599914016923 H 0.0 **** 0.06
24261 C 32.85674632901606 15.547273716484483 34.92667418372099 C 0.0 **** -0.24
24262 H 32.347314392247654 15.250370039230518 34.00944093945259 H 0.0 **** 0.06
24263 H 33.55752009705196 14.76595797619808 35.22134235880179 H 0.0 **** 0.06
24264 H 32.12225005217101 15.694202594010733 35.71880272377848 H 0.0 **** 0.06
24265 H 33.39861060376944 16.47656782412338 34.755577738676095 H 0.0 **** 0.06
24266 C 13.599420049341632 49.44967512754657 116.4748155617147 C 0.0 **** -0.24
24267 H 12.66805104323818 48.88369095188466 116.4620419379878 H 0.0 **** 0.06
24268 H 13.420062825321367 50.43193640161982 116.91359946281261 H 0.0 **** 0.06
24269 H 13.966583014794871 49.568644649322465 115.45556138152813 H 0.0 **** 0.06
24270 H 14.340505592919776 48.91503987196786 117.06927906459191 H 0.0 **** 0.06
24271 C 18.638640943742246 131.69752779567443 57.92565152099877 C 0.0 **** -0.24
24272 H 17.642712679496526 131.3836426412612 58.238537271769985 H 0.0 **** 0.06
24273 H 19.137580325023805 130.86987700842036 57.41886927027002 H 0.0 **** 0.06
24274 H 19.2189240993319 131.99008706608785 58.800622382615074 H 0.0 **** 0.06
24275 H 18.555833949050566 132.54323656720214 57.24486663162028 H 0.0 **** 0.06
24276 C 27.466639737364986 145.25345745465805 57.17715785058138 C 0.0 **** -0.24
24277 H 27.122916351328115 144.26264134937873 57.47297221169137 H 0.0 **** 0.06
24278 H 27.595536069037664 145.87343397218936 58.064223986013005 H 0.0 **** 0.06
24279 H 26.72973093448769 145.71178726962128 56.51716716723885 H 0.0 **** 0.06
24280 H 28.418705819869444 145.16555118032718 56.65295733937191 H 0.0 **** 0.06
24281 C 102.17537865868786 62.4391211437446 141.79835420652543 C 0.0 **** -0.24
24282 H 102.43200542532162 62.97995860147104 140.88804107825683 H 0.0 **** 0.06
24283 H 101.0912865014987 62.33740355638764 141.8666205224812 H 0.0 **** 0.06
24284 H 102.5452815863897 62.98810613480346 142.6634182102189 H 0.0 **** 0.06
24285 H 102.63156516239536 61.44961725727957 141.77306769921722 H 0.0 **** 0.06
24286 C 126.09572445735714 16.024184582369507 2.80825112645843 C 0.0 **** -0.24
24287 H 125.39842052317374 16.619130928650122 2.2176551690819224 H 0.0 **** 0.06
24288 H 125.53996771767078 15.406135225683876 3.5128828709762843 H 0.0 **** 0.06
24289 H 126.76520085833366 16.688106995101563 3.355405466541953 H 0.0 **** 0.06
24290 H 126.67936848569636 15.386116976998608 2.145503947916694 H 0.0 **** 0.06
24291 C 60.92831829541093 30.006731309193754 120.75124828261734 C 0.0 **** -0.24
24292 H 60.92923977446419 30.516713501159472 121.71469823272001 H 0.0 **** 0.06
24293 H 61.361292961743516 29.012953044188833 120.86574799690841 H 0.0 **** 0.06
24294 H 61.518888173788625 30.58045663616494 120.03697105878943 H 0.0 **** 0.06
24295 H 59.904506947688176 29.91783007447131 120.388293232453 H 0.0 **** 0.06
24296 C 53.79394672696765 141.06661018016 106.9653271437749 C 0.0 **** -0.24
24297 H 54.05512092685001 141.5482926781241 106.02257769389412 H 0.0 **** 0.06
24298 H 54.68545681041178 140.61259322060405 107.40009365884661 H 0.0 **** 0.06
24299 H 53.04495480599647 140.29601068857264 106.7847891031734 H 0.0 **** 0.06
24300 H 53.392480880597475 141.81055381317907 107.65369517216313 H 0.0 **** 0.06
24301 C 51.914901520904536 2.3631806887139497 60.04970507914149 C 0.0 **** -0.24
24302 H 51.93400090717947 3.447880135562894 59.9480253028304 H 0.0 **** 0.06
24303 H 51.59461634236578 2.0990971957615407 61.058214298155065 H 0.0 **** 0.06
24304 H 52.91241082522049 1.9641583693436004 59.86888246548109 H 0.0 **** 0.06
24305 H 51.21737102994139 1.9426665875297644 59.32553619168594 H 0.0 **** 0.06
24306 C 132.59313618547614 23.97058955181197 68.01832584627505 C 0.0 **** -0.24
24307 H 132.5639071501387 23.685440987674482 66.96704975701456 H 0.0 **** 0.06
24308 H 133.28511150196624 24.803225232006596 68.1498534747017 H 0.0 **** 0.06
24309 H 132.9290931524404 23.121285761314965 68.61430866333316 H 0.0 **** 0.06
24310 H 131.59695012790064 24.27079646938475 68.34182174199819 H 0.0 **** 0.06
24311 C 62.90658077166785 142.7079125391719 33.61178797024084 C 0.0 **** -0.24
24312 H 63.59164357848266 142.40887288074208 32.81872510905072 H 0.0 **** 0.06
24313 H 61.90040574607252 142.36339394690935 33.37330267550985 H 0.0 **** 0.06
24314 H 62.9073008006464 143.79516731525405 33.7011584946425 H 0.0 **** 0.06
24315 H 63.22881546142065 142.2667561796215 34.555039451864985 H 0.0 **** 0.06
24316 C 98.1690052434785 137.32635116179773 54.404714599328614 C 0.0 **** -0.24
24317 H 99.00646961438841 137.04451859186716 53.76602583668573 H 0.0 **** 0.06
24318 H 98.28668593354436 136.8608489563313 55.38389817809832 H 0.0 **** 0.06
24319 H 97.23643670868145 136.98998148277826 53.951563572328894 H 0.0 **** 0.06
24320 H 98.14724868470805 138.41036597503665 54.51785181690738 H 0.0 **** 0.06
24321 C 11.908292481622908 146.68154076920297 62.39431637543464 C 0.0 **** -0.24
24322 H 12.353596732521765 147.57288892600766 62.836687357021106 H 0.0 **** 0.06
24323 H 12.698012367084146 146.0346266951754 62.011397073344256 H 0.0 **** 0.06
24324 H 11.248273223439014 146.97259868114824 61.577135639478115 H 0.0 **** 0.06
24325 H 11.334607179543099 146.14778359647357 63.15154613781169 H 0.0 **** 0.06
24326 C 4.470300864629166 60.82955981462871 123.60223255415355 C 0.0 **** -0.24
24327 H 4.747233255380252 61.706589174277326 124.18643149499707 H 0.0 **** 0.06
24328 H 4.35709506379618 59.97185323669707 124.26579369049927 H 0.0 **** 0.06
24329 H 5.249428294088204 60.62139817103714 122.86795146690554 H 0.0 **** 0.06
24330 H 3.5281181608276597 61.01838500990333 123.08801249388995 H 0.0 **** 0.06
24331 C 21.789531252380613 36.55510452841884 143.49890679802263 C 0.0 **** -0.24
24332 H 22.605653484727668 36.18574349433277 144.11994738823915 H 0.0 **** 0.06
24333 H 21.927286577006868 36.2075933291641 142.47511584631872 H 0.0 **** 0.06
24334 H 21.78592697282633 37.6447543486438 143.5157515295627 H 0.0 **** 0.06
24335 H 20.841919584435715 36.181480894004125 143.88590804103438 H 0.0 **** 0.06
24336 C 101.15263626516213 4.648983952957117 84.93476049279985 C 0.0 **** -0.24
24337 H 101.69062276562693 3.7568517845623646 85.25587918692537 H 0.0 **** 0.06
24338 H 101.18331492352814 5.396936411963001 85.72598888016506 H 0.0 **** 0.06
24339 H 100.11599742445281 4.388992578933735 84.71974213143648 H 0.0 **** 0.06
24340 H 101.61982306900035 5.050422061760486 84.03500027413332 H 0.0 **** 0.06
24341 C 141.85242882923916 90.15131683045746 51.902190536868545 C 0.0 **** -0.24
24342 H 142.85214045836108 89.72202564120957 51.97930262508714 H 0.0 **** 0.06
24343 H 141.18292874899703 89.63934476036903 52.59312520259499 H 0.0 **** 0.06
24344 H 141.48430094796834 90.03125592455038 50.883221582345584 H 0.0 **** 0.06
24345 H 141.89299201986137 91.21074968118799 52.15155789124009 H 0.0 **** 0.06
24346 C 4.033210358827262 83.40968524315207 124.01577015668308 C 0.0 **** -0.24
24347 H 4.362779951594746 82.81295074825994 123.16513197460306 H 0.0 **** 0.06
24348 H 3.042784058205825 83.07847575898614 124.33039304251814 H 0.0 **** 0.06
24349 H 3.9906503103629802 84.4599518497127 123.7272252172033 H 0.0 **** 0.06
24350 H 4.73570410155321 83.2880483237343 124.83950703128896 H 0.0 **** 0.06
24351 C 91.62971288808288 98.67211671513185 19.410706273090028 C 0.0 **** -0.24
24352 H 92.47146965587865 98.9120976417706 20.05953918440119 H 0.0 **** 0.06
24353 H 91.01895524388237 97.90063392709244 19.87876060925214 H 0.0 **** 0.06
24354 H 92.0018373024063 98.30917362967496 18.45231113355777 H 0.0 **** 0.06
24355 H 91.02724422439715 99.56633332775314 19.251493720969222 H 0.0 **** 0.06
24356 C 1.9674217857522365 50.40490951679254 126.01652271441642 C 0.0 **** -0.24
24357 H 0.9150101793039198 50.68463575256857 125.99448952481458 H 0.0 **** 0.06
24358 H 2.373642395558562 50.59716747814912 127.01055905619313 H 0.0 **** 0.06
24359 H 2.5157319575874055 50.99364486407359 125.28037112053083 H 0.0 **** 0.06
24360 H 2.067238454074925 49.34545238129664 125.78148297704985 H 0.0 **** 0.06
24361 C 21.215348643874265 16.97328455314681 95.50617887685553 C 0.0 **** -0.24
24362 H 21.84528882928832 17.835946229586625 95.2869102868026 H 0.0 **** 0.06
24363 H 21.286723267600536 16.255099089204634 94.68894891543471 H 0.0 **** 0.06
24364 H 20.180968923745404 17.298322358116764 95.61518566837788 H 0.0 **** 0.06
24365 H 21.548753898121156 16.505893388708046 96.43249680500958 H 0.0 **** 0.06
24366 C 13.411835508066616 122.49024305810151 0.8208960631555868 C 0.0 **** -0.24
24367 H 13.535966566906438 123.12718967089471 -0.054504960375886924 H 0.0 **** 0.06
24368 H 13.349431779653372 123.1101308481265 1.7151646904128945 H 0.0 **** 0.06
24369 H 14.264255889439994 121.81628879799474 0.9035375561564329 H 0.0 **** 0.06
24370 H 12.495843340349666 121.90800798750077 0.7179097785787789 H 0.0 **** 0.06
24371 C 17.936107707067848 75.4795158555429 112.9592070491495 C 0.0 **** -0.24
24372 H 16.860273321256862 75.49788809515007 112.78226820654824 H 0.0 **** 0.06
24373 H 18.384927042298976 76.38957282578149 112.560425129188 H 0.0 **** 0.06
24374 H 18.37022279044063 74.61174617315845 112.46325409521619 H 0.0 **** 0.06
24375 H 18.12689612559015 75.41959166025403 114.03090960573446 H 0.0 **** 0.06
24376 C 129.5068288456923 46.9144049746846 102.48691855402488 C 0.0 **** -0.24
24377 H 129.4324099206045 46.874517093215786 103.57384784352423 H 0.0 **** 0.06
24378 H 128.96666270756705 47.78609200327821 102.11699996285772 H 0.0 **** 0.06
24379 H 129.07303508271096 46.00982409564273 102.05961313369997 H 0.0 **** 0.06
24380 H 130.5554044686178 46.98621059510657 102.19712100469776 H 0.0 **** 0.06
24381 C 42.99349195382938 61.743944329791816 116.01470489599762 C 0.0 **** -0.24
24382 H 42.04255212938058 62.119951422021174 116.3945399495517 H 0.0 **** 0.06
24383 H 43.78302465982249 62.45998365348082 116.24023368385235 H 0.0 **** 0.06
24384 H 42.92414667811725 61.60662867260713 114.93603669246846 H 0.0 **** 0.06
24385 H 43.221376092044565 60.78942438704412 116.48886306946446 H 0.0 **** 0.06
24386 C 117.21078665906829 72.12278243251953 80.72133284144931 C 0.0 **** -0.24
24387 H 118.09787664126331 71.84205011457964 80.15424097529026 H 0.0 **** 0.06
24388 H 116.37730607006115 72.28170567750432 80.03635617644565 H 0.0 **** 0.06
24389 H 117.40837519237893 73.0422193385546 81.27251977438927 H 0.0 **** 0.06
24390 H 116.95999658009724 71.32567074709748 81.421461254044 H 0.0 **** 0.06
24391 C 113.26013913130593 78.09644313900469 43.40924611884091 C 0.0 **** -0.24
24392 H 113.99647639090479 77.98438484988195 42.614200322848774 H 0.0 **** 0.06
24393 H 112.26777263775325 77.8634348047059 43.02057991618149 H 0.0 **** 0.06
24394 H 113.27478122239394 79.12289380623153 43.77622586593317 H 0.0 **** 0.06
24395 H 113.50011306746104 77.41500695550253 44.225992563561135 H 0.0 **** 0.06
24396 C 61.33298452305645 105.4675486824626 123.43246624819699 C 0.0 **** -0.24
24397 H 61.087657395130364 105.29878264015814 122.38411082524476 H 0.0 **** 0.06
24398 H 61.64332986375672 104.52834232890625 123.88844279807381 H 0.0 **** 0.06
24399 H 60.45540326492433 105.8530001984886 123.95214477664751 H 0.0 **** 0.06
24400 H 62.143734637688155 106.19277299837127 123.50332126683861 H 0.0 **** 0.06
24401 C 10.905667847731337 68.78020487084608 78.32177766233103 C 0.0 **** -0.24
24402 H 10.369776027814595 69.34886622130882 77.56230371134586 H 0.0 **** 0.06
24403 H 10.658261204175716 67.7222633254221 78.22634613642148 H 0.0 **** 0.06
24404 H 10.616265581639823 69.13450561616035 79.31142043369654 H 0.0 **** 0.06
24405 H 11.978875339791415 68.91645327641822 78.18667565450262 H 0.0 **** 0.06
24406 C 131.86744528729773 109.33647007013793 101.9437120092822 C 0.0 **** -0.24
24407 H 132.38322882850625 108.37577312444289 101.93944196138116 H 0.0 **** 0.06
24408 H 131.34496859529966 109.47230447469094 100.99522494410061 H 0.0 **** 0.06
24409 H 132.59324912989987 110.13877670713093 102.07618586926586 H 0.0 **** 0.06
24410 H 131.1472884031854 109.3580095967374 102.76137366215318 H 0.0 **** 0.06
24411 C 23.49477549211221 73.86167053709147 10.442211010019236 C 0.0 **** -0.24
24412 H 24.403856514252965 74.13684488184686 10.977457008086532 H 0.0 **** 0.06
24413 H 23.552096600571673 72.81476124438927 10.143293417112034 H 0.0 **** 0.06
24414 H 23.391372862116867 74.48780036517348 9.556074557047424 H 0.0 **** 0.06
24415 H 22.63177599150717 74.00727565695621 11.092019057831067 H 0.0 **** 0.06
24416 C 130.77959721839122 124.68751872918291 44.279647604194224 C 0.0 **** -0.24
24417 H 129.7432634060348 125.02281255929587 44.3282252221004 H 0.0 **** 0.06
24418 H 131.40302381917996 125.49266190748045 43.88913989939118 H 0.0 **** 0.06
24419 H 130.85004773350542 123.82058895085113 43.62341903593682 H 0.0 **** 0.06
24420 H 131.12004022570227 124.41671072704575 45.279437129351834 H 0.0 **** 0.06
24421 C 108.99273034007399 8.496242986967864 109.71145544691565 C 0.0 **** -0.24
24422 H 108.92683527150615 9.583466763819565 109.76215864579468 H 0.0 **** 0.06
24423 H 108.58328463082358 8.065216937408486 110.62486621240659 H 0.0 **** 0.06
24424 H 110.03655509935896 8.201332639547147 109.60530822906462 H 0.0 **** 0.06
24425 H 108.42531582100139 8.137662865370565 108.85276252395174 H 0.0 **** 0.06
24426 C 16.59227801028277 81.19096319912894 72.0179129516543 C 0.0 **** -0.24
24427 H 15.760097080823527 81.09729235354986 72.71688521248166 H 0.0 **** 0.06
24428 H 16.556636915867074 80.37048643754535 71.30041373767796 H 0.0 **** 0.06
24429 H 17.533778912039594 81.15378964573293 72.56656920945198 H 0.0 **** 0.06
24430 H 16.516580286739696 82.1408797788111 71.48918068228153 H 0.0 **** 0.06
24431 C 126.21646845620111 70.6692754140482 77.97240327232171 C 0.0 **** -0.24
24432 H 125.74070784867328 69.69339930369762 78.07634650644516 H 0.0 **** 0.06
24433 H 125.87664784957114 71.1422134453125 77.05085399608632 H 0.0 **** 0.06
24434 H 127.29892489195859 70.5445115933212 77.94028559814959 H 0.0 **** 0.06
24435 H 125.94822881486024 71.29526773766207 78.8232296796738 H 0.0 **** 0.06
24436 C 139.78307022514102 2.389114198729942 1.1060221250304778 C 0.0 **** -0.24
24437 H 139.82131583500527 1.402313055574325 1.568163106668731 H 0.0 **** 0.06
24438 H 140.3275733772695 3.100842459823525 1.726261328900332 H 0.0 **** 0.06
24439 H 138.74418231556191 2.7069824120533212 1.014511382804212 H 0.0 **** 0.06
24440 H 140.23838640075397 2.344902144929563 0.11697362490610175 H 0.0 **** 0.06
24441 C 88.91489228629914 19.60964350272397 91.16672800047655 C 0.0 **** -0.24
24442 H 88.0542104497135 19.122721352579987 90.7080003179669 H 0.0 **** 0.06
24443 H 89.23447925083738 20.44475634450842 90.54191901817428 H 0.0 **** 0.06
24444 H 89.73014581682587 18.893473464998465 91.26146755695645 H 0.0 **** 0.06
24445 H 88.63878448434812 19.980035313517163 92.15434984017236 H 0.0 **** 0.06
24446 C 53.70720437615849 121.42547920473828 133.31635110994114 C 0.0 **** -0.24
24447 H 53.16682298434206 122.22456879926199 133.82477346355694 H 0.0 **** 0.06
24448 H 53.07679150882201 120.53786533960835 133.26420973504995 H 0.0 **** 0.06
24449 H 54.617399227399744 121.19418315106077 133.86807376481028 H 0.0 **** 0.06
24450 H 53.96570718568016 121.74820116605889 132.30725876605214 H 0.0 **** 0.06
24451 C 19.930004631954517 112.52468439908199 102.9355503832714 C 0.0 **** -0.24
24452 H 20.168401450212002 112.922939371344 103.92189333858305 H 0.0 **** 0.06
24453 H 20.147704261067275 113.27662759739468 102.17715947036166 H 0.0 **** 0.06
24454 H 18.87278147366567 112.26305250971399 102.89534565415029 H 0.0 **** 0.06
24455 H 20.53174895932139 111.63534610441758 102.74795334222861 H 0.0 **** 0.06
24456 C 37.22230866981624 136.0530578858598 52.577557131120756 C 0.0 **** -0.24
24457 H 37.57539065167984 135.58759425794872 51.657414639663074 H 0.0 **** 0.06
24458 H 37.92062081497548 135.83461694802273 53.3861560601587 H 0.0 **** 0.06
24459 H 36.23813773025947 135.65758896547982 52.82966900065961 H 0.0 **** 0.06
24460 H 37.155559226071745 137.1329705627532 52.43629249304189 H 0.0 **** 0.06
24461 C 44.784212426005496 68.75697536308432 101.42971205247949 C 0.0 **** -0.24
24462 H 44.90576478635049 69.00230437994045 102.48459790782577 H 0.0 **** 0.06
24463 H 45.522770749366686 68.00631141313052 101.14373859625975 H 0.0 **** 0.06
24464 H 44.92790321508775 69.65530166469712 100.82848968648896 H 0.0 **** 0.06
24465 H 43.78200154309613 68.36370475169042 101.26018020858879 H 0.0 **** 0.06
24466 C 141.80750243251737 126.34600794840362 138.8455814575108 C 0.0 **** -0.24
24467 H 140.9384073457985 125.73258086743752 139.08642473846 H 0.0 **** 0.06
24468 H 142.3614831942584 125.88509513485228 138.0285318055264 H 0.0 **** 0.06
24469 H 142.44934584414054 126.4255653250394 139.72206481980996 H 0.0 **** 0.06
24470 H 141.4766962949945 127.34098558593362 138.54588773863264 H 0.0 **** 0.06
24471 C 82.35473549860987 25.037972248015656 61.17368597427962 C 0.0 **** -0.24
24472 H 82.30034866194224 25.41960975738595 62.19327872129506 H 0.0 **** 0.06
24473 H 81.37800591992865 25.131558074125472 60.69892233934185 H 0.0 **** 0.06
24474 H 82.6501453837772 23.989213713836584 61.19437417497649 H 0.0 **** 0.06
24475 H 83.09047290838691 25.612007299875167 60.61034796787909 H 0.0 **** 0.06
24476 C 91.56085662898602 62.49284051547288 101.32560971806997 C 0.0 **** -0.24
24477 H 90.78870526529236 63.119946983134966 101.77204141307674 H 0.0 **** 0.06
24478 H 91.5679389858007 61.519435883936524 101.81780257671173 H 0.0 **** 0.06
24479 H 92.5329176032955 62.97001763404707 101.44991957943625 H 0.0 **** 0.06
24480 H 91.35253448228633 62.361803135219645 100.26446575200967 H 0.0 **** 0.06
24481 C 72.98848456119302 85.01475907892217 130.02173928760703 C 0.0 **** -0.24
24482 H 73.52154621818642 84.45352458131481 130.78875530337302 H 0.0 **** 0.06
24483 H 72.86072878945177 86.04653307551905 130.34902106589638 H 0.0 **** 0.06
24484 H 72.01147072852467 84.56190575655643 129.85406904628934 H 0.0 **** 0.06
24485 H 73.56206060282693 84.99558503840387 129.094567028867 H 0.0 **** 0.06
24486 C 17.44902308380744 76.49194506125811 15.684951930434181 C 0.0 **** -0.24
24487 H 16.830285933095652 76.7609591448962 14.828173494847874 H 0.0 **** 0.06
24488 H 18.338187359973347 75.96420253307085 15.338896694865298 H 0.0 **** 0.06
24489 H 16.880666584601016 75.84673679044121 16.354897198715605 H 0.0 **** 0.06
24490 H 17.745029187427527 77.39680889999148 16.215732774609904 H 0.0 **** 0.06
24491 C 46.42839273196 52.01440792344874 54.196219763223496 C 0.0 **** -0.24
24492 H 45.461885775139024 51.635776930255346 53.86499729376865 H 0.0 **** 0.06
24493 H 46.2940617242848 52.61655533770994 55.09575921072209 H 0.0 **** 0.06
24494 H 46.867184783850135 52.627939680617146 53.40962089021822 H 0.0 **** 0.06
24495 H 47.09095312096156 51.17657410261398 54.415559085698916 H 0.0 **** 0.06
24496 C 14.766519945610327 81.70056378608656 99.50851749293118 C 0.0 **** -0.24
24497 H 15.356163022615533 81.94126676121196 100.39236734205761 H 0.0 **** 0.06
24498 H 14.156662807376023 82.56084308163415 99.23245899842487 H 0.0 **** 0.06
24499 H 14.118932209373526 80.8503206429874 99.72427947300737 H 0.0 **** 0.06
24500 H 15.434284733347255 81.44819788451402 98.68437057046654 H 0.0 **** 0.06
24501 C 32.18996436989582 139.65618417582422 136.1636842333235 C 0.0 **** -0.24
24502 H 31.475986071287025 138.8380361435889 136.0686301829063 H 0.0 **** 0.06
24503 H 33.05608088176126 139.45708681641526 135.53177209549335 H 0.0 **** 0.06
24504 H 32.508594900864765 139.7416461033709 137.2018799158829 H 0.0 **** 0.06
24505 H 31.718090897146723 140.5870993924114 135.84980406918004 H 0.0 **** 0.06
24506 C 8.521172440920708 30.858651043440176 54.363783465299576 C 0.0 **** -0.24
24507 H 8.746996262785899 31.131962064900847 53.332903655661596 H 0.0 **** 0.06
24508 H 9.255619478722934 31.31215222703773 55.02979227052178 H 0.0 **** 0.06
24509 H 8.55568389636889 29.774098018889163 54.467485845505394 H 0.0 **** 0.06
24510 H 7.524202369265623 31.216594137824842 54.62453616981112 H 0.0 **** 0.06
24511 C 31.224997055918237 49.92069014938397 116.25117741014077 C 0.0 **** -0.24
24512 H 30.15266590606609 50.12051954235497 116.23992262600228 H 0.0 **** 0.06
24513 H 31.476743631998147 49.24860805885592 115.43099340844452 H 0.0 **** 0.06
24514 H 31.49787051872366 49.45709593103527 117.1986877916367 H 0.0 **** 0.06
24515 H 31.76958241298732 50.85764065052294 116.13521610868702 H 0.0 **** 0.06
24516 C 141.88068615174402 15.818450428672662 112.42798727306678 C 0.0 **** -0.24
24517 H 140.79933228950134 15.872960129321001 112.55546675049322 H 0.0 **** 0.06
24518 H 142.11216240612015 15.586963603790025 111.38736911607236 H 0.0 **** 0.06
24519 H 142.28349880932737 15.037306044296457 113.07242414678024 H 0.0 **** 0.06
24520 H 142.3274200378679 16.77628745774959 112.69534388706933 H 0.0 **** 0.06
24521 C 137.31158885077315 105.01829040681498 100.11657192283131 C 0.0 **** -0.24
24522 H 137.1261994140764 105.51793467981993 99.1656676975457 H 0.0 **** 0.06
24523 H 138.10245196366998 104.27855959074252 99.99045151485744 H 0.0 **** 0.06
24524 H 136.3995092384627 104.52192252513878 100.44950769389567 H 0.0 **** 0.06
24525 H 137.61619550469945 105.75471917921247 100.86061221437606 H 0.0 **** 0.06
24526 C 125.81900221079106 143.58831353508444 127.98825467944042 C 0.0 **** -0.24
24527 H 126.59711716710461 143.67718698338328 128.74611290780166 H 0.0 **** 0.06
24528 H 126.27550255258105 143.35487806305107 127.02528433790464 H 0.0 **** 0.06
24529 H 125.27509986796889 144.529478946833 127.91482203633913 H 0.0 **** 0.06
24530 H 125.13066066762057 142.79113092670443 128.26659663539155 H 0.0 **** 0.06
24531 C 104.34268045646942 59.0010498535529 45.902871761849 C 0.0 **** -0.24
24532 H 104.27574588560154 58.00543965624206 46.340525221915996 H 0.0 **** 0.06
24533 H 103.3541970345108 59.45912453827299 45.88867472136718 H 0.0 **** 0.06
24534 H 104.72294012055934 58.92442821817639 44.88369501744383 H 0.0 **** 0.06
24535 H 105.01972502959589 59.61425317811381 46.497862370275755 H 0.0 **** 0.06
24536 C 143.9640219724712 143.0601580994249 15.840910266119465 C 0.0 **** -0.24
24537 H 143.93143324477788 142.19760216035638 15.175781942409373 H 0.0 **** 0.06
24538 H 143.4346350385427 143.89390332979247 15.380258738769072 H 0.0 **** 0.06
24539 H 145.00244511508694 143.34132163924687 16.019339425943286 H 0.0 **** 0.06
24540 H 143.48908104953082 142.80587836422566 16.78812850695809 H 0.0 **** 0.06
24541 C 11.952715830480876 36.488631313995256 143.00977621672382 C 0.0 **** -0.24
24542 H 12.487066948736597 37.0933733131954 143.7434195434186 H 0.0 **** 0.06
24543 H 12.533782423282219 36.43941164444527 142.0881105643614 H 0.0 **** 0.06
24544 H 10.982193141249503 36.93993759268187 142.80451096784049 H 0.0 **** 0.06
24545 H 11.809581697588001 35.48266086193229 143.40414222577803 H 0.0 **** 0.06
24546 C 81.32060345551321 45.764619456644766 85.13087777636969 C 0.0 **** -0.24
24547 H 81.50855690290173 44.82529119823366 84.61063800858818 H 0.0 **** 0.06
24548 H 81.2454660094628 46.573542895709664 84.40458672201953 H 0.0 **** 0.06
24549 H 82.14137149795833 45.968312893186095 85.81863303091455 H 0.0 **** 0.06
24550 H 80.3877277939183 45.68937704702225 85.69047861532334 H 0.0 **** 0.06
24551 C 74.35096822280414 34.01208318323263 90.26587461946875 C 0.0 **** -0.24
24552 H 73.30330519754627 34.262788227582874 90.10183004376546 H 0.0 **** 0.06
24553 H 74.7576867042158 33.548340563689884 89.36677097067107 H 0.0 **** 0.06
24554 H 74.43253779157568 33.31820635835779 91.1014808527755 H 0.0 **** 0.06
24555 H 74.9101067145302 34.920402074806304 90.49059316503018 H 0.0 **** 0.06
24556 C 0.6882505532503842 55.62559766331512 14.426417629875004 C 0.0 **** -0.24
24557 H 0.015810415670159728 56.028320231690344 13.669950034297841 H 0.0 **** 0.06
24558 H 1.6892127785332036 56.03240900649895 14.276538666942884 H 0.0 **** 0.06
24559 H 0.7216653443901464 54.53925257219433 14.340841370885897 H 0.0 **** 0.06
24560 H 0.32839914400705084 55.90201611386432 15.417117009562133 H 0.0 **** 0.06
24561 C 91.68085402262697 1.489586341593025 32.31009953013538 C 0.0 **** -0.24
24562 H 91.03090633896757 2.340732520032276 32.10877727634338 H 0.0 **** 0.06
24563 H 91.22671263355122 0.5830411293499083 31.907308093585975 H 0.0 **** 0.06
24564 H 91.81503448573241 1.382074134120387 33.3863570293464 H 0.0 **** 0.06
24565 H 92.64948531174156 1.6522820859106275 31.837388194557874 H 0.0 **** 0.06
24566 C 30.163332448000837 11.181389276139981 14.627297830658051 C 0.0 **** -0.24
24567 H 30.77383692276497 10.280854504514451 14.692825613475293 H 0.0 **** 0.06
24568 H 29.113797747004412 10.918869407580189 14.760750890153815 H 0.0 **** 0.06
24569 H 30.301479506393818 11.643094410911715 13.650058243145509 H 0.0 **** 0.06
24570 H 30.465087976389498 11.881290060843696 15.407019579063046 H 0.0 **** 0.06
24571 C 40.53820830037529 79.92260332534985 144.65415559517706 C 0.0 **** -0.24
24572 H 41.353273218281004 79.95722846384766 143.93129754460065 H 0.0 **** 0.06
24573 H 40.92852407192015 80.1321511432606 145.65031211492018 H 0.0 **** 0.06
24574 H 40.082837503039 78.93291784704853 144.6428183485596 H 0.0 **** 0.06
24575 H 39.78914979682173 80.67009586013846 144.3917765308615 H 0.0 **** 0.06
24576 C 98.70940873250456 122.5277570835289 143.07865752014467 C 0.0 **** -0.24
24577 H 99.08455301401017 122.03692225652689 142.18028596723505 H 0.0 **** 0.06
24578 H 99.54072159469797 122.9841312531715 143.6171434260791 H 0.0 **** 0.06
24579 H 98.22223265417355 121.79189277889436 143.7179420079077 H 0.0 **** 0.06
24580 H 97.99127942960547 123.29782692575263 142.79847865992122 H 0.0 **** 0.06
24581 C 43.679191301829476 109.58215916225795 75.11371617964872 C 0.0 **** -0.24
24582 H 44.46041242153488 110.32512936296364 75.2765576769838 H 0.0 **** 0.06
24583 H 43.04567145665425 109.52185697921756 75.99866461697798 H 0.0 **** 0.06
24584 H 44.135985511532084 108.61003960775538 74.92548456102719 H 0.0 **** 0.06
24585 H 43.07631899879284 109.8729344676775 74.25337485495461 H 0.0 **** 0.06
24586 C 116.28805183917977 61.432430829011196 112.73165472436914 C 0.0 **** -0.24
24587 H 115.75015966857502 62.381133971860095 112.74811374588954 H 0.0 **** 0.06
24588 H 116.57554762060967 61.16076128614253 113.74684253006787 H 0.0 **** 0.06
24589 H 117.18116006005975 61.53336614392394 112.11459616183943 H 0.0 **** 0.06
24590 H 115.64499142577797 60.65719528312988 112.314967025505 H 0.0 **** 0.06
24591 C 56.66147264469568 90.62011122906412 52.99709762922089 C 0.0 **** -0.24
24592 H 56.13789418200945 91.1643639914868 52.21026088802655 H 0.0 **** 0.06
24593 H 56.429270649387405 89.55803970085128 52.91925945561994 H 0.0 **** 0.06
24594 H 56.34089033441565 90.991134471436 53.970592991538254 H 0.0 **** 0.06
24595 H 57.73529437623826 90.76679974190108 52.88703945237991 H 0.0 **** 0.06
24596 C 76.93051345554267 95.10675030284236 91.65231791981222 C 0.0 **** -0.24
24597 H 77.60707421049375 95.23209386818363 90.80684348175797 H 0.0 **** 0.06
24598 H 75.98513518904693 95.60382884741796 91.43681314732375 H 0.0 **** 0.06
24599 H 77.37828658108351 95.5466646334421 92.54314510564747 H 0.0 **** 0.06
24600 H 76.75262756971901 94.04424229691443 91.82051381825846 H 0.0 **** 0.06
24601 C 142.32455989189086 104.25713344375835 88.08903171486743 C 0.0 **** -0.24
24602 H 142.29107889464117 104.06242823262913 89.1613084576514 H 0.0 **** 0.06
24603 H 141.98730747281934 103.37256062445643 87.5492056324723 H 0.0 **** 0.06
24604 H 143.34723277296817 104.49519048416006 87.79604448408864 H 0.0 **** 0.06
24605 H 141.6729921976393 105.09812055040398 87.85269997030879 H 0.0 **** 0.06
24606 C 42.20624736852365 93.49341319291986 118.32054848846057 C 0.0 **** -0.24
24607 H 41.597231367209616 93.57797673103596 119.22115996978239 H 0.0 **** 0.06
24608 H 41.636794105316625 92.98284380767188 117.54386942300859 H 0.0 **** 0.06
24609 H 43.107947309407095 92.92409622020051 118.5441728421681 H 0.0 **** 0.06
24610 H 42.482140332094545 94.48999890692812 117.97461568759765 H 0.0 **** 0.06
24611 C 65.64704756809569 109.59916484265362 72.23402919918811 C 0.0 **** -0.24
24612 H 65.76964384318485 108.5752607806544 71.88064680622458 H 0.0 **** 0.06
24613 H 65.4401915069246 109.5928498934217 73.30443808995815 H 0.0 **** 0.06
24614 H 64.81540403774582 110.0678856441648 71.70645039966686 H 0.0 **** 0.06
24615 H 66.56058658104864 110.161655783347 72.04302429710074 H 0.0 **** 0.06
24616 C 0.07899247355760508 103.8030008640274 27.63265790321296 C 0.0 **** -0.24
24617 H -0.4007514553952376 104.77560421478115 27.51857895743362 H 0.0 **** 0.06
24618 H 0.9614114257498159 103.9056648705451 28.264822759162882 H 0.0 **** 0.06
24619 H 0.3744258243617935 103.42692854523717 26.653607241184886 H 0.0 **** 0.06
24620 H -0.619534864246873 103.10575903998655 28.094627446451483 H 0.0 **** 0.06
24621 C 98.87699300794225 52.83513784442974 124.37269454498593 C 0.0 **** -0.24
24622 H 98.28117856181886 52.20029315527589 123.71662529342981 H 0.0 **** 0.06
24623 H 98.26961766129342 53.67083761927037 124.71859845660109 H 0.0 **** 0.06
24624 H 99.74070723606457 53.21354413326176 123.82503412661762 H 0.0 **** 0.06
24625 H 99.21705109732402 52.25321833540974 125.22925724537228 H 0.0 **** 0.06
24626 C 138.64677455731524 61.8792918587699 142.40237230921315 C 0.0 **** -0.24
24627 H 138.39804556416456 62.74916942767882 143.01062916482402 H 0.0 **** 0.06
24628 H 137.74454433107334 61.29756308107838 142.21453802754294 H 0.0 **** 0.06
24629 H 139.3737495945627 61.26241418760449 142.93179724472952 H 0.0 **** 0.06
24630 H 139.07205195220342 62.20873399077297 141.4542038040177 H 0.0 **** 0.06
24631 C 98.5022818411588 36.86780386131879 80.5497937276732 C 0.0 **** -0.24
24632 H 99.37594278922066 36.496849140435934 81.08454374467402 H 0.0 **** 0.06
24633 H 98.58274991433342 37.948662382473735 80.42844596436493 H 0.0 **** 0.06
24634 H 97.6011916426996 36.63136845189566 81.11554210728116 H 0.0 **** 0.06
24635 H 98.44926046948163 36.394759397219616 79.56844760705292 H 0.0 **** 0.06
24636 C 127.14975856681808 63.35532076505319 87.0629888874436 C 0.0 **** -0.24
24637 H 126.3194114346423 63.27249809612519 87.76482687368954 H 0.0 **** 0.06
24638 H 127.22476190375058 62.436979651118264 86.47979285018917 H 0.0 **** 0.06
24639 H 128.07618833073235 63.51386890870705 87.61377724414169 H 0.0 **** 0.06
24640 H 126.97578433713221 64.1971916144094 86.3932367653621 H 0.0 **** 0.06
24641 C 91.68792027239598 54.46367858704059 105.46897400568282 C 0.0 **** -0.24
24642 H 90.697854281463 54.25510499686723 105.06301601448034 H 0.0 **** 0.06
24643 H 91.99417371207852 53.64393498780555 106.11850978604268 H 0.0 **** 0.06
24644 H 91.6570627294324 55.3899441816356 106.0433165595211 H 0.0 **** 0.06
24645 H 92.40228941809113 54.56656747939772 104.6515101705328 H 0.0 **** 0.06
24646 C 0.35256992985543434 35.80830205138403 121.16264810721246 C 0.0 **** -0.24
24647 H -0.1817245705720154 36.71968523750195 121.43083937369887 H 0.0 **** 0.06
24648 H 1.251943020747575 35.721998653993325 121.77329472448595 H 0.0 **** 0.06
24649 H 0.6303249381924729 35.8464424502817 120.10997014178234 H 0.0 **** 0.06
24650 H -0.2890351053627569 34.94496586681427 121.3380621401629 H 0.0 **** 0.06
24651 C 147.3291563138474 38.571197886826454 12.166497288008543 C 0.0 **** -0.24
24652 H 146.4758510375581 37.89396566377762 12.113505219292392 H 0.0 **** 0.06
24653 H 148.21116848035038 38.07554380607846 11.758318244101645 H 0.0 **** 0.06
24654 H 147.51307126742722 38.8425536003933 13.205446182456683 H 0.0 **** 0.06
24655 H 147.1163810625054 39.469557082334205 11.587334168372934 H 0.0 **** 0.06
24656 C 73.63746149964169 42.25064302734566 79.39027224266837 C 0.0 **** -0.24
24657 H 73.20575998320652 43.25174753887464 79.40219130065165 H 0.0 **** 0.06
24658 H 74.64259360002035 42.29428126683328 78.97078845192598 H 0.0 **** 0.06
24659 H 73.01663001861334 41.59471284138829 78.7795936321202 H 0.0 **** 0.06
24660 H 73.68297587807479 41.86312904818513 80.40764671219674 H 0.0 **** 0.06
24661 C 130.28505282403512 20.215271637661047 9.60457292230646 C 0.0 **** -0.24
24662 H 130.50218331331618 20.303190713636 8.539426867388471 H 0.0 **** 0.06
24663 H 129.24472326746206 19.915932182283406 9.738486516914378 H 0.0 **** 0.06
24664 H 130.4516834688039 21.17699474848176 10.088571194173937 H 0.0 **** 0.06
24665 H 130.93993822343583 19.466096018101616 10.047696414866067 H 0.0 **** 0.06
24666 C 84.80296687192424 133.32054214972027 80.7060519531031 C 0.0 **** -0.24
24667 H 84.8373718310346 132.7564315613196 79.77448768043683 H 0.0 **** 0.06
24668 H 83.8175850210403 133.21239697552858 81.15952821561785 H 0.0 **** 0.06
24669 H 84.99511100690026 134.37424785691013 80.50028156908064 H 0.0 **** 0.06
24670 H 85.56195539030398 132.94006821921343 81.39006256890798 H 0.0 **** 0.06
24671 C 147.83045973810067 133.2336274182708 46.380073002414235 C 0.0 **** -0.24
24672 H 147.04183958382342 132.52566994567465 46.6363247890157 H 0.0 **** 0.06
24673 H 147.40460252196243 134.0622471135318 45.815165506838355 H 0.0 **** 0.06
24674 H 148.58644881561062 132.73135587111219 45.77615470799384 H 0.0 **** 0.06
24675 H 148.28819798211364 133.61357740176712 47.2942853689303 H 0.0 **** 0.06
24676 C 14.711036662201366 105.9844963969661 36.340676166503584 C 0.0 **** -0.24
24677 H 15.120308540785516 106.12349317222434 35.33962175241004 H 0.0 **** 0.06
24678 H 14.33757492851629 106.93766076883905 36.715803504657885 H 0.0 **** 0.06
24679 H 15.492459195306765 105.61350863827626 37.003875526247526 H 0.0 **** 0.06
24680 H 13.894524080497604 105.26287908898111 36.30189242427784 H 0.0 **** 0.06
24681 C 63.82439848114569 36.45978482807743 72.73324910938771 C 0.0 **** -0.24
24682 H 64.58893797371697 36.47354832684084 73.50884523279184 H 0.0 **** 0.06
24683 H 63.40542149513837 35.45672162983584 72.65420492715154 H 0.0 **** 0.06
24684 H 64.26870871605365 36.74491346390744 71.77989264854367 H 0.0 **** 0.06
24685 H 63.03354538070623 37.16496802566138 72.9901742706487 H 0.0 **** 0.06
24686 C 139.7464546754803 130.3707029456058 10.757021509536663 C 0.0 **** -0.24
24687 H 138.7430240645751 130.78228927400718 10.651455595989702 H 0.0 **** 0.06
24688 H 139.7899576411059 129.392298691217 10.277666607994213 H 0.0 **** 0.06
24689 H 139.98770712481715 130.26802006755602 11.814555400313736 H 0.0 **** 0.06
24690 H 140.4654455418132 131.0395918991845 10.283683156094071 H 0.0 **** 0.06
24691 C 120.51361835650238 120.637525279634 104.71296800660475 C 0.0 **** -0.24
24692 H 120.47943935165534 119.54814311464027 104.69127034476831 H 0.0 **** 0.06
24693 H 120.19974403501959 121.03068706922066 103.74572025050698 H 0.0 **** 0.06
24694 H 121.53208887816817 120.96367270793586 104.92473946315054 H 0.0 **** 0.06
24695 H 119.8453441981211 121.0064707071591 105.4905111722892 H 0.0 **** 0.06
24696 C 137.34118528284245 101.5856290556384 60.858729334879214 C 0.0 **** -0.24
24697 H 136.44211102115372 101.90695365780759 61.38355827503992 H 0.0 **** 0.06
24698 H 138.1307207032443 102.32267824272589 61.007597813242384 H 0.0 **** 0.06
24699 H 137.12634639459566 101.49232625772781 59.79411939255685 H 0.0 **** 0.06
24700 H 137.66519251682575 100.62113577115294 61.248914518020825 H 0.0 **** 0.06
24701 C 132.48905513188228 28.552626148363885 107.72137510598711 C 0.0 **** -0.24
24702 H 132.27602859670847 29.028548230544118 106.76345057769575 H 0.0 **** 0.06
24703 H 131.77044067673572 28.89680631595158 108.46534538103614 H 0.0 **** 0.06
24704 H 133.49775585690477 28.815039884376382 108.04035529596487 H 0.0 **** 0.06
24705 H 132.41086210350963 27.470721414130367 107.61346085088141 H 0.0 **** 0.06
24706 C 136.97027052429513 126.07282785390402 21.63693497990029 C 0.0 **** -0.24
24707 H 137.10306140180307 125.97594433597152 20.55898475692257 H 0.0 **** 0.06
24708 H 136.29812209987386 125.29173436858724 21.992269960310963 H 0.0 **** 0.06
24709 H 136.5433863579285 127.05039455540714 21.86314676246051 H 0.0 **** 0.06
24710 H 137.93622692400814 125.97475129297828 22.131433385787716 H 0.0 **** 0.06
24711 C 5.501929778686019 44.76050962261121 84.47942504090044 C 0.0 **** -0.24
24712 H 6.016182314822355 45.31266263745508 83.69271742945241 H 0.0 **** 0.06
24713 H 5.268849844808297 45.43506141996403 85.30248217865947 H 0.0 **** 0.06
24714 H 6.144244505907363 43.95665149562825 84.8375679551713 H 0.0 **** 0.06
24715 H 4.578521584325678 44.33821771403487 84.08216019101984 H 0.0 **** 0.06
24716 C 79.17035324481475 49.41871048640016 29.56354273354728 C 0.0 **** -0.24
24717 H 80.17354804788675 49.54597614077285 29.156581890145183 H 0.0 **** 0.06
24718 H 79.2336598967351 49.235737716199 30.636752293441056 H 0.0 **** 0.06
24719 H 78.68679587517246 48.571512729736824 29.078134985611484 H 0.0 **** 0.06
24720 H 78.58807259074729 50.322286188613916 29.38303325106613 H 0.0 **** 0.06
24721 C 75.80570541507177 28.269351228301517 20.833124064007393 C 0.0 **** -0.24
24722 H 76.67081782234492 28.4825728834157 20.204035367260587 H 0.0 **** 0.06
24723 H 76.00356249618659 28.611599419959006 21.84947010552304 H 0.0 **** 0.06
24724 H 75.61834303921474 27.195522008440676 20.84128720644003 H 0.0 **** 0.06
24725 H 74.93284398325781 28.788459656289945 20.438652514930197 H 0.0 **** 0.06
24726 C 108.49564777652854 1.5392283117015282 81.15044834059877 C 0.0 **** -0.24
24727 H 109.33514468145152 1.158599225731738 80.56858329368593 H 0.0 **** 0.06
24728 H 107.59747351282654 1.5451765170223162 80.53248708467531 H 0.0 **** 0.06
24729 H 108.71465767754565 2.553808174259924 81.48387279131833 H 0.0 **** 0.06
24730 H 108.3357716755822 0.899166759903899 82.01879065110998 H 0.0 **** 0.06
24731 C 104.5303843748179 73.70182037632476 147.23627274765042 C 0.0 **** -0.24
24732 H 104.36109775790912 73.78953285526212 146.162822671504 H 0.0 **** 0.06
24733 H 104.2617578441281 74.63938559281875 147.72397734061798 H 0.0 **** 0.06
24734 H 105.58214329388373 73.48374706791388 147.42091478677392 H 0.0 **** 0.06
24735 H 103.91560237870861 72.8949590365004 147.63537469600428 H 0.0 **** 0.06
24736 C 15.107631386171214 112.58708050736941 4.573196323606851 C 0.0 **** -0.24
24737 H 15.518353555716118 113.2883905894195 3.84667931677771 H 0.0 **** 0.06
24738 H 15.703455566358052 111.67503231206699 4.574636203175107 H 0.0 **** 0.06
24739 H 14.077988415490935 112.34869749443801 4.305724097935805 H 0.0 **** 0.06
24740 H 15.129427054973263 113.03812789269999 5.564972844852715 H 0.0 **** 0.06
24741 C 45.3522746870936 32.23237137656946 51.107763424735026 C 0.0 **** -0.24
24742 H 44.424912363762346 31.919001663624528 50.628313712141335 H 0.0 **** 0.06
24743 H 45.153445471619904 32.48845679850163 52.14861869695849 H 0.0 **** 0.06
24744 H 45.7536677016017 33.10316136595162 50.58942866367303 H 0.0 **** 0.06
24745 H 46.075854001089084 31.418578119940037 51.06534906328457 H 0.0 **** 0.06
24746 C 36.2877188812065 71.67443591940341 117.93103833367918 C 0.0 **** -0.24
24747 H 35.32978625135129 71.73545853491719 118.44714470538294 H 0.0 **** 0.06
24748 H 36.43932899108595 70.65749790752159 117.56779740192657 H 0.0 **** 0.06
24749 H 37.08978316036026 71.93772029017344 118.62068441744135 H 0.0 **** 0.06
24750 H 36.29106470213354 72.36628640354971 117.08927401688372 H 0.0 **** 0.06
24751 C 118.09364670361755 69.59102474979147 65.03578954590265 C 0.0 **** -0.24
24752 H 118.00442591402798 69.0105553920087 64.11651291311472 H 0.0 **** 0.06
24753 H 119.07306549127513 70.06868754456292 65.07004731361329 H 0.0 **** 0.06
24754 H 117.9798345110314 68.92970794884089 65.89500102930695 H 0.0 **** 0.06
24755 H 117.31542561581846 70.35464459623608 65.05888056759726 H 0.0 **** 0.06
24756 C 25.3007464704268 65.3010845534114 27.4785349327762 C 0.0 **** -0.24
24757 H 24.68376170274223 66.10412779343385 27.882709232036177 H 0.0 **** 0.06
24758 H 24.803969067065054 64.86205476233845 26.614586752236278 H 0.0 **** 0.06
24759 H 25.44772436296445 64.53645719062897 28.242021028195325 H 0.0 **** 0.06
24760 H 26.26749744749621 65.70397438017518 27.17677705759189 H 0.0 **** 0.06
24761 C 18.838840963742996 116.94126750794634 74.18559897353764 C 0.0 **** -0.24
24762 H 19.37480157543328 117.5854778701955 74.88125452469555 H 0.0 **** 0.06
24763 H 17.87523478061584 117.39069108661046 73.94358432398454 H 0.0 **** 0.06
24764 H 18.679619820513295 115.96443456712295 74.64320857611166 H 0.0 **** 0.06
24765 H 19.4246151600928 116.82368549260421 73.27390519505906 H 0.0 **** 0.06
24766 C 124.9995747626611 80.64144030029522 128.8214377862937 C 0.0 **** -0.24
24767 H 124.62567549707978 79.82544270595325 128.20287432537984 H 0.0 **** 0.06
24768 H 125.76838811376257 81.18738744295356 128.27635415562116 H 0.0 **** 0.06
24769 H 125.42330187285256 80.2348235438139 129.73985525292466 H 0.0 **** 0.06
24770 H 124.17897954011005 81.315841920872 129.06688927020454 H 0.0 **** 0.06
24771 C 49.859617074718784 18.28972109362951 49.45309474844959 C 0.0 **** -0.24
24772 H 49.50067343326684 17.607430341898016 48.68276153220418 H 0.0 **** 0.06
24773 H 49.10301072590664 18.387497766990236 50.232459289014315 H 0.0 **** 0.06
24774 H 50.05384773975706 19.266999177392933 49.01017318488189 H 0.0 **** 0.06
24775 H 50.77917569226763 17.897271832531196 49.88564296403632 H 0.0 **** 0.06
24776 C 125.80180715879753 84.1424575144691 66.75703510200857 C 0.0 **** -0.24
24777 H 126.72022913185663 83.56979104747867 66.88891272551301 H 0.0 **** 0.06
24778 H 125.62358735400352 84.75208485631148 67.64217104861113 H 0.0 **** 0.06
24779 H 124.96552733362604 83.45835700017855 66.61082276593741 H 0.0 **** 0.06
24780 H 125.89866392364516 84.78844406633158 65.88421803081138 H 0.0 **** 0.06
24781 C 95.12293854023655 81.83730457730928 19.532982396586704 C 0.0 **** -0.24
24782 H 94.3529643569003 81.0806422275012 19.383308357361443 H 0.0 **** 0.06
24783 H 94.94000756376222 82.6778441236721 18.86299281447674 H 0.0 **** 0.06
24784 H 96.10162285902442 81.40756493275263 19.318447221863664 H 0.0 **** 0.06
24785 H 95.09632290903112 82.18397242513699 20.56589598638385 H 0.0 **** 0.06
24786 C 69.1933121680991 78.34095352603279 36.93922377908376 C 0.0 **** -0.24
24787 H 69.59469309414102 78.06679096286345 35.96331561456467 H 0.0 **** 0.06
24788 H 69.57727894885622 79.31977766597268 37.22800454024126 H 0.0 **** 0.06
24789 H 69.49714948141452 77.59858709809666 37.67790604708033 H 0.0 **** 0.06
24790 H 68.10499327847796 78.37716060149683 36.8877501284768 H 0.0 **** 0.06
24791 C 104.41896401630801 49.21845900123128 94.44575213163702 C 0.0 **** -0.24
24792 H 104.60909695942708 49.82818883897784 93.56290817912543 H 0.0 **** 0.06
24793 H 105.17230243796676 48.433702584681555 94.51515008243524 H 0.0 **** 0.06
24794 H 103.42963200259051 48.765692104171364 94.3679777767378 H 0.0 **** 0.06
24795 H 104.46239633432243 49.844834764694326 95.3366665580723 H 0.0 **** 0.06
24796 C 138.11194455497287 144.69187999139174 55.82915896985574 C 0.0 **** -0.24
24797 H 137.06215808476765 144.3990462393841 55.87028433065183 H 0.0 **** 0.06
24798 H 138.73968797617982 143.80337870945377 55.895076670563355 H 0.0 **** 0.06
24799 H 138.33570456861537 145.35722254725718 56.66352295097491 H 0.0 **** 0.06
24800 H 138.30813602970773 145.20812667970367 54.889887595918026 H 0.0 **** 0.06
24801 C 54.658892235073765 34.58012133309124 99.91749223138706 C 0.0 **** -0.24
24802 H 53.656721645117614 34.809658568230574 99.55560931388558 H 0.0 **** 0.06
24803 H 54.783831986219724 33.498626513662515 99.9773380681561 H 0.0 **** 0.06
24804 H 54.79747134110745 35.01724431043437 100.9066453235709 H 0.0 **** 0.06
24805 H 55.3974181611986 34.99356186499824 99.23057821169833 H 0.0 **** 0.06
24806 C 90.18940897687452 10.127565452624793 26.779935699489926 C 0.0 **** -0.24
24807 H 89.27832724934424 9.792947860451903 27.27662842128757 H 0.0 **** 0.06
24808 H 90.4423674913192 9.432049707823495 25.979206437195586 H 0.0 **** 0.06
24809 H 91.00556176923264 10.162096776269124 27.501641798203394 H 0.0 **** 0.06
24810 H 90.03135913752222 11.121419256859639 26.360872033137895 H 0.0 **** 0.06
24811 C 10.892336727538009 72.78476574867958 104.14915012786972 C 0.0 **** -0.24
24812 H 10.778990907015839 71.710771744628 104.00246993907078 H 0.0 **** 0.06
24813 H 10.228484733100288 73.31655180935257 103.46758091180564 H 0.0 **** 0.06
24814 H 11.925166353799966 73.07109036414667 103.94777062491764 H 0.0 **** 0.06
24815 H 10.638645664011676 73.0391576918199 105.17868162347443 H 0.0 **** 0.06
24816 C 96.77110934633646 129.21897544868997 98.49062792519094 C 0.0 **** -0.24
24817 H 96.430054216332 129.47414492100043 97.48729726065835 H 0.0 **** 0.06
24818 H 97.56456410395823 128.47433909517213 98.42620171893083 H 0.0 **** 0.06
24819 H 95.93739646996409 128.81307820212598 99.0644456532861 H 0.0 **** 0.06
24820 H 97.15034681264044 130.11436852265595 98.98373612123723 H 0.0 **** 0.06
24821 C 147.18368437790656 124.06015756569751 17.224358889925163 C 0.0 **** -0.24
24822 H 146.95375284436133 124.00770077607423 16.159855586093563 H 0.0 **** 0.06
24823 H 146.83830197783618 125.0133230671443 17.62374589491447 H 0.0 **** 0.06
24824 H 148.26119404925993 123.9745632177635 17.367117506231082 H 0.0 **** 0.06
24825 H 146.68197212712016 123.24366385835431 17.74409665234616 H 0.0 **** 0.06
24826 C 133.51150053727423 147.43406638245798 34.76156880853625 C 0.0 **** -0.24
24827 H 133.42397459124558 148.4320055485928 35.192131397894315 H 0.0 **** 0.06
24828 H 134.24440656282025 146.8579052120288 35.32670291763402 H 0.0 **** 0.06
24829 H 133.8344224706628 147.51480456216785 33.72385630586324 H 0.0 **** 0.06
24830 H 132.5443528597708 146.9344883265021 34.80339665045557 H 0.0 **** 0.06
24831 C 62.57859666991156 146.49422397517637 46.94379697411432 C 0.0 **** -0.24
24832 H 63.15733926858758 146.92347678547756 47.76112706720227 H 0.0 **** 0.06
24833 H 62.477853958997244 147.229334749684 46.14478472740757 H 0.0 **** 0.06
24834 H 61.589120313367005 146.21513288998264 47.3073835911062 H 0.0 **** 0.06
24835 H 63.088778114360096 145.60951948292595 46.56187372753692 H 0.0 **** 0.06
24836 C 142.5819791606767 128.88808765420862 36.81922157825785 C 0.0 **** -0.24
24837 H 142.88338949595402 129.02299068123978 37.85852735957358 H 0.0 **** 0.06
24838 H 142.84592451794316 127.88179190575542 36.49208973474678 H 0.0 **** 0.06
24839 H 143.09388937293062 129.6199130827709 36.195323417285714 H 0.0 **** 0.06
24840 H 141.5043751629564 129.02783594118225 36.733148780614975 H 0.0 **** 0.06
24841 C 14.990238361990961 10.742018491920355 66.84474673247827 C 0.0 **** -0.24
24842 H 15.437313166969446 11.5679373062991 66.29145683003215 H 0.0 **** 0.06
24843 H 14.083359385372724 11.086840387392527 67.34259902544504 H 0.0 **** 0.06
24844 H 15.698689700093006 10.379208532590035 67.58997565559693 H 0.0 **** 0.06
24845 H 14.742836106715792 9.934832475616872 66.155901820912 H 0.0 **** 0.06
24846 C 71.37514098027034 29.93019382794901 31.9781760346658 C 0.0 **** -0.24
24847 H 70.30166071053972 29.848602221720824 32.15080404558755 H 0.0 **** 0.06
24848 H 71.70113276239769 29.11532462962552 31.33111880158009 H 0.0 **** 0.06
24849 H 71.90164279997722 29.8718535720881 32.93037228659169 H 0.0 **** 0.06
24850 H 71.59340798760203 30.884807699914717 31.498806265715643 H 0.0 **** 0.06
24851 C 31.95024070408732 6.41733848288942 38.15615959132028 C 0.0 **** -0.24
24852 H 31.15703276727072 6.907069192122805 37.591732034880025 H 0.0 **** 0.06
24853 H 32.719908413749124 7.1476946089247235 38.40994908474134 H 0.0 **** 0.06
24854 H 32.38819816943334 5.6219174664697675 37.55351198814153 H 0.0 **** 0.06
24855 H 31.536136997235644 5.99296534103803 39.07163984660892 H 0.0 **** 0.06
24856 C 54.41864562215203 103.66729359780368 57.70386008931169 C 0.0 **** -0.24
24857 H 54.96827296558068 104.36133518256804 58.33920214013719 H 0.0 **** 0.06
24858 H 54.01981261684436 104.20171803665386 56.84097407209302 H 0.0 **** 0.06
24859 H 53.597002918361284 103.22873578165712 58.270777031485196 H 0.0 **** 0.06
24860 H 55.08842896581257 102.87692915271771 57.36577462475728 H 0.0 **** 0.06
24861 C 95.00083367663302 94.42811499319521 13.420845210235484 C 0.0 **** -0.24
24862 H 95.85400639750043 94.71508862637873 14.036077646225237 H 0.0 **** 0.06
24863 H 94.60830408548628 95.30938897278303 12.911596500642133 H 0.0 **** 0.06
24864 H 94.22487016084227 93.99938091498885 14.054394077546334 H 0.0 **** 0.06
24865 H 95.31705588399836 93.69189070046151 12.682851485897345 H 0.0 **** 0.06
24866 C 59.13011222824056 141.68820128464245 94.37118938516852 C 0.0 **** -0.24
24867 H 59.94973627917955 142.31951613917028 94.71552858258522 H 0.0 **** 0.06
24868 H 59.156898226507195 140.73773729455343 94.9030635778093 H 0.0 **** 0.06
24869 H 59.23653087104225 141.5092177845615 93.30123636519889 H 0.0 **** 0.06
24870 H 58.18119961341969 142.18725712119536 94.56402753753979 H 0.0 **** 0.06
24871 C 85.68168582269655 68.11875560065417 6.691553493306884 C 0.0 **** -0.24
24872 H 86.02162289701201 67.51123913890149 5.8538572748405215 H 0.0 **** 0.06
24873 H 85.92998006345923 69.16383182474442 6.5066450383357335 H 0.0 **** 0.06
24874 H 86.17432672206107 67.78487947668665 7.605472641757018 H 0.0 **** 0.06
24875 H 84.60250692799664 68.014873817595 6.801284749298446 H 0.0 **** 0.06
24876 C 121.39049213389107 110.82972329129849 143.30333793807316 C 0.0 **** -0.24
24877 H 121.08669715141629 111.04466540530892 142.27874729476903 H 0.0 **** 0.06
24878 H 121.7937538491562 111.7329244739919 143.76034347955587 H 0.0 **** 0.06
24879 H 122.15364659851492 110.05117176080539 143.29955931600855 H 0.0 **** 0.06
24880 H 120.52657072256203 110.48797958894919 143.87340593535376 H 0.0 **** 0.06
24881 C 51.97397157015551 116.64394464980224 111.77791168470283 C 0.0 **** -0.24
24882 H 52.13354393593764 115.70873226782466 112.31569601703838 H 0.0 **** 0.06
24883 H 50.903488124853524 116.835657337547 111.69414426229862 H 0.0 **** 0.06
24884 H 52.40982604837065 116.56838728108785 110.78178747776202 H 0.0 **** 0.06
24885 H 52.44810792708242 117.4603842650585 112.32252948570134 H 0.0 **** 0.06
24886 C 33.810044628966864 112.78561878514519 64.3978553073749 C 0.0 **** -0.24
24887 H 33.19601119453989 112.47913784214667 65.24497860085455 H 0.0 **** 0.06
24888 H 34.03878058458059 113.84812546710849 64.48055292671259 H 0.0 **** 0.06
24889 H 33.267986963767015 112.60062411256077 63.47035115637115 H 0.0 **** 0.06
24890 H 34.73752999629971 112.21326313847591 64.39601666912907 H 0.0 **** 0.06
24891 C 44.145519631490345 148.93300204649265 110.08096031350597 C 0.0 **** -0.24
24892 H 43.19921071852616 148.78054275272572 109.56155959727774 H 0.0 **** 0.06
24893 H 44.37916840333867 148.05050873509504 110.67635201836192 H 0.0 **** 0.06
24894 H 44.064801091004085 149.8019132069448 110.73453771328026 H 0.0 **** 0.06
24895 H 44.9374375628725 149.0998225719675 109.35088265919897 H 0.0 **** 0.06
24896 C 84.88565226928277 6.598351007089008 11.490050302107925 C 0.0 **** -0.24
24897 H 85.17243336694298 5.554433116085505 11.60690248760465 H 0.0 **** 0.06
24898 H 85.10396763398433 6.92294970374121 10.472253366621786 H 0.0 **** 0.06
24899 H 85.4467240498276 7.211212849782271 12.194779515222208 H 0.0 **** 0.06
24900 H 83.81839116047584 6.705866177493846 11.684345713147088 H 0.0 **** 0.06
24901 C 130.62311689245493 90.03329675100476 96.32389731253946 C 0.0 **** -0.24
24902 H 131.03373115426692 91.03316250211616 96.1893022494166 H 0.0 **** 0.06
24903 H 130.21904588784665 89.93939967328484 97.33172539059991 H 0.0 **** 0.06
24904 H 131.41026361849978 89.29373289726813 96.17669736006366 H 0.0 **** 0.06
24905 H 129.8285377096881 89.86585275839192 95.59609517495673 H 0.0 **** 0.06
24906 C 35.09670549639902 90.17502305927468 101.13711119307459 C 0.0 **** -0.24
24907 H 35.566549532189974 90.50666945793674 102.06272164560602 H 0.0 **** 0.06
24908 H 35.321578877461526 90.88660530051399 100.34140004430589 H 0.0 **** 0.06
24909 H 34.01809076789402 90.11541057390545 101.27792686971009 H 0.0 **** 0.06
24910 H 35.48343582636079 89.19223105958096 100.8652581695925 H 0.0 **** 0.06
24911 C 63.32984630397536 104.72866857317561 84.93412899298937 C 0.0 **** -0.24
24912 H 63.6228962481143 103.97429674924072 85.66455584007839 H 0.0 **** 0.06
24913 H 62.54611002770267 104.32693330528573 84.29194233390832 H 0.0 **** 0.06
24914 H 64.19300270108175 105.00200588702822 84.32710655905873 H 0.0 **** 0.06
24915 H 62.956832995731304 105.61198184329507 85.45409849466994 H 0.0 **** 0.06
24916 C 103.83615898668843 120.52877945267669 125.6269643246712 C 0.0 **** -0.24
24917 H 104.65583926507882 120.06473765539819 125.07837892815952 H 0.0 **** 0.06
24918 H 102.91525035362086 119.97716445415138 125.43848180982886 H 0.0 **** 0.06
24919 H 103.71606059904703 121.55998329421821 125.29571143435444 H 0.0 **** 0.06
24920 H 104.058809548275 120.51299039901612 126.69349931624177 H 0.0 **** 0.06
24921 C 119.68881124124636 130.30226670043174 29.5314969141167 C 0.0 **** -0.24
24922 H 120.65713216575375 130.5513138818583 29.097408706170285 H 0.0 **** 0.06
24923 H 119.42250911446177 129.2792854104705 29.261385780963337 H 0.0 **** 0.06
24924 H 118.93246597600046 130.98786782477322 29.149149652016007 H 0.0 **** 0.06
24925 H 119.7435408673415 130.38981534294285 30.615988656179667 H 0.0 **** 0.06
24926 C 98.40730806737415 89.44362545215128 46.74949752353234 C 0.0 **** -0.24
24927 H 98.47937270610387 89.51025932248447 45.664033525885316 H 0.0 **** 0.06
24928 H 98.18334296899474 88.41586715244554 47.03616111531882 H 0.0 **** 0.06
24929 H 97.61142607211355 90.10027456347089 47.10145816364775 H 0.0 **** 0.06
24930 H 99.35396064524568 89.74758765050453 47.19512890363846 H 0.0 **** 0.06
24931 C 86.78432815831235 57.74503512268579 147.7659251927861 C 0.0 **** -0.24
24932 H 86.14590089466418 57.44948809191119 148.59704731224016 H 0.0 **** 0.06
24933 H 87.18270210305619 58.74382246249786 147.95053455399062 H 0.0 **** 0.06
24934 H 86.20246664706136 57.749926181195946 146.84397738502258 H 0.0 **** 0.06
24935 H 87.60896481537631 57.037956261785695 147.67144566254777 H 0.0 **** 0.06
24936 C 64.2193796372893 87.43034105547223 136.09585795570862 C 0.0 **** -0.24
24937 H 64.28679353096923 86.53543308919546 136.71327153484233 H 0.0 **** 0.06
24938 H 63.59866235121798 88.17266192812491 136.59782833718853 H 0.0 **** 0.06
24939 H 63.77437403640717 87.1749500653533 135.13378105219536 H 0.0 **** 0.06
24940 H 65.21864905151054 87.83787004521889 135.93718122127873 H 0.0 **** 0.06
24941 C 92.97836385462266 85.34526734482597 108.70913298178843 C 0.0 **** -0.24
24942 H 92.0964250059833 85.2724820330447 108.0724669293435 H 0.0 **** 0.06
24943 H 93.87622384714814 85.24475977505426 108.09840048070626 H 0.0 **** 0.06
24944 H 92.95454617595344 84.55088677756862 109.45436896811762 H 0.0 **** 0.06
24945 H 92.98549747846867 86.31295314612436 109.2101047981644 H 0.0 **** 0.06
24946 C 120.92556620511357 55.63760196507869 61.53851748806278 C 0.0 **** -0.24
24947 H 120.81142456007484 56.617297341614645 62.00153596000855 H 0.0 **** 0.06
24948 H 120.96980987238334 55.75109070063834 60.454260888174204 H 0.0 **** 0.06
24949 H 120.075879784557 55.009274342832114 61.80357942409772 H 0.0 **** 0.06
24950 H 121.84540105139769 55.17292272446764 61.892717318432275 H 0.0 **** 0.06
24951 C 83.38949052743344 84.39260063564132 129.87569006723146 C 0.0 **** -0.24
24952 H 83.94762304238203 85.31172249205416 129.69211266700722 H 0.0 **** 0.06
24953 H 82.42503479018596 84.44842632028008 129.37184775797058 H 0.0 **** 0.06
24954 H 83.23442716633383 84.27089732935231 130.94792658930277 H 0.0 **** 0.06
24955 H 83.95369350555015 83.54306639855481 129.490321309676 H 0.0 **** 0.06
24956 C 89.52749901817981 94.58516665873582 72.20964575718858 C 0.0 **** -0.24
24957 H 88.8972377952627 93.70541512696987 72.33480354292772 H 0.0 **** 0.06
24958 H 90.19264543659712 94.43720670556945 71.35834051695016 H 0.0 **** 0.06
24959 H 90.12041903874407 94.73860280865985 73.11092964999897 H 0.0 **** 0.06
24960 H 88.9004338895828 95.45982335806183 72.03336611942015 H 0.0 **** 0.06
24961 C 73.49228093594036 86.29099146738645 6.927129448684028 C 0.0 **** -0.24
24962 H 73.47303999723621 86.67755622255872 7.946112746396871 H 0.0 **** 0.06
24963 H 74.51869665477538 86.04627590535024 6.6516687561885846 H 0.0 **** 0.06
24964 H 73.10322183131319 87.04635205417065 6.24406510634439 H 0.0 **** 0.06
24965 H 72.87589687496812 85.3937590776812 6.866637873438378 H 0.0 **** 0.06
24966 C 42.109512993735606 43.002452149319964 58.671719156029525 C 0.0 **** -0.24
24967 H 42.74652055534291 42.37461132025514 59.29500942256141 H 0.0 **** 0.06
24968 H 42.720533897217194 43.74650115959929 58.16265930088579 H 0.0 **** 0.06
24969 H 41.37137823066443 43.503647112012274 59.297771997394506 H 0.0 **** 0.06
24970 H 41.599350066196294 42.38314281958141 57.934644405357005 H 0.0 **** 0.06
24971 C 91.4326200676361 5.372099463316033 8.127452330645099 C 0.0 **** -0.24
24972 H 91.70170799788866 4.3169410683104275 8.171711986911077 H 0.0 **** 0.06
24973 H 91.849166268645 5.8905138528255065 8.992488952146687 H 0.0 **** 0.06
24974 H 90.34673172071334 5.471271946884599 8.13318241347639 H 0.0 **** 0.06
24975 H 91.83265760227209 5.811050944678357 7.21345011412447 H 0.0 **** 0.06
24976 C 53.86808539732942 55.97734830842688 147.3397572769038 C 0.0 **** -0.24
24977 H 52.891808908703126 56.38510070796957 147.60279852684658 H 0.0 **** 0.06
24978 H 54.41292619147612 56.702124862195774 146.7329755850253 H 0.0 **** 0.06
24979 H 53.73530188441748 55.05554051188612 146.77205712271484 H 0.0 **** 0.06
24980 H 54.43137716571704 55.76643521211774 148.24757799340148 H 0.0 **** 0.06
24981 C 96.3096590321947 72.02657798212175 49.039149024867555 C 0.0 **** -0.24
24982 H 95.64377547363 72.80077349949146 48.65633847681465 H 0.0 **** 0.06
24983 H 96.99634315088986 71.71623623608984 48.25047071919468 H 0.0 **** 0.06
24984 H 95.71985677338279 71.17025583802429 49.36536083516452 H 0.0 **** 0.06
24985 H 96.87715170343535 72.41965793236456 49.88171513207968 H 0.0 **** 0.06
24986 C 127.4624280175023 136.6044623972417 72.63648527065027 C 0.0 **** -0.24
24987 H 127.84873070578556 137.62052147203792 72.7197840666809 H 0.0 **** 0.06
24988 H 126.3738896140093 136.6321359840149 72.59690283575563 H 0.0 **** 0.06
24989 H 127.78095490088624 136.02351717257508 73.50237312524695 H 0.0 **** 0.06
24990 H 127.84818185219035 136.14239154249563 71.72743301171865 H 0.0 **** 0.06
24991 C 130.57330746320923 63.82484763251529 41.75241507616303 C 0.0 **** -0.24
24992 H 129.5970765691981 64.2251650437162 41.47974736958247 H 0.0 **** 0.06
24993 H 130.5543273259272 62.737514592465345 41.67316150495466 H 0.0 **** 0.06
24994 H 130.80928729690405 64.11114906458607 42.77734799750007 H 0.0 **** 0.06
24995 H 131.3311405713718 64.22539746323795 41.07926777521388 H 0.0 **** 0.06
24996 C 64.80155518985973 14.996014435084561 108.18424263497865 C 0.0 **** -0.24
24997 H 65.50217915369618 15.746480625143619 108.54867506765923 H 0.0 **** 0.06
24998 H 63.995970627382604 15.486089053026944 107.63696401726445 H 0.0 **** 0.06
24999 H 64.38537093834472 14.446941174459056 109.02968083881557 H 0.0 **** 0.06
25000 H 65.32197730129835 14.303427578540862 107.52275737068068 H 0.0 **** 0.06
25001 C 117.20618772465828 105.31342025573933 65.64878665452873 C 0.0 **** -0.24
25002 H 117.9516231633779 105.62254384455589 64.91535762895677 H 0.0 **** 0.06
25003 H 117.62980809324002 105.3903809410845 66.65059519546057 H 0.0 **** 0.06
25004 H 116.91192195843728 104.28257406528773 65.45587161166459 H 0.0 **** 0.06
25005 H 116.33281731922024 105.9612522075155 65.57257387997973 H 0.0 **** 0.06
25006 C 19.88597232210344 87.27400594977306 122.48089360933852 C 0.0 **** -0.24
25007 H 19.25338985438549 87.88634029603992 121.8383147809866 H 0.0 **** 0.06
25008 H 19.26011140702599 86.6502179845498 123.11856997633885 H 0.0 **** 0.06
25009 H 20.507553258291324 87.92081182938435 123.10064904798384 H 0.0 **** 0.06
25010 H 20.52289510249355 86.64054729450294 121.8644879446694 H 0.0 **** 0.06
25011 C 89.03142710087369 147.16229208637526 104.24561917107481 C 0.0 **** -0.24
25012 H 89.29502707314792 148.21768265222244 104.18014189084842 H 0.0 **** 0.06
25013 H 89.35333583682323 146.65060261225136 103.3388065559411 H 0.0 **** 0.06
25014 H 87.95106355343403 147.06424148050095 104.35345784538133 H 0.0 **** 0.06
25015 H 89.52461424183018 146.71800989775724 105.10948155581322 H 0.0 **** 0.06
25016 C 85.91938366271833 149.40354013067756 24.42177465878087 C 0.0 **** -0.24
25017 H 84.9064960606328 149.01023647571046 24.339577347503095 H 0.0 **** 0.06
25018 H 86.61375239674928 148.58221264835387 24.60524889506133 H 0.0 **** 0.06
25019 H 85.9680976746823 150.11259436504778 25.248237921131377 H 0.0 **** 0.06
25020 H 86.19048644281222 149.9073833054393 23.49347790790374 H 0.0 **** 0.06
25021 C 23.53150133621773 17.117716197491205 2.049102243494442 C 0.0 **** -0.24
25022 H 22.760562046391044 17.844746994698824 2.3011126675060574 H 0.0 **** 0.06
25023 H 23.345609466650956 16.18866681009473 2.588876239513553 H 0.0 **** 0.06
25024 H 24.508413497033473 17.512593254467134 2.330541889829984 H 0.0 **** 0.06
25025 H 23.513567715093984 16.92603594046514 0.9758499067122273 H 0.0 **** 0.06
25026 C 92.25465861791287 67.61812405498065 106.76098096589234 C 0.0 **** -0.24
25027 H 92.03580469503456 66.55496278186394 106.66818816164309 H 0.0 **** 0.06
25028 H 92.2635487397235 68.07406882388932 105.77101186864289 H 0.0 **** 0.06
25029 H 93.22983800937841 67.74901061086976 107.23046937163204 H 0.0 **** 0.06
25030 H 91.4894430275151 68.09445400329963 107.37425446165136 H 0.0 **** 0.06
25031 C 10.891214378639006 113.99654213786009 93.38160056448521 C 0.0 **** -0.24
25032 H 11.816805515359249 113.9459500863971 93.9550445252687 H 0.0 **** 0.06
25033 H 10.54490984548056 115.02904866732727 93.34184001368902 H 0.0 **** 0.06
25034 H 10.132748089187544 113.37646261872435 93.85930209944492 H 0.0 **** 0.06
25035 H 11.07181453596013 113.6335948704449 92.36935238318004 H 0.0 **** 0.06
25036 C 22.621732870228414 144.64854803421872 90.20539834452588 C 0.0 **** -0.24
25037 H 22.022969248596098 144.79228524383896 89.30654452571822 H 0.0 **** 0.06
25038 H 23.119565300843107 145.58376926920175 90.4635177605375 H 0.0 **** 0.06
25039 H 23.370603244203238 143.877819928691 90.023706780506 H 0.0 **** 0.06
25040 H 21.97550802962425 144.3414801013547 91.02698168147069 H 0.0 **** 0.06
25041 C 76.09301699389611 124.91066850459458 72.35557756462947 C 0.0 **** -0.24
25042 H 76.31174956594351 123.86804028507237 72.5858186016028 H 0.0 **** 0.06
25043 H 75.6137168066579 125.37993542648351 73.21594983654643 H 0.0 **** 0.06
25044 H 75.42539151376208 124.96107884797334 71.49491936766196 H 0.0 **** 0.06
25045 H 77.02108881552128 125.43417972601529 72.126441861025 H 0.0 **** 0.06
25046 C 77.24555690715175 92.31418988429844 28.178649935346698 C 0.0 **** -0.24
25047 H 77.7588329152648 93.24425690008653 28.422359928733528 H 0.0 **** 0.06
25048 H 76.23790503459269 92.53693385329906 27.82814415539997 H 0.0 **** 0.06
25049 H 77.1912062338081 91.68571677199762 29.06683065307871 H 0.0 **** 0.06
25050 H 77.79510574255436 91.79135470257428 27.39623258298772 H 0.0 **** 0.06
25051 C 148.61530049927947 46.306881772158604 144.0384232230718 C 0.0 **** -0.24
25052 H 148.82450277081915 45.74457326811269 144.94832048706633 H 0.0 **** 0.06
25053 H 149.48787242842937 46.28028795218923 143.38507529738303 H 0.0 **** 0.06
25054 H 148.38457883278795 47.34125891615571 144.29589743541206 H 0.0 **** 0.06
25055 H 147.7628922320945 45.861807782997644 143.52443703446204 H 0.0 **** 0.06
25056 C 75.3134971279703 86.85545346814601 86.04499749367477 C 0.0 **** -0.24
25057 H 76.2092914082109 87.39973535850697 86.34227056158555 H 0.0 **** 0.06
25058 H 74.4630959317632 87.209776579974 86.6292495744526 H 0.0 **** 0.06
25059 H 75.45902141730235 85.79021870433337 86.22301447097146 H 0.0 **** 0.06
25060 H 75.12212292517486 87.02372543365121 84.98576291132267 H 0.0 **** 0.06
25061 C 31.668948760228794 55.16682229095062 62.3782164127134 C 0.0 **** -0.24
25062 H 31.65298861722249 56.16359220665777 61.93943579791453 H 0.0 **** 0.06
25063 H 32.62985935111473 54.69399050949863 62.17024164927176 H 0.0 **** 0.06
25064 H 30.86727653316383 54.56659342013501 61.947762661602 H 0.0 **** 0.06
25065 H 31.527024425399937 55.24234946605952 63.456189791009464 H 0.0 **** 0.06
25066 C 23.69347423520975 83.6853618625183 44.44148773270793 C 0.0 **** -0.24
25067 H 23.49596075688143 83.04031796727499 43.58548757336841 H 0.0 **** 0.06
25068 H 24.094844019348187 83.08986988365646 45.260701402165694 H 0.0 **** 0.06
25069 H 22.765583063048183 84.16198426193203 44.758950447227605 H 0.0 **** 0.06
25070 H 24.41600869781928 84.45120714541834 44.159391226949296 H 0.0 **** 0.06
25071 C 6.322687340313735 71.86533334541096 18.28228310352938 C 0.0 **** -0.24
25072 H 6.550905829284545 71.39186909637165 19.236645912805216 H 0.0 **** 0.06
25073 H 7.2421093241979975 72.24426715357139 17.835761126631297 H 0.0 **** 0.06
25074 H 5.628472873423448 72.69070761679741 18.443047227085344 H 0.0 **** 0.06
25075 H 5.868420429850403 71.1333992800722 17.613355129270843 H 0.0 **** 0.06
25076 C 95.9288895895485 44.43211543824248 67.37078394900065 C 0.0 **** -0.24
25077 H 95.25200573127856 44.10533272579539 66.58210990775271 H 0.0 **** 0.06
25078 H 95.78416929683755 43.81046553594814 68.25450615019395 H 0.0 **** 0.06
25079 H 95.71890112115179 45.472299067875724 67.62057057183345 H 0.0 **** 0.06
25080 H 96.95828920875539 44.34231649430944 67.02656601193088 H 0.0 **** 0.06
25081 C 52.242154374291204 140.92083904703398 30.915500395558126 C 0.0 **** -0.24
25082 H 51.68037825205795 140.17642382602577 31.48007020074718 H 0.0 **** 0.06
25083 H 52.074605949649225 140.76990704618163 29.848382972428425 H 0.0 **** 0.06
25084 H 53.30504249561082 140.81549123129204 31.135321234713473 H 0.0 **** 0.06
25085 H 51.91004836399432 141.9189178721498 31.199242706217888 H 0.0 **** 0.06
25086 C 133.67565478031509 129.5888452013572 48.27078473256651 C 0.0 **** -0.24
25087 H 133.23892957992027 129.8986581771397 49.219708580365904 H 0.0 **** 0.06
25088 H 134.57517277806986 130.17466500061383 48.07680513141494 H 0.0 **** 0.06
25089 H 132.9554353844081 129.75167005355738 47.46941306589491 H 0.0 **** 0.06
25090 H 133.93477403822334 128.53134464292194 48.318316284192036 H 0.0 **** 0.06
25091 C 61.963062567580536 67.37537864653106 85.70227125333716 C 0.0 **** -0.24
25092 H 61.98131529817644 66.55089248986931 84.9901990207622 H 0.0 **** 0.06
25093 H 62.92120260760032 67.42792454504658 86.22022116520084 H 0.0 **** 0.06
25094 H 61.16574873008874 67.21173671234409 86.42736742013356 H 0.0 **** 0.06
25095 H 61.785846618150046 68.30987981747883 85.17069668474926 H 0.0 **** 0.06
25096 C 31.80255427870803 20.91404005670765 101.5321220980438 C 0.0 **** -0.24
25097 H 30.794919552232983 20.98504592100403 101.1220429291726 H 0.0 **** 0.06
25098 H 31.99987940531883 19.884646666900636 101.8325710200868 H 0.0 **** 0.06
25099 H 31.888099075482323 21.569343271369632 102.39853264902682 H 0.0 **** 0.06
25100 H 32.52514078313169 21.217089179269436 100.77483784973757 H 0.0 **** 0.06
25101 C 97.24826224449498 98.15787374379994 11.821149564840226 C 0.0 **** -0.24
25102 H 96.72772962261331 97.20178481457808 11.865984761927848 H 0.0 **** 0.06
25103 H 97.56145380375445 98.44890657464656 12.823758870128358 H 0.0 **** 0.06
25104 H 96.57981497534664 98.91712017263416 11.414928443629236 H 0.0 **** 0.06
25105 H 98.12481675677462 98.06469055676261 11.179294754537267 H 0.0 **** 0.06
25106 C 79.64430381112221 27.839107065829722 5.202017526916421 C 0.0 **** -0.24
25107 H 78.90071568947025 27.66228067909475 5.97890529546433 H 0.0 **** 0.06
25108 H 79.42525947482254 27.209978374744992 4.338989618497806 H 0.0 **** 0.06
25109 H 80.63517576042216 27.59732145653075 5.586644602694776 H 0.0 **** 0.06
25110 H 79.61566021108968 28.88705624709874 4.905201918673413 H 0.0 **** 0.06
25111 C 5.3884315170357695 59.108725265236785 30.79062339133631 C 0.0 **** -0.24
25112 H 4.725039725660906 58.34730238972796 31.198979810166065 H 0.0 **** 0.06
25113 H 4.859028473219631 59.68087185703729 30.028128662258453 H 0.0 **** 0.06
25114 H 6.260578516309749 58.629529665980016 30.34459680750618 H 0.0 **** 0.06
25115 H 5.710304247604732 59.77733862765592 31.589571845338753 H 0.0 **** 0.06
25116 C 78.44829531364843 3.7854049151635145 104.84055882509922 C 0.0 **** -0.24
25117 H 77.91974893786868 4.043327448329972 105.7584690558654 H 0.0 **** 0.06
25118 H 77.94178433995829 4.23997817679318 103.9888450906309 H 0.0 **** 0.06
25119 H 78.45889299478388 2.7017865029160966 104.721108718184 H 0.0 **** 0.06
25120 H 79.47219767696737 4.154838594611437 104.89549681071803 H 0.0 **** 0.06
25121 C 59.9914925083238 115.81991939661026 148.2795854978669 C 0.0 **** -0.24
25122 H 60.73882424917457 115.03105140742201 148.19116000386822 H 0.0 **** 0.06
25123 H 60.28321933409691 116.66722201911779 147.65876086770965 H 0.0 **** 0.06
25124 H 59.92135010663961 116.13900060460094 149.31962382467643 H 0.0 **** 0.06
25125 H 59.02481090669599 115.4423599961275 147.94886809356646 H 0.0 **** 0.06
25126 C 146.51070638743082 88.61848878705995 123.46035648315159 C 0.0 **** -0.24
25127 H 146.60317279190573 89.39256187390289 124.22205084258373 H 0.0 **** 0.06
25128 H 147.37889448248535 88.65054013053532 122.8018865627128 H 0.0 **** 0.06
25129 H 145.60504712667466 88.79011440286938 122.87721027953428 H 0.0 **** 0.06
25130 H 146.45352366624357 87.64100147492556 123.93989605078245 H 0.0 **** 0.06
25131 C 107.00253669602193 47.815026058605696 139.9679865489907 C 0.0 **** -0.24
25132 H 107.28586825902494 47.72033149686146 138.91998195495123 H 0.0 **** 0.06
25133 H 107.25485886544539 46.89614307951162 140.49698188729232 H 0.0 **** 0.06
25134 H 105.92942492986253 47.992670384291245 140.03902257602462 H 0.0 **** 0.06
25135 H 107.53999472975465 48.65095927375833 140.41595977769444 H 0.0 **** 0.06
25136 C 1.1026796193978043 103.07399895811993 74.71046460918622 C 0.0 **** -0.24
25137 H 1.7026234197838903 103.49072342885397 75.51921031670007 H 0.0 **** 0.06
25138 H 0.04876861638808805 103.09932033277876 74.99044491210813 H 0.0 **** 0.06
25139 H 1.4053916846405627 102.04268549304791 74.52688504389673 H 0.0 **** 0.06
25140 H 1.2518139009802098 103.66320111161376 73.80602376156244 H 0.0 **** 0.06
25141 C 65.46264779689385 3.7317512905497665 145.9654983054877 C 0.0 **** -0.24
25142 H 66.14587199317631 2.8859499564567273 145.88297366146082 H 0.0 **** 0.06
25143 H 65.95615262779262 4.633678311156245 145.6046103946096 H 0.0 **** 0.06
25144 H 65.17689260881023 3.865608924793662 147.00846693524758 H 0.0 **** 0.06
25145 H 64.5726859607664 3.538637772745119 145.3663642721489 H 0.0 **** 0.06
25146 C 109.30241258242827 2.2551109211970335 30.50055084843723 C 0.0 **** -0.24
25147 H 109.25054762464882 1.558534859919142 31.337273799864477 H 0.0 **** 0.06
25148 H 109.87817316880378 1.8070935026145492 29.690775189274063 H 0.0 **** 0.06
25149 H 109.78563613330752 3.17692370296232 30.82448553581804 H 0.0 **** 0.06
25150 H 108.29394375676245 2.4767848691113628 30.15064544730967 H 0.0 **** 0.06
25151 C 103.86442879403619 67.01654616266211 59.523726276258884 C 0.0 **** -0.24
25152 H 103.39427089327454 67.31560370390187 58.58728162022325 H 0.0 **** 0.06
25153 H 103.35640689497147 66.13688755163892 59.92043146175578 H 0.0 **** 0.06
25154 H 103.79459798703085 67.83228351198991 60.24292353620987 H 0.0 **** 0.06
25155 H 104.9134040588995 66.78039324252117 59.344078882044414 H 0.0 **** 0.06
25156 C 32.61641104008896 83.89539456964556 105.09964885512638 C 0.0 **** -0.24
25157 H 33.230252218088964 84.76290099068734 104.85663421951442 H 0.0 **** 0.06
25158 H 32.577206616045345 83.77045108143547 106.18227051683108 H 0.0 **** 0.06
25159 H 33.05093771727678 83.0043094259032 104.6465271061305 H 0.0 **** 0.06
25160 H 31.607684540883923 84.04382840062674 104.71405874062309 H 0.0 **** 0.06
25161 C 65.30552484015908 49.407718033635064 141.8687614322386 C 0.0 **** -0.24
25162 H 65.38047216235017 50.31055347459957 141.26181696523895 H 0.0 **** 0.06
25163 H 65.98112944069342 49.48582894415122 142.7203772973693 H 0.0 **** 0.06
25164 H 65.57789763913931 48.54228266953541 141.26610721233587 H 0.0 **** 0.06
25165 H 64.28227524664581 49.294558165896575 142.22520575229117 H 0.0 **** 0.06
25166 C 26.657291888490647 149.73614026055589 51.18378908449978 C 0.0 **** -0.24
25167 H 27.65215783901433 149.8829196662189 51.60490076782821 H 0.0 **** 0.06
25168 H 26.739015185220552 149.57505738327268 50.108393748042346 H 0.0 **** 0.06
25169 H 26.04863913636502 150.6190763766568 51.373723423054116 H 0.0 **** 0.06
25170 H 26.192118634640387 148.8661357378976 51.64744355095223 H 0.0 **** 0.06
25171 C 129.27043184285446 93.58389450298637 143.11924392153946 C 0.0 **** -0.24
25172 H 128.69846158944938 93.79717699895562 144.022140970511 H 0.0 **** 0.06
25173 H 129.93470856408226 94.42113452113131 142.90399501834304 H 0.0 **** 0.06
25174 H 128.58670217510945 93.43779038035937 142.2833678606162 H 0.0 **** 0.06
25175 H 129.8609063426703 92.67905161933814 143.26843092360437 H 0.0 **** 0.06
25176 C 146.51292161859482 111.38528002229133 48.03540218333785 C 0.0 **** -0.24
25177 H 146.92443224902445 112.01689540161463 48.822815991032996 H 0.0 **** 0.06
25178 H 145.96328517145656 112.00313795645856 47.32499325287239 H 0.0 **** 0.06
25179 H 145.8379881808222 110.65021512278837 48.4753260163551 H 0.0 **** 0.06
25180 H 147.3241819380131 110.87148777045856 47.520793926978456 H 0.0 **** 0.06
25181 C 125.22916724099059 31.207055795633778 86.45974354957718 C 0.0 **** -0.24
25182 H 125.63082753920673 31.38874908793813 87.45630464313194 H 0.0 **** 0.06
25183 H 125.590316773327 30.247235653638832 86.0922537621475 H 0.0 **** 0.06
25184 H 125.5541017814846 32.00047093269315 85.78659464134435 H 0.0 **** 0.06
25185 H 124.13995321115902 31.1932202448428 86.50467545988053 H 0.0 **** 0.06
25186 C 28.94698973457389 86.18715174540517 86.70852787974891 C 0.0 **** -0.24
25187 H 29.211090599639704 87.23713151463903 86.8395917873919 H 0.0 **** 0.06
25188 H 27.87294342882393 86.06257668518319 86.84929400033894 H 0.0 **** 0.06
25189 H 29.4822843766231 85.58438509086756 87.44088463773127 H 0.0 **** 0.06
25190 H 29.221781765186506 85.86743007761662 85.70365183912944 H 0.0 **** 0.06
25191 C 79.61605416632231 117.90335571668159 5.009314628396822 C 0.0 **** -0.24
25192 H 79.92453673537592 117.7201777725323 6.038891654441187 H 0.0 **** 0.06
25193 H 80.03169438800387 118.85189229806899 4.6686093888222615 H 0.0 **** 0.06
25194 H 78.52749640624499 117.94400159212775 4.958300511672604 H 0.0 **** 0.06
25195 H 79.97967524587968 117.09722293803533 4.372980520617233 H 0.0 **** 0.06
25196 C 9.217064099048855 41.61686438126783 2.131898784638288 C 0.0 **** -0.24
25197 H 10.26155190434335 41.31230532041103 2.2030501113515406 H 0.0 **** 0.06
25198 H 8.937332186453858 41.71196699467754 1.0830279589994518 H 0.0 **** 0.06
25199 H 9.083760280609823 42.57604973531939 2.6330604990460706 H 0.0 **** 0.06
25200 H 8.587232711981187 40.86637970437053 2.6101306073550354 H 0.0 **** 0.06
25201 C 19.004764053472655 60.618600186803945 140.55155788363237 C 0.0 **** -0.24
25202 H 19.89601312852372 60.016331478715045 140.37404171512839 H 0.0 **** 0.06
25203 H 18.730218344930705 61.14012827210118 139.63438417536548 H 0.0 **** 0.06
25204 H 19.20921135418999 61.347334468792184 141.3372277922881 H 0.0 **** 0.06
25205 H 18.18492144778739 59.97166055661933 140.86205371788304 H 0.0 **** 0.06
25206 C 120.50993157194982 117.4625478940856 84.67607980900073 C 0.0 **** -0.24
25207 H 120.36994034952643 116.81513379513508 83.81150658638441 H 0.0 **** 0.06
25208 H 121.11711157685902 116.9473462205571 85.42125375369267 H 0.0 **** 0.06
25209 H 119.5386802831694 117.70940483410753 85.1060531884524 H 0.0 **** 0.06
25210 H 121.01341492123693 118.37801544713092 84.36676261107617 H 0.0 **** 0.06
25211 C 108.607761710112 25.838014474161696 120.31718265295244 C 0.0 **** -0.24
25212 H 107.67687664498105 25.450186702054594 120.73178864175547 H 0.0 **** 0.06
25213 H 108.99479568798613 26.623426626783527 120.96789764985643 H 0.0 **** 0.06
25214 H 108.42097288618147 26.24705248246292 119.32438190875867 H 0.0 **** 0.06
25215 H 109.33778911877901 25.031212185217868 120.24775964288266 H 0.0 **** 0.06
25216 C 79.41253964656492 98.47758071744424 42.018150401790734 C 0.0 **** -0.24
25217 H 78.69016662057675 99.13804011900315 41.538868584212636 H 0.0 **** 0.06
25218 H 79.48605845493705 98.72775077281254 43.07759105428637 H 0.0 **** 0.06
25219 H 80.38745015165031 98.60179772523502 41.54626255236795 H 0.0 **** 0.06
25220 H 79.08523033726311 97.4437524517022 41.91050656614617 H 0.0 **** 0.06
25221 C 94.0133253516473 138.1329318959932 18.765318237556926 C 0.0 **** -0.24
25222 H 94.43261958573643 137.9885709411739 19.76136932457146 H 0.0 **** 0.06
25223 H 94.62625404191972 138.84649931773404 18.213699277525762 H 0.0 **** 0.06
25224 H 92.99716382328705 138.5172474256336 18.85214447418167 H 0.0 **** 0.06
25225 H 93.99739031112848 137.18075112659355 18.235844622388754 H 0.0 **** 0.06
25226 C 88.6112833626316 133.51277344298444 49.661284665813554 C 0.0 **** -0.24
25227 H 87.99178281054598 133.88737488603329 48.84647529819398 H 0.0 **** 0.06
25228 H 87.98076741017897 133.27258253722823 50.51692852824911 H 0.0 **** 0.06
25229 H 89.33716465182351 134.2744924034368 49.94649700122085 H 0.0 **** 0.06
25230 H 89.1374669449585 132.61596483005027 49.334078864116606 H 0.0 **** 0.06
25231 C 107.75586728518222 67.22535051018728 138.62307798916422 C 0.0 **** -0.24
25232 H 107.83138059228192 68.01364839565129 137.87305283979575 H 0.0 **** 0.06
25233 H 106.7991402121133 67.30499552763472 139.13842586339362 H 0.0 **** 0.06
25234 H 108.56724647608296 67.3309949657473 139.3427081123978 H 0.0 **** 0.06
25235 H 107.82710792405204 66.2526349277064 138.13583095624435 H 0.0 **** 0.06
25236 C 9.51650872803728 52.426016842420495 127.28507224334092 C 0.0 **** -0.24
25237 H 8.91605594053371 51.551361213036415 127.5338983691656 H 0.0 **** 0.06
25238 H 10.453757741983793 52.392897641623875 127.84283292730586 H 0.0 **** 0.06
25239 H 8.968457388637347 53.329831952595924 127.54995416825469 H 0.0 **** 0.06
25240 H 9.72901117117442 52.42914042637497 126.21688154459426 H 0.0 **** 0.06
25241 C 79.84157234107366 111.26242364911757 148.11060280312302 C 0.0 **** -0.24
25242 H 79.72130255144623 111.17953526846891 149.19065149098833 H 0.0 **** 0.06
25243 H 79.97314762664377 112.31092162017283 147.8397199807909 H 0.0 **** 0.06
25244 H 78.95418814543507 110.86807122429043 147.6152888165417 H 0.0 **** 0.06
25245 H 80.71683307123254 110.69296294297025 147.79820139959276 H 0.0 **** 0.06
25246 C 18.306310307831467 96.44006833422677 32.00013081108716 C 0.0 **** -0.24
25247 H 18.78492658894973 97.23492099257949 31.428965201340418 H 0.0 **** 0.06
25248 H 18.136454433955436 95.57982344360647 31.352311229669283 H 0.0 **** 0.06
25249 H 17.352170049268892 96.79541726662009 32.389285005137594 H 0.0 **** 0.06
25250 H 18.95132778707253 96.14968170210906 32.82866414947915 H 0.0 **** 0.06
25251 C 103.65884789363483 14.925691925751494 72.61359188954336 C 0.0 **** -0.24
25252 H 104.6602110759001 14.702314605387983 72.9816636673855 H 0.0 **** 0.06
25253 H 103.69100599521741 15.82176731337222 71.99304029999698 H 0.0 **** 0.06
25254 H 102.98978935989894 15.09237416896886 73.45744387311842 H 0.0 **** 0.06
25255 H 103.29416481206457 14.085942288879693 72.02087245182585 H 0.0 **** 0.06
25256 C 89.68206887279321 107.09890761820708 25.60950357958714 C 0.0 **** -0.24
25257 H 88.78447198610432 107.03127705613343 26.224296572584322 H 0.0 **** 0.06
25258 H 90.34347890946938 107.86496926302385 26.015951429945673 H 0.0 **** 0.06
25259 H 89.40378217338926 107.36141146768904 24.58897395446442 H 0.0 **** 0.06
25260 H 90.19589709362376 106.13734468291523 25.610839150587793 H 0.0 **** 0.06
25261 C 121.56017917113181 58.76788011152301 21.198074599333268 C 0.0 **** -0.24
25262 H 121.98749376784198 58.90563685498563 20.2044419573387 H 0.0 **** 0.06
25263 H 120.48328056505343 58.62218254246122 21.113516372197523 H 0.0 **** 0.06
25264 H 121.76180065235567 59.650565969553995 21.804987228124105 H 0.0 **** 0.06
25265 H 122.01012833634306 57.89288051536086 21.667942630441985 H 0.0 **** 0.06
25266 C 69.64122612530352 144.18949504015953 88.45503577389286 C 0.0 **** -0.24
25267 H 69.22580304802526 144.99839947675733 87.8545961529364 H 0.0 **** 0.06
25268 H 70.02548879293812 144.59361799344035 89.39119938030888 H 0.0 **** 0.06
25269 H 70.45068879784063 143.7081497105791 87.90609739411832 H 0.0 **** 0.06
25270 H 68.86092747403666 143.45788566318697 88.6681537472583 H 0.0 **** 0.06
25271 C 143.14491222815818 35.875010086218566 52.72894010947648 C 0.0 **** -0.24
25272 H 143.3576795104334 34.80960052512337 52.640407413915696 H 0.0 **** 0.06
25273 H 142.12970991458172 36.012315959942484 53.101600615611105 H 0.0 **** 0.06
25274 H 143.23981840041688 36.34620800700279 51.75006582599677 H 0.0 **** 0.06
25275 H 143.8511372169496 36.330921542115334 53.42186683288779 H 0.0 **** 0.06
25276 C 143.45706705676125 116.62585587587556 19.494668143829898 C 0.0 **** -0.24
25277 H 143.50441102343112 115.61664230438608 19.084627867357653 H 0.0 **** 0.06
25278 H 143.87950423522685 116.62911762584473 20.500468197492864 H 0.0 **** 0.06
25279 H 142.4186026135354 116.95338812442198 19.535111702351514 H 0.0 **** 0.06
25280 H 144.02745590960077 117.30282942957739 18.858481962267945 H 0.0 **** 0.06
25281 C 141.27918861511935 143.25662133367257 47.829416458327614 C 0.0 **** -0.24
25282 H 141.0889975452992 142.38432715523527 48.45447221147873 H 0.0 **** 0.06
25283 H 142.33529505089737 143.52321925693303 47.88956044128361 H 0.0 **** 0.06
25284 H 140.67259790667822 144.09307539007872 48.17673160702634 H 0.0 **** 0.06
25285 H 141.02085523138376 143.02515099385363 46.795672844564365 H 0.0 **** 0.06
25286 C 90.73470778659804 23.699911963230676 34.72902959436753 C 0.0 **** -0.24
25287 H 89.99273565950463 24.408756339727148 34.3600966295531 H 0.0 **** 0.06
25288 H 90.89846630470561 23.868113543813934 35.79435580272922 H 0.0 **** 0.06
25289 H 91.67142440673659 23.84217187069649 34.19104024540613 H 0.0 **** 0.06
25290 H 90.37609299151771 22.683265460143247 34.57233323221041 H 0.0 **** 0.06
25291 C 62.231845109116875 132.13173859425626 36.126889306473274 C 0.0 **** -0.24
25292 H 62.37835712634268 132.32490427734226 35.06437779265533 H 0.0 **** 0.06
25293 H 62.91459335942528 132.75358703950081 36.705951326819765 H 0.0 **** 0.06
25294 H 62.432391207838975 131.08055004498019 36.33540405779605 H 0.0 **** 0.06
25295 H 61.2032135054761 132.36632011242403 36.400783483131015 H 0.0 **** 0.06
25296 C 62.41631368780294 101.23681435532103 112.72058248110525 C 0.0 **** -0.24
25297 H 61.66490677524229 100.79625878802022 113.37595102741048 H 0.0 **** 0.06
25298 H 62.30310978307314 100.8310350931759 111.71475914249592 H 0.0 **** 0.06
25299 H 63.41083344618589 101.00001062582959 113.0982422691425 H 0.0 **** 0.06
25300 H 62.28539075422961 102.31863786998065 112.69387001719733 H 0.0 **** 0.06
25301 C 3.9118193612682433 80.64096139141364 56.45784380415432 C 0.0 **** -0.24
25302 H 4.4141722062812505 80.48030282886943 55.503411529985556 H 0.0 **** 0.06
25303 H 3.322112192427454 81.5567512511891 56.40813565085767 H 0.0 **** 0.06
25304 H 4.6570681373918035 80.72926541732747 57.24877943295678 H 0.0 **** 0.06
25305 H 3.2557069169184842 79.79589506677964 56.66926966739726 H 0.0 **** 0.06
25306 C 86.36095820560845 23.103189674435612 2.355642090034536 C 0.0 **** -0.24
25307 H 87.215800590924 23.50335380322292 1.8110177901428415 H 0.0 **** 0.06
25308 H 85.88231313763298 22.32647674130226 1.7593993590069772 H 0.0 **** 0.06
25309 H 85.64761548963544 23.904419114826283 2.550205854143229 H 0.0 **** 0.06
25310 H 86.69827309511098 22.680600181938246 3.301171680870567 H 0.0 **** 0.06
25311 C 45.43126841547772 51.946862440726406 3.531794951270623 C 0.0 **** -0.24
25312 H 45.264426926526426 53.00473532561249 3.7343742093701415 H 0.0 **** 0.06
25313 H 45.79621036608228 51.82585135986406 2.511529202033582 H 0.0 **** 0.06
25314 H 44.495570145353696 51.40258298555631 3.651109782626264 H 0.0 **** 0.06
25315 H 46.171788753496315 51.55547216533806 4.230361925923592 H 0.0 **** 0.06
25316 C 24.72079418654007 44.86993538346171 111.29130094626193 C 0.0 **** -0.24
25317 H 25.710476138072757 44.55129240740895 111.61855279443473 H 0.0 **** 0.06
25318 H 24.001415837055873 44.69997605556301 112.0924757755398 H 0.0 **** 0.06
25319 H 24.427667199049267 44.29719534766852 110.41106579093515 H 0.0 **** 0.06
25320 H 24.744146708633906 45.93082752647834 111.04187759196127 H 0.0 **** 0.06
25321 C 104.42335998554576 149.8643689514119 128.8334687087796 C 0.0 **** -0.24
25322 H 104.26865380991613 150.171184674027 129.86809260683356 H 0.0 **** 0.06
25323 H 103.48803307954604 149.95871117174735 128.28162850183787 H 0.0 **** 0.06
25324 H 104.75727142366374 148.8270909209262 128.80823139875815 H 0.0 **** 0.06
25325 H 105.18113736948122 150.50059537876464 128.3764196457896 H 0.0 **** 0.06
25326 C 63.52113840003125 147.6601925318098 14.673785403524505 C 0.0 **** -0.24
25327 H 63.588248026133684 147.30313340556054 15.700837259851056 H 0.0 **** 0.06
25328 H 64.51559025755144 147.6656586507197 14.226320155603474 H 0.0 **** 0.06
25329 H 63.113360875487075 148.67095291446705 14.666207909950344 H 0.0 **** 0.06
25330 H 62.86860196382332 147.00048175703887 14.10139096165858 H 0.0 **** 0.06
25331 C 108.22192995476979 135.5503262056073 119.04578681855588 C 0.0 **** -0.24
25332 H 107.75021372557723 134.59434862564163 119.2700257487304 H 0.0 **** 0.06
25333 H 107.97213761770001 135.8493375053319 118.02756261322929 H 0.0 **** 0.06
25334 H 109.30359334441414 135.45199403120301 119.14029923462107 H 0.0 **** 0.06
25335 H 107.86315599190482 136.30558363242335 119.74495699934732 H 0.0 **** 0.06
25336 C 13.541381551222003 56.95991416589332 89.10213460217784 C 0.0 **** -0.24
25337 H 13.605974884267852 56.52394234063192 88.10542213756457 H 0.0 **** 0.06
25338 H 14.535341689112414 57.262557975103746 89.43065009597757 H 0.0 **** 0.06
25339 H 13.137078058367251 56.22277853160776 89.79547954236114 H 0.0 **** 0.06
25340 H 12.886594578421892 57.831249277287895 89.07558938476342 H 0.0 **** 0.06
25341 C 88.7853546115 143.30250608614745 149.04509679034274 C 0.0 **** -0.24
25342 H 88.75429747327955 142.54125890699814 149.8240901410522 H 0.0 **** 0.06
25343 H 88.65109216626819 144.28652027777505 149.49340708525304 H 0.0 **** 0.06
25344 H 87.98681980417753 143.11872248436703 148.3258782872987 H 0.0 **** 0.06
25345 H 89.74875249887879 143.2625320780048 148.5361114285973 H 0.0 **** 0.06
25346 C 89.43135866012872 131.49429294042412 96.96088491229143 C 0.0 **** -0.24
25347 H 89.87931795629774 130.5002720383296 96.93921835816361 H 0.0 **** 0.06
25348 H 88.70669042370409 131.58334039528054 96.15146105136043 H 0.0 **** 0.06
25349 H 90.21052231079531 132.246488978053 96.835738490989 H 0.0 **** 0.06
25350 H 88.93055860463298 131.64681053865817 97.91668047213663 H 0.0 **** 0.06
25351 C 87.4612541869345 103.8889291458509 106.70686380574853 C 0.0 **** -0.24
25352 H 88.25649336078908 103.89791338335714 107.45259193423561 H 0.0 **** 0.06
25353 H 87.62835434772217 104.690027180809 105.98681939053455 H 0.0 **** 0.06
25354 H 86.49994235184732 104.03808417476968 107.20045967928957 H 0.0 **** 0.06
25355 H 87.45865921842378 102.92899822274565 106.19024171700363 H 0.0 **** 0.06
25356 C 82.71717215730885 97.77342084068083 94.79170243422386 C 0.0 **** -0.24
25357 H 83.37570579010273 96.90542692525072 94.78148150715596 H 0.0 **** 0.06
25358 H 83.24913304799279 98.63720583751441 94.39002512630552 H 0.0 **** 0.06
25359 H 82.40661093688132 97.98201463545116 95.81483282256282 H 0.0 **** 0.06
25360 H 81.83900313070669 97.57056382401689 94.17887238640107 H 0.0 **** 0.06
25361 C 132.30455122232033 66.85496878237237 37.99062091606227 C 0.0 **** -0.24
25362 H 131.7433711538707 66.91548059217656 37.05854757794173 H 0.0 **** 0.06
25363 H 131.61930019298555 66.65732120884955 38.8155342352937 H 0.0 **** 0.06
25364 H 132.82024445577494 67.7990329349465 38.16593732220905 H 0.0 **** 0.06
25365 H 133.03554578294066 66.04937014915217 37.92354432821488 H 0.0 **** 0.06
25366 C 61.59105044488524 56.41905686773295 34.54211526040634 C 0.0 **** -0.24
25367 H 61.766907327233625 56.08546020778934 35.56469635798221 H 0.0 **** 0.06
25368 H 62.270171898048005 57.23801921038451 34.30468901241648 H 0.0 **** 0.06
25369 H 60.560225687927655 56.76000469181008 34.4434015165893 H 0.0 **** 0.06
25370 H 61.767565428747346 55.59075602905541 33.85489716091242 H 0.0 **** 0.06
25371 C 58.236384648466 42.162800002415864 66.9400108458795 C 0.0 **** -0.24
25372 H 58.55146284361757 42.819033939632746 66.1289989976363 H 0.0 **** 0.06
25373 H 58.37368459305847 41.123170903403164 66.64056370363477 H 0.0 **** 0.06
25374 H 57.18416274498534 42.34124294533194 67.16328577403351 H 0.0 **** 0.06
25375 H 58.83531542145879 42.36800716956738 67.82687633972515 H 0.0 **** 0.06
25376 C 53.99740016057041 95.18316202865324 2.131091882405169 C 0.0 **** -0.24
25377 H 53.11599791034746 94.55053378373181 2.2394850907913018 H 0.0 **** 0.06
25378 H 54.44714780297468 95.34970700775972 3.1095494878653724 H 0.0 **** 0.06
25379 H 53.70633083632379 96.13880063460195 1.6960402127154914 H 0.0 **** 0.06
25380 H 54.71852298893066 94.6903090242536 1.4785428117680972 H 0.0 **** 0.06
25381 C 60.89032136695765 87.33682564035014 140.9944360545958 C 0.0 **** -0.24
25382 H 61.40532871978972 86.80445056034394 140.1950233512423 H 0.0 **** 0.06
25383 H 60.05447375963088 86.73412774450756 141.35235025715784 H 0.0 **** 0.06
25384 H 60.51692033057694 88.28785369504368 140.61564618950166 H 0.0 **** 0.06
25385 H 61.58423834465124 87.51953118585456 141.815042173574 H 0.0 **** 0.06
25386 C 84.3601989665867 128.73909801887416 99.80015233702125 C 0.0 **** -0.24
25387 H 84.03627125589213 128.2936403780145 98.85911522734733 H 0.0 **** 0.06
25388 H 85.44872268383467 128.80369290793723 99.81568117234278 H 0.0 **** 0.06
25389 H 84.02047043229992 128.11999608161315 100.63124249214738 H 0.0 **** 0.06
25390 H 83.93549834597238 129.73816770868987 99.89348823164761 H 0.0 **** 0.06
25391 C 119.02886027971034 3.037458071648615 107.99420328951108 C 0.0 **** -0.24
25392 H 119.56135019602026 3.2929164241415663 108.91009956477986 H 0.0 **** 0.06
25393 H 118.04340068205072 2.6434829986486648 108.24448820594164 H 0.0 **** 0.06
25394 H 119.5933964366774 2.284815529555459 107.44460017519278 H 0.0 **** 0.06
25395 H 118.9175859405657 3.9303159147574718 107.3777972305571 H 0.0 **** 0.06
25396 C 88.33287037767735 76.79054213700125 141.93796791743173 C 0.0 **** -0.24
25397 H 87.33318260436846 77.19900556920726 142.08828255453136 H 0.0 **** 0.06
25398 H 88.28851423779224 75.98297828444244 141.2073307740559 H 0.0 **** 0.06
25399 H 88.71263285002419 76.40501570873954 142.8842090736882 H 0.0 **** 0.06
25400 H 88.99451516132348 77.5765482202654 141.57311983580132 H 0.0 **** 0.06
25401 C 121.30223367249677 116.6114097576392 133.93621655919625 C 0.0 **** -0.24
25402 H 122.17208558992651 116.4755598898634 133.29485170339936 H 0.0 **** 0.06
25403 H 121.28378855647391 115.82919575826986 134.69617351868416 H 0.0 **** 0.06
25404 H 120.39444491352965 116.55453809087186 133.33431065183552 H 0.0 **** 0.06
25405 H 121.35597915000973 117.58775806153199 134.41929931449727 H 0.0 **** 0.06
25406 C 67.97718435640869 39.042013075799275 87.66618866661179 C 0.0 **** -0.24
25407 H 68.86751939775795 39.297329311437224 88.24096220720475 H 0.0 **** 0.06
25408 H 68.20850385235906 38.224423633811455 86.98406532896473 H 0.0 **** 0.06
25409 H 67.65206088537835 39.91197335491714 87.09585164807413 H 0.0 **** 0.06
25410 H 67.18172098246578 38.73594118313537 88.34637580064998 H 0.0 **** 0.06
25411 C 6.813622820698015 43.17257783353281 70.65278243602239 C 0.0 **** -0.24
25412 H 6.59872586447193 42.56590185459922 69.77350033578335 H 0.0 **** 0.06
25413 H 7.592230382191815 42.68992415940703 71.24469309856812 H 0.0 **** 0.06
25414 H 5.909829005185998 43.27288361157308 71.25493609127847 H 0.0 **** 0.06
25415 H 7.153627167384343 44.15924356363065 70.33956009854245 H 0.0 **** 0.06
25416 C 30.959582570761953 92.18190722500802 68.57622290436876 C 0.0 **** -0.24
25417 H 30.93360408487706 91.23440169775597 69.11297407645014 H 0.0 **** 0.06
25418 H 29.98002905211382 92.37941992559963 68.13990633305588 H 0.0 **** 0.06
25419 H 31.707157476757686 92.13111920974278 67.78414345884244 H 0.0 **** 0.06
25420 H 31.217205708921156 92.98405995634022 69.26794814267828 H 0.0 **** 0.06
25421 C 5.485464201275704 82.29630728202054 27.073380638551725 C 0.0 **** -0.24
25422 H 6.249768280939634 81.77985913566138 26.49408709506409 H 0.0 **** 0.06
25423 H 5.473446683778434 83.35145162096623 26.801534247528707 H 0.0 **** 0.06
25424 H 5.706650702946945 82.19747388466695 28.1360207315104 H 0.0 **** 0.06
25425 H 4.510414118026347 81.85533773748196 26.86339320458427 H 0.0 **** 0.06
25426 C 28.901703438562265 38.231130133735235 70.50863177449524 C 0.0 **** -0.24
25427 H 27.95236266155043 38.56899021623855 70.092296380245 H 0.0 **** 0.06
25428 H 29.663232082744663 38.23827578842736 69.72939592198352 H 0.0 **** 0.06
25429 H 28.787449419720176 37.218894162627066 70.89674754233182 H 0.0 **** 0.06
25430 H 29.201646829159884 38.89837348188456 71.31679003108323 H 0.0 **** 0.06
25431 C 6.617322098893226 65.60158492009174 105.45635211625203 C 0.0 **** -0.24
25432 H 7.244085129597181 66.16800888096952 106.14623148139059 H 0.0 **** 0.06
25433 H 6.441247200822886 64.60474168835992 105.86048165275692 H 0.0 **** 0.06
25434 H 7.120529207203447 65.52032997421804 104.49322818917672 H 0.0 **** 0.06
25435 H 5.664354926645785 66.1151232369478 105.32738132872059 H 0.0 **** 0.06
25436 C 22.75816308962027 53.45837698186371 27.68423868388397 C 0.0 **** -0.24
25437 H 23.58976354451113 53.7661830167649 27.049268083906988 H 0.0 **** 0.06
25438 H 22.897991335790095 53.86216454394017 28.68684884729101 H 0.0 **** 0.06
25439 H 22.72074276915771 52.370567618872656 27.731046266994156 H 0.0 **** 0.06
25440 H 21.824404417753954 53.83646530506232 27.266720438038057 H 0.0 **** 0.06
25441 C 60.94048978001351 21.96084628347785 132.89193613017665 C 0.0 **** -0.24
25442 H 60.97321023136871 21.98995948531808 131.80224520028284 H 0.0 **** 0.06
25443 H 61.759511884405455 21.34556314836675 133.26410535476762 H 0.0 **** 0.06
25444 H 59.98970956231091 21.534662316720812 133.21435316051807 H 0.0 **** 0.06
25445 H 61.03744563803146 22.972910413394118 133.28467807543336 H 0.0 **** 0.06
25446 C 79.63943125479717 53.90346778471168 47.823251292541386 C 0.0 **** -0.24
25447 H 80.63815385664269 54.33035527541078 47.91308283277465 H 0.0 **** 0.06
25448 H 79.38238763891695 53.799723154938306 46.76946854198263 H 0.0 **** 0.06
25449 H 78.91874350205079 54.561338375600826 48.30983937653883 H 0.0 **** 0.06
25450 H 79.61832465738429 52.92458955305949 48.301268413489424 H 0.0 **** 0.06
25451 C 147.63199706395142 13.608562307399382 150.00304767762933 C 0.0 **** -0.24
25452 H 147.86846853006978 13.277501599547122 148.9916182178951 H 0.0 **** 0.06
25453 H 147.8823179628708 14.665298565072248 150.10636022943316 H 0.0 **** 0.06
25454 H 148.20982877109435 13.025948634036922 150.72020267662094 H 0.0 **** 0.06
25455 H 146.56838131076 13.466841138502076 150.19097870628997 H 0.0 **** 0.06
25456 C 61.369793689033656 57.02241006301425 104.2579948691375 C 0.0 **** -0.24
25457 H 61.95694902782866 57.33125932888244 105.12332385467214 H 0.0 **** 0.06
25458 H 60.34277627551286 57.36704912158163 104.3736823456136 H 0.0 **** 0.06
25459 H 61.38121869417138 55.934693487898144 104.18082851768814 H 0.0 **** 0.06
25460 H 61.79923680981659 57.45522835978696 103.3541456375586 H 0.0 **** 0.06
25461 C 112.84053496804833 96.54191479800517 32.51560091923267 C 0.0 **** -0.24
25462 H 111.89900785991736 96.10009238167919 32.19119824136558 H 0.0 **** 0.06
25463 H 113.54748905975211 96.54073840259883 31.685755135982475 H 0.0 **** 0.06
25464 H 113.24843179558681 95.95983830921529 33.34221548295406 H 0.0 **** 0.06
25465 H 112.6675407288852 97.56656177362538 32.84454171880955 H 0.0 **** 0.06
25466 C 40.09582925796201 2.76062576903513 56.60823708942597 C 0.0 **** -0.24
25467 H 39.06523672603919 2.669932397731941 56.265894850115345 H 0.0 **** 0.06
25468 H 40.435402548589934 1.7996575879695342 56.99540583779917 H 0.0 **** 0.06
25469 H 40.15151999578268 3.5107902937039057 57.397581906996336 H 0.0 **** 0.06
25470 H 40.73062845622576 3.0617867156066154 55.775333421528785 H 0.0 **** 0.06
25471 C 123.4008518714824 104.086780832434 83.06594489070781 C 0.0 **** -0.24
25472 H 124.01882271558786 103.26682269743351 83.43388541737775 H 0.0 **** 0.06
25473 H 122.88382595206959 104.55518572669196 83.90376202926515 H 0.0 **** 0.06
25474 H 122.6690076205961 103.69894479175305 82.35635364638071 H 0.0 **** 0.06
25475 H 124.03251375803164 104.82344713993318 82.56971360443927 H 0.0 **** 0.06
25476 C 98.14546965210896 31.056199394115197 126.1715874296476 C 0.0 **** -0.24
25477 H 98.53882330809373 30.053180361036368 126.00740706953698 H 0.0 **** 0.06
25478 H 97.29033477900524 31.221934700082272 125.5161275529469 H 0.0 **** 0.06
25479 H 98.91949994662001 31.790752209902678 125.95220488537346 H 0.0 **** 0.06
25480 H 97.83189992328212 31.15712946557153 127.21072439725005 H 0.0 **** 0.06
25481 C 3.69838721332502 59.31828504961783 116.37869878125227 C 0.0 **** -0.24
25482 H 4.364358648617525 59.01996832927102 117.18888499137674 H 0.0 **** 0.06
25483 H 3.5393777183731743 58.47169076313136 115.70973044841205 H 0.0 **** 0.06
25484 H 4.148616054352317 60.140321052925344 115.82309078204193 H 0.0 **** 0.06
25485 H 2.743292895072898 59.6390151621294 116.79315683216575 H 0.0 **** 0.06
25486 C 69.97098618738055 137.4034319322586 50.01279526739626 C 0.0 **** -0.24
25487 H 70.58914188059315 136.66716675531103 50.527240249345695 H 0.0 **** 0.06
25488 H 70.00967531095772 138.35047057025292 50.55193392137721 H 0.0 **** 0.06
25489 H 68.94099088184932 137.04862747775246 49.9751660681856 H 0.0 **** 0.06
25490 H 70.34334007049081 137.54557447923656 48.99818225117686 H 0.0 **** 0.06
25491 C 58.532672271814235 122.61283763065065 49.6845495806207 C 0.0 **** -0.24
25492 H 58.60838748230317 123.60263889665733 49.23405079607947 H 0.0 **** 0.06
25493 H 59.08728741417728 121.8942558713773 49.07950507516685 H 0.0 **** 0.06
25494 H 57.485392254580574 122.31481881663983 49.73476747374659 H 0.0 **** 0.06
25495 H 58.95114481687642 122.63937732969201 50.691775939772455 H 0.0 **** 0.06
25496 C 81.8940884188784 34.15513861604873 90.41245160291535 C 0.0 **** -0.24
25497 H 82.17230843545065 33.672304061797064 89.47565818927424 H 0.0 **** 0.06
25498 H 82.57310235503576 34.984871281582144 90.60915255814226 H 0.0 **** 0.06
25499 H 81.95617679578137 33.431951352521835 91.22636053083053 H 0.0 **** 0.06
25500 H 80.8734139613602 34.53101727786145 90.33857750540545 H 0.0 **** 0.06
25501 C 76.57572850182383 139.2501098609419 30.937136813968493 C 0.0 **** -0.24
25502 H 77.31737032234498 138.50574836727571 31.225869973602954 H 0.0 **** 0.06
25503 H 76.9065278921621 140.2374571651614 31.26049818316639 H 0.0 **** 0.06
25504 H 75.62117508769893 139.0141647332315 31.406846444290636 H 0.0 **** 0.06
25505 H 76.45794021956522 139.24332164378626 29.852898198499048 H 0.0 **** 0.06
25506 C 36.98355257565336 11.358696941427908 50.83920077758427 C 0.0 **** -0.24
25507 H 37.61929332693694 11.331661053784593 51.72342088132123 H 0.0 **** 0.06
25508 H 35.984477362201545 11.691947459249306 51.12050186633431 H 0.0 **** 0.06
25509 H 36.92418221127136 10.361534463808425 50.402871037775896 H 0.0 **** 0.06
25510 H 37.404977128831575 12.04959316318105 50.10884384445383 H 0.0 **** 0.06
25511 C 0.4205767661737241 106.1999215867631 77.88232630184936 C 0.0 **** -0.24
25512 H 0.07365104297485914 107.23225321264262 77.92866682998547 H 0.0 **** 0.06
25513 H 0.9629943633459561 105.95770754884832 78.79647946766542 H 0.0 **** 0.06
25514 H 1.0812898894992884 106.07827667488415 77.0242184108356 H 0.0 **** 0.06
25515 H -0.43500717526922017 105.5330433274501 77.77967173399631 H 0.0 **** 0.06
25516 C 100.47589576932396 66.00889776768685 76.82114532014009 C 0.0 **** -0.24
25517 H 101.10787523659295 65.14976301465319 77.04808572218442 H 0.0 **** 0.06
25518 H 100.6671539528277 66.80177873841063 77.54360744638407 H 0.0 **** 0.06
25519 H 99.42835185358481 65.71258865151233 76.87353929190093 H 0.0 **** 0.06
25520 H 100.70097106539347 66.36950709162332 75.81720581587868 H 0.0 **** 0.06
25521 C 94.59688195180759 61.19681417909595 145.7722043746813 C 0.0 **** -0.24
25522 H 94.3711139589945 61.5342783917351 146.78413086885263 H 0.0 **** 0.06
25523 H 95.07325547794393 60.21719761467372 145.81436055254457 H 0.0 **** 0.06
25524 H 95.2707651361319 61.90806179607509 145.29396720874854 H 0.0 **** 0.06
25525 H 93.67329787128247 61.1276383714748 145.19783374294568 H 0.0 **** 0.06
25526 C 2.1974891001960444 8.064178184094061 75.81326631204908 C 0.0 **** -0.24
25527 H 2.336362187426804 9.140605206790354 75.7122088161563 H 0.0 **** 0.06
25528 H 1.6732212416271608 7.682004502468175 74.93691078893997 H 0.0 **** 0.06
25529 H 1.6094107888146958 7.856743108621828 76.70715840046881 H 0.0 **** 0.06
25530 H 3.1697431709709107 7.578491994862048 75.8963050364697 H 0.0 **** 0.06
25531 C 98.67381235933314 60.284307945972444 118.52948900409139 C 0.0 **** -0.24
25532 H 97.71065977800447 59.93917161513406 118.9056678297347 H 0.0 **** 0.06
25533 H 98.51997279103827 60.86598493973506 117.61926879218426 H 0.0 **** 0.06
25534 H 99.30661215653046 59.42470387803553 118.3077238973736 H 0.0 **** 0.06
25535 H 99.15680912370834 60.90738855028255 119.2818939166748 H 0.0 **** 0.06
25536 C 93.69291377644191 115.99334049641308 120.08944987909375 C 0.0 **** -0.24
25537 H 94.18098783911145 116.19670380735559 119.13570274425568 H 0.0 **** 0.06
25538 H 94.31448211003271 116.36848013407601 120.90240592829925 H 0.0 **** 0.06
25539 H 93.55377086007545 114.91861416442637 120.20306332320173 H 0.0 **** 0.06
25540 H 92.72313727329444 116.48936284296755 120.1129618145166 H 0.0 **** 0.06
25541 C 42.068818892800124 143.31804331636246 71.10624091538267 C 0.0 **** -0.24
25542 H 42.79364914657698 143.61978906476995 71.86162694334553 H 0.0 **** 0.06
25543 H 42.48581494956305 143.4900386549904 70.11344163405033 H 0.0 **** 0.06
25544 H 41.15627409722643 143.90240127209046 71.22328044850991 H 0.0 **** 0.06
25545 H 41.839210122892126 142.25887845694498 71.22574457110773 H 0.0 **** 0.06
25546 C 35.3777831314135 101.70972740802264 58.80220872924366 C 0.0 **** -0.24
25547 H 34.34584139607653 102.0582300571428 58.76930556999025 H 0.0 **** 0.06
25548 H 35.54244589516085 101.14769193892172 59.721429477676395 H 0.0 **** 0.06
25549 H 36.051318801148994 102.56574530979154 58.773774506221514 H 0.0 **** 0.06
25550 H 35.57098479398222 101.06647144862828 57.94229741890507 H 0.0 **** 0.06
25551 C 127.3261618113678 26.44884877872971 148.238115547221 C 0.0 **** -0.24
25552 H 126.30191861889742 26.330044357188797 148.59114368400768 H 0.0 **** 0.06
25553 H 127.38654447082482 26.151048258425078 147.19164660665558 H 0.0 **** 0.06
25554 H 127.9901256865003 25.820882240696506 148.83280412999434 H 0.0 **** 0.06
25555 H 127.6261423424126 27.49187283298778 148.33847979249543 H 0.0 **** 0.06
25556 C 64.12906101470128 128.07539742920727 41.32927460035614 C 0.0 **** -0.24
25557 H 65.09083783525239 128.55153727460487 41.14154437585614 H 0.0 **** 0.06
25558 H 63.714426613492165 128.44884667428818 42.26590498576576 H 0.0 **** 0.06
25559 H 64.26446433408131 126.99653601491127 41.395813478717 H 0.0 **** 0.06
25560 H 63.44516210903774 128.30513924648477 40.51139654326613 H 0.0 **** 0.06
25561 C 91.73533757757507 83.38186309650132 73.24841206744105 C 0.0 **** -0.24
25562 H 91.0049194642631 82.84722466970635 73.85591320090496 H 0.0 **** 0.06
25563 H 91.36014776998452 83.47631874087375 72.22912788601361 H 0.0 **** 0.06
25564 H 92.67485659302844 82.83109291319778 73.24031049145975 H 0.0 **** 0.06
25565 H 91.8985438818809 84.37497972366162 73.66819842818614 H 0.0 **** 0.06
25566 C 42.691110467952 92.2235246714208 55.76541526027535 C 0.0 **** -0.24
25567 H 41.881676754330655 92.80384298508027 55.32267244886452 H 0.0 **** 0.06
25568 H 42.27764137373944 91.50723343279822 56.47695565578363 H 0.0 **** 0.06
25569 H 43.378793437168625 92.89331380990058 56.28098009551377 H 0.0 **** 0.06
25570 H 43.225401672531504 91.68777237574571 54.979874094018896 H 0.0 **** 0.06
25571 C 100.05761064863566 124.9792780702831 54.99131072697497 C 0.0 **** -0.24
25572 H 99.39441055402813 125.04996068780713 54.1294620929981 H 0.0 **** 0.06
25573 H 99.78434087899953 124.11016623861582 55.589299625854835 H 0.0 **** 0.06
25574 H 99.9648368355873 125.88087030697545 55.59602711293945 H 0.0 **** 0.06
25575 H 101.08769551157249 124.87493890530766 54.64847687725393 H 0.0 **** 0.06
25576 C 23.57106281913343 88.03067675247968 128.50378735726423 C 0.0 **** -0.24
25577 H 23.731298690482163 87.48357687244844 129.4332531714299 H 0.0 **** 0.06
25578 H 22.81842817793148 87.51674204538898 127.90531453300531 H 0.0 **** 0.06
25579 H 24.506312793719758 88.08244143649324 127.94674842667962 H 0.0 **** 0.06
25580 H 23.227589309418704 89.0401815719923 128.73196818290285 H 0.0 **** 0.06
25581 C 126.54436354772044 141.36492409590429 100.15979132864744 C 0.0 **** -0.24
25582 H 127.26029232825434 142.0203075604467 99.66345072836445 H 0.0 **** 0.06
25583 H 125.87955241349354 141.96094096314542 100.78446044789446 H 0.0 **** 0.06
25584 H 127.08068547562539 140.6468985334143 100.78035443760564 H 0.0 **** 0.06
25585 H 125.95933442119731 140.8319223025884 99.41067420025338 H 0.0 **** 0.06
25586 C 149.00646794493187 32.9657437864679 102.21679054484262 C 0.0 **** -0.24
25587 H 149.6484108207849 33.69835990696018 101.72570346837325 H 0.0 **** 0.06
25588 H 149.14358007963776 33.028329001964494 103.29602398277437 H 0.0 **** 0.06
25589 H 149.2707522883354 31.965357491654444 101.87349250491725 H 0.0 **** 0.06
25590 H 147.9652845745704 33.171814069754674 101.9690150322091 H 0.0 **** 0.06
25591 C 149.08514196277656 97.64240358714278 74.99569773041584 C 0.0 **** -0.24
25592 H 149.03383972735298 98.70801440627707 74.77168399157728 H 0.0 **** 0.06
25593 H 148.49325668899712 97.08906761561286 74.26611179669689 H 0.0 **** 0.06
25594 H 148.6909739058006 97.46256375070266 75.99646628594024 H 0.0 **** 0.06
25595 H 150.12279203408212 97.3119086455805 74.94960103198241 H 0.0 **** 0.06
25596 C 50.95509075604761 89.69262566807834 109.07470460369012 C 0.0 **** -0.24
25597 H 51.15858617674911 89.15355670595139 108.1494896293143 H 0.0 **** 0.06
25598 H 50.10053511028684 90.35401914329054 108.92838358656957 H 0.0 **** 0.06
25599 H 51.82874465952219 90.28239936598973 109.34979236676332 H 0.0 **** 0.06
25600 H 50.73251723357188 88.98025979539509 109.86871804864 H 0.0 **** 0.06
25601 C 46.41049374059256 82.77819964362111 30.016405712180237 C 0.0 **** -0.24
25602 H 46.64750977178852 82.35032209030533 30.990371664019882 H 0.0 **** 0.06
25603 H 46.830502917590394 83.78212208551078 29.949289915805096 H 0.0 **** 0.06
25604 H 45.32802120459763 82.8276715035608 29.895346821865992 H 0.0 **** 0.06
25605 H 46.83552307320804 82.15305947278917 29.23144119117095 H 0.0 **** 0.06
25606 C 55.070025487077444 50.70050100902289 67.50749469734302 C 0.0 **** -0.24
25607 H 56.01727454301211 50.53001852222661 66.9953341252695 H 0.0 **** 0.06
25608 H 54.40283446997212 49.858067452749154 67.32402985572885 H 0.0 **** 0.06
25609 H 54.612221571807865 51.61505591048744 67.1299150264605 H 0.0 **** 0.06
25610 H 55.24811391845424 50.79718958818859 68.57823289715611 H 0.0 **** 0.06
25611 C 137.6140086350792 26.544021459799637 24.586451638390443 C 0.0 **** -0.24
25612 H 137.87904858618347 27.52831074666733 24.200412899938136 H 0.0 **** 0.06
25613 H 137.4106203784644 26.61575007134553 25.655176452526874 H 0.0 **** 0.06
25614 H 138.4409507141227 25.853832919584875 24.419152315366894 H 0.0 **** 0.06
25615 H 136.72551610433308 26.179096393224597 24.07065010487451 H 0.0 **** 0.06
25616 C 60.79578694081749 95.65266586393496 95.67949159440073 C 0.0 **** -0.24
25617 H 61.253373414341624 96.62598758312237 95.8544113071246 H 0.0 **** 0.06
25618 H 61.56159616596007 94.87825517234138 95.72068366532645 H 0.0 **** 0.06
25619 H 60.32173576725555 95.64484816578116 94.69831025021759 H 0.0 **** 0.06
25620 H 60.04400095400142 95.46235008369209 96.4466671189808 H 0.0 **** 0.06
25621 C 118.17514220648536 81.15661570461546 95.07304470223684 C 0.0 **** -0.24
25622 H 117.18055575741425 81.59387286992094 95.1654215428126 H 0.0 **** 0.06
25623 H 118.79456944556443 81.48226475984401 95.90993247595301 H 0.0 **** 0.06
25624 H 118.6281661404555 81.47976643257161 94.1364464100204 H 0.0 **** 0.06
25625 H 118.09493807967425 80.06906197532149 95.08151291575575 H 0.0 **** 0.06
25626 C 111.34496896881929 118.15451937855522 122.67327919314762 C 0.0 **** -0.24
25627 H 111.27554598692596 117.98253466548442 123.7470758067618 H 0.0 **** 0.06
25628 H 111.53674328690072 117.2081464656311 122.16561544793974 H 0.0 **** 0.06
25629 H 112.15962356257354 118.84892088995542 122.46832576255134 H 0.0 **** 0.06
25630 H 110.40745115118024 118.57723020305053 122.311666977385 H 0.0 **** 0.06
25631 C 103.9306607864069 127.78935798081808 31.317512782230096 C 0.0 **** -0.24
25632 H 103.29286615979142 128.61619633723504 31.00721972734182 H 0.0 **** 0.06
25633 H 104.96575517492361 128.0130512446363 31.059975595328055 H 0.0 **** 0.06
25634 H 103.61770522124571 126.87754826496007 30.80783212048128 H 0.0 **** 0.06
25635 H 103.84631658966696 127.65063607644133 32.395023685769246 H 0.0 **** 0.06
25636 C 87.94157797236518 32.98131641759301 70.080440110072 C 0.0 **** -0.24
25637 H 88.35860468037204 32.049824079482036 70.46294661347957 H 0.0 **** 0.06
25638 H 88.41320853289352 33.227520417379424 69.12976632686616 H 0.0 **** 0.06
25639 H 88.12607908801444 33.78287954963807 70.79629861572846 H 0.0 **** 0.06
25640 H 86.86748590541582 32.8657637418343 69.93489527694294 H 0.0 **** 0.06
25641 C 114.01192789001799 86.93298327653618 39.38214202355587 C 0.0 **** -0.24
25642 H 113.92998494292102 87.34220804193018 38.374796522455085 H 0.0 **** 0.06
25643 H 114.76066527387202 86.14087457084304 39.392467421103476 H 0.0 **** 0.06
25644 H 113.0473166867328 86.5251590130494 39.687197992888485 H 0.0 **** 0.06
25645 H 114.30764961717158 87.7228504397964 40.072402117384485 H 0.0 **** 0.06
25646 C 137.01470585826192 140.75217217174787 123.45008202297568 C 0.0 **** -0.24
25647 H 137.91515814377075 140.4049343115223 123.95775915565646 H 0.0 **** 0.06
25648 H 137.2182202943527 140.8603272255482 122.38475538765788 H 0.0 **** 0.06
25649 H 136.7138999450092 141.71520989916127 123.86251943542585 H 0.0 **** 0.06
25650 H 136.21347794245685 140.02820360035003 123.59679875919794 H 0.0 **** 0.06
25651 C 16.354141808848254 114.24944477516071 105.93738663201248 C 0.0 **** -0.24
25652 H 16.169535122632624 114.55004905772147 106.96842780380462 H 0.0 **** 0.06
25653 H 16.09145090488994 113.19856674985819 105.8133367552656 H 0.0 **** 0.06
25654 H 17.409530171473847 114.38963513059993 105.70155069522184 H 0.0 **** 0.06
25655 H 15.748512183937464 114.85813592449863 105.26629996900942 H 0.0 **** 0.06
25656 C 98.0623497670082 48.74188515613446 146.22217612577217 C 0.0 **** -0.24
25657 H 97.89330687257174 47.975191096841456 146.97820667965405 H 0.0 **** 0.06
25658 H 97.50034823714003 48.49294492450622 145.321462763065 H 0.0 **** 0.06
25659 H 99.12538345346304 48.78936995332157 145.9853194814671 H 0.0 **** 0.06
25660 H 97.72977641290267 49.70719822533016 146.60293208555132 H 0.0 **** 0.06
25661 C 93.57286563383482 149.5869973685205 112.66398447210146 C 0.0 **** -0.24
25662 H 92.70029472502169 149.36272639672805 113.2772454375155 H 0.0 **** 0.06
25663 H 93.43231962255052 150.54847179804915 112.17056152239375 H 0.0 **** 0.06
25664 H 93.69812385212083 148.80685115886413 111.91232577419062 H 0.0 **** 0.06
25665 H 94.46042672788133 149.62825814022 113.29609235102971 H 0.0 **** 0.06
25666 C 25.01794073479524 20.199488800220514 94.18092464527481 C 0.0 **** -0.24
25667 H 24.348323730699498 19.365981978205923 93.96836421505739 H 0.0 **** 0.06
25668 H 24.54770640865562 21.132189042455565 93.866436985646 H 0.0 **** 0.06
25669 H 25.95258124931454 20.062297432178823 93.63792732616056 H 0.0 **** 0.06
25670 H 25.220774504910537 20.237966960776724 95.25131540846562 H 0.0 **** 0.06
25671 C 0.29012795583176043 61.92280795213436 130.8878168075404 C 0.0 **** -0.24
25672 H 1.0337222202031313 62.64398965301959 131.2271352576097 H 0.0 **** 0.06
25673 H 0.6697086137818715 60.91157824406223 131.04007168995858 H 0.0 **** 0.06
25674 H 0.08884483037715896 62.08085916889219 129.8288407186211 H 0.0 **** 0.06
25675 H -0.6299316951751806 62.05520081196249 131.45679645654386 H 0.0 **** 0.06
25676 C 35.94656510462198 94.55571634103637 80.19925922165181 C 0.0 **** -0.24
25677 H 35.47230393187141 95.2075367564716 80.93322378768569 H 0.0 **** 0.06
25678 H 37.022667500962484 94.72719872350591 80.20255824694166 H 0.0 **** 0.06
25679 H 35.546304162580554 94.77301993494751 79.20881547199109 H 0.0 **** 0.06
25680 H 35.742951259655115 93.51593106813992 80.452875919273 H 0.0 **** 0.06
25681 C 118.40405335805653 128.56753162036296 68.90505591510598 C 0.0 **** -0.24
25682 H 117.32951110756127 128.5317026814321 69.08680506647124 H 0.0 **** 0.06
25683 H 118.91473977809798 127.92440736410043 69.62178114499412 H 0.0 **** 0.06
25684 H 118.75725572245258 129.59259649390376 69.0177572127919 H 0.0 **** 0.06
25685 H 118.6115435663722 128.22050352435468 67.89241243000254 H 0.0 **** 0.06
25686 C 43.63482489833413 30.836072070327972 14.036716985780942 C 0.0 **** -0.24
25687 H 43.26432939458354 30.769430641885258 15.059360356478663 H 0.0 **** 0.06
25688 H 43.58462291835251 31.872512611978586 13.699173888838686 H 0.0 **** 0.06
25689 H 43.021055235182544 30.212651676984954 13.386100110678171 H 0.0 **** 0.06
25690 H 44.66810108259554 30.49191197262462 14.000945326074998 H 0.0 **** 0.06
25691 C 118.32103904096938 20.29639259413321 39.81017207765933 C 0.0 **** -0.24
25692 H 118.98537269058092 20.881075396239368 40.445028942087276 H 0.0 **** 0.06
25693 H 118.83834478643284 20.036981925298704 38.88535240295488 H 0.0 **** 0.06
25694 H 117.43190060751157 20.882537449907375 39.57766499995057 H 0.0 **** 0.06
25695 H 118.02865658708119 19.38436350454731 40.33137257128169 H 0.0 **** 0.06
25696 C 70.38239823294106 95.10493693615712 110.85597802685773 C 0.0 **** -0.24
25697 H 71.42589857432523 95.14702212365162 110.5433770535666 H 0.0 **** 0.06
25698 H 70.15002753728015 95.98001345549511 111.46457929513811 H 0.0 **** 0.06
25699 H 70.21491434149061 94.20081869166708 111.44162881285344 H 0.0 **** 0.06
25700 H 69.73965771419938 95.09234310916554 109.97632157859287 H 0.0 **** 0.06
25701 C 113.93242724273505 65.8018412107989 27.29338491887151 C 0.0 **** -0.24
25702 H 114.74595776009913 65.67877286529111 28.00936523868134 H 0.0 **** 0.06
25703 H 112.99338947366665 65.49650766884756 27.756000325219617 H 0.0 **** 0.06
25704 H 114.12335768219772 65.18275562136378 26.417127500268606 H 0.0 **** 0.06
25705 H 113.86750483313831 66.84722491495344 26.99312595998839 H 0.0 **** 0.06
25706 C 20.969417294438443 93.81395859003243 69.2515371699183 C 0.0 **** -0.24
25707 H 21.004179950568926 93.56339992951496 70.31180006215085 H 0.0 **** 0.06
25708 H 21.222161909487767 94.86606834301783 69.11739270746722 H 0.0 **** 0.06
25709 H 19.966012210097233 93.62959192893922 68.86849718006572 H 0.0 **** 0.06
25710 H 21.68462664865322 93.19627363119875 68.70898364249858 H 0.0 **** 0.06
25711 C 21.51614687142917 52.08818607300992 149.14795555478543 C 0.0 **** -0.24
25712 H 22.45273570884944 51.65162804222069 148.79903440148263 H 0.0 **** 0.06
25713 H 21.14242541769493 51.51483258866699 149.996895821982 H 0.0 **** 0.06
25714 H 20.78249021318633 52.06380799495281 148.34156784555185 H 0.0 **** 0.06
25715 H 21.688047942760925 53.11978358891366 149.45197529077913 H 0.0 **** 0.06
25716 C 25.174830724388187 58.60976649951597 73.60496698181734 C 0.0 **** -0.24
25717 H 24.259034100869414 58.378513530234386 73.06097516962656 H 0.0 **** 0.06
25718 H 25.87904850711118 57.7841734739453 73.49730551485622 H 0.0 **** 0.06
25719 H 24.942730212519038 58.75486701704587 74.65962694789799 H 0.0 **** 0.06
25720 H 25.617915418098193 59.520000197708 73.20135945015826 H 0.0 **** 0.06
25721 C 23.74572444631241 131.9302675169439 125.51278584013696 C 0.0 **** -0.24
25722 H 22.980940412460598 131.29498785231203 125.95990397158326 H 0.0 **** 0.06
25723 H 23.28388517405149 132.60003041413995 124.78689696635224 H 0.0 **** 0.06
25724 H 24.486659771436393 131.30720334271908 125.01141733356353 H 0.0 **** 0.06
25725 H 24.232028353446765 132.51650672398097 126.29255477358743 H 0.0 **** 0.06
25726 C 100.59259617080815 71.33944557198153 101.9916153287873 C 0.0 **** -0.24
25727 H 99.88637660905134 70.51641157175006 102.10136710078464 H 0.0 **** 0.06
25728 H 101.57373824924807 70.94314888772713 101.72722414469035 H 0.0 **** 0.06
25729 H 100.66229176149855 71.88590191215239 102.93153683269207 H 0.0 **** 0.06
25730 H 100.24744404449314 72.01074228189432 101.20522597013692 H 0.0 **** 0.06
25731 C 48.552702155454085 103.47692616866193 144.18982181473945 C 0.0 **** -0.24
25732 H 49.005053752719164 103.53564154503148 143.1995824292756 H 0.0 **** 0.06
25733 H 49.31626089665508 103.65149917117309 144.94819561338693 H 0.0 **** 0.06
25734 H 48.11725356404065 102.48844758917544 144.33235274550248 H 0.0 **** 0.06
25735 H 47.7731275990684 104.2330032354772 144.27850345146078 H 0.0 **** 0.06
25736 C 121.89034456025163 127.14871766194838 149.02805181098122 C 0.0 **** -0.24
25737 H 121.10299736826553 127.82327195078258 149.3643201431148 H 0.0 **** 0.06
25738 H 121.68603555289494 126.14125509798819 149.39403212356032 H 0.0 **** 0.06
25739 H 122.85052787948226 127.48850911579731 149.41578784507604 H 0.0 **** 0.06
25740 H 121.92109902496824 127.14028688684309 147.9383653511502 H 0.0 **** 0.06
25741 C 112.01880772292537 87.0643975481578 113.24293286729859 C 0.0 **** -0.24
25742 H 111.85134827037996 87.83569781812476 112.4918179140107 H 0.0 **** 0.06
25743 H 111.99287281877668 86.08295710927139 112.76833875941357 H 0.0 **** 0.06
25744 H 111.2374448013972 87.12110810147735 114.00254624187382 H 0.0 **** 0.06
25745 H 112.99103402502976 87.21743508276694 113.71059084765677 H 0.0 **** 0.06
25746 C 56.16104811512773 136.7110783960992 133.62480513959636 C 0.0 **** -0.24
25747 H 55.22706939448511 136.27848072799475 133.9855370966961 H 0.0 **** 0.06
25748 H 56.711999500559386 137.13645997818438 134.46421362230566 H 0.0 **** 0.06
25749 H 55.94222146184981 137.494932371758 132.89929818221066 H 0.0 **** 0.06
25750 H 56.76133696386029 135.93491786712187 133.1516956805802 H 0.0 **** 0.06
25751 C 9.119329592812562 139.66980497544225 7.399032970712369 C 0.0 **** -0.24
25752 H 8.296044982413378 139.4704641705115 8.085532936914376 H 0.0 **** 0.06
25753 H 10.060370714245721 139.38094204565874 7.867609876002689 H 0.0 **** 0.06
25754 H 9.143105158154128 140.7325119863753 7.159508472751497 H 0.0 **** 0.06
25755 H 8.976171904468913 139.09364263450337 6.48425848508316 H 0.0 **** 0.06
25756 C 38.50151087649772 96.02362492508016 114.23012656557223 C 0.0 **** -0.24
25757 H 38.15759676103636 95.62491325383863 113.275886261536 H 0.0 **** 0.06
25758 H 39.4749076362192 96.49606544583307 114.09672416430162 H 0.0 **** 0.06
25759 H 38.58679056329362 95.21190410890654 114.95313223948561 H 0.0 **** 0.06
25760 H 37.786063443338776 96.76039253125415 114.59494150060569 H 0.0 **** 0.06
25761 C 7.905805482903503 62.9484443238847 124.42975024446898 C 0.0 **** -0.24
25762 H 8.333888335299434 62.84888493328316 125.42697412372209 H 0.0 **** 0.06
25763 H 8.705523050958362 63.11459766543584 123.70714149373637 H 0.0 **** 0.06
25764 H 7.218453082115133 63.794065590447985 124.41231968287369 H 0.0 **** 0.06
25765 H 7.366929979907411 62.036625550636586 124.17195729190942 H 0.0 **** 0.06
25766 C 37.5992327090749 49.054425444844355 111.78281147658863 C 0.0 **** -0.24
25767 H 38.3045403083911 48.76871913626019 112.56349489243759 H 0.0 **** 0.06
25768 H 38.14743086707318 49.363321116216525 110.89252177993096 H 0.0 **** 0.06
25769 H 36.98214814984135 49.88053108435173 112.13466025659118 H 0.0 **** 0.06
25770 H 36.961887496463135 48.20318346244136 111.53997261457612 H 0.0 **** 0.06
25771 C 57.95842904895839 148.08260737935723 139.86989359429458 C 0.0 **** -0.24
25772 H 58.02872246867942 147.0880607787933 140.31062070434905 H 0.0 **** 0.06
25773 H 58.6876385596411 148.17570967296632 139.0647954920332 H 0.0 **** 0.06
25774 H 58.16087450526052 148.83316492773102 140.63323077228821 H 0.0 **** 0.06
25775 H 56.9549133827891 148.23164473377412 139.4712789180035 H 0.0 **** 0.06
25776 C 130.39174081570363 54.081907914309994 56.74082794320009 C 0.0 **** -0.24
25777 H 129.43589408875084 53.613806433968264 56.97575456340003 H 0.0 **** 0.06
25778 H 131.17496237748514 53.323238584735506 56.73180832028767 H 0.0 **** 0.06
25779 H 130.62241064443992 54.83303268136906 57.49626457015553 H 0.0 **** 0.06
25780 H 130.33383773614895 54.557065216812035 55.7624409075722 H 0.0 **** 0.06
25781 C 121.56503415596706 65.78095042020723 20.250509741872975 C 0.0 **** -0.24
25782 H 121.9949238179995 65.11156055947899 20.996159528996486 H 0.0 **** 0.06
25783 H 122.31302803716261 66.51457202962169 19.947706144558822 H 0.0 **** 0.06
25784 H 120.70365535073336 66.2943373548176 20.67691549445857 H 0.0 **** 0.06
25785 H 121.25069919627805 65.20263335861361 19.38215476629142 H 0.0 **** 0.06
25786 C 141.27219287949114 15.95520023961275 121.14467341214271 C 0.0 **** -0.24
25787 H 141.97452727161127 15.148255954515705 121.35742177137467 H 0.0 **** 0.06
25788 H 141.1562718931337 16.05942252444993 120.0651746491011 H 0.0 **** 0.06
25789 H 141.65470064588249 16.887274214948526 121.56105714086618 H 0.0 **** 0.06
25790 H 140.3068940748526 15.724972126324886 121.59470639901417 H 0.0 **** 0.06
25791 C 26.720838813327788 121.26106769209237 142.16663706753212 C 0.0 **** -0.24
25792 H 26.700502772492882 121.93891784011113 141.31316409573913 H 0.0 **** 0.06
25793 H 27.701595977804658 120.7893984394991 142.23205880492975 H 0.0 **** 0.06
25794 H 25.955998974424375 120.49422588514368 142.04002671032208 H 0.0 **** 0.06
25795 H 26.524501297062045 121.82230730303284 143.08025305210668 H 0.0 **** 0.06
25796 C 0.47033823826775034 40.20536081582203 53.71628707060472 C 0.0 **** -0.24
25797 H -0.46999714030765105 40.43403522234472 54.21815446937197 H 0.0 **** 0.06
25798 H 0.6872687777334363 39.142164850954956 53.81818385645147 H 0.0 **** 0.06
25799 H 1.2742736283665437 40.78497873918053 54.17036244761698 H 0.0 **** 0.06
25800 H 0.39026785338973724 40.460376906379224 52.65932821182042 H 0.0 **** 0.06
25801 C 119.74543001896875 136.94681587215243 3.8327248883859397 C 0.0 **** -0.24
25802 H 119.11364149979728 137.3626655460077 4.617641318575977 H 0.0 **** 0.06
25803 H 119.42910093391556 135.9261024528788 3.6149944262163274 H 0.0 **** 0.06
25804 H 120.78323035275993 136.94224729380522 4.164976381648131 H 0.0 **** 0.06
25805 H 119.65460754492129 137.5554508133409 2.933032012253477 H 0.0 **** 0.06
25806 C 133.78810771893924 102.9902336062511 103.1427914445156 C 0.0 **** -0.24
25807 H 134.05003356148984 104.02312737593705 102.91172256898123 H 0.0 **** 0.06
25808 H 134.66412168252248 102.47321303672885 103.53483833112601 H 0.0 **** 0.06
25809 H 133.4457462857153 102.49146690871291 102.23685443628415 H 0.0 **** 0.06
25810 H 132.9933252690588 102.97649100795765 103.8887756879753 H 0.0 **** 0.06
25811 C 67.0197007812052 100.89342177840746 73.48734624092916 C 0.0 **** -0.24
25812 H 66.0974617795983 100.5778393642986 73.97460123241123 H 0.0 **** 0.06
25813 H 67.73166808327971 100.06711776678928 73.48868134378031 H 0.0 **** 0.06
25814 H 67.44405883335136 101.74034841839844 74.02685064843084 H 0.0 **** 0.06
25815 H 66.80639847806363 101.18761473507891 72.46014466283808 H 0.0 **** 0.06
25816 C 87.26098058793654 148.3958496737784 77.59324243099681 C 0.0 **** -0.24
25817 H 87.50390983740915 147.9410781517912 76.63310404961092 H 0.0 **** 0.06
25818 H 88.12393186839411 148.3262621832389 78.256108316585 H 0.0 **** 0.06
25819 H 86.41639830031475 147.87098472428127 78.03938368494622 H 0.0 **** 0.06
25820 H 86.99999541371457 149.44359440782907 77.44352869782816 H 0.0 **** 0.06
25821 C 0.5546185293202335 46.605532458319644 62.58177074724006 C 0.0 **** -0.24
25822 H -0.005924945126093206 46.675164775250025 63.513567295906626 H 0.0 **** 0.06
25823 H 1.2618350322956466 47.43380146285968 62.521439820206496 H 0.0 **** 0.06
25824 H -0.13508772951156445 46.65498706698202 61.73929345092719 H 0.0 **** 0.06
25825 H 1.0971167749342001 45.660735534469765 62.55386203807015 H 0.0 **** 0.06
25826 C 35.05180609383672 135.2286084788196 39.75324330383032 C 0.0 **** -0.24
25827 H 34.5274909793402 135.28231738928676 38.79895639193083 H 0.0 **** 0.06
25828 H 35.40577438720021 134.2101203626754 39.915975981956635 H 0.0 **** 0.06
25829 H 34.37230322194313 135.51001128912026 40.55763237864568 H 0.0 **** 0.06
25830 H 35.90217481044277 135.91136880113007 39.739246076577444 H 0.0 **** 0.06
25831 C 42.712935780159825 93.90952931936236 107.01880550096449 C 0.0 **** -0.24
25832 H 43.56184190135764 93.32398479470572 106.66577789322166 H 0.0 **** 0.06
25833 H 43.039037944873414 94.57544958669754 107.81821783941366 H 0.0 **** 0.06
25834 H 41.940789472426985 93.23976573669081 107.39527229707313 H 0.0 **** 0.06
25835 H 42.311566739124984 94.49932245233157 106.19433933509025 H 0.0 **** 0.06
25836 C 41.35940553158815 59.19806552770203 138.3526202589937 C 0.0 **** -0.24
25837 H 40.36036765346742 59.56747610123219 138.5880702506345 H 0.0 **** 0.06
25838 H 41.31700687648201 58.121317499391935 138.18433308603375 H 0.0 **** 0.06
25839 H 42.03057746867921 59.41052073068582 139.18491798790535 H 0.0 **** 0.06
25840 H 41.726440682815294 59.693334782748735 137.45380880051215 H 0.0 **** 0.06
25841 C 10.965562749200927 60.31219635206554 43.628608173191395 C 0.0 **** -0.24
25842 H 11.459882733385513 59.991165904685744 44.5454945829796 H 0.0 **** 0.06
25843 H 10.619521094971589 61.339416095993926 43.74252589610772 H 0.0 **** 0.06
25844 H 10.113494340795683 59.661953293835325 43.42972658315627 H 0.0 **** 0.06
25845 H 11.667834110488087 60.25471815403219 42.79727451133702 H 0.0 **** 0.06
25846 C 139.63338990475006 30.883182975422272 19.8414199919512 C 0.0 **** -0.24
25847 H 139.39933953060694 30.191832694335773 20.650738644698926 H 0.0 **** 0.06
25848 H 140.70135615485626 31.103193705155135 19.84983931408211 H 0.0 **** 0.06
25849 H 139.07099465831502 31.806027316410265 19.977413857147006 H 0.0 **** 0.06
25850 H 139.3639851058899 30.43046073621815 18.887484935898932 H 0.0 **** 0.06
25851 C 109.0554110812745 137.40040431017638 130.57885056811364 C 0.0 **** -0.24
25852 H 108.40186511629453 136.7970540534102 131.20847553898338 H 0.0 **** 0.06
25853 H 109.99353961016662 137.58545672037909 131.1014268087767 H 0.0 **** 0.06
25854 H 108.5679125002947 138.35031585350296 130.35701568093776 H 0.0 **** 0.06
25855 H 109.25589719216511 136.86890268880202 129.64877271330576 H 0.0 **** 0.06
25856 C 27.477506607623667 121.81991615194733 53.4063959813398 C 0.0 **** -0.24
25857 H 28.106476234672527 122.29633673174988 52.65422769455249 H 0.0 **** 0.06
25858 H 28.046985911519357 121.68885359528139 54.32657010404773 H 0.0 **** 0.06
25859 H 27.14901092715283 120.84632573219687 53.040668187819165 H 0.0 **** 0.06
25860 H 26.60816762091278 122.44693991235584 53.602077816846446 H 0.0 **** 0.06
25861 C 51.489838242902806 132.8523230361846 93.66040316483733 C 0.0 **** -0.24
25862 H 50.58371487668224 133.34439477404607 93.30480874698276 H 0.0 **** 0.06
25863 H 51.96613945236568 133.47275359535405 94.41978289572967 H 0.0 **** 0.06
25864 H 52.175595126799536 132.70815888311347 92.82494298556722 H 0.0 **** 0.06
25865 H 51.231602767636375 131.88474755474596 94.0896030880115 H 0.0 **** 0.06
25866 C 98.66085839116772 119.71062227207996 12.15292780033397 C 0.0 **** -0.24
25867 H 99.71665957416434 119.55241770307715 12.369860076667848 H 0.0 **** 0.06
25868 H 98.11185183262226 119.82468772709034 13.088533174201771 H 0.0 **** 0.06
25869 H 98.2707092949076 118.85341545162167 11.604846047195942 H 0.0 **** 0.06
25870 H 98.54528636773347 120.61156240094122 11.550635957097064 H 0.0 **** 0.06
25871 C 98.54140552036972 63.72362803006605 138.95961504565614 C 0.0 **** -0.24
25872 H 98.79177583607611 62.75499665608464 138.52433865754907 H 0.0 **** 0.06
25873 H 99.45180160128518 64.30976651448451 139.08598413061915 H 0.0 **** 0.06
25874 H 98.06734785545893 63.57362502273101 139.92944281421086 H 0.0 **** 0.06
25875 H 97.85592283978298 64.25299098999348 138.29739766838 H 0.0 **** 0.06
25876 C 60.75506939410468 98.15171948892043 27.77252446994507 C 0.0 **** -0.24
25877 H 60.346683264404476 97.2424841212648 28.214389066879967 H 0.0 **** 0.06
25878 H 60.46101947647617 99.01170959767069 28.374668274720875 H 0.0 **** 0.06
25879 H 60.37076919492567 98.2675383575417 26.759203285120513 H 0.0 **** 0.06
25880 H 61.843215512833794 98.08250254162465 27.742849869849806 H 0.0 **** 0.06
25881 C 86.77425265157791 118.35766585793232 123.63974366734318 C 0.0 **** -0.24
25882 H 86.39741741978872 119.33801257289099 123.93021223122203 H 0.0 **** 0.06
25883 H 87.81630565247079 118.26329331631331 123.94740728117164 H 0.0 **** 0.06
25884 H 86.70382902815996 118.24736642133712 122.55782314545174 H 0.0 **** 0.06
25885 H 86.18041196280859 117.5821093224219 124.12325454985954 H 0.0 **** 0.06
25886 C 43.19220219063175 149.32170741233423 105.3245400883684 C 0.0 **** -0.24
25887 H 43.16415624883484 150.37895810983423 105.06235915414499 H 0.0 **** 0.06
25888 H 42.361832134249084 148.8058711214785 104.84280680292147 H 0.0 **** 0.06
25889 H 43.1101397186161 149.21337090075957 106.40657589066996 H 0.0 **** 0.06
25890 H 44.13386787931188 148.8893788926639 104.98743293098443 H 0.0 **** 0.06
25891 C 102.62384658827642 32.47550797030277 72.58293499860133 C 0.0 **** -0.24
25892 H 103.70384784282611 32.366610566670545 72.48721089228012 H 0.0 **** 0.06
25893 H 102.32095015471442 33.44619092350325 72.19080896640577 H 0.0 **** 0.06
25894 H 102.34385041799793 32.40397482576827 73.63349608882193 H 0.0 **** 0.06
25895 H 102.12785519811757 31.685175086141726 72.01936072472486 H 0.0 **** 0.06
25896 C 143.88078147019576 19.191534431965493 66.74424498969883 C 0.0 **** -0.24
25897 H 143.0716220323369 18.644409824856808 66.26014359080489 H 0.0 **** 0.06
25898 H 143.7645996434412 20.25775675096793 66.54983245385957 H 0.0 **** 0.06
25899 H 144.83767401071046 18.852046517687683 66.34649991802493 H 0.0 **** 0.06
25900 H 143.84954238709184 19.01154950040646 67.81832179694325 H 0.0 **** 0.06
25901 C 136.21206185177158 90.66700795411478 127.97295170943212 C 0.0 **** -0.24
25902 H 135.64175549941945 90.5107264302313 127.0572644072217 H 0.0 **** 0.06
25903 H 136.43522580302147 91.7286178604209 128.08388763145226 H 0.0 **** 0.06
25904 H 137.14273190224094 90.10280024162209 127.921957979415 H 0.0 **** 0.06
25905 H 135.6267106443757 90.32743536128282 128.82662837592017 H 0.0 **** 0.06
25906 C 103.51065034208354 30.480743505451755 97.42626701845268 C 0.0 **** -0.24
25907 H 104.37594635118664 29.859742891053713 97.65693023242898 H 0.0 **** 0.06
25908 H 103.835428658776 31.507405395238095 97.254110313014 H 0.0 **** 0.06
25909 H 102.81260968150151 30.45637579924326 98.26376924369856 H 0.0 **** 0.06
25910 H 103.01795529561856 30.10067704976298 96.53200669832839 H 0.0 **** 0.06
25911 C 4.077265054614259 70.20489088423884 120.41204791397662 C 0.0 **** -0.24
25912 H 3.5795188467589583 69.42182241523423 119.84060504994129 H 0.0 **** 0.06
25913 H 5.027467641994946 70.45262415817027 119.93695863832478 H 0.0 **** 0.06
25914 H 4.259712258767394 69.85469063300133 121.42785708610843 H 0.0 **** 0.06
25915 H 3.443793309944425 71.09139507111055 120.44053220523038 H 0.0 **** 0.06
25916 C 123.9201419404235 45.82311651523612 38.38319047122915 C 0.0 **** -0.24
25917 H 124.11813334468722 44.99719277184734 39.06552309881518 H 0.0 **** 0.06
25918 H 124.24281486911771 45.549305799109135 37.37764463252148 H 0.0 **** 0.06
25919 H 124.46689642503974 46.70606591943124 38.71286354374409 H 0.0 **** 0.06
25920 H 122.85179356033693 46.03907036629346 38.3748744859147 H 0.0 **** 0.06
25921 C 72.10338630779118 94.12615747706123 147.8532847014278 C 0.0 **** -0.24
25922 H 71.77012225929046 93.17082095570522 147.44640544186947 H 0.0 **** 0.06
25923 H 71.68436827483886 94.26236602362721 148.8503843013478 H 0.0 **** 0.06
25924 H 71.76813172274024 94.93417432386342 147.2030396535505 H 0.0 **** 0.06
25925 H 73.19246811217197 94.13458670916161 147.91211760946487 H 0.0 **** 0.06
25926 C 91.70496743022389 87.61732737920865 114.01341793314357 C 0.0 **** -0.24
25927 H 92.30922912133143 88.39204508553145 113.5432501920909 H 0.0 **** 0.06
25928 H 90.72326445558981 87.58525775437344 113.54039329553363 H 0.0 **** 0.06
25929 H 91.58959324265962 87.83989658738585 115.07448308206297 H 0.0 **** 0.06
25930 H 92.19637310471167 86.65199831707974 113.89553783791625 H 0.0 **** 0.06
25931 C 60.900432396214825 80.75655208378285 120.99845526016384 C 0.0 **** -0.24
25932 H 60.639970525110755 79.7131786866311 121.17332953777225 H 0.0 **** 0.06
25933 H 60.842567717179094 80.97091352247872 119.93093412902857 H 0.0 **** 0.06
25934 H 61.913866063371444 80.94283178027479 121.35341659267004 H 0.0 **** 0.06
25935 H 60.203110005521694 81.39958289424112 121.53620090055665 H 0.0 **** 0.06
25936 C 63.67709900227703 4.00234414528374 70.52756380681502 C 0.0 **** -0.24
25937 H 63.34737049333722 4.428400233758634 69.58048314986695 H 0.0 **** 0.06
25938 H 63.39846751782005 2.9495311210425044 70.57005741277024 H 0.0 **** 0.06
25939 H 63.20343562574942 4.537349794651654 71.35119083136861 H 0.0 **** 0.06
25940 H 64.76036820903357 4.094706570142609 70.61027728224734 H 0.0 **** 0.06
25941 C 119.28238793074618 35.99656626216522 114.88706225658508 C 0.0 **** -0.24
25942 H 118.53518528878246 36.28682747253848 115.62606438560768 H 0.0 **** 0.06
25943 H 120.10017029092987 35.475101923065495 115.38426184499993 H 0.0 **** 0.06
25944 H 119.66641653775716 36.886575350751514 114.38985878972925 H 0.0 **** 0.06
25945 H 118.82560766130334 35.33658855964562 114.1494460227489 H 0.0 **** 0.06
25946 C 84.03268609577361 97.17227611891732 40.84888203500958 C 0.0 **** -0.24
25947 H 83.4565637400451 96.47270940919654 41.45452791679412 H 0.0 **** 0.06
25948 H 84.6384118859813 96.61815741174104 40.13288891071039 H 0.0 **** 0.06
25949 H 84.68208480631766 97.76239635524757 41.495217002906884 H 0.0 **** 0.06
25950 H 83.35194946890634 97.8356186505604 40.31428793195471 H 0.0 **** 0.06
25951 C 57.506402661755715 88.23066711501146 67.67672047992853 C 0.0 **** -0.24
25952 H 56.82798824369172 87.38841072442042 67.8079168513978 H 0.0 **** 0.06
25953 H 57.13137110403693 88.88028489465736 66.88568030045822 H 0.0 **** 0.06
25954 H 58.49595610476007 87.86171317600653 67.40681223375124 H 0.0 **** 0.06
25955 H 57.57046984544348 88.79304006030702 68.60878785260958 H 0.0 **** 0.06
25956 C 82.73319448361005 34.00157250009619 82.22514219983702 C 0.0 **** -0.24
25957 H 82.17890894456545 33.20126397234954 82.71432442140257 H 0.0 **** 0.06
25958 H 82.5676972837613 33.95362362284127 81.14856564065732 H 0.0 **** 0.06
25959 H 83.7965421866696 33.88867899805732 82.43572043254017 H 0.0 **** 0.06
25960 H 82.38937078003127 34.96516280045802 82.60336639101878 H 0.0 **** 0.06
25961 C 76.0735993173115 8.775305696560963 139.51669596762213 C 0.0 **** -0.24
25962 H 76.9287790880209 8.238688877075163 139.92758577422035 H 0.0 **** 0.06
25963 H 75.40975489068033 9.076936088268269 140.32712189318545 H 0.0 **** 0.06
25964 H 75.53449754244744 8.125683225773287 138.8272778075479 H 0.0 **** 0.06
25965 H 76.4226135261765 9.660252721822928 138.98422499043875 H 0.0 **** 0.06
25966 C 6.837536041225647 102.4311173607317 6.266733531740982 C 0.0 **** -0.24
25967 H 7.438332174185966 101.5661716732402 6.548338678126441 H 0.0 **** 0.06
25968 H 7.343021542867703 103.34316926585426 6.5847857737618085 H 0.0 **** 0.06
25969 H 5.862877132488354 102.36874678947139 6.750228505242717 H 0.0 **** 0.06
25970 H 6.70619746219981 102.44458441192813 5.185221043042503 H 0.0 **** 0.06
25971 C 68.71800098454536 90.65317706476057 105.16224414942843 C 0.0 **** -0.24
25972 H 68.64659270148053 91.34173242178349 104.32023591659731 H 0.0 **** 0.06
25973 H 68.16294926553311 91.05787203260431 106.00901689611908 H 0.0 **** 0.06
25974 H 69.76414257140283 90.52488813356467 105.4396503568168 H 0.0 **** 0.06
25975 H 68.29673550666898 89.68870631839368 104.87827043969253 H 0.0 **** 0.06
25976 C 115.58846210650431 6.187822570811136 91.29375071330303 C 0.0 **** -0.24
25977 H 114.7457277587471 6.792054160033274 90.95961683754028 H 0.0 **** 0.06
25978 H 115.39097688047106 5.137554145223476 91.0788569987242 H 0.0 **** 0.06
25979 H 115.72807224046939 6.3205634236188075 92.36642090802292 H 0.0 **** 0.06
25980 H 116.49056509963471 6.502023302835482 90.7683902764701 H 0.0 **** 0.06
25981 C 17.602924249278004 93.82264786895549 19.473612711905417 C 0.0 **** -0.24
25982 H 16.640882753948546 94.23813512624274 19.774836902159166 H 0.0 **** 0.06
25983 H 17.72195373294943 93.92471907543263 18.395590038721053 H 0.0 **** 0.06
25984 H 17.64389091783653 92.76840931737591 19.74641899999679 H 0.0 **** 0.06
25985 H 18.404613419690293 94.36027648444106 19.98076304526026 H 0.0 **** 0.06
25986 C 31.21099313769688 91.69733000808809 51.81847998076388 C 0.0 **** -0.24
25987 H 31.77245738374247 90.90608631623108 52.313739255146146 H 0.0 **** 0.06
25988 H 31.600868070518445 92.66721535750347 52.12760363624945 H 0.0 **** 0.06
25989 H 30.158543965389164 91.62332445708961 52.09574424338676 H 0.0 **** 0.06
25990 H 31.310365270982025 91.5915626894658 50.73875645512442 H 0.0 **** 0.06
25991 C 120.9320530218068 89.75591499220343 128.2559231005737 C 0.0 **** -0.24
25992 H 120.3557846018354 90.20647788477805 129.0641070382995 H 0.0 **** 0.06
25993 H 120.51070506133941 88.78119157065578 128.00948316764953 H 0.0 **** 0.06
25994 H 121.96794350974422 89.6348907074615 128.57378710769518 H 0.0 **** 0.06
25995 H 120.89347521831128 90.40148992288472 127.37943853922643 H 0.0 **** 0.06
25996 C 92.09532155914631 99.4760232053001 115.83150704265474 C 0.0 **** -0.24
25997 H 91.14448178100339 98.94929886094242 115.90804879012238 H 0.0 **** 0.06
25998 H 92.81817197825313 99.0229660937695 116.5110473739863 H 0.0 **** 0.06
25999 H 91.95255536537695 100.52311671923421 116.09933998689893 H 0.0 **** 0.06
26000 H 92.4664689641889 99.40921434625253 114.80885428574551 H 0.0 **** 0.06
26001 C 65.62870831551538 114.16683380333694 3.7717229680530124 C 0.0 **** -0.24
26002 H 64.58766615064405 113.84401088904491 3.7927959971709697 H 0.0 **** 0.06
26003 H 65.68427121395268 115.18965254653409 3.3971283602986944 H 0.0 **** 0.06
26004 H 66.20028527992662 113.5085207777899 3.1177442180375863 H 0.0 **** 0.06
26005 H 66.04169705298625 114.12513734022605 4.779629806017084 H 0.0 **** 0.06
26006 C 75.49349591143869 6.432039698385303 116.62781978162843 C 0.0 **** -0.24
26007 H 76.28649663610767 6.033913231654914 115.99386813296923 H 0.0 **** 0.06
26008 H 75.07290485137557 7.325303332843035 116.16597162053785 H 0.0 **** 0.06
26009 H 75.90276299707651 6.686370630948321 117.60517779576355 H 0.0 **** 0.06
26010 H 74.71185516020662 5.681601056858529 116.74602326991982 H 0.0 **** 0.06
26011 C 6.304426603878852 124.64000460693406 42.900382411757306 C 0.0 **** -0.24
26012 H 6.060642512019285 125.07585462576209 43.86899871527473 H 0.0 **** 0.06
26013 H 6.359053019825552 125.4302709739923 42.15136136839973 H 0.0 **** 0.06
26014 H 5.5329806203934595 123.92408267639901 42.61989657730285 H 0.0 **** 0.06
26015 H 7.266617614045401 124.13229912048972 42.96334320998321 H 0.0 **** 0.06
26016 C 103.5936196247009 98.2302595086905 105.67455635661813 C 0.0 **** -0.24
26017 H 102.89540771493914 97.50320129260263 106.0882590668713 H 0.0 **** 0.06
26018 H 104.60251076162429 98.00087306866956 106.01640572516376 H 0.0 **** 0.06
26019 H 103.31518858376451 99.2310799620798 106.00672816531207 H 0.0 **** 0.06
26020 H 103.55921148263421 98.18637178448874 104.58578528478759 H 0.0 **** 0.06
26021 C 46.01768373190086 4.521382508608852 88.82643072207935 C 0.0 **** -0.24
26022 H 45.89908265829112 3.4418085478820046 88.92807420351684 H 0.0 **** 0.06
26023 H 46.50589377456487 4.917734348280181 89.71660972000089 H 0.0 **** 0.06
26024 H 45.03840657527209 4.9852577150367985 88.71113326567743 H 0.0 **** 0.06
26025 H 46.62847406120295 4.738001610359756 87.94935782663927 H 0.0 **** 0.06
26026 C 136.45259178164847 45.28318269552017 62.702286489160585 C 0.0 **** -0.24
26027 H 137.4582437458254 44.978510687364576 62.993263472199786 H 0.0 **** 0.06
26028 H 136.49623997237592 46.25530298296272 62.20857548059152 H 0.0 **** 0.06
26029 H 135.82396103692525 45.354347130592714 63.59033295284482 H 0.0 **** 0.06
26030 H 136.0326754801891 44.546634728432934 62.018055654241465 H 0.0 **** 0.06
26031 C 92.41816231592175 84.54773946474745 40.68937564425903 C 0.0 **** -0.24
26032 H 93.4635084660555 84.76247920392319 40.908988297604935 H 0.0 **** 0.06
26033 H 92.34669471933454 84.02774944927368 39.733685696027635 H 0.0 **** 0.06
26034 H 91.85912136142362 85.48203701702344 40.637812299569674 H 0.0 **** 0.06
26035 H 92.00332471687328 83.91869218876958 41.477016283833905 H 0.0 **** 0.06
26036 C 30.166856225381927 102.27667938958007 52.4759034331903 C 0.0 **** -0.24
26037 H 30.71359701866119 101.33909831682845 52.57804907531448 H 0.0 **** 0.06
26038 H 30.87139022967814 103.09119526961759 52.30900170919324 H 0.0 **** 0.06
26039 H 29.600476053953344 102.46697065344168 53.38719218870125 H 0.0 **** 0.06
26040 H 29.48322414515136 102.20756401858736 51.6302854964037 H 0.0 **** 0.06
26041 C 62.08024699576747 55.043057491407325 22.56702943388091 C 0.0 **** -0.24
26042 H 62.63563915829212 55.58214471134448 21.79979479899761 H 0.0 **** 0.06
26043 H 61.4642536261037 55.74550455481351 23.128902900834902 H 0.0 **** 0.06
26044 H 62.77852280569172 54.55105361629364 23.243276816351994 H 0.0 **** 0.06
26045 H 61.441883796899916 54.29585835708576 22.095841197810103 H 0.0 **** 0.06
26046 C 144.29266421737105 10.974162367117323 21.489139832715352 C 0.0 **** -0.24
26047 H 144.5520214522167 10.09294745861358 22.076761845719773 H 0.0 **** 0.06
26048 H 145.08621174530776 11.176825442431259 20.76872082658457 H 0.0 **** 0.06
26049 H 144.17662898814413 11.831266854489598 22.15281537366195 H 0.0 **** 0.06
26050 H 143.35739511588434 10.795028404379522 20.959710726359674 H 0.0 **** 0.06
26051 C 129.79196941523057 135.2683609543558 63.31141808289698 C 0.0 **** -0.24
26052 H 130.59357552103228 135.86885366807243 63.73946664662722 H 0.0 **** 0.06
26053 H 130.02832836360463 135.03303611480746 62.273357305711016 H 0.0 **** 0.06
26054 H 128.85685068271505 135.82715645853742 63.35290345306228 H 0.0 **** 0.06
26055 H 129.6875956609539 134.34419634719134 63.87915336673379 H 0.0 **** 0.06
26056 C 110.0158990170916 60.95482110623675 48.24466608968322 C 0.0 **** -0.24
26057 H 110.92736562722392 60.35762958099218 48.254066214156325 H 0.0 **** 0.06
26058 H 109.14867155812401 60.29427127126138 48.27930694384705 H 0.0 **** 0.06
26059 H 109.98166502488858 61.55215564999952 47.33305652764156 H 0.0 **** 0.06
26060 H 110.00477776707531 61.614421976837036 49.111910844067665 H 0.0 **** 0.06
26061 C 59.652281657426784 44.847066889358786 4.177322070807627 C 0.0 **** -0.24
26062 H 60.29508376903023 45.24996854741478 4.96059291615374 H 0.0 **** 0.06
26063 H 59.50290036307874 43.779687986409 4.344292250685868 H 0.0 **** 0.06
26064 H 60.1223394699623 45.00103664906442 3.206139059889029 H 0.0 **** 0.06
26065 H 58.68940310381406 45.357240528335495 4.200392116249976 H 0.0 **** 0.06
26066 C 27.00381359098668 30.46633004179347 45.315159744742886 C 0.0 **** -0.24
26067 H 27.99119007092827 30.404028196609204 45.772639416279844 H 0.0 **** 0.06
26068 H 27.10969374051433 30.639423646117223 44.24353829360001 H 0.0 **** 0.06
26069 H 26.446439454860638 31.28956062708278 45.76269519586552 H 0.0 **** 0.06
26070 H 26.467301088984982 29.531804687920385 45.48023304341868 H 0.0 **** 0.06
26071 C 19.19960102681506 44.13529872529817 144.7396358633459 C 0.0 **** -0.24
26072 H 19.32675964235807 43.95346517618597 143.673015177699 H 0.0 **** 0.06
26073 H 18.15061282412688 44.34496453950234 144.94974177593306 H 0.0 **** 0.06
26074 H 19.807149167672435 44.98968518445146 145.0371749381058 H 0.0 **** 0.06
26075 H 19.513759055300056 43.25405977020358 145.298769222858 H 0.0 **** 0.06
26076 C 140.8516364755823 123.73224677480863 34.87974048934632 C 0.0 **** -0.24
26077 H 141.0685926161279 124.33167848892185 33.9954876161221 H 0.0 **** 0.06
26078 H 140.00266422261083 124.16280891229127 35.410705499157146 H 0.0 **** 0.06
26079 H 141.72280974484784 123.7211618492272 35.5335559723878 H 0.0 **** 0.06
26080 H 140.61168091488574 122.71271465024859 34.57721929056066 H 0.0 **** 0.06
26081 C 86.74533180202272 45.25126598836111 24.597903577696655 C 0.0 **** -0.24
26082 H 86.04495647565706 45.66811810298613 23.874288905802402 H 0.0 **** 0.06
26083 H 86.88538532428967 45.95932139556734 25.416448103036657 H 0.0 **** 0.06
26084 H 87.70194080990366 45.064890283319656 24.111295180513366 H 0.0 **** 0.06
26085 H 86.34761146421383 44.31558086237399 24.99093966242546 H 0.0 **** 0.06
26086 C 52.173679914252475 148.96118735905753 126.15090779801622 C 0.0 **** -0.24
26087 H 51.47118303374293 149.4572610266585 125.48085216612655 H 0.0 **** 0.06
26088 H 51.78729056922539 147.9788784694445 126.4209021819117 H 0.0 **** 0.06
26089 H 52.30205843335503 149.56198719273203 127.05105833270989 H 0.0 **** 0.06
26090 H 53.135172639513684 148.8476536915726 125.64882675038285 H 0.0 **** 0.06
26091 C 5.919076290363677 143.55174359259874 12.179853558061446 C 0.0 **** -0.24
26092 H 6.805818923100588 143.79426753652368 12.765958619994436 H 0.0 **** 0.06
26093 H 5.986873578870842 144.03264765317115 11.203982511727354 H 0.0 **** 0.06
26094 H 5.030859404085305 143.90851266238062 12.700661635718362 H 0.0 **** 0.06
26095 H 5.855073243088867 142.47145654253003 12.049592349608481 H 0.0 **** 0.06
26096 C 16.087456233492844 15.103114012765815 127.70393559731983 C 0.0 **** -0.24
26097 H 16.37245592661833 14.61439080233174 126.7723255515194 H 0.0 **** 0.06
26098 H 16.943891050383797 15.130575938301916 128.37737283860193 H 0.0 **** 0.06
26099 H 15.274360264015002 14.547035925830102 128.17125627153231 H 0.0 **** 0.06
26100 H 15.757392291354961 16.120918731069054 127.49344362011985 H 0.0 **** 0.06
26101 C 116.9999851473969 45.38506563404984 59.63557549959643 C 0.0 **** -0.24
26102 H 116.57790147131811 45.07896267548371 60.59334523818026 H 0.0 **** 0.06
26103 H 118.07986798820502 45.23870329550749 59.651246783411324 H 0.0 **** 0.06
26104 H 116.7774713286417 46.4381966598643 59.461118740881915 H 0.0 **** 0.06
26105 H 116.56234097567233 44.78416082323773 58.83813366050751 H 0.0 **** 0.06
26106 C 20.465437022855298 3.452034913332941 29.822933303476617 C 0.0 **** -0.24
26107 H 21.310723623283742 2.9042671876245443 29.406768008562153 H 0.0 **** 0.06
26108 H 20.10604517444265 4.1763806850369924 29.091563212900013 H 0.0 **** 0.06
26109 H 20.780547404019572 3.9739653558724903 30.726923665084456 H 0.0 **** 0.06
26110 H 19.665694537481535 2.7535025823510466 30.067663764771368 H 0.0 **** 0.06
26111 C 60.420441631150226 128.03583326847 74.33247610704377 C 0.0 **** -0.24
26112 H 60.840861610718804 128.41240337536237 75.26563071598939 H 0.0 **** 0.06
26113 H 59.43246173510374 128.47063287055116 74.17809169333556 H 0.0 **** 0.06
26114 H 60.33547007228739 126.9506156114474 74.38488735328879 H 0.0 **** 0.06
26115 H 61.07254887774732 128.31014168045186 73.5029096308062 H 0.0 **** 0.06
26116 C 1.1844520919982813 85.20758693632146 9.064765156340172 C 0.0 **** -0.24
26117 H 0.23672171779293194 85.64925469241248 8.75701491668164 H 0.0 **** 0.06
26118 H 1.606622388046162 84.6395787902434 8.235046821958974 H 0.0 **** 0.06
26119 H 1.016761862095649 84.54348149891425 9.912032173745445 H 0.0 **** 0.06
26120 H 1.8769585773525534 85.99833899107325 9.354372584041784 H 0.0 **** 0.06
26121 C 67.67151664925859 75.11316752815179 47.28533484987224 C 0.0 **** -0.24
26122 H 68.02949631677916 74.15844385160224 46.89971489212752 H 0.0 **** 0.06
26123 H 66.91614512399542 74.93542974070382 48.05046203074349 H 0.0 **** 0.06
26124 H 67.23539579418957 75.69289554941459 46.47182670359389 H 0.0 **** 0.06
26125 H 68.5051916704025 75.66559976329886 47.718396110002075 H 0.0 **** 0.06
26126 C 1.0738696326777983 89.15374925023315 95.09157017444488 C 0.0 **** -0.24
26127 H 0.5841695049564066 89.52883762174648 94.19315492217869 H 0.0 **** 0.06
26128 H 0.5890534427538512 88.23089371646199 95.41115809139811 H 0.0 **** 0.06
26129 H 0.9979183879579807 89.8979928824744 95.88407335696077 H 0.0 **** 0.06
26130 H 2.124952556706262 88.95640801792115 94.87695966722902 H 0.0 **** 0.06
26131 C 134.85753682160401 114.92916366267441 76.9637781847494 C 0.0 **** -0.24
26132 H 135.25911451075615 114.65312885534313 77.93840098401591 H 0.0 **** 0.06
26133 H 135.4633815179244 115.72751173773695 76.53388740869002 H 0.0 **** 0.06
26134 H 133.83018305603204 115.27578682843891 77.08006723192318 H 0.0 **** 0.06
26135 H 134.8768195043579 114.06184009685084 76.30416353984788 H 0.0 **** 0.06
26136 C 33.695709378043205 54.94105671096037 24.306384364365137 C 0.0 **** -0.24
26137 H 33.18175076783052 54.7118006714291 25.239563703113916 H 0.0 **** 0.06
26138 H 34.23089854278021 54.055930423775976 23.960208749481097 H 0.0 **** 0.06
26139 H 34.40438851288798 55.75227430582862 24.47193002808052 H 0.0 **** 0.06
26140 H 32.96659424721014 55.24300462000451 23.554777382642214 H 0.0 **** 0.06
26141 C 65.7444535817578 118.54568249235315 45.50032183821597 C 0.0 **** -0.24
26142 H 65.11894412361852 119.4322700215434 45.60772752421249 H 0.0 **** 0.06
26143 H 66.66576306253788 118.81335138039755 44.983137456537605 H 0.0 **** 0.06
26144 H 65.20862151018005 117.79225651872783 44.92222945085709 H 0.0 **** 0.06
26145 H 65.98196902126156 118.14724318229811 46.48575369676985 H 0.0 **** 0.06
26146 C 65.70063018279077 146.3559929136544 67.89676740938982 C 0.0 **** -0.24
26147 H 66.43086133973512 145.64380802824905 67.51433888187084 H 0.0 **** 0.06
26148 H 64.69400974500616 145.97440787662617 67.72157125725738 H 0.0 **** 0.06
26149 H 65.82186031608725 147.3105528332439 67.38323439866397 H 0.0 **** 0.06
26150 H 65.85595194230794 146.49668266950704 68.96625654608685 H 0.0 **** 0.06
26151 C 98.661600151689 112.04522866776279 124.87506565230191 C 0.0 **** -0.24
26152 H 99.46602306719744 112.38255031274718 125.52791274582412 H 0.0 **** 0.06
26153 H 97.73329283690056 111.98522664190409 125.44480580169241 H 0.0 **** 0.06
26154 H 98.90676421642398 111.06046316905662 124.47527316090762 H 0.0 **** 0.06
26155 H 98.53923153840772 112.75057616390336 124.05411787370579 H 0.0 **** 0.06
26156 C 141.49499667223378 13.646200329818015 124.92604927331931 C 0.0 **** -0.24
26157 H 140.9821143055931 14.576790051738726 125.17105532768787 H 0.0 **** 0.06
26158 H 141.3455905666864 12.927042288656338 125.73158389201151 H 0.0 **** 0.06
26159 H 142.56099907343793 13.840544722982287 124.80530722023761 H 0.0 **** 0.06
26160 H 141.09182698064805 13.242526888229207 123.99738333268121 H 0.0 **** 0.06
26161 C 58.400329798898554 87.7660504201165 138.1853686623047 C 0.0 **** -0.24
26162 H 57.6409765398723 88.16658585487514 138.85656718517902 H 0.0 **** 0.06
26163 H 59.23085960072517 88.46899365880583 138.11729846870594 H 0.0 **** 0.06
26164 H 57.967781996272365 87.61734785961806 137.1957755917188 H 0.0 **** 0.06
26165 H 58.759767690266415 86.81332449161155 138.5715902514939 H 0.0 **** 0.06
26166 C 124.08170851980191 8.317470703286347 54.964085562957465 C 0.0 **** -0.24
26167 H 123.67872104815422 8.854791836348397 55.82358113894847 H 0.0 **** 0.06
26168 H 124.65619755058077 9.00546203668091 54.34323550955675 H 0.0 **** 0.06
26169 H 123.26177659042776 7.8991818973426575 54.38055100750208 H 0.0 **** 0.06
26170 H 124.72967543131227 7.512268044031259 55.31018676059065 H 0.0 **** 0.06
26171 C 68.7894962163412 144.96520457384992 15.51981223034852 C 0.0 **** -0.24
26172 H 68.32966202691728 144.0889226669501 15.978387280576058 H 0.0 **** 0.06
26173 H 69.87413524469798 144.8518291913885 15.528340468569859 H 0.0 **** 0.06
26174 H 68.51345198241214 145.85633150638722 16.083906078578828 H 0.0 **** 0.06
26175 H 68.44084759270166 145.06173429697412 14.492218640142426 H 0.0 **** 0.06
26176 C 15.7766076248721 40.71803835498508 97.01074966189837 C 0.0 **** -0.24
26177 H 15.028224343074044 40.05308534594812 97.43970114494029 H 0.0 **** 0.06
26178 H 15.600399297710112 41.73621081466024 97.35842763051919 H 0.0 **** 0.06
26179 H 15.708403725643848 40.687777457785344 95.92297348255372 H 0.0 **** 0.06
26180 H 16.770316354085764 40.39417302681561 97.32130999368331 H 0.0 **** 0.06
26181 C 75.9757874603917 68.93183374766063 72.33706420096149 C 0.0 **** -0.24
26182 H 75.53717686940752 69.63882319510464 71.63271758015514 H 0.0 **** 0.06
26183 H 77.05178869461128 68.87160443583727 72.17003635405462 H 0.0 **** 0.06
26184 H 75.52964754398732 67.94785343882742 72.18930951698485 H 0.0 **** 0.06
26185 H 75.78438529520218 69.26768877989785 73.35653029440073 H 0.0 **** 0.06
26186 C 76.51977827345917 80.97834643225642 37.352970666336894 C 0.0 **** -0.24
26187 H 75.66658632234741 81.276310727899 37.96305204340086 H 0.0 **** 0.06
26188 H 76.98868996088059 81.86626859646827 36.92668835042087 H 0.0 **** 0.06
26189 H 76.18107551658747 80.32442949319588 36.54957938519183 H 0.0 **** 0.06
26190 H 77.24223131090682 80.4479054842917 37.97318150803314 H 0.0 **** 0.06
26191 C 141.6233765487616 118.51625683913977 57.191269378595734 C 0.0 **** -0.24
26192 H 140.78889745421023 118.56530323300251 56.49081194002909 H 0.0 **** 0.06
26193 H 142.54759558136521 118.772615997728 56.672504808907405 H 0.0 **** 0.06
26194 H 141.7007494154526 117.50669117596976 57.59384615977663 H 0.0 **** 0.06
26195 H 141.45522460451747 119.22077487990668 58.00572547461337 H 0.0 **** 0.06
26196 C 19.2208973074774 9.808554228565754 27.779199920472593 C 0.0 **** -0.24
26197 H 20.213559012077212 9.4270749214148 28.017652745415376 H 0.0 **** 0.06
26198 H 18.56431005843899 9.675904085714876 28.639492680794774 H 0.0 **** 0.06
26199 H 18.818358753066207 9.263542572547095 26.925754276844884 H 0.0 **** 0.06
26200 H 19.2893515533205 10.868713408645533 27.533844995588396 H 0.0 **** 0.06
26201 C 96.00804595486247 133.8570474740827 29.57396764657767 C 0.0 **** -0.24
26202 H 95.08424474268935 133.4601879372113 29.15166520293181 H 0.0 **** 0.06
26203 H 96.47410656404529 134.53271337369705 28.856954693475245 H 0.0 **** 0.06
26204 H 96.6883188795747 133.0346566846559 29.79424611447908 H 0.0 **** 0.06
26205 H 95.78301725660467 134.3988267794137 30.492290427611863 H 0.0 **** 0.06
26206 C 137.70977310874386 54.9856575539406 54.113105594960075 C 0.0 **** -0.24
26207 H 137.58373500842484 55.85736148954584 54.75501222247556 H 0.0 **** 0.06
26208 H 137.012701818478 55.04689728937723 53.2771601374112 H 0.0 **** 0.06
26209 H 137.51187672331147 54.081059221548344 54.68725916776195 H 0.0 **** 0.06
26210 H 138.73190857764732 54.95922496996786 53.733246481868974 H 0.0 **** 0.06
26211 C 129.96217945730828 103.95698533956921 34.65540982266572 C 0.0 **** -0.24
26212 H 130.05151112486365 102.94184665654596 34.26924175930418 H 0.0 **** 0.06
26213 H 130.82061348002983 104.54603071868543 34.332392705320956 H 0.0 **** 0.06
26214 H 129.92966480091727 103.92864007842276 35.74525975867488 H 0.0 **** 0.06
26215 H 129.0459400902956 104.40980748252308 34.27629767704673 H 0.0 **** 0.06
26216 C 102.14601732486929 34.39789332635456 143.1267665778567 C 0.0 **** -0.24
26217 H 102.55561683939328 35.35013357412558 143.4653862346409 H 0.0 **** 0.06
26218 H 102.35891951007879 34.26784384605705 142.06635334464443 H 0.0 **** 0.06
26219 H 101.06736051487258 34.390207385459036 143.2853506830914 H 0.0 **** 0.06
26220 H 102.60266033447505 33.58588016247026 143.69211005323479 H 0.0 **** 0.06
26221 C 129.42411303949623 82.08972565706327 130.5659507002689 C 0.0 **** -0.24
26222 H 129.17081168960104 81.53437029696403 131.4688966156798 H 0.0 **** 0.06
26223 H 130.28972639232538 82.72300909204878 130.75987360283702 H 0.0 **** 0.06
26224 H 128.57772245897502 82.71064380530382 130.27178895103768 H 0.0 **** 0.06
26225 H 129.6580192193221 81.38989539163487 129.76319917523483 H 0.0 **** 0.06
26226 C 118.337204241773 37.656334777351276 130.46256547404047 C 0.0 **** -0.24
26227 H 117.29608293141244 37.6538108291013 130.13971483821382 H 0.0 **** 0.06
26228 H 118.74486872039175 36.64918608076647 130.3824055221829 H 0.0 **** 0.06
26229 H 118.39450895114872 37.99035261119599 131.4985561794052 H 0.0 **** 0.06
26230 H 118.9118864101995 38.333627505456604 129.8306608481285 H 0.0 **** 0.06
26231 C 12.576989877142694 31.19971464137825 120.6155910429356 C 0.0 **** -0.24
26232 H 13.494014715233732 31.349396851478218 120.04679835602259 H 0.0 **** 0.06
26233 H 12.295948045970079 30.14718412309577 120.58187939782538 H 0.0 **** 0.06
26234 H 11.778783298418091 31.80319375037226 120.18232121843432 H 0.0 **** 0.06
26235 H 12.73832482658969 31.50082931545637 121.65028638032983 H 0.0 **** 0.06
26236 C 22.96821671085715 83.28480503726955 126.69016690960599 C 0.0 **** -0.24
26237 H 23.83380507826314 83.23276804782806 127.35120279632977 H 0.0 **** 0.06
26238 H 22.36000191298055 84.14926205959542 126.95572723492265 H 0.0 **** 0.06
26239 H 22.37572974712333 82.37698553898004 126.79613566891184 H 0.0 **** 0.06
26240 H 23.305626518012104 83.38101312253977 125.6578718291234 H 0.0 **** 0.06
26241 C 75.23337848961813 124.64833062599968 44.707933389698795 C 0.0 **** -0.24
26242 H 76.26560457157629 124.76940532828581 44.376610612680636 H 0.0 **** 0.06
26243 H 74.61590667109905 124.33847576052375 43.86445190039808 H 0.0 **** 0.06
26244 H 74.86450135719994 125.59534851005819 45.10004589848941 H 0.0 **** 0.06
26245 H 75.18994823798869 123.88958875742156 45.48929890850924 H 0.0 **** 0.06
26246 C 53.917040622469386 133.8845717175572 9.204498429734713 C 0.0 **** -0.24
26247 H 52.83403134928503 133.7774147863231 9.144750753480594 H 0.0 **** 0.06
26248 H 54.263726578801254 134.5242995417822 8.391531194934373 H 0.0 **** 0.06
26249 H 54.38416535963836 132.9036399859242 9.120071646922327 H 0.0 **** 0.06
26250 H 54.185541111996656 134.33464201464005 10.160030576591907 H 0.0 **** 0.06
26251 C 124.77927154466187 22.16083185602068 44.81910676692033 C 0.0 **** -0.24
26252 H 124.11845981277156 22.99604825255372 45.04961464892327 H 0.0 **** 0.06
26253 H 124.44623918181139 21.676103914570177 43.90108837328472 H 0.0 **** 0.06
26254 H 124.7561835428458 21.442685948097477 45.63886154045204 H 0.0 **** 0.06
26255 H 125.7964556606849 22.52991023385559 44.68782040279824 H 0.0 **** 0.06
26256 C 96.80214434150047 20.017946805503783 147.62734013703485 C 0.0 **** -0.24
26257 H 96.4728974723869 20.921719979200617 147.1150940875749 H 0.0 **** 0.06
26258 H 96.16615871191249 19.182220988397034 147.33568774691935 H 0.0 **** 0.06
26259 H 96.73569050854455 20.1675355260285 148.70565485902043 H 0.0 **** 0.06
26260 H 97.83490520077305 19.80252417842172 147.3543189611303 H 0.0 **** 0.06
26261 C 58.479361765850456 134.54168188438325 64.15020712369869 C 0.0 **** -0.24
26262 H 57.95031334716087 134.96595869562825 63.29692789762902 H 0.0 **** 0.06
26263 H 58.279064163418 133.47143063708165 64.20627532938644 H 0.0 **** 0.06
26264 H 58.13751623594702 135.02395585725623 65.06585930864277 H 0.0 **** 0.06
26265 H 59.550128316185564 134.70550460058627 64.03086903928909 H 0.0 **** 0.06
26266 C 22.128227070849043 18.832014818129636 148.17826722120705 C 0.0 **** -0.24
26267 H 22.022378442756512 19.110498678962017 147.12999851835235 H 0.0 **** 0.06
26268 H 21.730935025575683 19.62870957136775 148.80806562159813 H 0.0 **** 0.06
26269 H 23.182221312315775 18.677900215804016 148.4083048107431 H 0.0 **** 0.06
26270 H 21.57566641117024 17.910665728416774 148.36663153311946 H 0.0 **** 0.06
26271 C 113.63650770767448 94.00899885890877 37.397714636983295 C 0.0 **** -0.24
26272 H 114.42824063620735 94.74508251162553 37.257656377171486 H 0.0 **** 0.06
26273 H 113.09308477956593 94.23015048746865 38.31653778367408 H 0.0 **** 0.06
26274 H 114.07385439027719 93.01326056472726 37.46456955986815 H 0.0 **** 0.06
26275 H 112.95029154409336 94.04806709372028 36.55148857454424 H 0.0 **** 0.06
26276 C 104.71279564340497 115.7516683764593 43.08967424258503 C 0.0 **** -0.24
26277 H 104.74475527377538 116.83913303650233 43.024285630381286 H 0.0 **** 0.06
26278 H 104.4304318290668 115.4571493637463 44.10035802384718 H 0.0 **** 0.06
26279 H 105.69574811284704 115.34470554516308 42.853250542192455 H 0.0 **** 0.06
26280 H 103.97909594958602 115.36643563707345 42.38113701492054 H 0.0 **** 0.06
26281 C 16.994695955696436 106.3196249107484 86.31322598060622 C 0.0 **** -0.24
26282 H 16.102271460829563 105.71863711821253 86.48553282438846 H 0.0 **** 0.06
26283 H 17.085269118829274 107.06929755977508 87.09962150732294 H 0.0 **** 0.06
26284 H 16.918344813616606 106.81484618147765 85.34605494044683 H 0.0 **** 0.06
26285 H 17.874503014259922 105.67532010504134 86.3241979865711 H 0.0 **** 0.06
26286 C 5.351173902737173 1.5440295638140356 29.496891300550928 C 0.0 **** -0.24
26287 H 4.793890119031801 2.4508004860497863 29.734280856197664 H 0.0 **** 0.06
26288 H 4.906565271015211 0.6979446591803367 30.02108686549891 H 0.0 **** 0.06
26289 H 6.3879669286187095 1.6627444775002118 29.811868251462393 H 0.0 **** 0.06
26290 H 5.315405210716278 1.3669004183040556 28.422584406726727 H 0.0 **** 0.06
26291 C 92.11199713752653 36.56191385461324 91.84795919604593 C 0.0 **** -0.24
26292 H 91.99342026120608 36.968641827075146 90.84318041448822 H 0.0 **** 0.06
26293 H 93.1604835177979 36.31910857478354 92.01930788493132 H 0.0 **** 0.06
26294 H 91.50897961206846 35.65962761576756 91.94852202280427 H 0.0 **** 0.06
26295 H 91.78517851394624 37.301492332004614 92.57923941826388 H 0.0 **** 0.06
26296 C 72.47443705092331 144.9962666083382 23.2079062849962 C 0.0 **** -0.24
26297 H 72.803878336275 145.97970713117368 22.87081029596098 H 0.0 **** 0.06
26298 H 73.28292369176457 144.27740768043438 23.075057967730345 H 0.0 **** 0.06
26299 H 71.61005144655834 144.6842199754772 22.623463955421613 H 0.0 **** 0.06
26300 H 72.20145897084205 145.04742118986695 24.26202945989243 H 0.0 **** 0.06
26301 C 70.84014310449521 64.50180437677786 46.8984047691261 C 0.0 **** -0.24
26302 H 71.6747671523604 64.65679998857046 46.214647835500614 H 0.0 **** 0.06
26303 H 70.18411954682853 63.72751624750474 46.50048584150619 H 0.0 **** 0.06
26304 H 70.28165599710144 65.43170805357038 47.00601420335806 H 0.0 **** 0.06
26305 H 71.22035789667058 64.19216732749766 47.871499865078704 H 0.0 **** 0.06
26306 C 125.7209229950486 142.5882865930908 56.10946229326811 C 0.0 **** -0.24
26307 H 126.52480488020043 142.1283477786913 55.53437473488131 H 0.0 **** 0.06
26308 H 125.89895232237598 143.66090942060973 56.18865399869492 H 0.0 **** 0.06
26309 H 125.69283903742992 142.14973395027073 57.10749405333175 H 0.0 **** 0.06
26310 H 124.7695116325318 142.41270402586963 55.608354890458656 H 0.0 **** 0.06
26311 C 124.09861490269644 25.681414773509687 58.77081322682517 C 0.0 **** -0.24
26312 H 124.26058414650176 26.096606531604834 59.76500194758802 H 0.0 **** 0.06
26313 H 124.32348685134816 26.43898923242307 58.019729976930904 H 0.0 **** 0.06
26314 H 123.05812715789843 25.369069726501124 58.67312818548595 H 0.0 **** 0.06
26315 H 124.75122748511147 24.82004480883063 58.62556820553533 H 0.0 **** 0.06
26316 C 52.777140478673886 127.3426938823473 133.22173492830942 C 0.0 **** -0.24
26317 H 53.66876661715432 127.80361343956355 132.7982949384865 H 0.0 **** 0.06
26318 H 52.457912557426596 127.90715753953393 134.09829800446198 H 0.0 **** 0.06
26319 H 53.00093009958837 126.31615435029295 133.51084088539326 H 0.0 **** 0.06
26320 H 51.97948643085866 127.34467656761672 132.47803363193762 H 0.0 **** 0.06
26321 C 113.53016077124742 20.757476188265485 109.36184382870086 C 0.0 **** -0.24
26322 H 113.33884253453597 21.82736654554145 109.44349205742516 H 0.0 **** 0.06
26323 H 114.565345841786 20.551085376623206 109.63456017173034 H 0.0 **** 0.06
26324 H 113.35302532158603 20.434886451795393 108.33601569215962 H 0.0 **** 0.06
26325 H 112.86257760551128 20.217486551337203 110.0326533106075 H 0.0 **** 0.06
26326 C 123.94254280689319 109.38694951881135 38.14933292045427 C 0.0 **** -0.24
26327 H 124.20395964278822 110.44485378148309 38.174892546648096 H 0.0 **** 0.06
26328 H 122.85795837723538 109.27956987015929 38.171575193180644 H 0.0 **** 0.06
26329 H 124.37453279476813 108.88499589958414 39.01550075895699 H 0.0 **** 0.06
26330 H 124.33397062640734 108.93795099908661 37.2366878296919 H 0.0 **** 0.06
26331 C 124.98115949924012 48.195209604858974 120.12154020925188 C 0.0 **** -0.24
26332 H 124.25256749217216 48.59387997206002 119.41430603488273 H 0.0 **** 0.06
26333 H 125.67464215592095 47.538716251479954 119.59508527247 H 0.0 **** 0.06
26334 H 124.46373328914912 47.631256597092985 120.89671732030227 H 0.0 **** 0.06
26335 H 125.5334874125137 49.01750715142336 120.57596742200018 H 0.0 **** 0.06
26336 C 33.184184928936595 22.883612599085183 136.17532376690644 C 0.0 **** -0.24
26337 H 32.36621761507978 22.225713200436303 135.88167884629542 H 0.0 **** 0.06
26338 H 33.739014878407254 22.426805319258563 136.99623326502774 H 0.0 **** 0.06
26339 H 32.78016005245342 23.842305910008662 136.4992689597682 H 0.0 **** 0.06
26340 H 33.85006715186586 23.03645010911353 135.32731966156314 H 0.0 **** 0.06
26341 C 7.0991517930605 122.37621054648037 127.53371838536636 C 0.0 **** -0.24
26342 H 7.748199142456663 123.25255874070416 127.51759647865012 H 0.0 **** 0.06
26343 H 6.133375170959415 122.63212225920967 127.09800610226323 H 0.0 **** 0.06
26344 H 6.958052840274455 122.04836584990147 128.5643946109791 H 0.0 **** 0.06
26345 H 7.558182952953651 121.57374608988613 126.95681228291885 H 0.0 **** 0.06
26346 C 107.03314038936881 81.63469325960601 12.166432629013734 C 0.0 **** -0.24
26347 H 108.03573330851518 81.96000936364518 12.442195782423255 H 0.0 **** 0.06
26348 H 106.8566431556304 81.8532038335034 11.113011840704765 H 0.0 **** 0.06
26349 H 106.29945508182678 82.16475816162539 12.775348570507823 H 0.0 **** 0.06
26350 H 106.93970684057288 80.56215784002148 12.33693902349826 H 0.0 **** 0.06
26351 C 143.09582052065593 119.91921792915247 40.633450903057394 C 0.0 **** -0.24
26352 H 142.3286857449711 119.16856704697778 40.446034425833545 H 0.0 **** 0.06
26353 H 142.66009151671216 120.91416411967072 40.54308060370141 H 0.0 **** 0.06
26354 H 143.90069533393446 119.80667882296353 39.906938703737296 H 0.0 **** 0.06
26355 H 143.49350567406245 119.78702725045156 41.64014135286055 H 0.0 **** 0.06
26356 C 125.41575684547534 68.47342425737257 118.32086521860711 C 0.0 **** -0.24
26357 H 125.46240059943561 67.41780999148837 118.585554298517 H 0.0 **** 0.06
26358 H 125.34459872944653 68.57347827549778 117.23754152725584 H 0.0 **** 0.06
26359 H 126.31740369766233 68.97554265077265 118.67353447801369 H 0.0 **** 0.06
26360 H 124.54103876301225 68.92727823410499 118.78686235785264 H 0.0 **** 0.06
26361 C 126.30144561652726 99.3307179499451 1.9353175519722434 C 0.0 **** -0.24
26362 H 125.26111028044015 99.65568488866559 1.96309131265944 H 0.0 **** 0.06
26363 H 126.80581767988781 99.64868709500384 2.8473339431061575 H 0.0 **** 0.06
26364 H 126.79731047380764 99.77257939196751 1.0713679167510115 H 0.0 **** 0.06
26365 H 126.33927779810125 98.24410235915346 1.8587292699450657 H 0.0 **** 0.06
26366 C 77.41869877262418 67.60360584460858 83.91853397065313 C 0.0 **** -0.24
26367 H 76.93083400983322 66.67119246938921 84.20341073599536 H 0.0 **** 0.06
26368 H 77.63049264281265 67.59007587117202 82.84922868547517 H 0.0 **** 0.06
26369 H 78.35105908164103 67.70987575059581 84.47303594850723 H 0.0 **** 0.06
26370 H 76.76125774868171 68.44260509355558 84.14799217928328 H 0.0 **** 0.06
26371 C 44.19892980681078 22.342613878555596 47.45342644371155 C 0.0 **** -0.24
26372 H 43.93356479607314 21.350945229551996 47.08828927700699 H 0.0 **** 0.06
26373 H 45.24747083244239 22.35102961124744 47.753157026521905 H 0.0 **** 0.06
26374 H 43.573894302504 22.592893059997948 48.310991867607186 H 0.0 **** 0.06
26375 H 44.04036313393263 23.07536377960963 46.662144142771126 H 0.0 **** 0.06
26376 C 44.51441224985609 19.38715007835588 147.69675788057808 C 0.0 **** -0.24
26377 H 43.89724777199643 19.064874818499554 146.8581756585365 H 0.0 **** 0.06
26378 H 43.988137544694325 19.190382665059005 148.63148888526248 H 0.0 **** 0.06
26379 H 44.71538430834147 20.4550159668404 147.6106755891751 H 0.0 **** 0.06
26380 H 45.45625010533655 18.838138028887208 147.68744531156577 H 0.0 **** 0.06
26381 C 15.754782621949573 117.0314268958557 58.64267709604759 C 0.0 **** -0.24
26382 H 14.776353791006557 117.42382396550977 58.36596960152603 H 0.0 **** 0.06
26383 H 16.532601811455947 117.69261305479733 58.26172352169047 H 0.0 **** 0.06
26384 H 15.880016917103035 116.03654086729154 58.21495913177324 H 0.0 **** 0.06
26385 H 15.827198596599032 116.97161688101573 59.728120384474835 H 0.0 **** 0.06
26386 C 49.845447667782764 24.054222929250727 1.6541998502930362 C 0.0 **** -0.24
26387 H 48.840670590544505 23.675979411321293 1.839918224553859 H 0.0 **** 0.06
26388 H 50.55575477482813 23.227137512277693 1.6788990644053108 H 0.0 **** 0.06
26389 H 50.10705012308313 24.781500158645883 2.4220699109482453 H 0.0 **** 0.06
26390 H 49.87815879449823 24.531784204443852 0.6745949715784683 H 0.0 **** 0.06
26391 C 43.708576186699844 146.64337023284176 78.63521440021785 C 0.0 **** -0.24
26392 H 42.96073914429118 145.851655880839 78.70082468719569 H 0.0 **** 0.06
26393 H 43.331173254247375 147.5396167739498 79.12758991608584 H 0.0 **** 0.06
26394 H 43.91326094096439 146.8621307083617 77.58727190021946 H 0.0 **** 0.06
26395 H 44.62592430953484 146.31762202318885 79.12434318144612 H 0.0 **** 0.06
26396 C 20.203342177117477 0.3742512978614343 14.212118892655695 C 0.0 **** -0.24
26397 H 19.532499723945868 0.0661472750176415 15.01334841955881 H 0.0 **** 0.06
26398 H 20.98878250871236 1.0102824423327945 14.621310023137141 H 0.0 **** 0.06
26399 H 19.641425634491917 0.9295222150665552 13.461185815270113 H 0.0 **** 0.06
26400 H 20.65165066973116 -0.5067095306747831 13.752755205388524 H 0.0 **** 0.06
26401 C 139.6129242598033 143.88286183357715 93.35772677488038 C 0.0 **** -0.24
26402 H 139.2836421011098 144.18557850141832 94.35184466082846 H 0.0 **** 0.06
26403 H 138.94434223626368 143.1125169934656 92.97367940497895 H 0.0 **** 0.06
26404 H 140.6271011214282 143.48739952401053 93.41651750283837 H 0.0 **** 0.06
26405 H 139.59671228650862 144.7444583115625 92.69126513575499 H 0.0 **** 0.06
26406 C 50.13483526594783 9.403543168492632 128.44864476978253 C 0.0 **** -0.24
26407 H 50.70868360686623 10.15185106447936 127.90106199510299 H 0.0 **** 0.06
26408 H 49.69247739168124 8.699180262073725 127.74429976641764 H 0.0 **** 0.06
26409 H 49.344291846717326 9.895548473571836 129.0154484155066 H 0.0 **** 0.06
26410 H 50.79386593688436 8.869131097518533 129.13186270403773 H 0.0 **** 0.06
26411 C 122.27733691309356 68.98413764673872 93.12184510279052 C 0.0 **** -0.24
26412 H 123.35846919255596 68.858233889423 93.17458691851303 H 0.0 **** 0.06
26413 H 122.01688576174985 70.00237844389972 93.41239354242396 H 0.0 **** 0.06
26414 H 121.79627920153467 68.27801123007843 93.79851077976856 H 0.0 **** 0.06
26415 H 121.9394022622738 68.79922590180989 92.10256826437794 H 0.0 **** 0.06
26416 C 115.96056772130956 17.886042961676893 117.72778290821259 C 0.0 **** -0.24
26417 H 114.96860957306612 18.026853183226017 117.29858832042447 H 0.0 **** 0.06
26418 H 115.9253549605123 18.09431969488753 118.79782094604184 H 0.0 **** 0.06
26419 H 116.6637988727488 18.566729889764026 117.24779150927606 H 0.0 **** 0.06
26420 H 116.28346409550252 16.85817163337225 117.5674710610333 H 0.0 **** 0.06
26421 C 48.24830879541253 111.17170489936657 94.72076896806712 C 0.0 **** -0.24
26422 H 47.769221223655734 112.05009693938379 94.28892178729737 H 0.0 **** 0.06
26423 H 48.900542836787196 110.71147155683852 93.97858738129551 H 0.0 **** 0.06
26424 H 47.48590917745486 110.4569184072129 95.028750359463 H 0.0 **** 0.06
26425 H 48.837938654975176 111.46998649667975 95.58858361472323 H 0.0 **** 0.06
26426 C 127.14961075178982 70.45510511730411 110.64222932230957 C 0.0 **** -0.24
26427 H 126.27067663241255 70.22431785598421 111.24398137245244 H 0.0 **** 0.06
26428 H 128.04283101803654 70.09100300037103 111.1499553228435 H 0.0 **** 0.06
26429 H 127.2232365524072 71.53456073654706 110.50700979143316 H 0.0 **** 0.06
26430 H 127.0619708326997 69.97234250877484 109.66926428366513 H 0.0 **** 0.06
26431 C 85.97469713242147 42.82515332694429 32.21107254106312 C 0.0 **** -0.24
26432 H 85.12215514338699 42.73341123208252 32.884625848918404 H 0.0 **** 0.06
26433 H 85.76402325352664 42.29287042231766 31.283681093248788 H 0.0 **** 0.06
26434 H 86.85856176393953 42.39706825342749 32.68371189390621 H 0.0 **** 0.06
26435 H 86.15389748317051 43.87786409329084 31.993888891417043 H 0.0 **** 0.06
26436 C 102.74771525126984 86.60899081601542 135.80120049516555 C 0.0 **** -0.24
26437 H 102.63020660981115 87.58983865029742 135.33961002799305 H 0.0 **** 0.06
26438 H 101.81271260072474 86.31924920896931 136.28079650391342 H 0.0 **** 0.06
26439 H 103.54112822663909 86.65080678606866 136.54746101326242 H 0.0 **** 0.06
26440 H 103.00624952614926 85.87677041434931 135.0358438333647 H 0.0 **** 0.06
26441 C 37.62225195367842 83.18325535998179 146.52746664119357 C 0.0 **** -0.24
26442 H 38.65924335674018 83.32313526502602 146.22342569230133 H 0.0 **** 0.06
26443 H 37.58062280720953 82.98710407726753 147.59849938741985 H 0.0 **** 0.06
26444 H 37.19684466157091 82.33777210989999 145.98574232349262 H 0.0 **** 0.06
26445 H 37.05219395375372 84.08384971293782 146.29909375519395 H 0.0 **** 0.06
26446 C 36.14038599037758 61.02240575537388 73.83696241763613 C 0.0 **** -0.24
26447 H 35.77300887131996 62.001897060124065 73.53194226333365 H 0.0 **** 0.06
26448 H 35.35957890640532 60.276796617573495 73.68253818419066 H 0.0 **** 0.06
26449 H 36.41254561860903 61.04993777283261 74.89298972729323 H 0.0 **** 0.06
26450 H 37.015270615838986 60.761221071399916 73.24228947689528 H 0.0 **** 0.06
26451 C 47.498085267993716 24.547607835082715 34.55997158946778 C 0.0 **** -0.24
26452 H 46.94087815513484 25.11573474972662 33.81459681620808 H 0.0 **** 0.06
26453 H 48.28465543937537 23.97603735556629 34.06849728361979 H 0.0 **** 0.06
26454 H 46.821754808615125 23.867089652821015 35.07820477375134 H 0.0 **** 0.06
26455 H 47.94330567566334 25.234448911302067 35.28021781899258 H 0.0 **** 0.06
26456 C 106.94789223412799 33.65705045060136 145.86887659983853 C 0.0 **** -0.24
26457 H 106.97660978874374 33.46817937162443 144.79558096750824 H 0.0 **** 0.06
26458 H 105.98368879906111 34.08848360976742 146.1357878410388 H 0.0 **** 0.06
26459 H 107.743678929398 34.35327158518007 146.13572523028472 H 0.0 **** 0.06
26460 H 107.08973876894247 32.71993160797135 146.40626312946333 H 0.0 **** 0.06
26461 C 88.58447722981306 85.73647538914045 47.285812753950935 C 0.0 **** -0.24
26462 H 87.84286595471454 85.91799947663533 48.06423566887209 H 0.0 **** 0.06
26463 H 88.25193209711446 86.19293521464475 46.353765207033376 H 0.0 **** 0.06
26464 H 88.70476904077364 84.66291344839668 47.14212174231395 H 0.0 **** 0.06
26465 H 89.53771957728554 86.17289608984339 47.58407854558101 H 0.0 **** 0.06
26466 C 53.55234088759684 133.4010245981687 125.62385747396503 C 0.0 **** -0.24
26467 H 53.34375319760069 132.5043508482041 126.20750878107455 H 0.0 **** 0.06
26468 H 52.991542420626544 134.24043959231827 126.03544956090582 H 0.0 **** 0.06
26469 H 53.25492025860872 133.2373080689198 124.58785005679347 H 0.0 **** 0.06
26470 H 54.61932403893071 133.61984703173505 125.66519969141854 H 0.0 **** 0.06
26471 C 52.12525986986989 116.61285605268574 141.26071507945065 C 0.0 **** -0.24
26472 H 53.00184085452156 116.70405792032051 141.9024724302376 H 0.0 **** 0.06
26473 H 51.957730368353765 117.55595592712541 140.74057185415955 H 0.0 **** 0.06
26474 H 51.25333403328966 116.37229020482584 141.86832503927016 H 0.0 **** 0.06
26475 H 52.29035664809382 115.81926935091792 140.53168785123535 H 0.0 **** 0.06
26476 C 60.84928204203456 120.16080300317664 14.560073837212016 C 0.0 **** -0.24
26477 H 61.008324031266824 119.60834671221376 13.633603544504155 H 0.0 **** 0.06
26478 H 60.28130275358336 121.06752226072065 14.34910881297045 H 0.0 **** 0.06
26479 H 61.81276478288274 120.42832260713406 14.993048114850566 H 0.0 **** 0.06
26480 H 60.29565538341504 119.53979036731384 15.262933881589078 H 0.0 **** 0.06
26481 C 26.09344731409658 149.27498229360103 119.39500990287196 C 0.0 **** -0.24
26482 H 25.718093376014508 148.50194225663432 120.06642933169745 H 0.0 **** 0.06
26483 H 26.917194752229506 148.87391854221437 118.80365675450828 H 0.0 **** 0.06
26484 H 26.446002492762318 150.12392558417488 119.98061353402532 H 0.0 **** 0.06
26485 H 25.292797724813767 149.5992470861329 118.73136692012163 H 0.0 **** 0.06
26486 C 88.23815041232749 34.27239736472205 38.595498800892535 C 0.0 **** -0.24
26487 H 87.24799645507524 34.695248799666444 38.42955531976213 H 0.0 **** 0.06
26488 H 88.13978208691486 33.278310845512635 39.03171566327546 H 0.0 **** 0.06
26489 H 88.79852472870773 34.91476125502828 39.27425480602828 H 0.0 **** 0.06
26490 H 88.7666687958978 34.20074644875609 37.64432689839847 H 0.0 **** 0.06
26491 C 78.59967427081133 64.63406290624607 92.84481325154042 C 0.0 **** -0.24
26492 H 77.67419984465974 64.09294668758918 92.64617581186326 H 0.0 **** 0.06
26493 H 78.70493988468829 64.79253809866539 93.91810223832502 H 0.0 **** 0.06
26494 H 78.57328615564396 65.59707399963438 92.33591665397145 H 0.0 **** 0.06
26495 H 79.4458788286698 64.05227885460991 92.47813808257928 H 0.0 **** 0.06
26496 C 129.59886465903355 27.57185733633999 119.72612165955402 C 0.0 **** -0.24
26497 H 129.06446585032603 26.67178522190258 119.42185271162415 H 0.0 **** 0.06
26498 H 128.89658030325 28.27764978377195 120.17034143568739 H 0.0 **** 0.06
26499 H 130.06971253252124 28.026331343858686 118.85426321323015 H 0.0 **** 0.06
26500 H 130.3631929303807 27.31036982782412 120.45700127413593 H 0.0 **** 0.06
26501 C 122.69150989452507 118.96395654748655 141.56025570675126 C 0.0 **** -0.24
26502 H 122.53086141267178 120.03628397384416 141.67359791285105 H 0.0 **** 0.06
26503 H 123.39975864723166 118.78740317103673 140.750316129751 H 0.0 **** 0.06
26504 H 121.74449813758136 118.47722315661427 141.3275803665994 H 0.0 **** 0.06
26505 H 123.09137975675756 118.55610374830464 142.48835411371948 H 0.0 **** 0.06
26506 C 49.92356228966557 46.85177876002592 44.87634500943625 C 0.0 **** -0.24
26507 H 49.30532310160089 46.66570958592786 45.7547361887124 H 0.0 **** 0.06
26508 H 50.976175916846046 46.81627843542822 45.1589149991442 H 0.0 **** 0.06
26509 H 49.689897563988666 47.83475402008932 44.468467718004206 H 0.0 **** 0.06
26510 H 49.72412342717291 46.0892069141552 44.12342017466443 H 0.0 **** 0.06
26511 C 72.76993804151869 128.05656026721817 22.007641871915226 C 0.0 **** -0.24
26512 H 72.9250436684394 129.01801195030052 22.4976882036257 H 0.0 **** 0.06
26513 H 72.35311339438317 127.34783858015456 22.724021176984074 H 0.0 **** 0.06
26514 H 73.7230702718303 127.6811264540521 21.637039877940964 H 0.0 **** 0.06
26515 H 72.07824020265195 128.1809899538901 21.175125928198057 H 0.0 **** 0.06
26516 C 57.990177119384654 78.0967032634162 7.938621635464045 C 0.0 **** -0.24
26517 H 56.93593429415321 78.1109681019251 7.665636302246639 H 0.0 **** 0.06
26518 H 58.58870748293745 78.44806843003084 7.09722965580562 H 0.0 **** 0.06
26519 H 58.28506858562342 77.07815473217684 8.194909498854742 H 0.0 **** 0.06
26520 H 58.1520887422636 78.74873574549531 8.79687086903769 H 0.0 **** 0.06
26521 C 42.85555444145136 81.12904191529663 50.98556091400803 C 0.0 **** -0.24
26522 H 42.91352354821848 80.47369360408698 50.11615842993692 H 0.0 **** 0.06
26523 H 42.01037320925474 80.83344916424267 51.607334266203 H 0.0 **** 0.06
26524 H 42.72247621846253 82.15905653183097 50.65582839675086 H 0.0 **** 0.06
26525 H 43.777630174301365 81.04852036780119 51.56207643214836 H 0.0 **** 0.06
26526 C 58.82720088310002 119.30644100749005 47.33931047728123 C 0.0 **** -0.24
26527 H 57.98627511838893 119.42794431640725 48.02222210745866 H 0.0 **** 0.06
26528 H 58.87005728686795 120.15745137947114 46.659617784403906 H 0.0 **** 0.06
26529 H 58.69766980495122 118.3882138205169 46.76419821807404 H 0.0 **** 0.06
26530 H 59.753411316979566 119.2499730883578 47.9096840627044 H 0.0 **** 0.06
26531 C 128.66493902870698 27.581755802628486 11.564184042908778 C 0.0 **** -0.24
26532 H 127.80490719912038 26.97844350878865 11.854838498493379 H 0.0 **** 0.06
26533 H 128.94137952031463 28.239717517586932 12.388133388708177 H 0.0 **** 0.06
26534 H 128.40930258086493 28.181226528727393 10.690487106163978 H 0.0 **** 0.06
26535 H 129.50284778442227 26.928126821177635 11.32313937779319 H 0.0 **** 0.06
26536 C 76.75666953018822 83.33159270566217 143.5040744871593 C 0.0 **** -0.24
26537 H 76.878086027059 84.2878841771274 144.01185702142453 H 0.0 **** 0.06
26538 H 76.06103112143683 83.44806318873023 142.6728186133236 H 0.0 **** 0.06
26539 H 76.3630875259654 82.59545485917789 144.20637558445168 H 0.0 **** 0.06
26540 H 77.72209717030202 82.99516932744774 143.1273235987066 H 0.0 **** 0.06
26541 C 145.27001113252 104.43353977252634 57.74374002626067 C 0.0 **** -0.24
26542 H 146.270647497802 104.40584710385623 58.17580192782128 H 0.0 **** 0.06
26543 H 144.93767630123236 105.46825813825156 57.66345972723542 H 0.0 **** 0.06
26544 H 144.58316828650644 103.87857270840404 58.38216223596035 H 0.0 **** 0.06
26545 H 145.29066088707938 103.98013096336292 56.751883391105224 H 0.0 **** 0.06
26546 C 138.8393995923278 71.56615870219036 139.45556161160872 C 0.0 **** -0.24
26547 H 139.62759111092143 71.12103883420818 140.0633106881544 H 0.0 **** 0.06
26548 H 137.8692831858251 71.33756653726078 139.89591628004476 H 0.0 **** 0.06
26549 H 138.88661909136502 71.15870048103261 138.44584848970914 H 0.0 **** 0.06
26550 H 138.9777002295807 72.6463207327437 139.41741220798616 H 0.0 **** 0.06
26551 C 34.174472659956606 76.30235782325636 69.7760816386645 C 0.0 **** -0.24
26552 H 34.037680632008914 76.26972706395867 70.85640178249491 H 0.0 **** 0.06
26553 H 33.27934480819998 76.71341758025159 69.30847334383469 H 0.0 **** 0.06
26554 H 34.34849701954744 75.29323487871466 69.40086711837952 H 0.0 **** 0.06
26555 H 35.03127818053788 76.93147762801402 69.53705650193916 H 0.0 **** 0.06
26556 C 127.87943840243027 59.55308166926592 25.13921757271828 C 0.0 **** -0.24
26557 H 128.6719700933499 60.23034370819293 24.82180441502581 H 0.0 **** 0.06
26558 H 127.20864955886823 60.075085315164245 25.822369124529644 H 0.0 **** 0.06
26559 H 128.31786293506062 58.694252305482394 25.646557206159486 H 0.0 **** 0.06
26560 H 127.3205790967259 59.21443919990628 24.267174560817267 H 0.0 **** 0.06
26561 C 148.91407459140945 57.36684733733317 131.04648976406452 C 0.0 **** -0.24
26562 H 147.8655159035302 57.19042348153455 131.28555413209318 H 0.0 **** 0.06
26563 H 148.98568879924974 58.12224133225486 130.26338578997678 H 0.0 **** 0.06
26564 H 149.36801268274607 56.439085634098774 130.69890538991837 H 0.0 **** 0.06
26565 H 149.43631234219075 57.71512079666792 131.9370456448416 H 0.0 **** 0.06
26566 C 62.602745086238286 23.856334269507315 110.21954774622779 C 0.0 **** -0.24
26567 H 62.01253369769245 24.56658522851913 109.64113738261446 H 0.0 **** 0.06
26568 H 62.026082377586846 22.943672309537348 110.37156672277777 H 0.0 **** 0.06
26569 H 62.85249243239065 24.29407655194305 111.18572444772425 H 0.0 **** 0.06
26570 H 63.52035156319752 23.621528478778004 109.67854022243395 H 0.0 **** 0.06
26571 C 28.62450747928696 50.50368442174789 66.98665844568376 C 0.0 **** -0.24
26572 H 28.2826729858603 50.35491408793973 65.96258128233904 H 0.0 **** 0.06
26573 H 29.689973483296967 50.734207726540376 66.98295792928309 H 0.0 **** 0.06
26574 H 28.450232197631095 49.594628925172515 67.56297757875183 H 0.0 **** 0.06
26575 H 28.07454641212135 51.32927164591615 67.43681618694217 H 0.0 **** 0.06
26576 C 114.70356470670619 46.89265199960232 134.6688232041664 C 0.0 **** -0.24
26577 H 114.31979344156186 46.140061111337275 135.3577869648241 H 0.0 **** 0.06
26578 H 115.73554822221782 47.128568676952 134.9266754745149 H 0.0 **** 0.06
26579 H 114.09507763030233 47.79393611862099 134.74062072857888 H 0.0 **** 0.06
26580 H 114.66257896308959 46.50621741755998 133.64992379534627 H 0.0 **** 0.06
26581 C 67.13583530036516 133.49262471313796 40.52334824490397 C 0.0 **** -0.24
26582 H 66.85542542435351 133.43737748635672 41.57569921604747 H 0.0 **** 0.06
26583 H 68.09265599805431 132.99254204323228 40.37671972682716 H 0.0 **** 0.06
26584 H 67.22194825612257 134.53798191125068 40.22492168319744 H 0.0 **** 0.06
26585 H 66.37266680456761 133.004143080596 39.918331725987954 H 0.0 **** 0.06
26586 C 130.1034732480145 53.06126969793149 37.753755142158596 C 0.0 **** -0.24
26587 H 130.7537281739545 53.589461474301345 37.05597044397784 H 0.0 **** 0.06
26588 H 129.46147424033893 53.77859640532411 38.26478170128601 H 0.0 **** 0.06
26589 H 130.7118032680675 52.530465981625085 38.48664156980098 H 0.0 **** 0.06
26590 H 129.48840497682437 52.34711995448352 37.20701240734485 H 0.0 **** 0.06
26591 C 117.15798479007029 49.71162052177719 133.83950504819092 C 0.0 **** -0.24
26592 H 117.22314234754705 49.16877214949618 132.8964214730643 H 0.0 **** 0.06
26593 H 116.75328096657123 50.70813648676139 133.6567639523744 H 0.0 **** 0.06
26594 H 118.15150326989115 49.79726710137369 134.27825683904717 H 0.0 **** 0.06
26595 H 116.50322379892353 49.17366210070537 134.52469644255973 H 0.0 **** 0.06
26596 C 27.97134194395437 5.658437710654056 40.08536515118337 C 0.0 **** -0.24
26597 H 27.683054140313487 6.512082768707472 40.69968817814339 H 0.0 **** 0.06
26598 H 27.711753042200712 4.7349713037612275 40.60292469268316 H 0.0 **** 0.06
26599 H 29.04609393504566 5.686455156585197 39.906497447080454 H 0.0 **** 0.06
26600 H 27.442935377459946 5.702678271525087 39.133197757473965 H 0.0 **** 0.06
26601 C 121.01497526673234 46.76687273349904 24.73120306442624 C 0.0 **** -0.24
26602 H 121.46358580686399 45.961643368375476 24.1511490466512 H 0.0 **** 0.06
26603 H 120.6794783951226 47.55620703749911 24.058239689927603 H 0.0 **** 0.06
26604 H 121.75269784271978 47.170644270953204 25.424853871131262 H 0.0 **** 0.06
26605 H 120.16395669456261 46.37971492987097 25.291773950361062 H 0.0 **** 0.06
26606 C 136.8200668221217 149.7588867942575 1.0020694314066638 C 0.0 **** -0.24
26607 H 137.164919168592 150.79238558480768 0.9833460020322242 H 0.0 **** 0.06
26608 H 136.902190460414 149.33040898060852 0.0030384179524034494 H 0.0 **** 0.06
26609 H 135.77966631637173 149.72936521708567 1.3257494381217114 H 0.0 **** 0.06
26610 H 137.43232392738537 149.1839725516142 1.6966868269229813 H 0.0 **** 0.06
26611 C 107.40899592756162 55.26343817248872 82.67063837179472 C 0.0 **** -0.24
26612 H 107.59985987672044 54.82901025591789 83.65240099854742 H 0.0 **** 0.06
26613 H 108.13955920033479 56.047790017350025 82.4729619490301 H 0.0 **** 0.06
26614 H 106.40568565514391 55.686912907519 82.65006978160841 H 0.0 **** 0.06
26615 H 107.49277337343474 54.48859908130103 81.90864939348921 H 0.0 **** 0.06
26616 C 66.59329485035956 6.61851843178556 96.69275418589297 C 0.0 **** -0.24
26617 H 67.04413535320808 5.859481427838489 97.33156333440914 H 0.0 **** 0.06
26618 H 66.04621705849064 7.332946955695547 97.30787064347552 H 0.0 **** 0.06
26619 H 65.90764469765928 6.142155393128405 95.99141358604945 H 0.0 **** 0.06
26620 H 67.37629252363116 7.138171169839552 96.1400009139899 H 0.0 **** 0.06
26621 C 78.9750644160392 26.331262158001806 104.43427617756286 C 0.0 **** -0.24
26622 H 78.1762403814557 26.077761807283906 103.73732623793596 H 0.0 **** 0.06
26623 H 78.88598083791655 27.379241298322484 104.72239657214023 H 0.0 **** 0.06
26624 H 79.94013750619594 26.166395289170737 103.95558283629215 H 0.0 **** 0.06
26625 H 78.89735807883832 25.70193190216432 105.32100649073435 H 0.0 **** 0.06
26626 C 121.53297904907465 96.79889978672958 0.5094575653144489 C 0.0 **** -0.24
26627 H 122.4175352429936 97.36099115455085 0.2114473565069943 H 0.0 **** 0.06
26628 H 121.82812731972045 95.7987441000327 0.8258253304254026 H 0.0 **** 0.06
26629 H 120.84796007988531 96.72532862544449 -0.33476856161001933 H 0.0 **** 0.06
26630 H 121.03829355369926 97.3105352668905 1.3353261359355315 H 0.0 **** 0.06
26631 C 15.528898134248038 99.27563841811785 99.91904482668653 C 0.0 **** -0.24
26632 H 16.567529258269474 99.08226176669979 99.65142507703041 H 0.0 **** 0.06
26633 H 14.913562936480389 99.26080348509971 99.01989190604499 H 0.0 **** 0.06
26634 H 15.452665293515963 100.25271663622354 100.39528233450608 H 0.0 **** 0.06
26635 H 15.182973285760625 98.50698247754703 100.61039245336286 H 0.0 **** 0.06
26636 C 48.634795575116414 91.47050331929955 92.8217245444296 C 0.0 **** -0.24
26637 H 47.804178862422475 91.97847696387511 92.330204260198 H 0.0 **** 0.06
26638 H 48.263401704360376 90.91916646312146 93.68493582133202 H 0.0 **** 0.06
26639 H 49.36844651079866 92.20791179963766 93.14909216804709 H 0.0 **** 0.06
26640 H 49.103115799952604 90.77872270617291 92.1206986685726 H 0.0 **** 0.06
26641 C 111.14223296348631 55.96920806738926 75.22231143317155 C 0.0 **** -0.24
26642 H 111.24469280264164 57.00158630138661 75.55477737230683 H 0.0 **** 0.06
26643 H 112.05967794377123 55.42358519502065 75.44410388402265 H 0.0 **** 0.06
26644 H 110.95891200394176 55.9496524508659 74.14837686399544 H 0.0 **** 0.06
26645 H 110.30583265280966 55.50060661004335 75.74202743296374 H 0.0 **** 0.06
26646 C 129.1087928146664 100.42354356666314 34.87537904039701 C 0.0 **** -0.24
26647 H 129.5211422616656 99.8160538417354 34.06914477699391 H 0.0 **** 0.06
26648 H 128.50777151312465 99.79402916527263 35.53208789680184 H 0.0 **** 0.06
26649 H 128.4840932435733 101.2108024221254 34.45456627000871 H 0.0 **** 0.06
26650 H 129.92250804766402 100.86986286397536 35.44609792893502 H 0.0 **** 0.06
26651 C 48.38948594273435 92.29154905047642 104.70911950061227 C 0.0 **** -0.24
26652 H 48.54304366785826 93.12415695701156 104.0230658874448 H 0.0 **** 0.06
26653 H 48.020574981160706 92.67068024175984 105.66248079047804 H 0.0 **** 0.06
26654 H 49.33327424708435 91.77051632802527 104.86645347909516 H 0.0 **** 0.06
26655 H 47.65975380353362 91.60187144773377 104.28498710246808 H 0.0 **** 0.06
26656 C 142.43632194627327 1.7305921883101014 49.18940846238982 C 0.0 **** -0.24
26657 H 142.79339316806815 1.5325930866666901 48.178275425505475 H 0.0 **** 0.06
26658 H 141.50445167600043 2.2947304575319087 49.14170808701398 H 0.0 **** 0.06
26659 H 143.18482713146415 2.3085263081602996 49.73176409855287 H 0.0 **** 0.06
26660 H 142.26280536052099 0.7863060191390261 49.704927703981525 H 0.0 **** 0.06
26661 C 38.03569994449113 128.16281573868963 129.5579851448268 C 0.0 **** -0.24
26662 H 39.03598644407771 128.5039605291788 129.28844351655619 H 0.0 **** 0.06
26663 H 37.94582948021264 127.09821182695897 129.3405424678148 H 0.0 **** 0.06
26664 H 37.29579223151953 128.71548269387904 128.98030163073696 H 0.0 **** 0.06
26665 H 37.86861508565005 128.3325836547234 130.62154331470379 H 0.0 **** 0.06
26666 C 130.73352019101495 136.7672412065787 118.98514498323182 C 0.0 **** -0.24
26667 H 131.47660650165656 137.09598433057417 118.25833332140384 H 0.0 **** 0.06
26668 H 130.81715117357956 137.37150296214517 119.8891583235489 H 0.0 **** 0.06
26669 H 130.90502208944017 135.71912424248237 119.23126371065361 H 0.0 **** 0.06
26670 H 129.73591665517185 136.8824556512109 118.56104321507395 H 0.0 **** 0.06
26671 C 133.27839869114393 143.78361786001327 120.77216616144753 C 0.0 **** -0.24
26672 H 132.65512654792522 143.37455333163558 119.97795745166465 H 0.0 **** 0.06
26673 H 132.89944504212224 143.45331669664168 121.73901813320114 H 0.0 **** 0.06
26674 H 133.25644080061295 144.8725738321783 120.72567703563877 H 0.0 **** 0.06
26675 H 134.3036272278257 143.43561655409846 120.644835750086 H 0.0 **** 0.06
26676 C 21.288701997358913 2.3412783075598327 129.79423927924336 C 0.0 **** -0.24
26677 H 20.52186307932945 1.788019030839223 130.33625378406774 H 0.0 **** 0.06
26678 H 22.110935579520884 1.6704956378895872 129.54224506908258 H 0.0 **** 0.06
26679 H 21.659728231733055 3.1542707428464496 130.41771605457373 H 0.0 **** 0.06
26680 H 20.861006586033767 2.75174003820149 128.8790014294799 H 0.0 **** 0.06
26681 C 90.01426367848643 108.53119578531226 79.00572014928505 C 0.0 **** -0.24
26682 H 90.65214981176408 107.65758005906576 79.13372510405803 H 0.0 **** 0.06
26683 H 89.29378778464118 108.3425382970783 78.20985186777183 H 0.0 **** 0.06
26684 H 90.62692308675838 109.39357829165277 78.74393717240476 H 0.0 **** 0.06
26685 H 89.48301339311745 108.73234607233638 79.93710420298629 H 0.0 **** 0.06
26686 C 39.76662627043618 23.69657326612429 74.42327124578411 C 0.0 **** -0.24
26687 H 39.41965507191418 24.656333786905066 74.0407699985905 H 0.0 **** 0.06
26688 H 40.85548578675514 23.699499715793593 74.47562468785348 H 0.0 **** 0.06
26689 H 39.437425525000606 22.899477459941522 73.75688800946497 H 0.0 **** 0.06
26690 H 39.35495778275168 23.531791638582376 75.41924894292879 H 0.0 **** 0.06
26691 C 14.922898423750155 61.87995184193596 70.34139207242279 C 0.0 **** -0.24
26692 H 13.880377421592243 61.832146089811715 70.02676681179963 H 0.0 **** 0.06
26693 H 15.566066114789407 61.92547090183322 69.46248489633302 H 0.0 **** 0.06
26694 H 15.166530626099757 60.99108803995912 70.92516775970034 H 0.0 **** 0.06
26695 H 15.077119886333662 62.768795896986575 70.95270823384884 H 0.0 **** 0.06
26696 C 17.976194643228467 116.06648566098035 108.74573563743809 C 0.0 **** -0.24
26697 H 17.210836931962092 115.30558934529934 108.90209066233416 H 0.0 **** 0.06
26698 H 17.497516769191066 117.02469649217726 108.54271594685014 H 0.0 **** 0.06
26699 H 18.60016418588728 115.78383640435148 107.89853976292846 H 0.0 **** 0.06
26700 H 18.592434846024048 116.15036449057531 109.64009003319495 H 0.0 **** 0.06
26701 C 122.87425950403836 125.63417530522163 110.03912213842354 C 0.0 **** -0.24
26702 H 122.09384059865589 126.2954459488474 110.4152417212246 H 0.0 **** 0.06
26703 H 122.67892247008739 125.40005272288059 108.99272138499155 H 0.0 **** 0.06
26704 H 122.88239623018906 124.71424640453621 110.62289012240505 H 0.0 **** 0.06
26705 H 123.84190660377995 126.12795805339448 110.12663305968361 H 0.0 **** 0.06
26706 C 99.72104677724502 82.28352856629735 15.24684556456991 C 0.0 **** -0.24
26707 H 98.68618502941666 82.20918906564523 14.914900942460896 H 0.0 **** 0.06
26708 H 99.92326325964069 83.3008148222628 15.58106948376227 H 0.0 **** 0.06
26709 H 100.38702584063651 82.03261840663777 14.420806528553484 H 0.0 **** 0.06
26710 H 99.88898343675169 81.58976682840441 16.07124561989768 H 0.0 **** 0.06
26711 C 10.67189841223373 78.45581742537132 95.62564214773093 C 0.0 **** -0.24
26712 H 9.86003778920685 78.62815529334416 96.3321472551388 H 0.0 **** 0.06
26713 H 10.795477171974674 77.38377631892455 95.46884713035178 H 0.0 **** 0.06
26714 H 11.595463330997632 78.8738806168811 96.02368790189723 H 0.0 **** 0.06
26715 H 10.43524374524273 78.93701826460484 94.67590489039631 H 0.0 **** 0.06
26716 C 125.64223741499734 10.015214511249212 25.931953954342077 C 0.0 **** -0.24
26717 H 126.35424082757322 9.190904613626032 25.955035881238985 H 0.0 **** 0.06
26718 H 125.24475334710587 10.124307632057906 24.922681639285145 H 0.0 **** 0.06
26719 H 126.14544294389046 10.936492939164367 26.22739900831499 H 0.0 **** 0.06
26720 H 124.82552646300701 9.809880211861667 26.624807164736296 H 0.0 **** 0.06
26721 C 91.19018215149582 80.4638800304648 46.6112247769409 C 0.0 **** -0.24
26722 H 90.91926176356361 79.59413004092781 47.20945096279098 H 0.0 **** 0.06
26723 H 92.1029006521141 80.25144460681224 46.053617702060706 H 0.0 **** 0.06
26724 H 91.35492401837186 81.31893775545683 47.26621092753555 H 0.0 **** 0.06
26725 H 90.38335729574474 80.69088410165375 45.913405074725574 H 0.0 **** 0.06
26726 C 57.77811714898979 105.12016015422554 16.104530308451217 C 0.0 **** -0.24
26727 H 57.69939082612623 105.33989084996617 17.169806852228447 H 0.0 **** 0.06
26728 H 57.25503473980625 104.18797032354686 15.886850577881745 H 0.0 **** 0.06
26729 H 58.828954822648484 105.0204409680222 15.830972662904742 H 0.0 **** 0.06
26730 H 57.32892470130125 105.93198811692278 15.531851503949241 H 0.0 **** 0.06
26731 C 81.57736703111613 72.03270535273194 3.754295605763076 C 0.0 **** -0.24
26732 H 81.60889926485186 72.28657917757928 2.694701680703247 H 0.0 **** 0.06
26733 H 80.99658318450182 71.1210839825321 3.892361024391221 H 0.0 **** 0.06
26734 H 81.11119548014693 72.84803839394186 4.3087039842007755 H 0.0 **** 0.06
26735 H 82.5917244645646 71.87759893014729 4.120567967734303 H 0.0 **** 0.06
26736 C 30.77542829038751 25.832785214502913 134.78982190369615 C 0.0 **** -0.24
26737 H 31.470274558040018 26.597408703602163 135.13833029356178 H 0.0 **** 0.06
26738 H 30.40675375787012 25.26220584735246 135.64252746620687 H 0.0 **** 0.06
26739 H 31.288586565323328 25.164629611267195 134.09897740661248 H 0.0 **** 0.06
26740 H 29.937122199025794 26.30952477818373 134.28119749167345 H 0.0 **** 0.06
26741 C 68.93485429034608 146.96915090610185 52.67514004811564 C 0.0 **** -0.24
26742 H 69.558183623051 147.3277633190948 51.85651551016308 H 0.0 **** 0.06
26743 H 69.50577587145163 146.99461684015094 53.604288897630695 H 0.0 **** 0.06
26744 H 68.61956517142184 145.94553983089895 52.469992138726624 H 0.0 **** 0.06
26745 H 68.05718579415904 147.6085387390997 52.770317231588805 H 0.0 **** 0.06
26746 C 98.86697771481069 72.49807612134603 63.65695647794432 C 0.0 **** -0.24
26747 H 99.65798957297356 73.18669819072349 63.35998952855533 H 0.0 **** 0.06
26748 H 98.97329024647469 72.25668683191776 64.71462293997374 H 0.0 **** 0.06
26749 H 98.9392339502185 71.58523311618772 63.06668270669145 H 0.0 **** 0.06
26750 H 97.89674545812713 72.96494047696973 63.486581791025856 H 0.0 **** 0.06
26751 C 29.659889177318526 59.84275443367102 114.42543423741621 C 0.0 **** -0.24
26752 H 29.839361347346376 59.73513007146863 113.35588517035562 H 0.0 **** 0.06
26753 H 29.92760133089908 60.85140433905434 114.73930209964648 H 0.0 **** 0.06
26754 H 30.266906033695356 59.11883109208213 114.96974576691595 H 0.0 **** 0.06
26755 H 28.605632400257306 59.66327432060507 114.636218536295 H 0.0 **** 0.06
26756 C 41.579961063708495 51.499716378340196 144.42359361280094 C 0.0 **** -0.24
26757 H 41.90906570549842 50.692304658440065 143.7705760938533 H 0.0 **** 0.06
26758 H 40.733413874901174 51.16165535024095 145.02245097090068 H 0.0 **** 0.06
26759 H 41.27844738770874 52.3554037931618 143.81905986502804 H 0.0 **** 0.06
26760 H 42.39795377111196 51.79050130035887 145.08255684095664 H 0.0 **** 0.06
26761 C 68.77854858416379 6.020897322913811 3.964157917508004 C 0.0 **** -0.24
26762 H 68.5446961601723 6.0461183355207595 5.028550905839637 H 0.0 **** 0.06
26763 H 69.86023509923427 6.064376198778291 3.829111888460659 H 0.0 **** 0.06
26764 H 68.31672645117726 6.875745221617194 3.4705894269595206 H 0.0 **** 0.06
26765 H 68.39439036667125 5.098348775043235 3.5291313461090397 H 0.0 **** 0.06
26766 C 148.04958097670317 58.94352835373836 55.4041141482508 C 0.0 **** -0.24
26767 H 148.46109122497182 58.23832323039905 56.125469465163505 H 0.0 **** 0.06
26768 H 148.78174046404723 59.72475035102623 55.200899622199756 H 0.0 **** 0.06
26769 H 147.14235986921972 59.391673112217845 55.810165432446425 H 0.0 **** 0.06
26770 H 147.81120031345756 58.419127843046454 54.47843533276969 H 0.0 **** 0.06
26771 C 123.7767203770819 60.10383134199873 14.815144999496681 C 0.0 **** -0.24
26772 H 122.71887008204764 59.85968967320059 14.915867926292492 H 0.0 **** 0.06
26773 H 123.88334782518929 61.15103001808882 14.533373855300567 H 0.0 **** 0.06
26774 H 124.2221115558876 59.473202480498 14.045260303139571 H 0.0 **** 0.06
26775 H 124.2813733431215 59.92905074926989 15.764636738659021 H 0.0 **** 0.06
26776 C 66.33616561809703 62.890892821350235 47.25493165908969 C 0.0 **** -0.24
26777 H 65.31494174905005 62.64015272805392 46.965996128761475 H 0.0 **** 0.06
26778 H 66.93974242471273 63.0429684311387 46.35974924413699 H 0.0 **** 0.06
26779 H 66.75703392589513 62.07486140537351 47.84218890444507 H 0.0 **** 0.06
26780 H 66.33189862021568 63.80383171711469 47.850887084134314 H 0.0 **** 0.06
26781 C 1.3569673578856225 76.42357876196256 58.91876860686523 C 0.0 **** -0.24
26782 H 1.2360194133049447 75.89608198695753 59.86429395645854 H 0.0 **** 0.06
26783 H 1.6210161905455323 77.46313587307424 59.115381793999006 H 0.0 **** 0.06
26784 H 0.42302637661722997 76.38526886499614 58.359008800991774 H 0.0 **** 0.06
26785 H 2.148874680282262 75.95133793683858 58.33799683181195 H 0.0 **** 0.06
26786 C 28.657271923064442 115.69006276187164 50.94790498916039 C 0.0 **** -0.24
26787 H 29.64529299735633 115.455669437875 51.345214241820514 H 0.0 **** 0.06
26788 H 28.573693717046474 116.76583246427876 50.79562008869108 H 0.0 **** 0.06
26789 H 27.89466723734155 115.36242698737479 51.65435057918482 H 0.0 **** 0.06
26790 H 28.51805465333328 115.17578769520159 49.99735453503955 H 0.0 **** 0.06
26791 C 79.52776867591473 90.73746177708178 61.93315659222509 C 0.0 **** -0.24
26792 H 79.78560444623483 91.48061660063956 62.68794737172519 H 0.0 **** 0.06
26793 H 79.66961757109506 91.16350311705412 60.94009610048917 H 0.0 **** 0.06
26794 H 78.48617080068124 90.44153704570338 62.057562776458894 H 0.0 **** 0.06
26795 H 80.16989072454562 89.86398925941337 62.04983370223846 H 0.0 **** 0.06
26796 C 144.4019464291102 113.14018910753539 58.93329359671222 C 0.0 **** -0.24
26797 H 144.20078152942753 112.77989641305949 57.92480447292017 H 0.0 **** 0.06
26798 H 145.06231851333362 114.00610095901838 58.88381765997124 H 0.0 **** 0.06
26799 H 144.88110663559897 112.35005086074527 59.511462719429744 H 0.0 **** 0.06
26800 H 143.46506140523056 113.42487415900199 59.411423633163295 H 0.0 **** 0.06
26801 C 89.62570495279176 22.58678803471207 98.98664444892988 C 0.0 **** -0.24
26802 H 88.5906279767543 22.263910132829622 98.87634038359529 H 0.0 **** 0.06
26803 H 89.71280540700361 23.233477861351503 99.86039229810554 H 0.0 **** 0.06
26804 H 89.93221496101923 23.135461472627767 98.09672730972252 H 0.0 **** 0.06
26805 H 90.2667049898162 21.714844045419028 99.11469559524322 H 0.0 **** 0.06
26806 C 14.248959219521424 49.89354696857515 20.979598904919214 C 0.0 **** -0.24
26807 H 15.201286289526394 50.15538228464388 21.4403167031669 H 0.0 **** 0.06
26808 H 13.478493932974771 50.585395022127386 21.319269304021816 H 0.0 **** 0.06
26809 H 13.975439217679394 48.877098024548104 21.264472340403188 H 0.0 **** 0.06
26810 H 14.340168408186031 49.95353311886663 19.89537337213295 H 0.0 **** 0.06
26811 C 20.706890268482994 13.805944176719294 26.429655346167266 C 0.0 **** -0.24
26812 H 21.702437793549137 13.85681215427411 26.87169504398986 H 0.0 **** 0.06
26813 H 19.95669358652495 13.852409364691624 27.218838719033045 H 0.0 **** 0.06
26814 H 20.600568629340614 12.869611545560005 25.881876744987267 H 0.0 **** 0.06
26815 H 20.569534799077957 14.644137763059092 25.747807557838627 H 0.0 **** 0.06
26816 C 24.06101348457429 79.11723656622127 76.82102058683643 C 0.0 **** -0.24
26817 H 23.490877773943517 79.01609979575011 75.89757589098838 H 0.0 **** 0.06
26818 H 23.383740404000555 79.06238843690078 77.67369776197336 H 0.0 **** 0.06
26819 H 24.57520196332579 80.07884596664476 76.82694428324908 H 0.0 **** 0.06
26820 H 24.793650271729618 78.31376717902833 76.88598756670785 H 0.0 **** 0.06
26821 C 129.88574696685077 141.61887866550623 129.16755154642286 C 0.0 **** -0.24
26822 H 130.6447465446752 140.89657870787673 129.46794943813978 H 0.0 **** 0.06
26823 H 129.59149352070747 141.4285829797723 128.13504490086746 H 0.0 **** 0.06
26824 H 130.29222916816045 142.6276906016977 129.2493148416649 H 0.0 **** 0.06
26825 H 129.0166505131644 141.52333576066937 129.8168960760267 H 0.0 **** 0.06
26826 C 83.62709932335221 56.766217137173044 125.02567136297345 C 0.0 **** -0.24
26827 H 83.42129707215607 57.10624985593158 124.01130475081497 H 0.0 **** 0.06
26828 H 82.77121168788763 56.20442956105801 125.40136485786444 H 0.0 **** 0.06
26829 H 83.80688146826864 57.628642549623734 125.66787482564523 H 0.0 **** 0.06
26830 H 84.50900706509634 56.1255465820788 125.0221410175689 H 0.0 **** 0.06
26831 C 21.057537846309458 100.64391436070053 15.480954106665962 C 0.0 **** -0.24
26832 H 22.117083791731403 100.80035246987265 15.687373704608916 H 0.0 **** 0.06
26833 H 20.63337086757147 101.5514681306724 15.052467259245248 H 0.0 **** 0.06
26834 H 20.53870414350385 100.4018018621841 16.408633804271204 H 0.0 **** 0.06
26835 H 20.943808187754286 99.82061892655277 14.775081802619582 H 0.0 **** 0.06
26836 C 50.36084781752032 18.421056217637044 36.46272303669838 C 0.0 **** -0.24
26837 H 51.25601901048179 17.942647570438226 36.0655440091013 H 0.0 **** 0.06
26838 H 50.01424964415176 17.8728443416681 37.33897296839132 H 0.0 **** 0.06
26839 H 49.58044264854405 18.419600410184557 35.70119420076645 H 0.0 **** 0.06
26840 H 50.59189692273361 19.448248676056323 36.7444027108898 H 0.0 **** 0.06
26841 C 128.86439622529582 7.700504668456688 81.07197563538836 C 0.0 **** -0.24
26842 H 127.82781932069668 7.6473336566838555 80.73960139350267 H 0.0 **** 0.06
26843 H 129.23725281187498 6.692807448857366 81.25705071761647 H 0.0 **** 0.06
26844 H 128.9224847859022 8.284127339697108 81.99070942650178 H 0.0 **** 0.06
26845 H 129.46914256870332 8.176356812314566 80.30001703549249 H 0.0 **** 0.06
26846 C 46.33627523295091 80.53785497283755 148.01327493149554 C 0.0 **** -0.24
26847 H 45.501042968846065 79.97984242571444 147.58952316151488 H 0.0 **** 0.06
26848 H 45.957284168979655 81.28907918006799 148.70590573734404 H 0.0 **** 0.06
26849 H 46.89038352367254 81.02678122082277 147.212594860633 H 0.0 **** 0.06
26850 H 46.99666095169236 79.85225821108155 148.54605756657554 H 0.0 **** 0.06
26851 C 142.52441018740316 60.63557787452265 107.63326638443228 C 0.0 **** -0.24
26852 H 142.79351801621448 60.23775816976212 108.61167168763048 H 0.0 **** 0.06
26853 H 141.54939200918403 60.24809588042643 107.33933151567204 H 0.0 **** 0.06
26854 H 143.27309517693976 60.33316427413354 106.90097116428534 H 0.0 **** 0.06
26855 H 142.4841538548838 61.72378912698116 107.68264438828483 H 0.0 **** 0.06
26856 C 12.887873506087601 21.17490759500481 49.71823814215992 C 0.0 **** -0.24
26857 H 13.080274489073673 20.928698268922517 48.67357583095759 H 0.0 **** 0.06
26858 H 12.456952114580531 20.308362295722475 50.22069263479622 H 0.0 **** 0.06
26859 H 12.19085953721688 22.010556493594606 49.77252342486946 H 0.0 **** 0.06
26860 H 13.823377329024225 21.4496258925019 50.20464425437038 H 0.0 **** 0.06
26861 C 125.57165877091332 61.105806480920236 136.1554640385262 C 0.0 **** -0.24
26862 H 126.32261270098795 60.67016894934497 136.81472318952302 H 0.0 **** 0.06
26863 H 126.05181303723244 61.463783125874514 135.2448219129659 H 0.0 **** 0.06
26864 H 125.08291808564572 61.93833461810995 136.66131176056786 H 0.0 **** 0.06
26865 H 124.82862819986978 60.34887159928863 135.90153355347178 H 0.0 **** 0.06
26866 C 79.55012882379914 74.03488361056176 22.436342634228623 C 0.0 **** -0.24
26867 H 79.10179564727896 73.27224158592195 21.798550319731078 H 0.0 **** 0.06
26868 H 79.89177932439628 73.57641206448251 23.364144470404653 H 0.0 **** 0.06
26869 H 78.80837067481221 74.80135639306948 22.660351109749655 H 0.0 **** 0.06
26870 H 80.39641914607087 74.48786685238782 21.92041983231715 H 0.0 **** 0.06
26871 C 45.964066328464526 41.21340738647845 77.5650161394432 C 0.0 **** -0.24
26872 H 46.332518592159914 42.23802071511258 77.62388017514998 H 0.0 **** 0.06
26873 H 46.6168274560261 40.63144092679428 76.91388600066108 H 0.0 **** 0.06
26874 H 44.95276798446349 41.21402494285036 77.1600646475464 H 0.0 **** 0.06
26875 H 45.956713142393596 40.7728108045462 78.5616680566559 H 0.0 **** 0.06
26876 C 132.0182237700744 47.020538342544526 132.88624967024842 C 0.0 **** -0.24
26877 H 132.09346710002637 46.66381880460361 131.85894538126138 H 0.0 **** 0.06
26878 H 131.54706610376869 48.00393790413342 132.8949259249764 H 0.0 **** 0.06
26879 H 133.01532834814316 47.09180868686907 133.32004853985129 H 0.0 **** 0.06
26880 H 131.41681209256703 46.32420055794434 133.46991664410314 H 0.0 **** 0.06
26881 C 125.68994338389919 116.09209214579293 27.429067172083627 C 0.0 **** -0.24
26882 H 125.26065906360625 116.9443735810428 26.90041332893714 H 0.0 **** 0.06
26883 H 125.01087980933556 115.24144169346512 27.358817541020727 H 0.0 **** 0.06
26884 H 125.83791644394987 116.35356993221431 28.47704705738289 H 0.0 **** 0.06
26885 H 126.64828690929824 115.83118347508811 26.980174275240486 H 0.0 **** 0.06
26886 C 68.23324259336067 84.27219439721254 0.937124835432229 C 0.0 **** -0.24
26887 H 68.5416356872949 84.04349314199968 1.957337031169434 H 0.0 **** 0.06
26888 H 68.43548790365116 83.41392433587714 0.29543186849166503 H 0.0 **** 0.06
26889 H 68.79016462260752 85.13622058068718 0.5746595396542489 H 0.0 **** 0.06
26890 H 67.16644152363338 84.49404895338465 0.9205870822740856 H 0.0 **** 0.06
26891 C 83.38257609116745 148.45749774053675 132.1857866992059 C 0.0 **** -0.24
26892 H 83.90741381857458 147.81119807599103 131.48263197353575 H 0.0 **** 0.06
26893 H 83.62488244015606 148.1575840903967 133.2054415078 H 0.0 **** 0.06
26894 H 82.30817642647438 148.37079375870434 132.02575470143498 H 0.0 **** 0.06
26895 H 83.69075640963685 149.49124740983567 132.02720857868164 H 0.0 **** 0.06
26896 C 113.06674248979155 150.33801953558563 113.51142333629684 C 0.0 **** -0.24
26897 H 113.01172946419442 151.06507123433735 114.32141275833413 H 0.0 **** 0.06
26898 H 112.84827429903592 149.34369239945414 113.90010142558276 H 0.0 **** 0.06
26899 H 114.06853788228361 150.34857264924824 113.0809827023549 H 0.0 **** 0.06
26900 H 112.33855034951446 150.5956570693257 112.7421252114824 H 0.0 **** 0.06
26901 C 139.57417782580703 92.68650824699489 149.2335007503421 C 0.0 **** -0.24
26902 H 140.02856937731633 92.26521644546531 150.13054870878187 H 0.0 **** 0.06
26903 H 139.12156131738334 91.88721320987392 148.64576759448056 H 0.0 **** 0.06
26904 H 140.339345837777 93.18617246865611 148.63987372759433 H 0.0 **** 0.06
26905 H 138.8066284558736 93.40576823325873 149.51917980054645 H 0.0 **** 0.06
26906 C 140.82859815539263 67.5676021773496 50.481269377853465 C 0.0 **** -0.24
26907 H 141.91456573624214 67.51097985706822 50.408215963708415 H 0.0 **** 0.06
26908 H 140.51903369410155 67.31130100840456 51.49504651377916 H 0.0 **** 0.06
26909 H 140.38012793586566 66.86714233579262 49.77608713829399 H 0.0 **** 0.06
26910 H 140.50100227007098 68.58011954117583 50.245358356845756 H 0.0 **** 0.06
26911 C 9.860259948522184 53.10229784888719 73.354084194697 C 0.0 **** -0.24
26912 H 9.694198374540406 52.84021414439698 74.39878135313893 H 0.0 **** 0.06
26913 H 9.06208791372103 53.76266581072511 73.01412969093562 H 0.0 **** 0.06
26914 H 9.86545105226196 52.19572933467367 72.7486041539838 H 0.0 **** 0.06
26915 H 10.819920942412637 53.610540303911165 73.25560628497489 H 0.0 **** 0.06
26916 C 93.3075623594452 20.190288767275774 22.763610896134537 C 0.0 **** -0.24
26917 H 93.4788656892951 21.021842604165897 22.079175426370398 H 0.0 **** 0.06
26918 H 94.26419482404867 19.74942893114644 23.04512189059423 H 0.0 **** 0.06
26919 H 92.6909534814692 19.437874748727438 22.272377648902136 H 0.0 **** 0.06
26920 H 92.79729299923923 20.552533393414194 23.655010595789378 H 0.0 **** 0.06
26921 C 93.68006343280842 123.18602322880177 145.3020814224484 C 0.0 **** -0.24
26922 H 93.83007992564666 123.60532092322084 144.30820672922817 H 0.0 **** 0.06
26923 H 94.42586817393573 123.59306415624208 145.98478300514856 H 0.0 **** 0.06
26924 H 93.78066799954416 122.1015219067644 145.25817139354038 H 0.0 **** 0.06
26925 H 92.68263592527683 123.44388934995591 145.65811781814284 H 0.0 **** 0.06
26926 C 44.974004076445055 43.44357213392358 0.3647670693355849 C 0.0 **** -0.24
26927 H 45.4809658611544 42.57927885679052 0.7922811805536583 H 0.0 **** 0.06
26928 H 45.232064563346114 43.53111887367639 -0.6911495362896005 H 0.0 **** 0.06
26929 H 45.28792283885713 44.34507770732874 0.8913904767556744 H 0.0 **** 0.06
26930 H 43.8959395430322 43.31991539693115 0.4666756040954567 H 0.0 **** 0.06
26931 C 74.6957027999406 127.99672429852322 18.253695080546976 C 0.0 **** -0.24
26932 H 74.99627995447086 128.1274037494004 19.292994228708096 H 0.0 **** 0.06
26933 H 73.63089112059366 127.76441577477627 18.21045877591618 H 0.0 **** 0.06
26934 H 75.26436591778788 127.17950278174568 17.80994544835164 H 0.0 **** 0.06
26935 H 74.89008129196235 128.91637188486288 17.700411374491438 H 0.0 **** 0.06
26936 C 122.01151807005353 14.689907903278595 95.27577379227779 C 0.0 **** -0.24
26937 H 121.42489889817658 14.464981537509459 94.38477964049963 H 0.0 **** 0.06
26938 H 122.95885971778894 14.152350126284887 95.23197959932031 H 0.0 **** 0.06
26939 H 121.45781537854255 14.379173381937392 96.16282392604774 H 0.0 **** 0.06
26940 H 122.20264843887036 15.761580083893534 95.32394406238939 H 0.0 **** 0.06
26941 C 84.69229457999171 112.8259489154201 125.17016692637759 C 0.0 **** -0.24
26942 H 84.47989861956421 113.36364829239625 124.24627904970095 H 0.0 **** 0.06
26943 H 83.97161684019166 112.01659024367206 125.29272168601668 H 0.0 **** 0.06
26944 H 84.61594484247166 113.51067327295948 126.01475721288475 H 0.0 **** 0.06
26945 H 85.70022585027141 112.41200465482018 125.12688615135971 H 0.0 **** 0.06
26946 C 22.769491698221287 43.164051420347306 12.915549991830872 C 0.0 **** -0.24
26947 H 22.961825020969883 42.33776966607954 13.59963392282937 H 0.0 **** 0.06
26948 H 21.863229791474055 43.6863729457271 13.222546855433585 H 0.0 **** 0.06
26949 H 22.6412558184428 42.77627687279974 11.90491160605611 H 0.0 **** 0.06
26950 H 23.61259293035178 43.85564859862595 12.935429403450712 H 0.0 **** 0.06
26951 C 62.07924890279399 75.84144127159253 109.21812667104807 C 0.0 **** -0.24
26952 H 61.55545852964731 74.89991704553779 109.38040182582158 H 0.0 **** 0.06
26953 H 62.80006283351014 75.99868631007632 110.02028235795727 H 0.0 **** 0.06
26954 H 61.36036253210324 76.66041530684107 109.20825846861341 H 0.0 **** 0.06
26955 H 62.601747413250706 75.80598471453695 108.26156006804673 H 0.0 **** 0.06
26956 C 41.21618107789459 102.25806699964491 85.50189990955587 C 0.0 **** -0.24
26957 H 42.287051781443736 102.32432690710644 85.31159747182014 H 0.0 **** 0.06
26958 H 40.862753748051915 103.19958452332851 85.92358865557819 H 0.0 **** 0.06
26959 H 41.021337117600666 101.44935220656268 86.20710607947433 H 0.0 **** 0.06
26960 H 40.69188606176209 102.05854443006947 84.56701436252254 H 0.0 **** 0.06
26961 C 55.90103359148381 144.41274843779698 122.95057542823709 C 0.0 **** -0.24
26962 H 56.65724825095367 144.6286279711398 123.70455146047989 H 0.0 **** 0.06
26963 H 55.55062245068146 143.38708944761458 123.0707136487615 H 0.0 **** 0.06
26964 H 56.33280214139245 144.5352668524734 121.95683770022764 H 0.0 **** 0.06
26965 H 55.06210969577998 145.0985440605171 123.06918633630842 H 0.0 **** 0.06
26966 C 42.154328143427094 102.12394432934653 3.2759079362115813 C 0.0 **** -0.24
26967 H 42.006487096454904 101.0442809382421 3.304933447645425 H 0.0 **** 0.06
26968 H 41.68515046057301 102.53074192503338 2.3800499651321445 H 0.0 **** 0.06
26969 H 43.22276327380138 102.34297361567918 3.2584410840962335 H 0.0 **** 0.06
26970 H 41.70531873891953 102.57573796485185 4.1603900145045145 H 0.0 **** 0.06
26971 C 119.00084978914488 23.16803811282267 60.42716401733745 C 0.0 **** -0.24
26972 H 118.65395112483658 23.8859681391026 61.17096460261803 H 0.0 **** 0.06
26973 H 119.50552359550578 23.699143826972445 59.61864955258483 H 0.0 **** 0.06
26974 H 118.1490434724759 22.62052584325604 60.02621049854555 H 0.0 **** 0.06
26975 H 119.69613628147853 22.47002147182789 60.893187553370936 H 0.0 **** 0.06
26976 C 73.85908875011339 90.98125790148691 108.1696835112431 C 0.0 **** -0.24
26977 H 73.79444971342261 89.96651681463021 107.7764369974983 H 0.0 **** 0.06
26978 H 74.87503054031349 91.35608268748143 108.04356389205849 H 0.0 **** 0.06
26979 H 73.60171944980283 90.97651180428107 109.22912488411724 H 0.0 **** 0.06
26980 H 73.16384100802662 91.62385429395096 107.62967524268801 H 0.0 **** 0.06
26981 C 85.04070089519314 95.23841894372636 13.66730818557815 C 0.0 **** -0.24
26982 H 86.08505645993233 95.34519191885481 13.37634870407382 H 0.0 **** 0.06
26983 H 84.5358761384905 94.5703234836562 12.968153714090846 H 0.0 **** 0.06
26984 H 84.5570442962117 96.21447080733573 13.651481255605262 H 0.0 **** 0.06
26985 H 84.98441103186747 94.82151354004519 14.672945210564194 H 0.0 **** 0.06
26986 C 48.11096630606292 131.58258992130408 83.74899352438293 C 0.0 **** -0.24
26987 H 49.197329991176076 131.49157864968439 83.71906992185792 H 0.0 **** 0.06
26988 H 47.8079484916569 131.99865755752563 84.70981005726568 H 0.0 **** 0.06
26989 H 47.66088857394158 130.5979072269866 83.62035242364666 H 0.0 **** 0.06
26990 H 47.779623132207035 132.24111861244828 82.94644188922652 H 0.0 **** 0.06
26991 C 9.014056202277345 35.876527683278155 42.479427192457806 C 0.0 **** -0.24
26992 H 9.825802471224847 35.55173190264091 41.828785842071255 H 0.0 **** 0.06
26993 H 9.374444353436985 35.93875175875169 43.506277245382265 H 0.0 **** 0.06
26994 H 8.194905586489853 35.16082088403048 42.423961305312176 H 0.0 **** 0.06
26995 H 8.661779235707542 36.85770212056473 42.157628763886095 H 0.0 **** 0.06
26996 C 113.21860072439951 29.73954683181583 146.0495243829428 C 0.0 **** -0.24
26997 H 113.5122100197567 30.120655894965864 145.07154384130732 H 0.0 **** 0.06
26998 H 112.37666634820066 29.055699979841194 145.93471789067164 H 0.0 **** 0.06
26999 H 112.92663480054402 30.57082413004204 146.68986520670174 H 0.0 **** 0.06
27000 H 114.05795996478521 29.210519516762673 146.49975833620695 H 0.0 **** 0.06
27001 C 60.90113255348621 116.82359230115797 106.0255113147846 C 0.0 **** -0.24
27002 H 61.51706272851213 116.52626173484173 106.87487229652596 H 0.0 **** 0.06
27003 H 60.39525880082684 117.76115698769051 106.25502748138977 H 0.0 **** 0.06
27004 H 60.160625447960854 116.05009298334947 105.8243708679194 H 0.0 **** 0.06
27005 H 61.534865810297575 116.95727767802829 105.14799498162513 H 0.0 **** 0.06
27006 C 83.48023103210588 50.70719703933494 121.88004747808877 C 0.0 **** -0.24
27007 H 83.255565893847 50.09440694971204 121.00624863571231 H 0.0 **** 0.06
27008 H 84.50128037698184 50.51221530484426 122.20715727983675 H 0.0 **** 0.06
27009 H 82.7869937642462 50.459106501392625 122.68386876713724 H 0.0 **** 0.06
27010 H 83.3749820633848 51.76043161399579 121.62127916248012 H 0.0 **** 0.06
27011 C 62.6634713041762 66.73419596944984 58.03600813286414 C 0.0 **** -0.24
27012 H 63.402920654225966 66.9251407486943 58.813822531505934 H 0.0 **** 0.06
27013 H 62.73529343440828 67.50730879147324 57.2700527277089 H 0.0 **** 0.06
27014 H 61.66514788428964 66.74757813397872 58.473326952171476 H 0.0 **** 0.06
27015 H 62.85198219706933 65.75921932585891 57.58817376724369 H 0.0 **** 0.06
27016 C 120.01968739101282 16.847476842754475 64.77944895904457 C 0.0 **** -0.24
27017 H 120.57995206417733 17.50679671753639 64.11571006407196 H 0.0 **** 0.06
27018 H 118.96086681309323 17.100392952514625 64.7334720606899 H 0.0 **** 0.06
27019 H 120.37887319617904 16.971919794985183 65.80117495190484 H 0.0 **** 0.06
27020 H 120.16170538534162 15.813221677062046 64.46710043569617 H 0.0 **** 0.06
27021 C 82.96832350508173 78.50589394401466 123.77690830672752 C 0.0 **** -0.24
27022 H 82.41225464901706 78.65088869916525 124.70423646212198 H 0.0 **** 0.06
27023 H 82.92125697027313 77.4557632440777 123.48660195012404 H 0.0 **** 0.06
27024 H 84.00731656219908 78.79599118458641 123.92839905704993 H 0.0 **** 0.06
27025 H 82.52989394363745 79.1211728092574 122.99218105104707 H 0.0 **** 0.06
27026 C 125.2482006452062 61.74080844495808 0.5786304494452281 C 0.0 **** -0.24
27027 H 126.24334698469923 61.58138217235424 0.1625540889763215 H 0.0 **** 0.06
27028 H 125.03550913186044 62.809709187143454 0.6103011353256136 H 0.0 **** 0.06
27029 H 125.20781349199805 61.33125167470101 1.5878284499331414 H 0.0 **** 0.06
27030 H 124.50839033228206 61.2411805784771 -0.04706771434788948 H 0.0 **** 0.06
27031 C 149.50550721429752 9.521673817455572 149.0866290308629 C 0.0 **** -0.24
27032 H 149.59246597658824 8.50630342451521 148.6983164412436 H 0.0 **** 0.06
27033 H 150.19545456105755 10.174453437687937 148.55093513794054 H 0.0 **** 0.06
27034 H 149.74929074245603 9.526731970223068 150.14799485447307 H 0.0 **** 0.06
27035 H 148.48510558216356 9.877964866101195 148.94522293645272 H 0.0 **** 0.06
27036 C 43.14774373047649 133.98159210467765 66.11963700062131 C 0.0 **** -0.24
27037 H 43.1623903645844 133.73493414950678 65.05847924767102 H 0.0 **** 0.06
27038 H 42.35476152285801 133.41869447189566 66.61261568075133 H 0.0 **** 0.06
27039 H 42.967412275822056 135.04862222629282 66.2420653266737 H 0.0 **** 0.06
27040 H 44.10880567121164 133.72205723729982 66.56552840572954 H 0.0 **** 0.06
27041 C 33.88611251624938 23.850590530740135 73.62284162586617 C 0.0 **** -0.24
27042 H 34.37454258695423 23.496399507343767 74.53100752122091 H 0.0 **** 0.06
27043 H 33.85306840486901 24.93986506523254 73.62896880192274 H 0.0 **** 0.06
27044 H 32.87105157583533 23.455476542546847 73.57882210500642 H 0.0 **** 0.06
27045 H 34.446406642529986 23.508277741480015 72.7522131364277 H 0.0 **** 0.06
27046 C 34.00195021602987 55.8716336706573 46.350625874026036 C 0.0 **** -0.24
27047 H 34.86483766644861 55.21172136599742 46.44351561066402 H 0.0 **** 0.06
27048 H 33.26747002735086 55.6182082712632 47.115389837241864 H 0.0 **** 0.06
27049 H 33.55639338832734 55.75021298671311 45.36349741264655 H 0.0 **** 0.06
27050 H 34.32099724991923 56.9059385644327 46.48119340334975 H 0.0 **** 0.06
27051 C 30.05769236810132 126.29917023122556 108.95183141041774 C 0.0 **** -0.24
27052 H 29.86159937389283 125.50711943610659 109.67436691140686 H 0.0 **** 0.06
27053 H 30.988845506205678 126.08745525029104 108.42526505945419 H 0.0 **** 0.06
27054 H 30.143507289452707 127.25273774753259 109.47233333701824 H 0.0 **** 0.06
27055 H 29.23801916825697 126.34862445842532 108.23540514812008 H 0.0 **** 0.06
27056 C 105.88963845570308 88.94729751772036 52.07411835086269 C 0.0 **** -0.24
27057 H 105.62981585849465 89.49137881725761 52.98154393960928 H 0.0 **** 0.06
27058 H 106.72298903544564 89.44504913095183 51.57796249090745 H 0.0 **** 0.06
27059 H 105.02972961227678 88.92463777375742 51.40481662961231 H 0.0 **** 0.06
27060 H 106.17619028179686 87.92680835137242 52.331661472611785 H 0.0 **** 0.06
27061 C 99.68597877848663 146.183945436463 133.0686677897599 C 0.0 **** -0.24
27062 H 99.53368285646307 145.19208733535987 132.64372788471334 H 0.0 **** 0.06
27063 H 99.4338067792815 146.16749327925157 134.1286069695485 H 0.0 **** 0.06
27064 H 99.04801992416449 146.90240146986048 132.55396116299985 H 0.0 **** 0.06
27065 H 100.7306137779492 146.47380598693266 132.9480231614585 H 0.0 **** 0.06
27066 C 103.39850063966976 53.34115131284311 126.13214401498146 C 0.0 **** -0.24
27067 H 103.48135345469693 54.188064925754546 126.81391102607478 H 0.0 **** 0.06
27068 H 103.37594260239915 53.70375962934639 125.10472647165038 H 0.0 **** 0.06
27069 H 102.48152249453827 52.79291197843601 126.34494708342464 H 0.0 **** 0.06
27070 H 104.25630723942366 52.68199963532814 126.26727137839401 H 0.0 **** 0.06
27071 C 67.42936454701612 24.93008737725735 6.505629630673688 C 0.0 **** -0.24
27072 H 67.5181986916404 24.23306905676239 5.6717384651945295 H 0.0 **** 0.06
27073 H 67.68072623953202 24.41757583363757 7.434937841514284 H 0.0 **** 0.06
27074 H 66.40588206154848 25.30145469581415 6.5605606143660005 H 0.0 **** 0.06
27075 H 68.11154409011749 25.766992678691814 6.354841414121623 H 0.0 **** 0.06
27076 C 57.51718258450012 33.59323911689691 17.065695283180787 C 0.0 **** -0.24
27077 H 56.46120030777303 33.849168142041464 16.983559899352827 H 0.0 **** 0.06
27078 H 57.73218978784149 32.73259016856588 16.432443541413818 H 0.0 **** 0.06
27079 H 57.75222322084852 33.35047417358197 18.101462402097297 H 0.0 **** 0.06
27080 H 58.12165960095052 34.441963028253454 16.744731475264018 H 0.0 **** 0.06
27081 C 40.16429376974929 5.394149227295998 65.69221022763031 C 0.0 **** -0.24
27082 H 40.47816877450413 6.286695455891561 65.15247220295521 H 0.0 **** 0.06
27083 H 40.18190757524309 4.536837694017407 65.01846827894934 H 0.0 **** 0.06
27084 H 39.15261172772415 5.5372501975551245 66.07223529607279 H 0.0 **** 0.06
27085 H 40.84336421534408 5.215047865173631 66.52605645490564 H 0.0 **** 0.06
27086 C 70.83168729970502 44.9935901253709 131.7197848947394 C 0.0 **** -0.24
27087 H 70.14324679483303 44.174345023830284 131.92872661618054 H 0.0 **** 0.06
27088 H 70.82440123560788 45.210664361369226 130.65164250112863 H 0.0 **** 0.06
27089 H 71.83862848844849 44.70982932281535 132.02575504327245 H 0.0 **** 0.06
27090 H 70.51939597671054 45.879464947568124 132.27393059700378 H 0.0 **** 0.06
27091 C 91.30481705668313 54.10576540957837 114.92581183427076 C 0.0 **** -0.24
27092 H 91.16676445816648 53.03580385394045 114.77667377548902 H 0.0 **** 0.06
27093 H 90.58862341928096 54.464880746959466 115.66520236027127 H 0.0 **** 0.06
27094 H 91.14635315626668 54.6279657436632 113.98234085901682 H 0.0 **** 0.06
27095 H 92.31847704389594 54.295301512162894 115.27958294314665 H 0.0 **** 0.06
27096 C 12.047575824881932 76.53050187062232 33.12453984179448 C 0.0 **** -0.24
27097 H 12.328414033141968 76.79807488209337 34.14374595925911 H 0.0 **** 0.06
27098 H 11.664322518297638 75.51012074681404 33.10971569340217 H 0.0 **** 0.06
27099 H 12.921866769087927 76.60044917975583 32.47733337984935 H 0.0 **** 0.06
27100 H 11.276751745768166 77.21402555812361 32.769222977741315 H 0.0 **** 0.06
27101 C 73.01360926828265 101.8594595240005 29.74404064860792 C 0.0 **** -0.24
27102 H 72.3471207984359 102.01953154986208 28.896609503958047 H 0.0 **** 0.06
27103 H 73.46683939348512 100.87103543765326 29.66914232134812 H 0.0 **** 0.06
27104 H 72.44482498306363 101.93002276890175 30.671550634248064 H 0.0 **** 0.06
27105 H 73.79504091508673 102.6196067556838 29.739114679193932 H 0.0 **** 0.06
27106 C 121.62363599190674 42.645128091965205 89.49743764736976 C 0.0 **** -0.24
27107 H 122.4504265106553 41.937031174906394 89.56047501046592 H 0.0 **** 0.06
27108 H 120.68105025889328 42.099157338873965 89.44659874271255 H 0.0 **** 0.06
27109 H 121.73807293612445 43.258011837537936 88.60289239176818 H 0.0 **** 0.06
27110 H 121.62638184372567 43.28615936006048 90.37955775967038 H 0.0 **** 0.06
27111 C 52.75085389514251 60.30733747628372 46.287017321987605 C 0.0 **** -0.24
27112 H 52.230313339897705 59.36970513385313 46.47867472102564 H 0.0 **** 0.06
27113 H 53.52048357866882 60.14785376523329 45.53203416491283 H 0.0 **** 0.06
27114 H 53.2131504241934 60.66117613287847 47.20889238542003 H 0.0 **** 0.06
27115 H 52.03901915563546 61.05172671210485 45.929217824957334 H 0.0 **** 0.06
27116 C 81.3330759575964 48.738035468608075 140.31086868284405 C 0.0 **** -0.24
27117 H 80.65528596042634 48.49589484244285 141.12999086735886 H 0.0 **** 0.06
27118 H 82.17031016702174 49.32223820873298 140.69331676558318 H 0.0 **** 0.06
27119 H 80.79889946630044 49.317155581237785 139.55763375638435 H 0.0 **** 0.06
27120 H 81.70671606914982 47.81703240345854 139.86341376499325 H 0.0 **** 0.06
27121 C 15.72778565304776 119.01291792413112 147.94206158268355 C 0.0 **** -0.24
27122 H 15.989399646980416 118.11641628739021 147.37953030768966 H 0.0 **** 0.06
27123 H 14.810736158162001 119.44205394985083 147.53578082276888 H 0.0 **** 0.06
27124 H 16.5354401584608 119.73976186161617 147.86345162154495 H 0.0 **** 0.06
27125 H 15.57394206643454 118.75235143346463 148.9899040283679 H 0.0 **** 0.06
27126 C 27.745560184361665 132.78665136379678 147.41917668042032 C 0.0 **** -0.24
27127 H 27.22067735571983 132.80239924681032 146.46401360351376 H 0.0 **** 0.06
27128 H 28.820442524179384 132.82962195112418 147.24195651506614 H 0.0 **** 0.06
27129 H 27.502015450914314 131.86719167261063 147.9529016816677 H 0.0 **** 0.06
27130 H 27.44088425548736 133.64514835073686 148.01694080715822 H 0.0 **** 0.06
27131 C 115.00175762257561 80.17028348418364 64.96582200914983 C 0.0 **** -0.24
27132 H 114.2846644438132 80.78313957257438 64.4188400125527 H 0.0 **** 0.06
27133 H 114.70411429643832 80.11123603738784 66.01275387639957 H 0.0 **** 0.06
27134 H 115.99217051212855 80.6185096175146 64.89348192999454 H 0.0 **** 0.06
27135 H 115.02362970883274 79.16807613690722 64.53681203312577 H 0.0 **** 0.06
27136 C 124.24768738535481 12.333869342664684 54.637352196098306 C 0.0 **** -0.24
27137 H 123.98665448045186 12.087503462387417 55.666223001360805 H 0.0 **** 0.06
27138 H 124.06501298626044 13.394171106657836 54.46038116142566 H 0.0 **** 0.06
27139 H 123.63820253401256 11.741161396360098 53.9556785452136 H 0.0 **** 0.06
27140 H 125.30170472539321 12.11263640380389 54.46769094965234 H 0.0 **** 0.06
27141 C 129.44828033657205 14.57180726474428 79.17512262942627 C 0.0 **** -0.24
27142 H 129.91195166806898 15.396201914105575 78.63413112081594 H 0.0 **** 0.06
27143 H 130.16645355919326 14.14976601182903 79.87837997920384 H 0.0 **** 0.06
27144 H 129.13701574328556 13.802440157535756 78.46744957902021 H 0.0 **** 0.06
27145 H 128.57753816546196 14.938747272242608 79.71912686722693 H 0.0 **** 0.06
27146 C 110.177211243656 46.47515994402471 130.28006824255124 C 0.0 **** -0.24
27147 H 109.087311544993 46.48533275049044 130.31423961926072 H 0.0 **** 0.06
27148 H 110.5103519541329 45.7343180781902 129.55334678622222 H 0.0 **** 0.06
27149 H 110.56836372638581 46.22049233932553 131.26496246105677 H 0.0 **** 0.06
27150 H 110.53982958663805 47.4607590518262 129.98777245363547 H 0.0 **** 0.06
27151 C 56.2180523117991 15.099215812991602 91.81845853329608 C 0.0 **** -0.24
27152 H 56.141492380893894 14.78530510404822 92.86000842103988 H 0.0 **** 0.06
27153 H 56.86801811131353 15.971821418958605 91.74931071601543 H 0.0 **** 0.06
27154 H 55.22670113725202 15.351885149296024 91.44204579926793 H 0.0 **** 0.06
27155 H 56.63565241244467 14.285730908807892 91.22430872974573 H 0.0 **** 0.06
27156 C 19.826170933821203 115.86182522454456 87.44798902175154 C 0.0 **** -0.24
27157 H 19.140422854338652 115.41887664187178 88.17049481528073 H 0.0 **** 0.06
27158 H 19.38257709962417 116.76738881235403 87.03326428345065 H 0.0 **** 0.06
27159 H 20.015981948100347 115.15033686908137 86.64411490499873 H 0.0 **** 0.06
27160 H 20.765067797302663 116.11036121890257 87.94286378010986 H 0.0 **** 0.06
27161 C 7.817143411735742 117.22214503144303 13.201783275261278 C 0.0 **** -0.24
27162 H 8.184317959296862 118.0011244116948 12.532703680556324 H 0.0 **** 0.06
27163 H 7.342443169919505 117.68264715121691 14.068468326482616 H 0.0 **** 0.06
27164 H 8.651731881633651 116.60272124141503 13.52993222123473 H 0.0 **** 0.06
27165 H 7.090548145363783 116.60373851032134 12.67459527820472 H 0.0 **** 0.06
27166 C 47.487949674817926 79.45531433225514 16.927284416442944 C 0.0 **** -0.24
27167 H 48.24480613389355 78.77836587777774 17.32286696759664 H 0.0 **** 0.06
27168 H 47.96093912501088 80.3853608479664 16.61364305316266 H 0.0 **** 0.06
27169 H 46.748650498882256 79.66523526062181 17.70060093377046 H 0.0 **** 0.06
27170 H 46.99723215045141 78.9903039392355 16.071953984032035 H 0.0 **** 0.06
27171 C 63.83674149396677 86.38233930124225 8.81737050643369 C 0.0 **** -0.24
27172 H 63.122331159936365 85.56210243235516 8.883596009510597 H 0.0 **** 0.06
27173 H 63.386162305358695 87.28966087586208 9.2192503718598 H 0.0 **** 0.06
27174 H 64.10858838337649 86.54322975786738 7.773468180923885 H 0.0 **** 0.06
27175 H 64.72958204313906 86.13371136716849 9.391050196968763 H 0.0 **** 0.06
27176 C 49.79584375230341 44.27103633760319 132.76563817711718 C 0.0 **** -0.24
27177 H 49.96959843056554 45.27895505702182 132.39000988075105 H 0.0 **** 0.06
27178 H 50.12465052597928 43.54461021605687 132.02086387112163 H 0.0 **** 0.06
27179 H 48.73190436212403 44.13424359655227 132.96207199874615 H 0.0 **** 0.06
27180 H 50.357801138604074 44.12538197168615 133.68828284979764 H 0.0 **** 0.06
27181 C 109.36593866187366 42.19348856871932 139.1637620068097 C 0.0 **** -0.24
27182 H 108.49106431807184 42.1339465008641 138.51714692014286 H 0.0 **** 0.06
27183 H 109.05130984270141 42.438638854866085 140.17858739003833 H 0.0 **** 0.06
27184 H 110.03935557565086 42.96758672864448 138.79449893219743 H 0.0 **** 0.06
27185 H 109.88234834487656 41.23383523808549 139.16575956691287 H 0.0 **** 0.06
27186 C 55.02561846132802 147.84514136463565 106.56653163654347 C 0.0 **** -0.24
27187 H 55.55848114284788 146.92344876709126 106.79857812498558 H 0.0 **** 0.06
27188 H 55.68568517033974 148.69672104146548 106.7302156659225 H 0.0 **** 0.06
27189 H 54.152614993488314 147.93236489046512 107.2139268120185 H 0.0 **** 0.06
27190 H 54.70506245444298 147.82757705957403 105.52550292519108 H 0.0 **** 0.06
27191 C 93.70924540240817 129.66955124284664 48.64381790560222 C 0.0 **** -0.24
27192 H 94.03079898992273 128.8459677055911 49.28076602367335 H 0.0 **** 0.06
27193 H 92.8025649521935 130.11433630957492 49.055359315449834 H 0.0 **** 0.06
27194 H 93.50699131392102 129.29647950650704 47.640182403915816 H 0.0 **** 0.06
27195 H 94.49561125749442 130.4233614799879 48.59941780165731 H 0.0 **** 0.06
27196 C 17.690600725290267 108.39790661704852 52.61906008221575 C 0.0 **** -0.24
27197 H 16.94030450143265 108.15207083418899 51.86658025987239 H 0.0 **** 0.06
27198 H 18.461305000055745 109.02493760485193 52.171649178691354 H 0.0 **** 0.06
27199 H 18.141190062546514 107.47912061320498 52.99510001408227 H 0.0 **** 0.06
27200 H 17.21737281731845 108.93369300645504 53.44203382594806 H 0.0 **** 0.06
27201 C 48.22010230030443 91.26164474995156 40.03319721164837 C 0.0 **** -0.24
27202 H 47.62787351107471 92.16243874748389 39.87301073052177 H 0.0 **** 0.06
27203 H 47.78486646260288 90.43709555563544 39.468303516410955 H 0.0 **** 0.06
27204 H 48.22354719242733 91.01320514928176 41.09399471438486 H 0.0 **** 0.06
27205 H 49.24164862319404 91.43506788164228 39.69593917294475 H 0.0 **** 0.06
27206 C 73.8400666702278 31.884410130678077 45.66906767193916 C 0.0 **** -0.24
27207 H 73.71613493065013 32.95102805428965 45.85890088305257 H 0.0 **** 0.06
27208 H 74.31953422486728 31.415869577643555 46.529694287215136 H 0.0 **** 0.06
27209 H 74.4612521909153 31.742544504035052 44.785136595248616 H 0.0 **** 0.06
27210 H 72.86410170209442 31.429365652119294 45.504555260301345 H 0.0 **** 0.06
27211 C 103.3037204634421 43.900316453673426 122.19530880738846 C 0.0 **** -0.24
27212 H 104.10863656061939 44.617056938054915 122.35695850546405 H 0.0 **** 0.06
27213 H 102.92320902508816 43.55925677954096 123.15841360378799 H 0.0 **** 0.06
27214 H 103.68309332917728 43.048681352363744 121.63158074693938 H 0.0 **** 0.06
27215 H 102.49957369599959 44.37796057426456 121.63569952503191 H 0.0 **** 0.06
27216 C 24.732347171843543 75.37577123068691 43.887836618906334 C 0.0 **** -0.24
27217 H 25.78446631218145 75.28607334291881 43.61740716737454 H 0.0 **** 0.06
27218 H 24.55601556737554 76.35225370619926 44.341201481830566 H 0.0 **** 0.06
27219 H 24.473359850760232 74.59282795660765 44.60081480379803 H 0.0 **** 0.06
27220 H 24.11723168408176 75.27290135903488 42.99441668684858 H 0.0 **** 0.06
27221 C 34.526060002608716 17.21515290622517 107.5254486907023 C 0.0 **** -0.24
27222 H 34.18086645349712 17.64917805302511 106.58653277019575 H 0.0 **** 0.06
27223 H 34.229059470306424 16.167553707791797 107.57116602373232 H 0.0 **** 0.06
27224 H 34.08135451402707 17.756825700968108 108.36087979660111 H 0.0 **** 0.06
27225 H 35.611722890375404 17.2888418972708 107.58114857631857 H 0.0 **** 0.06
27226 C 85.5449166897555 103.2246713258342 119.55969428714515 C 0.0 **** -0.24
27227 H 86.01193315239544 102.34328151591572 119.11977938172221 H 0.0 **** 0.06
27228 H 85.75273787775883 103.24966811065723 120.6292885975679 H 0.0 **** 0.06
27229 H 84.46778941932463 103.18272790082709 119.39910143775403 H 0.0 **** 0.06
27230 H 85.94762325127077 104.12141708896705 119.09006368708835 H 0.0 **** 0.06
27231 C 42.245095126220775 67.83323275604744 119.90830047238104 C 0.0 **** -0.24
27232 H 42.48782896565113 67.97946672197628 120.9607573072346 H 0.0 **** 0.06
27233 H 42.26143155961971 68.7960504955426 119.3956556851489 H 0.0 **** 0.06
27234 H 41.25346879530923 67.39161404787018 119.82162557325223 H 0.0 **** 0.06
27235 H 42.98089178740288 67.16750090140391 119.45594121706988 H 0.0 **** 0.06
27236 C 98.95566751991791 119.9371598559205 54.831723391912575 C 0.0 **** -0.24
27237 H 98.63720823126425 120.17006248498265 55.84712305661553 H 0.0 **** 0.06
27238 H 98.49505676575384 120.63789609703863 54.13588151969668 H 0.0 **** 0.06
27239 H 98.65093397361423 118.92103024997934 54.579504030837356 H 0.0 **** 0.06
27240 H 100.04073023874511 120.01705185102313 54.7635716531903 H 0.0 **** 0.06
27241 C 15.39783941924668 26.751077733503813 71.56915759838293 C 0.0 **** -0.24
27242 H 16.384212420073766 26.306921148919237 71.44099106009492 H 0.0 **** 0.06
27243 H 14.716987139242029 26.349856803587613 70.81787838714826 H 0.0 **** 0.06
27244 H 15.468460660971303 27.83290088222141 71.45416274945474 H 0.0 **** 0.06
27245 H 15.019907334062182 26.515994543378653 72.56456743707437 H 0.0 **** 0.06
27246 C 6.228316742415302 120.99549699785125 59.16458769476279 C 0.0 **** -0.24
27247 H 5.918266287348601 121.96770100481261 59.545857305058775 H 0.0 **** 0.06
27248 H 7.293832211742831 121.01743178625544 58.93674099340397 H 0.0 **** 0.06
27249 H 5.6668309369590375 120.76523527202734 58.258438833482316 H 0.0 **** 0.06
27250 H 6.031814596533479 120.23089519925433 59.91626015334454 H 0.0 **** 0.06
27251 C 113.84838150011774 107.3868077483348 34.43054053979071 C 0.0 **** -0.24
27252 H 112.81266267501826 107.05048390751969 34.48313608235435 H 0.0 **** 0.06
27253 H 114.21563857515713 107.59256743173952 35.436432537614905 H 0.0 **** 0.06
27254 H 113.90465570209699 108.29487867382184 33.830236539325455 H 0.0 **** 0.06
27255 H 114.45922457419539 106.61017527002318 33.971702693469226 H 0.0 **** 0.06
27256 C 65.62258348001238 91.35525829354879 79.96473534799946 C 0.0 **** -0.24
27257 H 65.11333860490778 91.41263612196565 79.00278164791615 H 0.0 **** 0.06
27258 H 65.09716765410067 90.65293999740786 80.6124549879419 H 0.0 **** 0.06
27259 H 65.63079311567353 92.34137790590253 80.42959362063822 H 0.0 **** 0.06
27260 H 66.64691742185688 91.01617205148798 79.81448245245886 H 0.0 **** 0.06
27261 C 57.39419205337572 2.3227672481945376 90.30179406568757 C 0.0 **** -0.24
27262 H 58.18509815202307 2.9289607095188614 89.85868960879074 H 0.0 **** 0.06
27263 H 56.5119333725664 2.9424418129314347 90.4666927961409 H 0.0 **** 0.06
27264 H 57.73775777909398 1.9176928240432005 91.25350924299897 H 0.0 **** 0.06
27265 H 57.14257209871181 1.5043268733838033 89.62795194567232 H 0.0 **** 0.06
27266 C 107.5708996189222 114.68500857852901 26.124977441846283 C 0.0 **** -0.24
27267 H 106.81899780071407 114.32935983378285 26.82854766869999 H 0.0 **** 0.06
27268 H 108.52789323057758 114.21115792893293 26.344919016715423 H 0.0 **** 0.06
27269 H 107.67118182270141 115.76674972138288 26.21477760786655 H 0.0 **** 0.06
27270 H 107.2652149321444 114.43203293913983 25.10934920646207 H 0.0 **** 0.06
27271 C 147.69949662066955 67.65910686711291 131.7774247767171 C 0.0 **** -0.24
27272 H 148.67566687947306 67.17541324097166 131.81906134496293 H 0.0 **** 0.06
27273 H 147.25794280026054 67.67347561372566 132.77441539123652 H 0.0 **** 0.06
27274 H 147.04917674335883 67.10751954331815 131.09910631536468 H 0.0 **** 0.06
27275 H 147.8166248315958 68.68170383947665 131.41747904428888 H 0.0 **** 0.06
27276 C 137.16158584958217 111.53344862101407 74.00769327569179 C 0.0 **** -0.24
27277 H 137.58513349119235 111.69053236366197 73.01542536967628 H 0.0 **** 0.06
27278 H 136.4314349013873 112.31409144322858 74.21864545324115 H 0.0 **** 0.06
27279 H 137.95767414849823 111.56856725914669 74.75217002263986 H 0.0 **** 0.06
27280 H 136.6735669047353 110.5598616555255 74.04339180134531 H 0.0 **** 0.06
27281 C 47.06275091257078 127.15267423377881 48.37052775963119 C 0.0 **** -0.24
27282 H 46.29816352660224 126.64976068811586 48.963042397698786 H 0.0 **** 0.06
27283 H 46.59001442640857 127.68348560147136 47.543762366593654 H 0.0 **** 0.06
27284 H 47.76170671019587 126.41506906966518 47.97718329238819 H 0.0 **** 0.06
27285 H 47.599795243023564 127.86342985197425 48.99919487982427 H 0.0 **** 0.06
27286 C 150.34675057797 55.337318224237194 22.50483413290648 C 0.0 **** -0.24
27287 H 150.7430283972252 54.332437808013566 22.645275101735848 H 0.0 **** 0.06
27288 H 149.47926848973492 55.47849442242112 23.15008495006537 H 0.0 **** 0.06
27289 H 150.05167610003474 55.46983917162768 21.464565568251025 H 0.0 **** 0.06
27290 H 151.11360370996076 56.06881274427887 22.760665215684014 H 0.0 **** 0.06
27291 C 48.25394970577801 27.760872419570887 30.698467880151895 C 0.0 **** -0.24
27292 H 49.20062508897567 28.122722499934824 31.09840748123125 H 0.0 **** 0.06
27293 H 47.56113046952663 28.596062109210663 30.591471598346317 H 0.0 **** 0.06
27294 H 47.831335723435274 27.022089106089112 31.379934788291365 H 0.0 **** 0.06
27295 H 48.423244496156855 27.301310914406827 29.723964913374488 H 0.0 **** 0.06
27296 C 41.953885728157985 99.05762329153958 147.98103667911357 C 0.0 **** -0.24
27297 H 40.88201827485331 98.95069315084004 147.8116742726041 H 0.0 **** 0.06
27298 H 42.49920614228924 98.5645307624385 147.17632872826317 H 0.0 **** 0.06
27299 H 42.21837827716672 98.59873886940346 148.9340646365333 H 0.0 **** 0.06
27300 H 42.21297759200628 100.11607619633389 148.00194912231808 H 0.0 **** 0.06
27301 C 96.98223036241794 76.5304499245849 51.43623413637073 C 0.0 **** -0.24
27302 H 96.58854196039135 77.00602724531508 50.537989106120335 H 0.0 **** 0.06
27303 H 98.06542200494272 76.4319886563869 51.34953456175111 H 0.0 **** 0.06
27304 H 96.53528137440301 75.54275201658953 51.55045732876181 H 0.0 **** 0.06
27305 H 96.74171380725679 77.14212291850426 52.30614473068516 H 0.0 **** 0.06
27306 C 67.77953683996624 90.93280888433796 131.15184261980335 C 0.0 **** -0.24
27307 H 66.75761898498797 91.30910608752237 131.1850202703705 H 0.0 **** 0.06
27308 H 68.09410551251209 90.6462628538959 132.15523855247872 H 0.0 **** 0.06
27309 H 68.44133358595828 91.71053129749686 130.77175661754686 H 0.0 **** 0.06
27310 H 67.82486083235797 90.06328725895128 130.49448697742199 H 0.0 **** 0.06
27311 C 110.76785793119883 71.29497914073491 18.969563279591455 C 0.0 **** -0.24
27312 H 111.59047665753305 71.68794299377396 19.566922735685523 H 0.0 **** 0.06
27313 H 110.50421587510085 70.29919793657638 19.32578671930645 H 0.0 **** 0.06
27314 H 111.0728448029321 71.23901124661035 17.925115077416876 H 0.0 **** 0.06
27315 H 109.90481626882597 71.95424592408617 19.062136920076114 H 0.0 **** 0.06
27316 C 32.694566475977126 86.23263697387647 85.41584428378297 C 0.0 **** -0.24
27317 H 33.32577309243152 85.34456117004855 85.4108420909368 H 0.0 **** 0.06
27318 H 31.64751785058786 85.93326332821232 85.45101594859926 H 0.0 **** 0.06
27319 H 32.87720045864069 86.81320236296744 84.51247831047596 H 0.0 **** 0.06
27320 H 32.92887390680767 86.83927436721484 86.29163515552136 H 0.0 **** 0.06
27321 C 129.30695829390837 2.6533523149867904 3.7810878286268803 C 0.0 **** -0.24
27322 H 128.87775529432864 3.2732513076593364 2.99426225153303 H 0.0 **** 0.06
27323 H 128.53729203485418 2.411573256709886 4.513860105134796 H 0.0 **** 0.06
27324 H 130.11745735660435 3.195598853693781 4.268936652390039 H 0.0 **** 0.06
27325 H 129.6959758478951 1.7332537298582054 3.345168783235721 H 0.0 **** 0.06
27326 C 70.19728706096829 119.95104009030777 51.160977181116166 C 0.0 **** -0.24
27327 H 70.74051031616591 120.2490365994378 52.05784677326902 H 0.0 **** 0.06
27328 H 70.64664190556465 120.42722120711224 50.28869895494516 H 0.0 **** 0.06
27329 H 69.15511719721431 120.26140013885893 51.24796665634703 H 0.0 **** 0.06
27330 H 70.24617401685227 118.86793084865937 51.05007673317793 H 0.0 **** 0.06
27331 C 128.77769262425804 36.598695809510566 110.1099875535618 C 0.0 **** -0.24
27332 H 129.25514948661421 36.50036312185008 109.13444762351982 H 0.0 **** 0.06
27333 H 128.45019671492807 35.6174350072347 110.45474570540732 H 0.0 **** 0.06
27334 H 127.91638830003953 37.26153299573145 110.0279009939877 H 0.0 **** 0.06
27335 H 129.4910319912402 37.0153882361125 110.82143739208159 H 0.0 **** 0.06
27336 C 100.41203509430962 93.15374355099851 131.38862862202336 C 0.0 **** -0.24
27337 H 101.12288475541756 92.59221952904764 131.9948274470293 H 0.0 **** 0.06
27338 H 99.76552024812348 93.74171248010649 132.03973196118133 H 0.0 **** 0.06
27339 H 99.80652633790163 92.46081053658375 130.80424392470442 H 0.0 **** 0.06
27340 H 100.95417888636581 93.81849229956984 130.71552631028567 H 0.0 **** 0.06
27341 C 70.27250886218178 24.55113751875841 54.14919924413621 C 0.0 **** -0.24
27342 H 70.14943013777452 24.504003098233362 55.2313362355724 H 0.0 **** 0.06
27343 H 69.30043707195796 24.703269227613504 53.67950159375843 H 0.0 **** 0.06
27344 H 70.70736189567458 23.617999043341435 53.79176548749271 H 0.0 **** 0.06
27345 H 70.93326252078566 25.379698759945214 53.89497819351533 H 0.0 **** 0.06
27346 C 95.53790412382325 53.1585521482024 2.5243002133014727 C 0.0 **** -0.24
27347 H 95.78189289060006 52.09639324547494 2.5711029548634485 H 0.0 **** 0.06
27348 H 94.51352555572157 53.28080339663559 2.1709792503482106 H 0.0 **** 0.06
27349 H 96.22109581365267 53.65742586104979 1.8368530362854756 H 0.0 **** 0.06
27350 H 95.63614484146564 53.596784287059606 3.516829200458915 H 0.0 **** 0.06
27351 C 50.274958275271985 121.73777581046295 102.9765828499494 C 0.0 **** -0.24
27352 H 51.04524457800474 122.50826920425055 102.98503198872775 H 0.0 **** 0.06
27353 H 50.68952168297076 120.80527951865577 103.36031759039561 H 0.0 **** 0.06
27354 H 49.92348279913577 121.58727032518948 101.95526673085129 H 0.0 **** 0.06
27355 H 49.441453986989956 122.05108259782139 103.60512714976672 H 0.0 **** 0.06
27356 C 20.12677697714031 39.41325986223964 13.401464638452765 C 0.0 **** -0.24
27357 H 19.593597967577693 38.62795272100506 13.937813724118612 H 0.0 **** 0.06
27358 H 20.06118888344355 39.228823541430515 12.328840773234234 H 0.0 **** 0.06
27359 H 21.172627607047616 39.41665332293134 13.707028697924606 H 0.0 **** 0.06
27360 H 19.677617575682916 40.379723684191575 13.632998748872794 H 0.0 **** 0.06
27361 C 103.11593264713652 117.93936534526533 92.3213320611951 C 0.0 **** -0.24
27362 H 103.98092143531527 118.60135228202587 92.36977997503976 H 0.0 **** 0.06
27363 H 102.25492237721734 118.49441355219166 91.94986300285869 H 0.0 **** 0.06
27364 H 102.89865801322195 117.55363313588127 93.31743992905203 H 0.0 **** 0.06
27365 H 103.33169835775159 117.10954822514454 91.64907827621603 H 0.0 **** 0.06
27366 C 90.32152950724833 126.97088112117177 96.04634019810283 C 0.0 **** -0.24
27367 H 89.5473398140424 126.90481274058487 95.28209562939017 H 0.0 **** 0.06
27368 H 89.88264942524933 127.3223357888088 96.98020870018698 H 0.0 **** 0.06
27369 H 91.09319005259107 127.66976000362034 95.72139582662052 H 0.0 **** 0.06
27370 H 90.76377162221286 125.9865704850749 96.20051857299487 H 0.0 **** 0.06
27371 C 145.82766512422316 127.15239763516536 56.99087736177589 C 0.0 **** -0.24
27372 H 146.5296044861057 126.39101095708978 57.33159419073348 H 0.0 **** 0.06
27373 H 144.8106702952773 126.76316752747266 57.05524343539267 H 0.0 **** 0.06
27374 H 146.05070418952343 127.41491214864992 55.95624301728233 H 0.0 **** 0.06
27375 H 145.91881305045 128.03849051965895 57.61863760193211 H 0.0 **** 0.06
27376 C 100.50962250746414 68.12473061393408 133.0260342625351 C 0.0 **** -0.24
27377 H 100.96085128131273 68.05832281834577 134.01660335342507 H 0.0 **** 0.06
27378 H 101.01187388763655 68.90211924332095 132.45019751791676 H 0.0 **** 0.06
27379 H 99.45294305974163 68.36972741091122 133.12473853460244 H 0.0 **** 0.06
27380 H 100.6147135453406 67.16741672774188 132.5151737196307 H 0.0 **** 0.06
27381 C 88.80208797551191 30.335828968691196 81.30631196585998 C 0.0 **** -0.24
27382 H 88.7390762269441 29.343139077076643 80.86045460569207 H 0.0 **** 0.06
27383 H 89.73809855183777 30.428601918921338 81.85699051050932 H 0.0 **** 0.06
27384 H 87.96318966177193 30.48114309805588 81.98732806458665 H 0.0 **** 0.06
27385 H 88.76523839588353 31.089476944601884 80.51974580976858 H 0.0 **** 0.06
27386 C 51.479317178669234 34.49082484976218 21.83689766816144 C 0.0 **** -0.24
27387 H 52.27973104898949 33.806266061302246 21.555340566161135 H 0.0 **** 0.06
27388 H 50.55867990551371 33.92960380635659 21.993723686576004 H 0.0 **** 0.06
27389 H 51.33040485425033 35.22059771556498 21.041092939795305 H 0.0 **** 0.06
27390 H 51.75201287150993 35.00740358907434 22.75744748655319 H 0.0 **** 0.06
27391 C 2.3063748769362746 100.06559625259 36.272601836070386 C 0.0 **** -0.24
27392 H 2.3890013862319393 101.09219077302038 36.62822804574402 H 0.0 **** 0.06
27393 H 2.8209772248189893 99.39857235252512 36.96514863587688 H 0.0 **** 0.06
27394 H 2.761482262021559 99.98579551482504 35.2847179149154 H 0.0 **** 0.06
27395 H 1.254038634672952 99.7858263699895 36.21231274774501 H 0.0 **** 0.06
27396 C 70.68626144491155 18.941697070942922 92.97731741389947 C 0.0 **** -0.24
27397 H 69.9403149489429 19.606595703956884 93.41373825337143 H 0.0 **** 0.06
27398 H 70.62542215470529 18.9908462262172 91.88962055115707 H 0.0 **** 0.06
27399 H 70.49752494321989 17.91966473001969 93.30596603114918 H 0.0 **** 0.06
27400 H 71.68058403447309 19.249393543904205 93.30063605597184 H 0.0 **** 0.06
27401 C 89.49823220005422 31.666442934360617 98.12834170841755 C 0.0 **** -0.24
27402 H 90.54983503587053 31.707622126831865 97.84311677379122 H 0.0 **** 0.06
27403 H 88.90160599834164 32.20650452309076 97.39280981988676 H 0.0 **** 0.06
27404 H 89.37058942350731 32.125631810618316 99.10890807614727 H 0.0 **** 0.06
27405 H 89.17399855738071 30.626635870664686 98.1685697229889 H 0.0 **** 0.06
27406 C 82.65078476337746 138.13827400059017 22.291110594270037 C 0.0 **** -0.24
27407 H 82.77555773157835 138.81618920982754 21.44712236246204 H 0.0 **** 0.06
27408 H 83.05999949807833 138.59907373488787 23.190780216732932 H 0.0 **** 0.06
27409 H 83.1785413114842 137.20559271467735 22.089313253770428 H 0.0 **** 0.06
27410 H 81.59102057300927 137.9314300073632 22.438419412788193 H 0.0 **** 0.06
27411 C 138.6558797290774 112.95586228495695 116.32450407986259 C 0.0 **** -0.24
27412 H 138.7663074361363 114.00547789178954 116.04967807819311 H 0.0 **** 0.06
27413 H 139.64209215783598 112.50026479199717 116.41765171111275 H 0.0 **** 0.06
27414 H 138.08633893232488 112.43788330636711 115.55291964553136 H 0.0 **** 0.06
27415 H 138.12930101641354 112.88373926480601 117.27544443783525 H 0.0 **** 0.06
27416 C 124.21612608916666 64.70007399499113 46.6005944995718 C 0.0 **** -0.24
27417 H 124.72868690054736 64.36534482987248 45.69772000565405 H 0.0 **** 0.06
27418 H 124.51660641677904 64.07354500838302 47.440938785207834 H 0.0 **** 0.06
27419 H 123.13834287613275 64.62190043517874 46.45600631410417 H 0.0 **** 0.06
27420 H 124.48135552114985 65.73654147531474 46.80548212485593 H 0.0 **** 0.06
27421 C 142.86711398768148 39.51086429510954 72.4764848338539 C 0.0 **** -0.24
27422 H 142.3099385955045 38.604645957531545 72.71366911761052 H 0.0 **** 0.06
27423 H 143.6304270771228 39.67857926866715 73.23601711282203 H 0.0 **** 0.06
27424 H 142.18512798223435 40.360814989044925 72.45249755124235 H 0.0 **** 0.06
27425 H 143.3425180360445 39.39937046309029 71.50156451431403 H 0.0 **** 0.06
27426 C 42.45541994000426 98.67243540041757 9.907680401633378 C 0.0 **** -0.24
27427 H 42.0650311080626 97.77473510270724 9.428393207148886 H 0.0 **** 0.06
27428 H 43.06054460520514 98.3905331561072 10.76923756249576 H 0.0 **** 0.06
27429 H 41.62618654260933 99.30019144025988 10.23398825276093 H 0.0 **** 0.06
27430 H 43.0705088391355 99.22456935535325 9.196175465537834 H 0.0 **** 0.06
27431 C 98.04431623022629 40.46376177689571 110.2015838227681 C 0.0 **** -0.24
27432 H 97.35166268900363 40.20795770744863 111.00258930741734 H 0.0 **** 0.06
27433 H 98.1779060836766 39.602737210724854 109.54766495605719 H 0.0 **** 0.06
27434 H 99.00595013083307 40.747652017884874 110.63046970378753 H 0.0 **** 0.06
27435 H 97.64248100590815 41.29796851224704 109.62729989915533 H 0.0 **** 0.06
27436 C 44.428457123037944 22.312666396594352 140.04611343037342 C 0.0 **** -0.24
27437 H 45.3079019538777 22.043182140555132 139.46103265087478 H 0.0 **** 0.06
27438 H 44.02764514864032 23.258825508239738 139.68465648639852 H 0.0 **** 0.06
27439 H 44.70715712059571 22.41209667167965 141.0948333113565 H 0.0 **** 0.06
27440 H 43.67247430575566 21.534109906679817 139.94352074682854 H 0.0 **** 0.06
27441 C 62.811797876780005 35.95192693556274 51.08876931415209 C 0.0 **** -0.24
27442 H 62.43581742946749 36.173134377529976 50.089626945913835 H 0.0 **** 0.06
27443 H 61.97891270902174 35.68003632435088 51.737902820664644 H 0.0 **** 0.06
27444 H 63.31360337071759 36.83237707554139 51.49109792242116 H 0.0 **** 0.06
27445 H 63.51792554158378 35.12314432026608 51.03604751939292 H 0.0 **** 0.06
27446 C 25.745246145881616 53.6758698684 31.448627878957495 C 0.0 **** -0.24
27447 H 25.33786741097949 54.54234752893464 30.927689769018855 H 0.0 **** 0.06
27448 H 25.391271549536185 53.672485077948835 32.47993920037101 H 0.0 **** 0.06
27449 H 26.833971842242924 53.72357401490933 31.4366636403403 H 0.0 **** 0.06
27450 H 25.415823365677234 52.76475192553606 30.94891774358595 H 0.0 **** 0.06
27451 C 64.02798372827448 103.01123704555602 144.94787723203186 C 0.0 **** -0.24
27452 H 65.0569247648811 103.07350435865555 144.59403744129423 H 0.0 **** 0.06
27453 H 63.986189418467006 102.37622083631419 145.83283662936853 H 0.0 **** 0.06
27454 H 63.399417456583706 102.58757464942607 144.16464859534335 H 0.0 **** 0.06
27455 H 63.67080349135597 104.01029607853224 145.1998154183578 H 0.0 **** 0.06
27456 C 128.8808187669527 116.83642353991598 15.667630780512724 C 0.0 **** -0.24
27457 H 128.1459008196885 116.22115885376348 15.149154708357571 H 0.0 **** 0.06
27458 H 129.88523297303269 116.52463025055062 15.377817733068383 H 0.0 **** 0.06
27459 H 128.76021752364994 116.71802169089324 16.744124069064952 H 0.0 **** 0.06
27460 H 128.73406657543737 117.88281912815194 15.398696631269416 H 0.0 **** 0.06
27461 C 36.380996144572215 41.030765353633484 107.77097829923396 C 0.0 **** -0.24
27462 H 35.641017110808335 41.82954226626224 107.81060055937236 H 0.0 **** 0.06
27463 H 36.878634643340675 41.04480914657438 106.80136488345742 H 0.0 **** 0.06
27464 H 35.885678805093754 40.06951490203396 107.91114540890435 H 0.0 **** 0.06
27465 H 37.11725716128441 41.17822745874203 108.56113785860485 H 0.0 **** 0.06
27466 C 141.80782218394808 2.1156434765194803 98.6134266245723 C 0.0 **** -0.24
27467 H 141.94022383484435 3.184168086654715 98.78098084417695 H 0.0 **** 0.06
27468 H 142.78287649148785 1.6443968512677003 98.4838764274247 H 0.0 **** 0.06
27469 H 141.20711336721877 1.9600122946027128 97.71682784705189 H 0.0 **** 0.06
27470 H 141.30109976264197 1.6730201364525001 99.47180736843457 H 0.0 **** 0.06
27471 C 39.03175653852173 105.33170837942531 122.26471200723488 C 0.0 **** -0.24
27472 H 39.295162215852 105.37568861090502 123.3210474831332 H 0.0 **** 0.06
27473 H 38.679030625346826 104.32933507059495 122.01959018914597 H 0.0 **** 0.06
27474 H 39.909096689491236 105.56681038338105 121.66123638186302 H 0.0 **** 0.06
27475 H 38.24377179149914 106.05523901858076 122.05558061746628 H 0.0 **** 0.06
27476 C 9.50685635939152 82.16282731640027 15.850563295133412 C 0.0 **** -0.24
27477 H 9.75706549016121 81.1243882016451 16.066072120875532 H 0.0 **** 0.06
27478 H 9.878824998484362 82.42810936602586 14.86077934874163 H 0.0 **** 0.06
27479 H 9.965783797108998 82.80945965083467 16.597335451121666 H 0.0 **** 0.06
27480 H 8.423412707960921 82.2880934782917 15.877092618316993 H 0.0 **** 0.06
27481 C 87.32548854280246 86.17774885270754 7.881103625907883 C 0.0 **** -0.24
27482 H 87.80528699981507 86.24572648559477 6.904123579930108 H 0.0 **** 0.06
27483 H 86.29619545351252 85.83763691082773 7.757139218448586 H 0.0 **** 0.06
27484 H 87.32965144243384 87.15811289208376 8.356467136940239 H 0.0 **** 0.06
27485 H 87.86997606727613 85.46845317003694 8.50464709981302 H 0.0 **** 0.06
27486 C 110.5259568683927 39.45207806601951 146.91833427241096 C 0.0 **** -0.24
27487 H 111.50020050157998 38.970094152458785 146.839840219677 H 0.0 **** 0.06
27488 H 109.85043865409308 39.02911238366215 146.1737023392284 H 0.0 **** 0.06
27489 H 110.63484367892097 40.522763966464254 146.74288661109168 H 0.0 **** 0.06
27490 H 110.11782752469638 39.28683061979649 147.91478806272124 H 0.0 **** 0.06
27491 C 26.599732796046773 82.95792349116478 78.63767239604931 C 0.0 **** -0.24
27492 H 26.93331565280984 83.76906042680552 77.99079928869998 H 0.0 **** 0.06
27493 H 26.729685529022767 82.00554852308946 78.12158347948855 H 0.0 **** 0.06
27494 H 25.54656209903183 83.09766211701222 78.88246843778137 H 0.0 **** 0.06
27495 H 27.188906840808528 82.95776748277736 79.55440757229252 H 0.0 **** 0.06
27496 C 26.24942802046624 38.440511664819724 126.73867164722546 C 0.0 **** -0.24
27497 H 26.447684037236726 37.3848127616435 126.92795164442116 H 0.0 **** 0.06
27498 H 26.929417798691077 39.0503650374074 127.33531670863242 H 0.0 **** 0.06
27499 H 25.22007408926258 38.670667634679376 127.01131821828524 H 0.0 **** 0.06
27500 H 26.402560868795746 38.65364305051486 125.68069724777706 H 0.0 **** 0.06
27501 C 117.06478135230599 110.29932328891995 18.580925887474393 C 0.0 **** -0.24
27502 H 117.00307143382729 109.50062189901429 17.8410931392404 H 0.0 **** 0.06
27503 H 117.6414666485391 111.12950058279033 18.170501362592233 H 0.0 **** 0.06
27504 H 117.5542326866351 109.92443032209373 19.4795181861017 H 0.0 **** 0.06
27505 H 116.06097602420327 110.6421717093044 18.829711477117712 H 0.0 **** 0.06
27506 C 125.60294592325477 35.17628306238851 102.89819229686721 C 0.0 **** -0.24
27507 H 125.36857293903915 35.57966745359306 103.88290483961016 H 0.0 **** 0.06
27508 H 124.96002768435454 35.6420310729938 102.15138281094434 H 0.0 **** 0.06
27509 H 125.43867263528506 34.0986713765397 102.89910326898145 H 0.0 **** 0.06
27510 H 126.64657436763281 35.38356750564867 102.65993751249628 H 0.0 **** 0.06
27511 C 29.652713611672965 71.06092415442137 126.45045465549111 C 0.0 **** -0.24
27512 H 29.933483803508153 70.06249118426196 126.11619403475851 H 0.0 **** 0.06
27513 H 29.080130967819997 71.55817345344904 125.66661488495487 H 0.0 **** 0.06
27514 H 30.55235799087646 71.63838779388341 126.66506884035408 H 0.0 **** 0.06
27515 H 29.045887307398772 70.98435432164116 127.35172615632644 H 0.0 **** 0.06
27516 C 46.188177251494295 4.695334938620228 4.7652331263182965 C 0.0 **** -0.24
27517 H 46.90878379174089 4.330254140739466 5.498365979104545 H 0.0 **** 0.06
27518 H 46.69838324486247 5.326482941140188 4.037371505327908 H 0.0 **** 0.06
27519 H 45.41757858969538 5.275678748074107 5.273287525282498 H 0.0 **** 0.06
27520 H 45.72960501185858 3.848585273657637 4.255252771597863 H 0.0 **** 0.06
27521 C 120.86376282990015 107.098899121007 81.41960873116926 C 0.0 **** -0.24
27522 H 120.13906385534109 106.49990728832584 81.97103838451581 H 0.0 **** 0.06
27523 H 120.40514572693384 107.47297390783397 80.5044782068062 H 0.0 **** 0.06
27524 H 121.72777767442723 106.48238693923638 81.16805430917256 H 0.0 **** 0.06
27525 H 121.18368263920466 107.93839888376597 82.035809916189 H 0.0 **** 0.06
27526 C 146.86220432905657 45.296396304893634 68.71908881174801 C 0.0 **** -0.24
27527 H 147.69924192061572 44.99619587740575 68.08814326377741 H 0.0 **** 0.06
27528 H 146.795053950987 44.62625841489911 69.57588663151193 H 0.0 **** 0.06
27529 H 145.93756074483267 45.24576512069545 68.14463760595085 H 0.0 **** 0.06
27530 H 147.01927495344646 46.31684157967932 69.06707976895667 H 0.0 **** 0.06
27531 C 10.922335689106575 10.082134078121811 123.83037459704254 C 0.0 **** -0.24
27532 H 10.280857406479441 10.087958604887348 124.71090235125094 H 0.0 **** 0.06
27533 H 10.702697595779767 10.954537237007685 123.21516299975131 H 0.0 **** 0.06
27534 H 10.74088543287482 9.17524795115446 123.25456230307974 H 0.0 **** 0.06
27535 H 11.966425653395618 10.111976576701949 124.14200106620812 H 0.0 **** 0.06
27536 C 24.82045352779341 52.576999344808655 21.0775593197599 C 0.0 **** -0.24
27537 H 24.0531389710686 51.80313827692629 21.047946531241138 H 0.0 **** 0.06
27538 H 25.786686190211952 52.139271156781206 20.826312493432653 H 0.0 **** 0.06
27539 H 24.864550275895674 53.00577392691554 22.078222740826476 H 0.0 **** 0.06
27540 H 24.57599689389761 53.35788693275066 20.357299629966263 H 0.0 **** 0.06
27541 C 51.10043322870115 99.77193281258525 64.51553033998373 C 0.0 **** -0.24
27542 H 50.68853683310523 99.99567317319219 65.50001757933151 H 0.0 **** 0.06
27543 H 51.67208704695865 98.84559061637071 64.56289589818384 H 0.0 **** 0.06
27544 H 51.75307923891984 100.58702101399479 64.2020005778014 H 0.0 **** 0.06
27545 H 50.28657360174982 99.66102740592035 63.799526880665866 H 0.0 **** 0.06
27546 C 47.18678693467312 106.03032897326833 116.62017813021848 C 0.0 **** -0.24
27547 H 47.54747897160068 105.0058690741703 116.53301379790085 H 0.0 **** 0.06
27548 H 46.10140740990292 106.0436602107873 116.51488761167477 H 0.0 **** 0.06
27549 H 47.635858569969955 106.64092115971809 115.83631183909316 H 0.0 **** 0.06
27550 H 47.462404489320164 106.43125849502863 117.59481237527595 H 0.0 **** 0.06
27551 C 41.194635725621254 80.41632939302684 67.50719649482109 C 0.0 **** -0.24
27552 H 41.42966690052883 80.266860841678 68.56095594485524 H 0.0 **** 0.06
27553 H 42.10162215619266 80.69271250727134 66.96914678753629 H 0.0 **** 0.06
27554 H 40.45665241208961 81.21232727201114 67.40951600929418 H 0.0 **** 0.06
27555 H 40.792020057763324 79.4925401969553 67.09096140241394 H 0.0 **** 0.06
27556 C 106.07422555655239 0.565722140262352 35.13942219898314 C 0.0 **** -0.24
27557 H 105.8075982896728 -0.48857756045742917 35.21581289796376 H 0.0 **** 0.06
27558 H 107.13313758607677 0.6890931756846896 35.366405420003844 H 0.0 **** 0.06
27559 H 105.48013157495421 1.1416505973904805 35.84958856612377 H 0.0 **** 0.06
27560 H 105.87380571952082 0.9181808852009112 34.12824261010127 H 0.0 **** 0.06
27561 C 129.75171924350786 149.91473084556753 137.93416109093383 C 0.0 **** -0.24
27562 H 129.04382608409284 149.50084783565796 138.65366625821642 H 0.0 **** 0.06
27563 H 130.43615377091842 150.58986371307066 138.4467412622324 H 0.0 **** 0.06
27564 H 129.2080494351402 150.46238429610378 137.1639342769396 H 0.0 **** 0.06
27565 H 130.31597162051116 149.10359954175 137.47424290573056 H 0.0 **** 0.06
27566 C 142.06228944900326 5.8785598547654985 0.5449063552253506 C 0.0 **** -0.24
27567 H 143.08770601593397 6.248761166511173 0.5777908788919035 H 0.0 **** 0.06
27568 H 141.44741235090774 6.566782452677661 -0.03646732222983928 H 0.0 **** 0.06
27569 H 141.66946838255782 5.807346434495074 1.5593666832422741 H 0.0 **** 0.06
27570 H 142.04678905037045 4.893665788960394 0.07808957841319852 H 0.0 **** 0.06
27571 C 45.022331337631925 16.89713114554243 90.34192038872473 C 0.0 **** -0.24
27572 H 44.85818855584732 15.858489805671098 90.05691906309951 H 0.0 **** 0.06
27573 H 45.31054653967065 17.4738517857854 89.46220916468121 H 0.0 **** 0.06
27574 H 45.81695675964039 16.948093759043246 91.08648384831704 H 0.0 **** 0.06
27575 H 44.10448760261825 17.307645513404026 90.76179809068614 H 0.0 **** 0.06
27576 C 50.47684210500118 37.150355766582194 114.00798433464593 C 0.0 **** -0.24
27577 H 50.66831453933118 36.32961659791059 114.69928745935181 H 0.0 **** 0.06
27578 H 49.4518378518256 37.0842056833593 113.64177542112719 H 0.0 **** 0.06
27579 H 51.16809865615495 37.08601134698816 113.16772624545968 H 0.0 **** 0.06
27580 H 50.618061010621474 38.099515775169465 114.5239125692043 H 0.0 **** 0.06
27581 C 89.93315685241859 133.0376778087643 17.287947623787424 C 0.0 **** -0.24
27582 H 89.96799361393127 132.35656837684647 16.438344314417428 H 0.0 **** 0.06
27583 H 88.97778830082845 133.56183365646226 17.294275333391674 H 0.0 **** 0.06
27584 H 90.74430401198202 133.76074488755464 17.20673960466793 H 0.0 **** 0.06
27585 H 90.04273050383657 132.47017903715792 18.212218282974675 H 0.0 **** 0.06
27586 C 79.90617478073034 118.9013773829556 46.34073802675408 C 0.0 **** -0.24
27587 H 79.4235255313387 119.66869653429139 46.94507937387522 H 0.0 **** 0.06
27588 H 80.42637072860963 118.19887473048145 46.99289501021951 H 0.0 **** 0.06
27589 H 80.62288929471674 119.36818727914219 45.664487822061346 H 0.0 **** 0.06
27590 H 79.15237756482134 118.36841678351324 45.76042149746269 H 0.0 **** 0.06
27591 C 14.059058210065473 78.22454497391902 60.85343108430109 C 0.0 **** -0.24
27592 H 14.44790933384246 77.86919717041054 61.80693366552927 H 0.0 **** 0.06
27593 H 13.098535894006517 77.74958475893598 60.65298865384085 H 0.0 **** 0.06
27594 H 14.762146017131101 77.97427606124494 60.059241890220534 H 0.0 **** 0.06
27595 H 13.928244897126632 79.30636574338178 60.89485839993122 H 0.0 **** 0.06
27596 C 141.66343113879532 126.82708458878662 69.63783440023052 C 0.0 **** -0.24
27597 H 141.09174142439792 125.97216539209295 69.27431743279506 H 0.0 **** 0.06
27598 H 142.67004329412913 126.79426358625676 69.22023619942645 H 0.0 **** 0.06
27599 H 141.72042271047533 126.78857528117649 70.72576247027163 H 0.0 **** 0.06
27600 H 141.17111076853266 127.74924594024607 69.3313714717296 H 0.0 **** 0.06
27601 C 92.60707530049588 121.91607318839588 95.81129789686955 C 0.0 **** -0.24
27602 H 91.95937438634651 121.2297386545056 96.35706793023232 H 0.0 **** 0.06
27603 H 93.12060178707488 122.56854530824303 96.5182683386857 H 0.0 **** 0.06
27604 H 92.00447286043938 122.51926851496187 95.1308559452729 H 0.0 **** 0.06
27605 H 93.34063957226091 121.34773123898601 95.24064185078954 H 0.0 **** 0.06
27606 C 132.8253088511271 36.75660999430613 91.3702476751709 C 0.0 **** -0.24
27607 H 132.31617895862047 36.36828362149083 92.2528539845975 H 0.0 **** 0.06
27608 H 133.32315630584185 35.937947678940645 90.8492933025286 H 0.0 **** 0.06
27609 H 133.56374961921915 37.49848799691756 91.67387859656449 H 0.0 **** 0.06
27610 H 132.0958571423929 37.22004902101662 90.70635992918415 H 0.0 **** 0.06
27611 C 119.76420015431418 89.6573500643216 106.65792240412206 C 0.0 **** -0.24
27612 H 120.44742270477181 89.00577861459374 106.11209173546017 H 0.0 **** 0.06
27613 H 118.94634977895592 89.95562039744911 106.00175774006563 H 0.0 **** 0.06
27614 H 120.30063196122379 90.54317840668645 106.99707948462226 H 0.0 **** 0.06
27615 H 119.36344719752933 89.1233449347217 107.5194524785107 H 0.0 **** 0.06
27616 C 30.829573673257784 39.17766295717237 60.87902700629536 C 0.0 **** -0.24
27617 H 30.076050919395584 39.69371540243927 61.474981584695 H 0.0 **** 0.06
27618 H 31.578046287932068 39.89405878874189 60.539836417883635 H 0.0 **** 0.06
27619 H 30.352124902664514 38.71320748196911 60.01633281949756 H 0.0 **** 0.06
27620 H 31.309073198045496 38.41010416889668 61.48630469138857 H 0.0 **** 0.06
27621 C 60.73176906342428 31.79364231342211 101.25250752444589 C 0.0 **** -0.24
27622 H 60.802636216742314 31.1475796621192 102.12779627521641 H 0.0 **** 0.06
27623 H 59.86911853821567 32.45249202086285 101.35612050788393 H 0.0 **** 0.06
27624 H 60.61749521613103 31.18238525753307 100.3580888691038 H 0.0 **** 0.06
27625 H 61.63897732647081 32.39335316004056 101.16948580798555 H 0.0 **** 0.06
27626 C 69.4106583242185 13.65099163694535 110.13495432911232 C 0.0 **** -0.24
27627 H 68.3372512367007 13.664206078251055 109.9511310011189 H 0.0 **** 0.06
27628 H 69.94316170236529 13.722639884267124 109.18634999602533 H 0.0 **** 0.06
27629 H 69.68262902669454 12.721504767329947 110.63434450792307 H 0.0 **** 0.06
27630 H 69.6813155395541 14.496500289258336 110.76848674787304 H 0.0 **** 0.06
27631 C 136.66390129187977 108.32286929687815 67.96180574459602 C 0.0 **** -0.24
27632 H 136.35700086544654 108.9700437202393 67.13986481225854 H 0.0 **** 0.06
27633 H 137.4304947876156 107.63060510877888 67.61157975616662 H 0.0 **** 0.06
27634 H 135.80200661389586 107.75964355221551 68.32191804542525 H 0.0 **** 0.06
27635 H 137.06556625203393 108.93111727891802 68.77255364282834 H 0.0 **** 0.06
27636 C 119.78926968672515 6.850614085489724 33.57306175582943 C 0.0 **** -0.24
27637 H 120.21248733344727 7.463361282455139 34.36835801632728 H 0.0 **** 0.06
27638 H 119.16833465995389 7.471143448794095 32.92627700305138 H 0.0 **** 0.06
27639 H 119.18155657854167 6.058020917774144 34.009345291550574 H 0.0 **** 0.06
27640 H 120.59560760282723 6.408610841532607 32.987607412200546 H 0.0 **** 0.06
27641 C 130.14210637999207 79.08967498579564 132.97514323766768 C 0.0 **** -0.24
27642 H 130.92351551489918 78.32931337115575 132.9811003810189 H 0.0 **** 0.06
27643 H 130.53597274046578 80.01717833469675 133.3917381756769 H 0.0 **** 0.06
27644 H 129.30000553273507 78.74866698994354 133.57802317772908 H 0.0 **** 0.06
27645 H 129.8098723015608 79.26173819312933 131.95107669916484 H 0.0 **** 0.06
27646 C 107.57240546317401 97.81177487685142 131.25037291115225 C 0.0 **** -0.24
27647 H 108.4741017681928 97.7439662567965 131.8600697991031 H 0.0 **** 0.06
27648 H 107.60429943063791 98.72443496087759 130.65517560432048 H 0.0 **** 0.06
27649 H 106.69640379862678 97.83218385340943 131.8994346006153 H 0.0 **** 0.06
27650 H 107.51507390206477 96.94724517029721 130.58913546810032 H 0.0 **** 0.06
27651 C 24.04073486544199 42.42389009226362 27.808667794984828 C 0.0 **** -0.24
27652 H 23.551171621028075 43.32564968754117 28.174875254729102 H 0.0 **** 0.06
27653 H 23.406084411558126 41.942275042198716 27.0652666904885 H 0.0 **** 0.06
27654 H 24.209792170898673 41.73890144778771 28.64019873818461 H 0.0 **** 0.06
27655 H 24.996848250268947 42.68703914558458 27.356613327016646 H 0.0 **** 0.06
27656 C 97.12346642934624 34.03023878858462 14.745613895454511 C 0.0 **** -0.24
27657 H 96.12572381954132 34.41976868784627 14.54383029868572 H 0.0 **** 0.06
27658 H 97.63663241679915 34.691261452504605 15.444317841718174 H 0.0 **** 0.06
27659 H 97.68757330429011 33.97660794627729 13.81454319684687 H 0.0 **** 0.06
27660 H 97.04302138088913 33.03371643572159 15.1798249925439 H 0.0 **** 0.06
27661 C 136.14732313684888 140.36475326756596 90.158895936061 C 0.0 **** -0.24
27662 H 136.4579580907554 141.34583015411255 89.80090778353673 H 0.0 **** 0.06
27663 H 135.49330785579096 139.89970306581455 89.42061019109079 H 0.0 **** 0.06
27664 H 135.61124806164983 140.47420033154515 91.10211667969914 H 0.0 **** 0.06
27665 H 137.0265239136477 139.73859339774503 90.31073893416745 H 0.0 **** 0.06
27666 C 140.68731011941023 5.864711357013601 100.3391639323566 C 0.0 **** -0.24
27667 H 140.10400358455757 6.78542768411662 100.31544831193861 H 0.0 **** 0.06
27668 H 141.61711520914372 6.010116152694501 99.78896357330723 H 0.0 **** 0.06
27669 H 140.11378768236892 5.059701666816746 99.87813036688499 H 0.0 **** 0.06
27670 H 140.91335106767787 5.604889066314989 101.37294211033509 H 0.0 **** 0.06
27671 C 94.07498980633981 80.16875218794624 67.0950697579308 C 0.0 **** -0.24
27672 H 94.08992816070604 81.2558383983827 67.16377819283107 H 0.0 **** 0.06
27673 H 93.83555713413742 79.87319126824846 66.07335343736521 H 0.0 **** 0.06
27674 H 93.32128866286095 79.77128075395751 67.7749171924792 H 0.0 **** 0.06
27675 H 95.05483364771979 79.77376266732429 67.36704380301137 H 0.0 **** 0.06
27676 C 85.30548522718576 141.56474360297008 22.77071844018301 C 0.0 **** -0.24
27677 H 85.97123337163113 141.22928936476097 23.56622291114084 H 0.0 **** 0.06
27678 H 85.7420477204146 142.43087470188394 22.27334373788389 H 0.0 **** 0.06
27679 H 84.34027877189821 141.83730125758547 23.195903406644902 H 0.0 **** 0.06
27680 H 85.1701536480637 140.76015049841786 22.047514592244575 H 0.0 **** 0.06
27681 C 69.06414952043659 31.773561055527153 50.53604514758584 C 0.0 **** -0.24
27682 H 68.99297653640886 30.687074742392127 50.580219328280265 H 0.0 **** 0.06
27683 H 68.92166515912993 32.106310374186904 49.50820539423461 H 0.0 **** 0.06
27684 H 70.04752814282602 32.08727595125549 50.887097785187265 H 0.0 **** 0.06
27685 H 68.2945799460075 32.213636697528756 51.1711023287493 H 0.0 **** 0.06
27686 C 104.17767244151725 113.76340870494127 10.071070260125424 C 0.0 **** -0.24
27687 H 105.03224570258237 113.99842661491923 9.437142361065753 H 0.0 **** 0.06
27688 H 104.13112930734763 114.47572483923639 10.89642596701924 H 0.0 **** 0.06
27689 H 104.28702176498177 112.75384244589625 10.46865071714464 H 0.0 **** 0.06
27690 H 103.26157083419753 113.82681949462355 9.484507073542858 H 0.0 **** 0.06
27691 C 26.055509459791693 134.0825559822623 110.88955414012891 C 0.0 **** -0.24
27692 H 27.060386678115748 134.5023341110026 110.91250026054898 H 0.0 **** 0.06
27693 H 25.463926752082273 134.59791882447354 110.1320169640495 H 0.0 **** 0.06
27694 H 25.58649539518359 134.21026810399255 111.86494016050834 H 0.0 **** 0.06
27695 H 26.10998195411895 133.02134208611184 110.64788850904158 H 0.0 **** 0.06
27696 C 36.14811891871858 42.80217561361627 101.29047061072266 C 0.0 **** -0.24
27697 H 37.16429721420323 42.41230396396239 101.35406520775727 H 0.0 **** 0.06
27698 H 35.98648265806301 43.23173971341667 100.30182816486916 H 0.0 **** 0.06
27699 H 36.007763327159054 43.57266337555369 102.04912298808001 H 0.0 **** 0.06
27700 H 35.43707621826911 41.9930410302823 101.45671134302412 H 0.0 **** 0.06
27701 C 132.80497691998391 63.85816585476117 79.70761114396254 C 0.0 **** -0.24
27702 H 132.21361367236364 64.0269129561289 80.60754414562592 H 0.0 **** 0.06
27703 H 132.1929934708121 63.352997203920125 78.96058747403458 H 0.0 **** 0.06
27704 H 133.66792951334557 63.23796468760469 79.95080824804262 H 0.0 **** 0.06
27705 H 133.14470931063474 64.8155169133444 79.31132668905587 H 0.0 **** 0.06
27706 C 38.96277473708531 44.23404556464534 125.3153566828233 C 0.0 **** -0.24
27707 H 39.434579059939466 44.97543572626664 125.95976553721266 H 0.0 **** 0.06
27708 H 38.97803867597574 44.58623949569285 124.28323363597752 H 0.0 **** 0.06
27709 H 37.9304081136836 44.08264767717422 125.63151382501988 H 0.0 **** 0.06
27710 H 39.50597023452045 43.29254861225692 125.38659267914187 H 0.0 **** 0.06
27711 C 63.826995006398136 109.19055745632684 27.628703138335652 C 0.0 **** -0.24
27712 H 63.846045450131015 108.10117812778432 27.615167510511327 H 0.0 **** 0.06
27713 H 62.80987097199181 109.53787830792643 27.448707613572893 H 0.0 **** 0.06
27714 H 64.48624786317923 109.5753230852404 26.850226686137773 H 0.0 **** 0.06
27715 H 64.16664448611748 109.54729086188544 28.60072626978736 H 0.0 **** 0.06
27716 C 149.60859708059212 141.24911645467492 7.882858413792434 C 0.0 **** -0.24
27717 H 149.32640632591665 142.10733320529005 7.273011818468888 H 0.0 **** 0.06
27718 H 149.6625770390397 141.5495433684386 8.929194073651871 H 0.0 **** 0.06
27719 H 150.58063533395534 140.87768906293525 7.559575593295079 H 0.0 **** 0.06
27720 H 148.86235608864234 140.46207691298676 7.769272913279082 H 0.0 **** 0.06
27721 C 47.35814944467933 38.37835593354279 64.11529505541542 C 0.0 **** -0.24
27722 H 47.20986821572956 39.45482045111916 64.03174692501267 H 0.0 **** 0.06
27723 H 47.22785368920307 38.07309605821797 65.15363648097707 H 0.0 **** 0.06
27724 H 48.364211581069355 38.12332359834059 63.784002243074 H 0.0 **** 0.06
27725 H 46.62772631021693 37.862282149221244 63.49025868369637 H 0.0 **** 0.06
27726 C 16.04346072300686 36.95830626661876 70.46221031916883 C 0.0 **** -0.24
27727 H 16.27773198707638 37.969290241946 70.79610532235 H 0.0 **** 0.06
27728 H 16.782353208622624 36.63988559040371 69.72544120507544 H 0.0 **** 0.06
27729 H 15.051048714480032 36.944905539558675 70.01249120630115 H 0.0 **** 0.06
27730 H 16.06542915413104 36.28058519646977 71.31552680017944 H 0.0 **** 0.06
27731 C 88.19721309713091 8.461168245007457 67.70556097812513 C 0.0 **** -0.24
27732 H 88.1498143091296 7.558726421644742 67.09635117650012 H 0.0 **** 0.06
27733 H 87.4861755653458 8.381107107814358 68.52880661917501 H 0.0 **** 0.06
27734 H 87.94768204269636 9.32653023179779 67.09259497389593 H 0.0 **** 0.06
27735 H 89.20459355310808 8.577673521295345 68.10499259311908 H 0.0 **** 0.06
27736 C 32.494212327764785 135.91092529261715 134.57675463710112 C 0.0 **** -0.24
27737 H 33.42144057739789 136.15737471767207 135.09456150878958 H 0.0 **** 0.06
27738 H 32.39393214604243 136.53907750811115 133.69091536928715 H 0.0 **** 0.06
27739 H 31.648765930448207 136.0828973706382 135.24270919116486 H 0.0 **** 0.06
27740 H 32.513436538128786 134.86210653504475 134.27817436343196 H 0.0 **** 0.06
27741 C 14.144813488189186 79.15498128620116 67.88657547087007 C 0.0 **** -0.24
27742 H 13.132631026821144 79.40947747251164 68.20125442971221 H 0.0 **** 0.06
27743 H 14.12031322862137 78.24754085416176 67.28306483340589 H 0.0 **** 0.06
27744 H 14.767467935610085 78.98947414276066 68.76641940535097 H 0.0 **** 0.06
27745 H 14.55858528520426 79.9728034445902 67.2979166185109 H 0.0 **** 0.06
27746 C 107.141833741517 116.36327449200992 20.808788459134576 C 0.0 **** -0.24
27747 H 106.39251719549078 116.36202571899169 20.01713408919676 H 0.0 **** 0.06
27748 H 106.80971492653838 115.71831154231553 21.62258043861908 H 0.0 **** 0.06
27749 H 107.27404121435468 117.37905183498013 21.180920216657 H 0.0 **** 0.06
27750 H 108.08732207228645 115.99383348679022 20.414545435418347 H 0.0 **** 0.06
27751 C 97.43818708093836 75.14204863331527 138.87600142361214 C 0.0 **** -0.24
27752 H 97.57823398397521 75.20737064448487 137.79699985535362 H 0.0 **** 0.06
27753 H 97.6110227752658 76.12150813682402 139.32389588707287 H 0.0 **** 0.06
27754 H 98.14456826015048 74.42300751847112 139.29040095856197 H 0.0 **** 0.06
27755 H 96.42031533608706 74.81782487767894 139.09183594073752 H 0.0 **** 0.06
27756 C 107.68094693513756 85.3497333914728 107.97228295563791 C 0.0 **** -0.24
27757 H 108.05590974127539 85.38524081950001 108.99548509881824 H 0.0 **** 0.06
27758 H 106.60205606137755 85.50257642404372 107.97559159127648 H 0.0 **** 0.06
27759 H 107.91054248728334 84.37811809293308 107.53633911750264 H 0.0 **** 0.06
27760 H 108.15799756789316 86.1344668550083 107.38382681805523 H 0.0 **** 0.06
27761 C 16.538037198959017 51.917176788448074 117.73411987131155 C 0.0 **** -0.24
27762 H 16.839136612058525 51.638027564537055 116.7249497677561 H 0.0 **** 0.06
27763 H 15.578614505780536 51.454914400481655 117.96810725219271 H 0.0 **** 0.06
27764 H 16.444195966031003 53.00135179789845 117.79886450579428 H 0.0 **** 0.06
27765 H 17.288845034642577 51.57461279635935 118.44561615319773 H 0.0 **** 0.06
27766 C 63.460017747788584 104.09202846217416 90.00954689089488 C 0.0 **** -0.24
27767 H 64.38216658097247 104.2150386843392 89.44066506177117 H 0.0 **** 0.06
27768 H 63.14149653501158 105.05972506362285 90.3972233169093 H 0.0 **** 0.06
27769 H 63.63467247238168 103.40616547795845 90.83956631326524 H 0.0 **** 0.06
27770 H 62.684161530659026 103.68685255737707 89.36079496616853 H 0.0 **** 0.06
27771 C 51.06430801474848 99.81766385189769 80.06522024994607 C 0.0 **** -0.24
27772 H 51.09960841515931 98.90750108023133 80.66246645561785 H 0.0 **** 0.06
27773 H 50.17379229838346 100.39006883633982 80.32696786833371 H 0.0 **** 0.06
27774 H 51.03162398401251 99.55726768327298 79.0068147938119 H 0.0 **** 0.06
27775 H 51.952784980669634 100.41847580045038 80.26385617356031 H 0.0 **** 0.06
27776 C 25.968001556267993 121.82560634774171 122.60840935490604 C 0.0 **** -0.24
27777 H 26.90819846938865 121.27881994592178 122.53406628139727 H 0.0 **** 0.06
27778 H 25.441547090549456 121.52244892246438 123.51387375774213 H 0.0 **** 0.06
27779 H 25.349992370122308 121.60576283402276 121.7371057293919 H 0.0 **** 0.06
27780 H 26.173105294546183 122.8955650551037 122.6474646468837 H 0.0 **** 0.06
27781 C 5.624572599879485 23.284791415009238 110.49864725807612 C 0.0 **** -0.24
27782 H 4.993975763446684 23.052782190694643 109.640714386323 H 0.0 **** 0.06
27783 H 6.354349826471463 22.48752843157223 110.63826961895899 H 0.0 **** 0.06
27784 H 5.00582937758773 23.371975443211568 111.39091694735765 H 0.0 **** 0.06
27785 H 6.1433706075438295 24.226963901810393 110.3231362917856 H 0.0 **** 0.06
27786 C 25.93895856346043 143.3365818379206 126.67551092619786 C 0.0 **** -0.24
27787 H 26.06833242722135 144.35060845838234 127.05426930909951 H 0.0 **** 0.06
27788 H 26.777647747116475 142.71892071943375 126.99923416933328 H 0.0 **** 0.06
27789 H 25.901858142025006 143.3573309504651 125.5863711214943 H 0.0 **** 0.06
27790 H 25.0093578458264 142.91956078192047 127.06253859864998 H 0.0 **** 0.06
27791 C 143.90886990421777 50.183364784153724 133.04438322835446 C 0.0 **** -0.24
27792 H 142.9345365653984 50.48875656752509 133.42627837014408 H 0.0 **** 0.06
27793 H 144.676341034646 50.855772407535596 133.4270077378731 H 0.0 **** 0.06
27794 H 143.90155512229052 50.22163350070883 131.95537613045525 H 0.0 **** 0.06
27795 H 144.12226863201448 49.1646934187016 133.3701425897198 H 0.0 **** 0.06
27796 C 10.300830129272072 137.43339004645492 85.46953783757013 C 0.0 **** -0.24
27797 H 10.32201020936651 136.53083127420444 86.08126048150356 H 0.0 **** 0.06
27798 H 9.511237574109003 138.09488684443357 85.82656876275526 H 0.0 **** 0.06
27799 H 10.108997220719942 137.1647922362635 84.43144353564448 H 0.0 **** 0.06
27800 H 11.261923099623544 137.94337393893278 85.54236813002515 H 0.0 **** 0.06
27801 C 34.231392730331464 1.368792660155151 83.32673420269691 C 0.0 **** -0.24
27802 H 33.37373101062863 1.3083984056548559 82.65672420739128 H 0.0 **** 0.06
27803 H 34.51338655645674 0.366399550171451 83.6471666886286 H 0.0 **** 0.06
27804 H 33.96971558134223 1.9691905014487077 84.19797698310413 H 0.0 **** 0.06
27805 H 35.067596785309064 1.8333203044183222 82.8047128344806 H 0.0 **** 0.06
27806 C 74.09399172429033 50.16416691933544 102.26629541010173 C 0.0 **** -0.24
27807 H 75.01267034972562 49.843026703588166 101.7777435255991 H 0.0 **** 0.06
27808 H 74.22187392344867 51.17433260060426 102.65459671527643 H 0.0 **** 0.06
27809 H 73.86376568730341 49.48542407509271 103.08820881704769 H 0.0 **** 0.06
27810 H 73.27561370913884 50.15199953779819 101.54576095714359 H 0.0 **** 0.06
27811 C 96.01074469745475 40.5091439046449 65.87035585242208 C 0.0 **** -0.24
27812 H 95.07708480195816 40.11577229974421 65.46849585411576 H 0.0 **** 0.06
27813 H 96.50426956292154 39.73676877007139 66.46083139600482 H 0.0 **** 0.06
27814 H 95.79973968531272 41.37081339384849 66.50285250963007 H 0.0 **** 0.06
27815 H 96.66142120220138 40.809943678631186 65.04945265919082 H 0.0 **** 0.06
27816 C 48.74894639821174 71.90306674732827 82.9927945141987 C 0.0 **** -0.24
27817 H 49.05065680311722 72.72129450661359 83.64761257556054 H 0.0 **** 0.06
27818 H 49.5613242557677 71.18095133616546 82.91520580021657 H 0.0 **** 0.06
27819 H 48.51715580612448 72.29738757698428 82.00346004870936 H 0.0 **** 0.06
27820 H 47.86558990548522 71.41460219344597 83.40483964744041 H 0.0 **** 0.06
27821 C 59.73246733479206 92.5162939573667 8.048822917739983 C 0.0 **** -0.24
27822 H 59.69872269649426 92.34838387212093 9.125296785190407 H 0.0 **** 0.06
27823 H 59.65992720924061 91.56044658091096 7.529172807044972 H 0.0 **** 0.06
27824 H 60.67302413683484 93.00197349117404 7.787670090216658 H 0.0 **** 0.06
27825 H 58.900059349569574 93.15476963836089 7.75432129684922 H 0.0 **** 0.06
27826 C 99.36532000968575 128.06418603417652 142.257923968955 C 0.0 **** -0.24
27827 H 98.32889522907644 127.72649779999205 142.23898112382824 H 0.0 **** 0.06
27828 H 99.47334197273653 128.86268756171847 142.99246333210795 H 0.0 **** 0.06
27829 H 99.64407652545464 128.43520586735917 141.2730288109147 H 0.0 **** 0.06
27830 H 100.01316990452203 127.23106415868486 142.53007085825718 H 0.0 **** 0.06
27831 C 57.053695358883544 65.32594724634922 33.85842590183091 C 0.0 **** -0.24
27832 H 57.02200794424317 65.47121027416787 32.77803611579827 H 0.0 **** 0.06
27833 H 57.90725254280133 65.86453462033703 34.27085320586815 H 0.0 **** 0.06
27834 H 57.15341580113791 64.2634888359303 34.079282014750675 H 0.0 **** 0.06
27835 H 56.133817661680055 65.70620095148217 34.302161870359384 H 0.0 **** 0.06
27836 C 67.51357472272446 144.32034662388887 96.07001574849596 C 0.0 **** -0.24
27837 H 67.58226515562137 144.4315143758981 94.98834860855465 H 0.0 **** 0.06
27838 H 68.12704906957481 145.08121789542858 96.55218128546534 H 0.0 **** 0.06
27839 H 67.86915421570336 143.33069320596329 96.35731843018317 H 0.0 **** 0.06
27840 H 66.47602000684458 144.43831497029387 96.38129879710146 H 0.0 **** 0.06
27841 C 119.77644096785662 27.05935117653729 86.58627018451377 C 0.0 **** -0.24
27842 H 120.59126527036932 27.778990995905303 86.50188771726587 H 0.0 **** 0.06
27843 H 118.82195681820372 27.58458055352429 86.53362371312093 H 0.0 **** 0.06
27844 H 119.85116966307527 26.535660140214986 87.53929211696372 H 0.0 **** 0.06
27845 H 119.84116112961567 26.3395584318842 85.77046740263282 H 0.0 **** 0.06
27846 C 125.50108828899923 57.2031042253233 135.00583689601004 C 0.0 **** -0.24
27847 H 125.9670092128095 56.4452415865634 134.37664505833354 H 0.0 **** 0.06
27848 H 124.46443256011412 56.926646733935456 135.1984755272565 H 0.0 **** 0.06
27849 H 125.53255505025649 58.16682290694199 134.49790617635534 H 0.0 **** 0.06
27850 H 126.04055283728695 57.272165865478314 135.9510892529413 H 0.0 **** 0.06
27851 C 49.431428352182905 56.04332516273814 55.871540133455795 C 0.0 **** -0.24
27852 H 50.52083405718858 56.06215858740117 55.88769472251454 H 0.0 **** 0.06
27853 H 49.04607458913071 57.00247083047262 56.217329876438384 H 0.0 **** 0.06
27854 H 49.071426949153164 55.24919512040324 56.525116390567376 H 0.0 **** 0.06
27855 H 49.08739735091419 55.85930236488511 54.85379028142248 H 0.0 **** 0.06
27856 C 12.345609123135944 66.02638473191922 134.60466782419928 C 0.0 **** -0.24
27857 H 12.515082320767249 66.94734337355439 134.04728601651448 H 0.0 **** 0.06
27858 H 11.367865953328646 66.06764907938899 135.08439276715598 H 0.0 **** 0.06
27859 H 13.119593454391577 65.9144342154938 135.36490125751516 H 0.0 **** 0.06
27860 H 12.38095753426802 65.17735815859945 133.9226554932079 H 0.0 **** 0.06
27861 C 111.30276493407304 66.97275919206058 101.04592297931237 C 0.0 **** -0.24
27862 H 110.6466869805647 67.22992744420364 100.21373986887139 H 0.0 **** 0.06
27863 H 111.2225319589556 67.73542243260593 101.82132608757428 H 0.0 **** 0.06
27864 H 112.33242473672011 66.91876404382108 100.69356851581387 H 0.0 **** 0.06
27865 H 111.00734823185208 66.00630346145888 101.45447380954539 H 0.0 **** 0.06
27866 C 130.76689500990204 98.0801996414522 143.06680504675552 C 0.0 **** -0.24
27867 H 130.20983309870627 98.79455973204054 142.46021112212046 H 0.0 **** 0.06
27868 H 131.23678603043908 97.34082700273623 142.41820114944503 H 0.0 **** 0.06
27869 H 130.0860343386027 97.57951773418705 143.75625621427173 H 0.0 **** 0.06
27870 H 131.53519785750342 98.60638093523755 143.63338201984635 H 0.0 **** 0.06
27871 C 62.75615450319637 136.5345515239098 30.652707179355644 C 0.0 **** -0.24
27872 H 62.65480589405878 137.41450245499342 30.0182245024682 H 0.0 **** 0.06
27873 H 63.81249599971399 136.34836756552946 30.849521056772062 H 0.0 **** 0.06
27874 H 62.32294757553312 135.67124766357222 30.14759859100613 H 0.0 **** 0.06
27875 H 62.23463842677805 136.70321303312596 31.594407093821047 H 0.0 **** 0.06
27876 C 127.17382169201176 11.925140362533284 127.20643196064069 C 0.0 **** -0.24
27877 H 127.83028909727557 12.132070516393895 126.36166636287092 H 0.0 **** 0.06
27878 H 127.08986708761796 12.817643724930548 127.82702996256589 H 0.0 **** 0.06
27879 H 127.58958352830011 11.109227719736623 127.79790567083361 H 0.0 **** 0.06
27880 H 126.18760685948168 11.642454900550973 126.83936972240394 H 0.0 **** 0.06
27881 C 10.44260729542745 64.42338405728024 128.88914337891015 C 0.0 **** -0.24
27882 H 10.413380922434783 64.68439386514285 129.9475025899952 H 0.0 **** 0.06
27883 H 9.73918993476778 63.61308237279212 128.69618043051312 H 0.0 **** 0.06
27884 H 11.449582809459201 64.10191389642888 128.62214009625075 H 0.0 **** 0.06
27885 H 10.167851567589935 65.29301446174061 128.29288110178706 H 0.0 **** 0.06
27886 C 38.24679790925697 18.8785935902484 141.63272036317068 C 0.0 **** -0.24
27887 H 37.20513944970065 18.573715434904962 141.7331715821436 H 0.0 **** 0.06
27888 H 38.45699904401016 19.689987469478886 142.33057707648203 H 0.0 **** 0.06
27889 H 38.428984128968224 19.218650993781843 140.61299557280057 H 0.0 **** 0.06
27890 H 38.89568062257675 18.031125979843047 141.85391566173502 H 0.0 **** 0.06
27891 C 61.917342815411786 20.370494849590983 29.871530638718866 C 0.0 **** -0.24
27892 H 62.92789751017135 19.963410278664497 29.880739613338434 H 0.0 **** 0.06
27893 H 61.94049421276188 21.391841374773776 29.491267862928623 H 0.0 **** 0.06
27894 H 61.51663090161067 20.368938809119754 30.885477405068883 H 0.0 **** 0.06
27895 H 61.28491565390735 19.757218250729863 29.229800808823512 H 0.0 **** 0.06
27896 C 108.31586096050503 98.45583681554132 140.42834309110407 C 0.0 **** -0.24
27897 H 108.20947815539327 98.58226959970209 141.5063184983442 H 0.0 **** 0.06
27898 H 109.36703620164204 98.29719717674583 140.18405714458385 H 0.0 **** 0.06
27899 H 107.95578735983221 99.35116147764921 139.92095442629818 H 0.0 **** 0.06
27900 H 107.73278657164647 97.59463000704612 140.10480714438 H 0.0 **** 0.06
27901 C 107.28652826095653 54.07292196796959 139.21279357281233 C 0.0 **** -0.24
27902 H 107.28153878621445 54.91296820876697 139.90695125101627 H 0.0 **** 0.06
27903 H 108.06141559714324 53.36398207961395 139.5059835584797 H 0.0 **** 0.06
27904 H 107.48782306102414 54.436065606840614 138.20541501842538 H 0.0 **** 0.06
27905 H 106.31433576800957 53.57933169099647 139.23357625272217 H 0.0 **** 0.06
27906 C 136.1212591954099 141.692017636971 39.76274380770691 C 0.0 **** -0.24
27907 H 136.1035972247361 142.70660823728215 39.366022979774925 H 0.0 **** 0.06
27908 H 135.11431602500946 141.27482150001677 39.73956334108867 H 0.0 **** 0.06
27909 H 136.48259381414462 141.71002280531505 40.791254193424365 H 0.0 **** 0.06
27910 H 136.7848882202338 141.07554136376575 39.15578167295743 H 0.0 **** 0.06
27911 C 8.242598958044823 73.60299517615812 73.01596828500001 C 0.0 **** -0.24
27912 H 7.274501354325253 73.40389035738174 73.4760832720473 H 0.0 **** 0.06
27913 H 8.994946892385144 72.9509024581775 73.45836416536687 H 0.0 **** 0.06
27914 H 8.51756117538514 74.6442980036941 73.18578497417195 H 0.0 **** 0.06
27915 H 8.180419718201335 73.41442152329431 71.94456445119656 H 0.0 **** 0.06
27916 C 132.48692739415824 66.53557949337835 125.36388189490586 C 0.0 **** -0.24
27917 H 132.24095730187366 67.29336828863063 124.61909240200113 H 0.0 **** 0.06
27918 H 131.80104372549093 66.61987477772959 126.20691118670715 H 0.0 **** 0.06
27919 H 133.50880522477877 66.68598220822969 125.71009592657634 H 0.0 **** 0.06
27920 H 132.39565748776428 65.54509102857958 124.9175693285198 H 0.0 **** 0.06
27921 C 67.48136078225232 13.256123139403748 63.217154222884034 C 0.0 **** -0.24
27922 H 68.46325516435934 13.721026645063851 63.30765090189897 H 0.0 **** 0.06
27923 H 66.78709918153902 13.737021244928172 63.9062277493766 H 0.0 **** 0.06
27924 H 67.55912586782557 12.195826006679404 63.45901180498191 H 0.0 **** 0.06
27925 H 67.11840901016902 13.370711276563412 62.19581732955852 H 0.0 **** 0.06
27926 C 48.99482863307318 9.415182297915834 60.26933794394007 C 0.0 **** -0.24
27927 H 49.754261949274365 10.19216009884903 60.34734410279064 H 0.0 **** 0.06
27928 H 48.76545370286644 9.235304618835755 59.2186188198382 H 0.0 **** 0.06
27929 H 48.091109158431976 9.736304164906471 60.787868910564384 H 0.0 **** 0.06
27930 H 49.3668814828838 8.49590665583824 60.72237820454477 H 0.0 **** 0.06
27931 C 118.51650603988504 26.845843396651034 9.633466413562473 C 0.0 **** -0.24
27932 H 118.15240210521178 27.459258388672396 10.457637425061648 H 0.0 **** 0.06
27933 H 119.53869456339918 26.528319123298928 9.840858467127987 H 0.0 **** 0.06
27934 H 118.49569295356012 27.425913668780936 8.711419375012241 H 0.0 **** 0.06
27935 H 117.87794244795408 25.96838960049962 9.525000253767104 H 0.0 **** 0.06
27936 C 28.783909231034215 106.80664539614351 144.35543849423013 C 0.0 **** -0.24
27937 H 27.96336963046315 106.10366861606819 144.4965762562713 H 0.0 **** 0.06
27938 H 28.381782340488826 107.79567714587496 144.1368918650028 H 0.0 **** 0.06
27939 H 29.40780259628167 106.47489175203141 143.5257499641863 H 0.0 **** 0.06
27940 H 29.383147842647816 106.85060207472101 145.26493362013255 H 0.0 **** 0.06
27941 C 54.735511254716656 18.847966312777572 121.84794054947673 C 0.0 **** -0.24
27942 H 55.284008267942795 19.286432030276643 121.01301516264397 H 0.0 **** 0.06
27943 H 53.6717632853117 19.05784596602581 121.73350150674133 H 0.0 **** 0.06
27944 H 55.093185195646896 19.278274077688422 122.7822584760105 H 0.0 **** 0.06
27945 H 54.89513427162831 17.76958917106498 121.8594179732533 H 0.0 **** 0.06
27946 C 90.68157685473608 111.2115932215192 55.28951078976118 C 0.0 **** -0.24
27947 H 90.94008432946018 110.67912868411946 54.37337655171061 H 0.0 **** 0.06
27948 H 90.32212673148885 112.21043488441421 55.038456031816594 H 0.0 **** 0.06
27949 H 91.5643274051782 111.29192340617294 55.92353917702147 H 0.0 **** 0.06
27950 H 89.90104738129426 110.66575931764328 55.81926503760505 H 0.0 **** 0.06
27951 C 41.41298350571577 115.26998489709734 78.13606529423036 C 0.0 **** -0.24
27952 H 42.437184030374794 114.89784414789847 78.1361592001666 H 0.0 **** 0.06
27953 H 41.13254003763433 115.56124849643646 77.12354443923775 H 0.0 **** 0.06
27954 H 41.34213106851479 116.13497301372058 78.79623952031014 H 0.0 **** 0.06
27955 H 40.742502219588914 114.48681992065923 78.4898123022109 H 0.0 **** 0.06
27956 C 60.34321736708901 146.97668204008795 0.8871456160452702 C 0.0 **** -0.24
27957 H 60.57251631182544 148.03525664436444 0.766012322118101 H 0.0 **** 0.06
27958 H 59.27204772352745 146.81897687197014 0.7577655877030942 H 0.0 **** 0.06
27959 H 60.64088136073137 146.65195104042095 1.8840354790480518 H 0.0 **** 0.06
27960 H 60.88870327018515 146.40031709559415 0.13894903964551375 H 0.0 **** 0.06
27961 C 52.82133284753557 137.35987042754456 104.13753230899917 C 0.0 **** -0.24
27962 H 53.287915950867344 136.4676073864574 103.72115828978738 H 0.0 **** 0.06
27963 H 53.52678401637358 138.19007572523026 104.09765361735762 H 0.0 **** 0.06
27964 H 52.53829405444685 137.1728287906217 105.17356173144205 H 0.0 **** 0.06
27965 H 51.93304074768734 137.60942770745345 103.5572118858814 H 0.0 **** 0.06
27966 C 147.68712153784276 34.74351804051392 135.49413923024412 C 0.0 **** -0.24
27967 H 148.36584576455184 35.234511526674794 134.79648077676217 H 0.0 **** 0.06
27968 H 146.856365454041 35.41065464331095 135.72272519501269 H 0.0 **** 0.06
27969 H 148.22202802976233 34.500100561754635 136.4107440337968 H 0.0 **** 0.06
27970 H 147.30485828875106 33.82745966602579 135.04250620554296 H 0.0 **** 0.06
27971 C 137.25239155110194 150.3231522994294 56.63202263230653 C 0.0 **** -0.24
27972 H 136.31337424029198 149.90770266082208 56.265978126563766 H 0.0 **** 0.06
27973 H 137.14217669078838 151.39957655338537 56.77068072075326 H 0.0 **** 0.06
27974 H 138.04267425215005 150.12896451833242 55.906380249464576 H 0.0 **** 0.06
27975 H 137.50961179214622 149.8586270618707 57.58334985965416 H 0.0 **** 0.06
27976 C 23.493797077143142 7.472563726850211 57.001206494263954 C 0.0 **** -0.24
27977 H 22.9340109087818 8.323534916108791 57.3889150890884 H 0.0 **** 0.06
27978 H 24.45694358852225 7.813067231950313 56.62268489738081 H 0.0 **** 0.06
27979 H 22.92987358615133 7.0047843275254635 56.1932923486775 H 0.0 **** 0.06
27980 H 23.651789750795132 6.74811675628985 57.800843553150756 H 0.0 **** 0.06
27981 C 22.552757705146888 3.7090889947949677 8.743673529358148 C 0.0 **** -0.24
27982 H 23.262872651710296 3.338228080315588 8.004801135120317 H 0.0 **** 0.06
27983 H 21.632024913682642 3.1272956072468787 8.686009694286156 H 0.0 **** 0.06
27984 H 22.333572032717882 4.757135636692482 8.543016334010304 H 0.0 **** 0.06
27985 H 22.982065667617263 3.611801763853748 9.74046203475001 H 0.0 **** 0.06
27986 C 133.67543920672455 116.9173639942445 79.67273573716672 C 0.0 **** -0.24
27987 H 134.760441838073 116.99019410539675 79.60404427120274 H 0.0 **** 0.06
27988 H 133.24700223428727 116.92544906678954 78.66977365953765 H 0.0 **** 0.06
27989 H 133.289458989415 117.76377129512257 80.24082502318558 H 0.0 **** 0.06
27990 H 133.40539899942485 115.98785377609308 80.17534251839186 H 0.0 **** 0.06
27991 C 77.93795559314692 4.897083747162355 100.07206529889129 C 0.0 **** -0.24
27992 H 78.04271868134074 5.320323456496965 99.07307114111666 H 0.0 **** 0.06
27993 H 77.09580433034458 5.369309013942882 100.57903479803562 H 0.0 **** 0.06
27994 H 78.85038053082498 5.076847344598889 100.64027586814318 H 0.0 **** 0.06
27995 H 77.761961190026 3.8246965102273407 99.99597969364166 H 0.0 **** 0.06
27996 C 24.63922889053819 17.577388656405304 16.95126786996616 C 0.0 **** -0.24
27997 H 24.417126497771022 18.111441820751956 17.874710450032353 H 0.0 **** 0.06
27998 H 25.646809334907786 17.16453771623729 17.00375829406775 H 0.0 **** 0.06
27999 H 24.570571684138017 18.264272030698663 16.1078297306845 H 0.0 **** 0.06
28000 H 23.92149172301066 16.767044766884965 16.81901936770069 H 0.0 **** 0.06
28001 C 62.4001795231849 43.88326761748738 66.62409998876103 C 0.0 **** -0.24
28002 H 63.048785698181604 44.22104861509965 67.43108105069112 H 0.0 **** 0.06
28003 H 62.955117739294224 43.88989181113496 65.68551743479206 H 0.0 **** 0.06
28004 H 61.54229307305832 44.55042013042345 66.5428421839992 H 0.0 **** 0.06
28005 H 62.05430890361703 42.87164297311523 66.83451991957172 H 0.0 **** 0.06
28006 C 16.744418064489714 69.44830015512483 7.2344739022757665 C 0.0 **** -0.24
28007 H 17.61772967074308 69.02230547962115 6.740134066058175 H 0.0 **** 0.06
28008 H 15.976785883623066 68.68090604084551 7.338014330031655 H 0.0 **** 0.06
28009 H 16.355877749940277 70.27330516862533 6.638392035638191 H 0.0 **** 0.06
28010 H 17.028172278310308 69.81441191863387 8.221154806176884 H 0.0 **** 0.06
28011 C 106.37381007847902 129.8884540989462 111.6270552743798 C 0.0 **** -0.24
28012 H 106.48243780315126 129.35623573722052 110.68265966130146 H 0.0 **** 0.06
28013 H 106.54732953995595 129.19991664052395 112.45440324851684 H 0.0 **** 0.06
28014 H 105.36588972403923 130.29693469011002 111.69909445706442 H 0.0 **** 0.06
28015 H 107.09958324676954 130.7007293279303 111.67206373063611 H 0.0 **** 0.06
28016 C 81.39950547449887 54.18951287630452 8.480203247255503 C 0.0 **** -0.24
28017 H 81.9674156733976 55.09097277793191 8.708708189214832 H 0.0 **** 0.06
28018 H 82.01570332314371 53.312141253126214 8.676933348726635 H 0.0 **** 0.06
28019 H 81.10821213358322 54.20052619800856 7.429538501464037 H 0.0 **** 0.06
28020 H 80.50698384808165 54.15456410268732 9.104257878258153 H 0.0 **** 0.06
28021 C 40.66008270573249 99.10442783702706 49.92546599645215 C 0.0 **** -0.24
28022 H 40.7550152919909 98.07609580580464 49.57833996736068 H 0.0 **** 0.06
28023 H 39.6898796046049 99.23758111600148 50.4052364320267 H 0.0 **** 0.06
28024 H 40.74291973959626 99.7833224780506 49.07665413214346 H 0.0 **** 0.06
28025 H 41.45348669660146 99.32079738875296 50.641858947351835 H 0.0 **** 0.06
28026 C 28.284063107666952 53.00988219111706 102.2667184514089 C 0.0 **** -0.24
28027 H 28.23277432372322 52.02047209150231 101.81275305354046 H 0.0 **** 0.06
28028 H 27.754676152398417 53.72544595211642 101.63653396473148 H 0.0 **** 0.06
28029 H 29.326049897708913 53.31244311597125 102.36299328168832 H 0.0 **** 0.06
28030 H 27.820985162956845 52.98084488196055 103.25292792603557 H 0.0 **** 0.06
28031 C 71.39348518895243 71.8045993439734 45.79677244040897 C 0.0 **** -0.24
28032 H 71.87273996179562 72.76341151443141 45.99066806502347 H 0.0 **** 0.06
28033 H 70.73134900150092 71.89722355263623 44.935475200314045 H 0.0 **** 0.06
28034 H 70.81509981002169 71.50384907824792 46.669502101403026 H 0.0 **** 0.06
28035 H 72.1557316255572 71.05328917001653 45.589287761527515 H 0.0 **** 0.06
28036 C 65.33126385024184 148.6712997079286 79.02511916033359 C 0.0 **** -0.24
28037 H 66.22848938941189 149.218445081883 79.3137343710714 H 0.0 **** 0.06
28038 H 64.62620058916423 148.6667492907465 79.85733465789741 H 0.0 **** 0.06
28039 H 65.59652985034262 147.64657170844245 78.7678743250664 H 0.0 **** 0.06
28040 H 64.87236730888486 149.15574195033028 78.16276297404346 H 0.0 **** 0.06
28041 C 85.11353699623429 60.95257990597058 86.49912729869524 C 0.0 **** -0.24
28042 H 84.6290610777962 61.44627291730606 85.65746065865633 H 0.0 **** 0.06
28043 H 84.65225680300868 61.285167740121 87.42966662797883 H 0.0 **** 0.06
28044 H 86.17345988425936 61.20689688686193 86.50742376133351 H 0.0 **** 0.06
28045 H 84.99915740148852 59.87329366042988 86.40244243726843 H 0.0 **** 0.06
28046 C 70.97518636635769 43.88563650398524 71.94451743172584 C 0.0 **** -0.24
28047 H 71.92673972785778 43.43752317638521 71.65879882553139 H 0.0 **** 0.06
28048 H 71.12188670249789 44.94462330242138 72.15551371965114 H 0.0 **** 0.06
28049 H 70.59149568892524 43.38631496280081 72.8341583382479 H 0.0 **** 0.06
28050 H 70.26170150194545 43.77227542349473 71.12771076346229 H 0.0 **** 0.06
28051 C 149.3645137468593 9.943702182493865 75.21545188212504 C 0.0 **** -0.24
28052 H 150.36705304043383 9.595971753548554 75.46578569533038 H 0.0 **** 0.06
28053 H 149.4183367932372 10.967465462760714 74.84250767508858 H 0.0 **** 0.06
28054 H 148.73612573361572 9.913321170500637 76.10468353077981 H 0.0 **** 0.06
28055 H 148.93910516212048 9.299285771443607 74.4464034483788 H 0.0 **** 0.06
28056 C 113.6344109356885 100.18258467317139 38.23443975699371 C 0.0 **** -0.24
28057 H 114.27287230126 99.65801964467693 37.522839350476715 H 0.0 **** 0.06
28058 H 114.25206558333876 100.77543854557041 38.909024446659714 H 0.0 **** 0.06
28059 H 113.06068761761314 99.45612853537847 38.80990002146547 H 0.0 **** 0.06
28060 H 112.95239732423006 100.8381212818208 37.693361523146905 H 0.0 **** 0.06
28061 C 142.67536906652575 43.39517221347607 63.35256037814922 C 0.0 **** -0.24
28062 H 142.06522565990437 43.42182756500584 64.25554543283394 H 0.0 **** 0.06
28063 H 142.1328290341523 43.86832973928013 62.53348602887796 H 0.0 **** 0.06
28064 H 142.89529365762615 42.35982041245197 63.0937684222677 H 0.0 **** 0.06
28065 H 143.60764272771956 43.93178622634858 63.52871004767978 H 0.0 **** 0.06
28066 C 25.050299418585894 16.72386108562886 143.29980122185876 C 0.0 **** -0.24
28067 H 25.888864870530938 17.389299800943157 143.0956523372095 H 0.0 **** 0.06
28068 H 24.189295977536176 17.312506179250434 143.61624159048844 H 0.0 **** 0.06
28069 H 25.325113697370227 16.026442569869907 144.09128212439504 H 0.0 **** 0.06
28070 H 24.79992330129835 16.1683379124542 142.39686255706212 H 0.0 **** 0.06
28071 C 52.53796776593603 55.867786050085954 20.689915196086986 C 0.0 **** -0.24
28072 H 52.7859606490932 56.471046911156805 21.563354006215775 H 0.0 **** 0.06
28073 H 52.50941378508165 56.50450150727971 19.805325685036678 H 0.0 **** 0.06
28074 H 51.563021197407835 55.40248622561127 20.835828709334464 H 0.0 **** 0.06
28075 H 53.293593360676795 55.09375234101476 20.55675645061521 H 0.0 **** 0.06
28076 C 138.9634439563893 136.10935248807914 76.08904175727429 C 0.0 **** -0.24
28077 H 138.67814347465537 136.9322581349621 76.74543680869503 H 0.0 **** 0.06
28078 H 138.07345606717985 135.54637741397934 75.80634910235084 H 0.0 **** 0.06
28079 H 139.65909093980684 135.45335333072956 76.61134514188346 H 0.0 **** 0.06
28080 H 139.4420525996858 136.50858417273204 75.19399965474783 H 0.0 **** 0.06
28081 C 147.71402790440771 135.3173215931831 34.03547117078779 C 0.0 **** -0.24
28082 H 146.89666882676715 135.01101920030615 34.68877622054862 H 0.0 **** 0.06
28083 H 148.3130045207428 136.0778001591882 34.53629832765421 H 0.0 **** 0.06
28084 H 147.30594568297363 135.72670986355018 33.11099096352598 H 0.0 **** 0.06
28085 H 148.33947341703407 134.45451887578847 33.80643653584434 H 0.0 **** 0.06
28086 C 9.510665370184455 104.59685249707472 96.8309651900766 C 0.0 **** -0.24
28087 H 9.43059876371305 103.83154125771178 97.6022890459864 H 0.0 **** 0.06
28088 H 10.55247893244416 104.69986777045791 96.52756308664695 H 0.0 **** 0.06
28089 H 9.150520394827197 105.54845811377446 97.22434909981888 H 0.0 **** 0.06
28090 H 8.907984137039819 104.30889699500098 95.96969958812258 H 0.0 **** 0.06
28091 C 42.04649090945284 31.370080830174935 23.015659590945248 C 0.0 **** -0.24
28092 H 41.954986794269644 31.610276344782598 24.074973802792975 H 0.0 **** 0.06
28093 H 43.090179350700424 31.165132918532784 22.778899697657636 H 0.0 **** 0.06
28094 H 41.696978605019495 32.21386197043341 22.421257373738058 H 0.0 **** 0.06
28095 H 41.44155339894316 30.492041100867063 22.78947974150828 H 0.0 **** 0.06
28096 C 89.81552062932141 25.240940190388756 10.389730069665177 C 0.0 **** -0.24
28097 H 90.69295115116316 25.88855648267802 10.382634553965971 H 0.0 **** 0.06
28098 H 88.92059425946624 25.841221673360252 10.223966866232502 H 0.0 **** 0.06
28099 H 89.74337174173431 24.738302785189312 11.353391110529657 H 0.0 **** 0.06
28100 H 89.90678663337454 24.497787094112958 9.597962771972448 H 0.0 **** 0.06
28101 C 125.18425485137945 23.82436935949417 85.77221006709665 C 0.0 **** -0.24
28102 H 124.221670036946 23.42979958041576 86.09648406042957 H 0.0 **** 0.06
28103 H 125.95587099291848 23.070111855898773 85.92295684974071 H 0.0 **** 0.06
28104 H 125.42656492537643 24.71365820490894 86.35495503631124 H 0.0 **** 0.06
28105 H 125.13227017003308 24.085410495750992 84.71559681166794 H 0.0 **** 0.06
28106 C 54.71028535315742 143.30878036872315 5.866515870705172 C 0.0 **** -0.24
28107 H 55.20522399398695 144.01980851418446 6.528071011810965 H 0.0 **** 0.06
28108 H 54.727000686889454 143.69100012650597 4.845850333391411 H 0.0 **** 0.06
28109 H 53.67677461087405 143.17332611621606 6.187227922801981 H 0.0 **** 0.06
28110 H 55.23124140805206 142.3524539588148 5.905104031977942 H 0.0 **** 0.06
28111 C 71.75999409852942 121.16341994769972 74.95912727813759 C 0.0 **** -0.24
28112 H 71.80312617544664 121.8449044230931 75.80896375188357 H 0.0 **** 0.06
28113 H 72.10992096115287 121.67758012164772 74.06427311645976 H 0.0 **** 0.06
28114 H 70.7327788270009 120.83198556575955 74.81074439125211 H 0.0 **** 0.06
28115 H 72.39605963870494 120.29981481918388 75.15452510702765 H 0.0 **** 0.06
28116 C 6.85667340081018 101.03829151652917 94.15961640775006 C 0.0 **** -0.24
28117 H 6.498857916977649 100.38373995380748 93.3651066212795 H 0.0 **** 0.06
28118 H 7.681089070215684 101.64663844167312 93.78669639952676 H 0.0 **** 0.06
28119 H 7.199834480102034 100.4356492809568 94.9997653499785 H 0.0 **** 0.06
28120 H 6.045092774290765 101.68874768024902 94.4872140040172 H 0.0 **** 0.06
28121 C 105.92668685343013 1.416412909859865 52.12707528575196 C 0.0 **** -0.24
28122 H 106.05080890636886 0.39355636115989157 52.48205650217837 H 0.0 **** 0.06
28123 H 106.90651770964503 1.8555024692456108 51.9374668418906 H 0.0 **** 0.06
28124 H 105.4061115559608 2.0026937497698434 52.88453395358263 H 0.0 **** 0.06
28125 H 105.34511038019473 1.4136250867159816 51.20588123930197 H 0.0 **** 0.06
28126 C 109.7478148160212 19.485301171409645 42.051488701135824 C 0.0 **** -0.24
28127 H 109.09421823453174 20.323370570272658 42.29276170536032 H 0.0 **** 0.06
28128 H 109.41477787970256 18.59735484123948 42.59105731132378 H 0.0 **** 0.06
28129 H 110.76976755515106 19.726230964480663 42.34492171463367 H 0.0 **** 0.06
28130 H 109.71285747400343 19.293829264933834 40.97960021330975 H 0.0 **** 0.06
28131 C 80.68528614640009 91.56265957491085 10.519589627674094 C 0.0 **** -0.24
28132 H 80.52374838540126 92.50924319601695 11.034773539249471 H 0.0 **** 0.06
28133 H 81.12713965803589 90.84360586308539 11.209671312314555 H 0.0 **** 0.06
28134 H 81.3570435544626 91.71760455014295 9.67509952410569 H 0.0 **** 0.06
28135 H 79.73034057060612 91.178803953647 10.157895881975321 H 0.0 **** 0.06
28136 C 98.20136330713439 118.25508895718659 24.041230605846806 C 0.0 **** -0.24
28137 H 98.74927833693405 117.59999410391336 24.718694512558294 H 0.0 **** 0.06
28138 H 98.63369604351641 118.18615503694016 23.04244632244005 H 0.0 **** 0.06
28139 H 98.26877357385487 119.28266443163645 24.39661903373706 H 0.0 **** 0.06
28140 H 97.15551102967372 117.9493680706698 24.007050943153097 H 0.0 **** 0.06
28141 C 114.8403939395406 136.135309462654 65.94088397735672 C 0.0 **** -0.24
28142 H 115.13794248890565 135.87965540566782 64.92332887226564 H 0.0 **** 0.06
28143 H 114.18066120592971 137.00320445767633 65.91862383827066 H 0.0 **** 0.06
28144 H 115.72642410341484 136.367075676894 66.53113851570397 H 0.0 **** 0.06
28145 H 114.31601417516447 135.29140949243128 66.38852017487176 H 0.0 **** 0.06
28146 C 87.49163571524088 48.688823252541155 43.74291171795602 C 0.0 **** -0.24
28147 H 88.25833184328863 48.91180171352991 44.48533353870393 H 0.0 **** 0.06
28148 H 86.51375387143 48.96067178367406 44.13896338052962 H 0.0 **** 0.06
28149 H 87.50856103641726 47.62396916075869 43.51289488372646 H 0.0 **** 0.06
28150 H 87.68825960058062 49.26005955467886 42.83543079097336 H 0.0 **** 0.06
28151 C 113.59083137905445 128.04385749083127 26.867204276690245 C 0.0 **** -0.24
28152 H 114.52084037663109 128.56741393822688 27.087641063249805 H 0.0 **** 0.06
28153 H 113.8167293311913 127.07189719361139 26.429194275930513 H 0.0 **** 0.06
28154 H 113.00077298957937 128.63206726943525 26.16361073112914 H 0.0 **** 0.06
28155 H 113.0252579791971 127.9050060504175 27.78848625504679 H 0.0 **** 0.06
28156 C 90.96069641249474 83.58912019802179 55.620429034551805 C 0.0 **** -0.24
28157 H 91.22427859078476 83.0769605662936 56.545852955737956 H 0.0 **** 0.06
28158 H 91.83224897694723 83.62623940564504 54.96546732317249 H 0.0 **** 0.06
28159 H 90.6320054845979 84.60327516502875 55.846527341980945 H 0.0 **** 0.06
28160 H 90.15502655406623 83.04785402846167 55.122990044896284 H 0.0 **** 0.06
28161 C 81.80966625037998 28.346409603664085 133.4824832305201 C 0.0 **** -0.24
28162 H 80.78018141417964 28.17837411009424 133.1660696847903 H 0.0 **** 0.06
28163 H 82.4675401884354 28.301027917298597 132.61419532163572 H 0.0 **** 0.06
28164 H 82.09918586480127 27.57895303667175 134.19956499338045 H 0.0 **** 0.06
28165 H 81.89052046396479 29.327802195704464 133.94900721838033 H 0.0 **** 0.06
28166 C 139.29289167502412 119.69163090776534 8.239239317168625 C 0.0 **** -0.24
28167 H 140.3094020846916 119.99228157454955 7.984758945017745 H 0.0 **** 0.06
28168 H 139.15674910909866 118.63599980276241 8.001546863162815 H 0.0 **** 0.06
28169 H 138.5832873136814 120.28806971549916 7.665819852782732 H 0.0 **** 0.06
28170 H 139.12414069414535 119.84954933242845 9.30408218450944 H 0.0 **** 0.06
28171 C 102.2073769463834 9.698454107475527 146.61788533594859 C 0.0 **** -0.24
28172 H 101.40324715882284 9.840228113989532 147.33864315276315 H 0.0 **** 0.06
28173 H 102.6580730772452 10.662665635226709 146.38242702274513 H 0.0 **** 0.06
28174 H 101.8061434183917 9.251810799316395 145.70815961126902 H 0.0 **** 0.06
28175 H 102.96378659765155 9.037457586734817 147.04278835790825 H 0.0 **** 0.06
28176 C 53.758683028392866 101.94647506340289 53.75190077048126 C 0.0 **** -0.24
28177 H 53.44721634103688 102.60868519412526 52.94355198402256 H 0.0 **** 0.06
28178 H 53.15194593041707 102.14221464882979 54.63616464625173 H 0.0 **** 0.06
28179 H 54.80817368517992 102.12542605583596 53.983677286443665 H 0.0 **** 0.06
28180 H 53.62637784441711 100.90944605770653 53.44281392714032 H 0.0 **** 0.06
28181 C 24.995642453336444 125.77793611322205 101.79146293096647 C 0.0 **** -0.24
28182 H 25.790561531106675 125.1405234944727 102.17872292000362 H 0.0 **** 0.06
28183 H 24.83115980127269 125.55302780586004 100.73749793725068 H 0.0 **** 0.06
28184 H 25.28333104466435 126.82367965316185 101.89925997052191 H 0.0 **** 0.06
28185 H 24.0783393614212 125.59405992534083 102.35002630027171 H 0.0 **** 0.06
28186 C 8.674094665366653 116.33569732692645 2.1280361595616455 C 0.0 **** -0.24
28187 H 9.17896108138951 117.15830715226697 1.622856575015561 H 0.0 **** 0.06
28188 H 7.711623788245831 116.67727487613222 2.5072762238593214 H 0.0 **** 0.06
28189 H 9.289790976859493 115.98756212089684 2.9577755389073275 H 0.0 **** 0.06
28190 H 8.518067202945346 115.51849744796662 1.4235872375729457 H 0.0 **** 0.06
28191 C 59.75522934054791 3.6248896064553833 81.4120113821914 C 0.0 **** -0.24
28192 H 59.74926915133402 4.635717303896286 81.82070729963473 H 0.0 **** 0.06
28193 H 60.14310541999831 3.647121296968976 80.39253923358353 H 0.0 **** 0.06
28194 H 58.7399663704107 3.228757693582054 81.40625999193944 H 0.0 **** 0.06
28195 H 60.389994048717796 2.9872137679335538 82.02788296088599 H 0.0 **** 0.06
28196 C 33.54660019769126 102.97911759605276 3.308092647522045 C 0.0 **** -0.24
28197 H 34.414220587946396 102.69412606328598 3.9029683988964337 H 0.0 **** 0.06
28198 H 32.91306948991408 102.10654819148002 3.148230309158322 H 0.0 **** 0.06
28199 H 33.87957445107957 103.3674701984983 2.3455362127191677 H 0.0 **** 0.06
28200 H 32.982103022985605 103.74860241434138 3.834107394639318 H 0.0 **** 0.06
28201 C 71.17696713355495 145.4105425962031 74.89399770303015 C 0.0 **** -0.24
28202 H 71.7542902251788 146.2933758571033 74.6159814551508 H 0.0 **** 0.06
28203 H 70.18094641276667 145.47540372141657 74.45558550506763 H 0.0 **** 0.06
28204 H 71.09499389588301 145.35785382288145 75.97898835453401 H 0.0 **** 0.06
28205 H 71.68042092281951 144.51781441155464 74.52297189041457 H 0.0 **** 0.06
28206 C 132.69445810821236 4.764952331615426 83.3629797531032 C 0.0 **** -0.24
28207 H 132.17708695728658 4.062492384895354 82.70966084667144 H 0.0 **** 0.06
28208 H 133.43619574569607 4.229357177285841 83.95626267475942 H 0.0 **** 0.06
28209 H 131.97387477007547 5.24154993158146 84.02720023221771 H 0.0 **** 0.06
28210 H 133.19107589629076 5.524034483897772 82.75923931686854 H 0.0 **** 0.06
28211 C 42.06095590457247 106.08137603679312 61.24924918445805 C 0.0 **** -0.24
28212 H 42.6803144981597 105.39949466694152 60.66516590879229 H 0.0 **** 0.06
28213 H 42.45896247991058 106.1557309184759 62.261279620142545 H 0.0 **** 0.06
28214 H 41.04007058296497 105.70158792183086 61.28676747919138 H 0.0 **** 0.06
28215 H 42.0660912499055 107.06561939849836 60.78238403644917 H 0.0 **** 0.06
28216 C 120.27859013449232 122.21573504005909 141.66040483784565 C 0.0 **** -0.24
28217 H 121.29448150356167 122.2567255160946 142.0529478035804 H 0.0 **** 0.06
28218 H 120.22074819171034 121.45300661395692 140.88294667560632 H 0.0 **** 0.06
28219 H 120.01169109633092 123.18510993985853 141.23955606649758 H 0.0 **** 0.06
28220 H 119.58769129083903 121.96672174018545 142.46637486119818 H 0.0 **** 0.06
28221 C 102.59790753988953 87.90710429574821 110.66696705243618 C 0.0 **** -0.24
28222 H 103.5380150094794 88.44407471826955 110.53933395868626 H 0.0 **** 0.06
28223 H 101.76849853775093 88.6142535785811 110.63562835282175 H 0.0 **** 0.06
28224 H 102.60183044854556 87.39358418948666 111.62844414364662 H 0.0 **** 0.06
28225 H 102.48449155162804 87.17810002521944 109.8654628289712 H 0.0 **** 0.06
28226 C 47.72704549423645 41.277486633218274 57.23988144985903 C 0.0 **** -0.24
28227 H 48.77015762833378 41.02135482610177 57.05204618035127 H 0.0 **** 0.06
28228 H 47.12438577955021 40.36840203511437 57.239920345296426 H 0.0 **** 0.06
28229 H 47.371891477207384 41.94868500522031 56.4578917728025 H 0.0 **** 0.06
28230 H 47.64237172549707 41.77003446494521 58.208102725158625 H 0.0 **** 0.06
28231 C 123.83708755429221 13.973649541751342 90.03816850104542 C 0.0 **** -0.24
28232 H 124.55622630390114 14.649880177967958 89.57696135163394 H 0.0 **** 0.06
28233 H 122.84736529718403 14.156055546345442 89.62018361359091 H 0.0 **** 0.06
28234 H 123.81467237001918 14.146112396136175 91.11446475554564 H 0.0 **** 0.06
28235 H 124.13006802450518 12.942315429797077 89.84203621939255 H 0.0 **** 0.06
28236 C 76.02130498620977 26.407951714385632 92.82337170778305 C 0.0 **** -0.24
28237 H 76.33347189477294 26.74024796590109 93.81360880990454 H 0.0 **** 0.06
28238 H 76.39409405841599 25.39972282834701 92.64470923376456 H 0.0 **** 0.06
28239 H 76.42593748303602 27.083530573919063 92.06998985460223 H 0.0 **** 0.06
28240 H 74.93302413033412 26.40902300970633 92.76651138789413 H 0.0 **** 0.06
28241 C 36.85394560315174 145.8515463849431 108.15795128116932 C 0.0 **** -0.24
28242 H 36.82947569387226 145.97791903122288 107.07588444535654 H 0.0 **** 0.06
28243 H 37.27395876097916 144.87456526745473 108.40051959534392 H 0.0 **** 0.06
28244 H 35.84077791329978 145.91919574040477 108.55479797429055 H 0.0 **** 0.06
28245 H 37.47064289847733 146.6334565954655 108.60080378695548 H 0.0 **** 0.06
28246 C 68.77598958923775 25.086791801723635 18.260607356033958 C 0.0 **** -0.24
28247 H 68.80976779559185 25.7896100175804 17.427622900463163 H 0.0 **** 0.06
28248 H 69.61189752210453 24.391237098715408 18.18261962914037 H 0.0 **** 0.06
28249 H 67.83805222489946 24.533455984826162 18.23018677867188 H 0.0 **** 0.06
28250 H 68.84551351847657 25.634582262287807 19.200804966491454 H 0.0 **** 0.06
28251 C 145.89917118869096 21.565566156105973 29.394458632542175 C 0.0 **** -0.24
28252 H 145.16201824063444 20.825726878612727 29.082207349092847 H 0.0 **** 0.06
28253 H 146.86116782104676 21.077410987141633 29.5475058782485 H 0.0 **** 0.06
28254 H 145.5739177157061 22.03112996622548 30.324730633069393 H 0.0 **** 0.06
28255 H 145.99646580356392 22.328228483730726 28.621330931018967 H 0.0 **** 0.06
28256 C 136.4638541221366 8.820145883621848 83.38786851829057 C 0.0 **** -0.24
28257 H 136.9812973277563 9.726134440215418 83.70265373316343 H 0.0 **** 0.06
28258 H 135.4742821462228 8.79116672930158 83.84382903496731 H 0.0 **** 0.06
28259 H 137.03625239719193 7.947854244139336 83.70323019924358 H 0.0 **** 0.06
28260 H 136.36489270905096 8.817496386976018 82.30165437750556 H 0.0 **** 0.06
28261 C 89.22948496241864 87.49327792285948 3.2572241277406704 C 0.0 **** -0.24
28262 H 89.11098815567661 88.56387273675546 3.4231961809999234 H 0.0 **** 0.06
28263 H 90.23374600667208 87.18899170842315 3.5522887676464165 H 0.0 **** 0.06
28264 H 89.07898227279682 87.27117330894049 2.2008866084645433 H 0.0 **** 0.06
28265 H 88.49490836672473 86.94997899650048 3.8505983269102444 H 0.0 **** 0.06
28266 C 44.320180572304025 69.32113448649783 16.991619478420347 C 0.0 **** -0.24
28267 H 44.64133861903878 68.4351199649481 17.538781465504485 H 0.0 **** 0.06
28268 H 44.84586137266359 69.36900504501462 16.03727486710642 H 0.0 **** 0.06
28269 H 44.54745774230605 70.21156352703134 17.576893480467163 H 0.0 **** 0.06
28270 H 43.24633117476293 69.26837826712173 16.812687281986626 H 0.0 **** 0.06
28271 C 135.03642008878924 133.08054395334605 14.415065789340844 C 0.0 **** -0.24
28272 H 136.02103895130693 132.68149727584395 14.661757868936661 H 0.0 **** 0.06
28273 H 134.82484884058516 132.8996186475527 13.360621305268268 H 0.0 **** 0.06
28274 H 135.0194530714074 134.15178695365185 14.611519289156945 H 0.0 **** 0.06
28275 H 134.28210877579133 132.58617680200825 15.027497874920755 H 0.0 **** 0.06
28276 C 77.36360213291127 106.6301249640657 137.39028230587874 C 0.0 **** -0.24
28277 H 76.9392721725217 105.72655446002533 137.82794531609827 H 0.0 **** 0.06
28278 H 76.5625161030284 107.33560955238137 137.1685839292812 H 0.0 **** 0.06
28279 H 77.8890565379572 106.37622228639721 136.46927817540305 H 0.0 **** 0.06
28280 H 78.06155464387288 107.08206848883636 138.0943411027679 H 0.0 **** 0.06
28281 C 68.92224309013162 65.68448717563439 98.44145101396421 C 0.0 **** -0.24
28282 H 69.76415349339138 66.30900492507678 98.74164256655126 H 0.0 **** 0.06
28283 H 68.44355259797763 65.26959185361417 99.3278333954654 H 0.0 **** 0.06
28284 H 69.28074907036249 64.87324586224099 97.80709345556394 H 0.0 **** 0.06
28285 H 68.20229518144416 66.28790226151727 97.88733389905609 H 0.0 **** 0.06
28286 C 59.886125721429266 130.14794096914514 28.90721344069675 C 0.0 **** -0.24
28287 H 59.30346700707034 130.41748314784107 28.026111667823614 H 0.0 **** 0.06
28288 H 59.25354344777102 130.2091175451449 29.793365017051073 H 0.0 **** 0.06
28289 H 60.72596836990448 130.83501521817473 29.011940685343085 H 0.0 **** 0.06
28290 H 60.261524060971254 129.1301479654197 28.797436392569104 H 0.0 **** 0.06
28291 C 44.23853792525418 91.72112210761989 147.53704630496648 C 0.0 **** -0.24
28292 H 44.119165690616484 92.4681441680911 146.75221651460387 H 0.0 **** 0.06
28293 H 43.729811273536285 92.05876953760966 148.44053063066391 H 0.0 **** 0.06
28294 H 45.29873121278021 91.58242854018604 147.74809549260036 H 0.0 **** 0.06
28295 H 43.806448701427286 90.7765600686649 147.2073738586218 H 0.0 **** 0.06
28296 C 80.97822843696646 11.197163970335026 141.58101371100642 C 0.0 **** -0.24
28297 H 81.7752469115633 10.692284442453968 141.03473199419986 H 0.0 **** 0.06
28298 H 80.36621848678244 11.768709899513283 140.88324257695265 H 0.0 **** 0.06
28299 H 81.4139451824581 11.872103654201368 142.31829917589928 H 0.0 **** 0.06
28300 H 80.35930033892713 10.4565788186529 142.08692783785918 H 0.0 **** 0.06
28301 C 50.89977488463566 109.56810997629707 63.00493711416995 C 0.0 **** -0.24
28302 H 51.46338149637651 109.88216866198452 63.88393895893904 H 0.0 **** 0.06
28303 H 50.71843862052222 110.42970543466562 62.362305094349324 H 0.0 **** 0.06
28304 H 49.94715624407158 109.1409744962619 63.31802893070966 H 0.0 **** 0.06
28305 H 51.470501792950046 108.81864075344625 62.456451772588025 H 0.0 **** 0.06
28306 C 91.73834861151173 7.58871422636264 126.57195431356584 C 0.0 **** -0.24
28307 H 92.02631513460923 7.78940593752111 125.54013475897901 H 0.0 **** 0.06
28308 H 91.07807863882809 6.721734587045717 126.60177656040607 H 0.0 **** 0.06
28309 H 91.21840117281437 8.456321089536232 126.97853946638608 H 0.0 **** 0.06
28310 H 92.63053533465734 7.387911482327354 127.16519170121477 H 0.0 **** 0.06
28311 C 60.82737071788398 122.11299558034426 138.47330139324728 C 0.0 **** -0.24
28312 H 61.57546070638705 121.38065810452724 138.77564498494988 H 0.0 **** 0.06
28313 H 61.172064957717424 123.11334168048785 138.73519267663937 H 0.0 **** 0.06
28314 H 59.88791938678048 121.90569151094837 138.98586427614296 H 0.0 **** 0.06
28315 H 60.675067601216654 122.0519308715057 137.39560368284128 H 0.0 **** 0.06
28316 C 123.59276155759322 24.437032412940596 137.76927818098648 C 0.0 **** -0.24
28317 H 124.43412683527943 24.09281771692457 137.16710774940472 H 0.0 **** 0.06
28318 H 123.92981434194634 25.22009328514747 138.44960871160336 H 0.0 **** 0.06
28319 H 123.1939155817169 23.60257682552998 138.3451984935125 H 0.0 **** 0.06
28320 H 122.81651417481824 24.833429342444617 137.1157692600561 H 0.0 **** 0.06
28321 C 119.6770237335535 17.51306964316271 96.53124336645438 C 0.0 **** -0.24
28322 H 120.2623865313932 18.28996169966868 96.03853894914928 H 0.0 **** 0.06
28323 H 119.04727202918288 17.96536070657112 97.29735697933245 H 0.0 **** 0.06
28324 H 120.35015045064232 16.789865198721373 96.99391637668555 H 0.0 **** 0.06
28325 H 119.0506302521198 17.00771448844111 95.7966156831273 H 0.0 **** 0.06
28326 C 57.97487626458731 0.3333875068046268 51.083382274469656 C 0.0 **** -0.24
28327 H 58.73599726262324 -0.39047229847986387 51.37600373937896 H 0.0 **** 0.06
28328 H 58.40291627287486 1.0429024489918959 50.374027747850576 H 0.0 **** 0.06
28329 H 57.62355759518094 0.8680760369428242 51.96542298954118 H 0.0 **** 0.06
28330 H 57.13886276540407 -0.18679246020980145 50.616453271531725 H 0.0 **** 0.06
28331 C 143.37418786826925 92.92743500223105 73.41916037236456 C 0.0 **** -0.24
28332 H 144.16596610667042 92.17836473336737 73.43456955237639 H 0.0 **** 0.06
28333 H 143.5864996904506 93.69460027888302 74.16393457952944 H 0.0 **** 0.06
28334 H 142.42063635980662 92.4522847565662 73.64700726391675 H 0.0 **** 0.06
28335 H 143.32578555743962 93.38413483132666 72.4305730112801 H 0.0 **** 0.06
28336 C 68.20241455145714 51.884116448836494 2.161183103639587 C 0.0 **** -0.24
28337 H 67.83914515224419 50.93288955699364 1.773395541138342 H 0.0 **** 0.06
28338 H 67.38535466555825 52.60479971764633 2.1801626817644717 H 0.0 **** 0.06
28339 H 69.00126136373683 52.256367377693635 1.5183949845166467 H 0.0 **** 0.06
28340 H 68.58679130948354 51.74191234168097 3.1712375508030846 H 0.0 **** 0.06
28341 C 94.297578031164 128.55961873847943 131.80211453563 C 0.0 **** -0.24
28342 H 94.77531948104499 128.46028233083172 130.82828199943273 H 0.0 **** 0.06
28343 H 93.63873363340181 127.70819568327994 131.97253554969876 H 0.0 **** 0.06
28344 H 93.71533640820087 129.48055168499317 131.82852805274723 H 0.0 **** 0.06
28345 H 95.06085391247726 128.5904539298802 132.58010144385096 H 0.0 **** 0.06
28346 C 19.970049906799346 36.258833680355735 70.99800201167093 C 0.0 **** -0.24
28347 H 20.75721489913758 35.87796879909638 70.34857253889777 H 0.0 **** 0.06
28348 H 20.002765310430362 35.73588484985402 71.95337402124935 H 0.0 **** 0.06
28349 H 18.99962881343228 36.096847205292875 70.52775228723078 H 0.0 **** 0.06
28350 H 20.119764464484234 37.326592379109684 71.16300339466588 H 0.0 **** 0.06
28351 C 53.157204307057285 51.51780548445139 77.12617071902321 C 0.0 **** -0.24
28352 H 53.85763447940808 50.68347019568583 77.09329714075454 H 0.0 **** 0.06
28353 H 53.342086229697486 52.18151591103204 76.28173444807777 H 0.0 **** 0.06
28354 H 53.29217998944341 52.068475151681625 78.05775110212937 H 0.0 **** 0.06
28355 H 52.136853210096376 51.138085213233765 77.07360041400591 H 0.0 **** 0.06
28356 C 42.719225855054276 69.51467451500321 114.87951484075978 C 0.0 **** -0.24
28357 H 42.92502598651774 69.76175754429235 115.92080814781787 H 0.0 **** 0.06
28358 H 42.6237985776433 70.43334174121574 114.30018275370242 H 0.0 **** 0.06
28359 H 41.79026736468481 68.94817358991716 114.81828338083284 H 0.0 **** 0.06
28360 H 43.53669248843143 68.91542433247051 114.47964989563468 H 0.0 **** 0.06
28361 C 33.980617164417225 30.25944463674523 10.765039107678675 C 0.0 **** -0.24
28362 H 33.43579567393979 31.194565005331597 10.637524783416822 H 0.0 **** 0.06
28363 H 34.48467696818247 30.262343291605774 11.731232037596484 H 0.0 **** 0.06
28364 H 34.71855802518965 30.156974391305 9.969579109993667 H 0.0 **** 0.06
28365 H 33.28208483939602 29.423643702327354 10.722145265504352 H 0.0 **** 0.06
28366 C 100.20578294504185 35.60083112549679 42.93438713007099 C 0.0 **** -0.24
28367 H 100.42610200811455 36.66804839954643 42.948503400952944 H 0.0 **** 0.06
28368 H 101.11533338836644 35.04579158477426 42.704511976332626 H 0.0 **** 0.06
28369 H 99.45326232560186 35.39607526497945 42.17392925467408 H 0.0 **** 0.06
28370 H 99.82943783282013 35.29513440836093 43.910732031148555 H 0.0 **** 0.06
28371 C 50.80098997673565 38.92969797207779 7.411667993279281 C 0.0 **** -0.24
28372 H 50.609847064512124 38.14873783539265 8.146735395982631 H 0.0 **** 0.06
28373 H 50.4106728667835 39.87856163040014 7.7801836776093865 H 0.0 **** 0.06
28374 H 50.30784877440861 38.67334113275662 6.474195648773872 H 0.0 **** 0.06
28375 H 51.874713297656015 39.017705964545556 7.245733339798335 H 0.0 **** 0.06
28376 C 18.934093397210518 89.93527787224883 102.5290940810595 C 0.0 **** -0.24
28377 H 18.716409250257954 90.29385819211012 103.53549324431305 H 0.0 **** 0.06
28378 H 18.06641494249493 89.40433584940132 102.13632546555073 H 0.0 **** 0.06
28379 H 19.7891773760646 89.2610061954174 102.56136686947985 H 0.0 **** 0.06
28380 H 19.163820449758276 90.78398686353034 101.88381347300185 H 0.0 **** 0.06
28381 C 57.36282746550924 147.1536586921351 93.04743755379367 C 0.0 **** -0.24
28382 H 56.40929522150128 147.57584935423876 92.7288581765529 H 0.0 **** 0.06
28383 H 58.16130510852497 147.86764630803515 92.84638629331201 H 0.0 **** 0.06
28384 H 57.55216817555541 146.23033181085887 92.49908448772688 H 0.0 **** 0.06
28385 H 57.325401368435564 146.9405378708123 94.11568250770893 H 0.0 **** 0.06
28386 C 148.49277315983568 95.75901352081134 20.217295497267003 C 0.0 **** -0.24
28387 H 149.33855008362423 95.50767966889245 20.858514048992276 H 0.0 **** 0.06
28388 H 147.56678956947707 95.66001408994481 20.782167094858437 H 0.0 **** 0.06
28389 H 148.47162229475543 95.08210696492249 19.36251500906809 H 0.0 **** 0.06
28390 H 148.59719580789942 96.78510658925993 19.86544696508014 H 0.0 **** 0.06
28391 C 37.673875027761085 141.15042137344298 10.02379759267668 C 0.0 **** -0.24
28392 H 37.57823151744395 140.2718429282328 10.662017561121353 H 0.0 **** 0.06
28393 H 38.50760843787617 141.761917043536 10.370597497735758 H 0.0 **** 0.06
28394 H 36.75300951634546 141.73285713954317 10.067704430143422 H 0.0 **** 0.06
28395 H 37.85602411471626 140.83497491075164 8.996135319560715 H 0.0 **** 0.06
28396 C 100.4376897755194 11.784717874066693 88.40497483455033 C 0.0 **** -0.24
28397 H 101.40137891471217 11.86995725721782 88.90898678218392 H 0.0 **** 0.06
28398 H 100.59767883212544 11.656789762910854 87.33404840802504 H 0.0 **** 0.06
28399 H 99.85582134292926 12.689835212705262 88.58079643959462 H 0.0 **** 0.06
28400 H 99.89802111535543 10.923119445454851 88.79799820184962 H 0.0 **** 0.06
28401 C 26.954799939940195 70.1739441340095 30.384148138128374 C 0.0 **** -0.24
28402 H 27.807924681106805 70.29129015150596 31.05128269659609 H 0.0 **** 0.06
28403 H 26.17413301398691 69.604781491947 30.88973844109706 H 0.0 **** 0.06
28404 H 27.267534302206762 69.64280189273694 29.485453194165054 H 0.0 **** 0.06
28405 H 26.570361263411883 71.15580767571993 30.110600480514613 H 0.0 **** 0.06
28406 C 99.57149985782218 43.37658716026981 1.1390442702655221 C 0.0 **** -0.24
28407 H 100.0122184831187 43.016675756614205 0.20934089871215278 H 0.0 **** 0.06
28408 H 100.36332254476925 43.59403246550809 1.856449933669328 H 0.0 **** 0.06
28409 H 98.90992520908075 42.61208086837597 1.5476646745367795 H 0.0 **** 0.06
28410 H 98.99918317609271 44.28368319715534 0.9423187894472242 H 0.0 **** 0.06
28411 C 123.82432289251116 4.831604152961802 16.212194576114314 C 0.0 **** -0.24
28412 H 123.29449015550588 5.194603268696078 15.331959739687136 H 0.0 **** 0.06
28413 H 124.29697923744314 5.670115665009941 16.722565878728687 H 0.0 **** 0.06
28414 H 124.58689128866226 4.115140715809982 15.9073568234557 H 0.0 **** 0.06
28415 H 123.11824049823375 4.3464799523322455 16.886176510493158 H 0.0 **** 0.06
28416 C 113.23998689523648 90.11615660081108 134.24324577291375 C 0.0 **** -0.24
28417 H 114.09574471259049 89.75096680995486 133.6754698869976 H 0.0 **** 0.06
28418 H 112.32337101055936 89.90676688394822 133.6923122650031 H 0.0 **** 0.06
28419 H 113.33746485735037 91.1907383681773 134.394611292742 H 0.0 **** 0.06
28420 H 113.20563175506192 89.61446732809543 135.21074828562044 H 0.0 **** 0.06
28421 C 0.19449844731565236 130.0607348038382 14.452516109424778 C 0.0 **** -0.24
28422 H -0.2902970175587427 130.85460052723744 15.020350626585298 H 0.0 **** 0.06
28423 H 0.9821097938780952 129.6105257570041 15.056858454447422 H 0.0 **** 0.06
28424 H 0.626901394320015 130.47664673101397 13.542658190435532 H 0.0 **** 0.06
28425 H -0.5419629223414404 129.30055038973424 14.18991978067038 H 0.0 **** 0.06
28426 C 100.19210925680017 134.21666104856874 81.01609288581827 C 0.0 **** -0.24
28427 H 99.20390626095678 133.8036441101065 81.22022606958714 H 0.0 **** 0.06
28428 H 100.95260591922164 133.47274567375723 81.25435375342326 H 0.0 **** 0.06
28429 H 100.34736162336526 135.10512684660083 81.62744767654357 H 0.0 **** 0.06
28430 H 100.26241000977683 134.4848539584173 79.96180646295474 H 0.0 **** 0.06
28431 C 92.55327617627717 137.05570465602295 127.89252478784144 C 0.0 **** -0.24
28432 H 92.84358621340998 136.68218347216504 128.8737742148602 H 0.0 **** 0.06
28433 H 91.46608797640248 137.07931981459765 127.81966453400875 H 0.0 **** 0.06
28434 H 92.95476631833897 136.39889044666714 127.12035299917513 H 0.0 **** 0.06
28435 H 92.94984852557224 138.06173043491555 127.75525136982367 H 0.0 **** 0.06
28436 C 60.194133953318726 147.6477318837094 51.73984671717487 C 0.0 **** -0.24
28437 H 59.64064038952847 147.34513912321725 50.85173696781419 H 0.0 **** 0.06
28438 H 60.847297271980665 146.83395100975392 52.05607903671519 H 0.0 **** 0.06
28439 H 59.49421259194855 147.88525324694675 52.54107338906368 H 0.0 **** 0.06
28440 H 60.795280134578775 148.52767628867582 51.51041349263234 H 0.0 **** 0.06
28441 C 38.979201996690975 109.71501548562345 43.22605510896727 C 0.0 **** -0.24
28442 H 37.984915100393785 109.2709162094143 43.1764275822695 H 0.0 **** 0.06
28443 H 39.55945554294655 109.40516700626095 42.35622508558242 H 0.0 **** 0.06
28444 H 39.47953280620864 109.38216252217394 44.13500309449924 H 0.0 **** 0.06
28445 H 38.891261996938795 110.80172654241757 43.23710701282914 H 0.0 **** 0.06
28446 C 69.00248627317262 120.13896532210413 59.67223600244539 C 0.0 **** -0.24
28447 H 69.77347296731793 120.75574126249268 60.13393767756175 H 0.0 **** 0.06
28448 H 68.07707276627491 120.22808546232767 60.24136510080686 H 0.0 **** 0.06
28449 H 69.32585825108123 119.09764822117955 59.665396834947146 H 0.0 **** 0.06
28450 H 68.83354110801653 120.47438634241661 58.648244396465884 H 0.0 **** 0.06
28451 C 25.520481538534426 108.08928697709298 21.988357287479403 C 0.0 **** -0.24
28452 H 26.43911258588585 108.35118001206955 22.51405163520252 H 0.0 **** 0.06
28453 H 24.682940840244157 108.63211669913657 22.427996916656667 H 0.0 **** 0.06
28454 H 25.34475247962061 107.01676394837365 22.07610786074224 H 0.0 **** 0.06
28455 H 25.615748062311383 108.35661244128262 20.936447675913058 H 0.0 **** 0.06
28456 C 7.119093412839021 117.36825280713627 49.682112835380565 C 0.0 **** -0.24
28457 H 6.879904498696703 118.27296835769157 49.12405648991812 H 0.0 **** 0.06
28458 H 7.353492129191949 117.6293152154697 50.714929957055205 H 0.0 **** 0.06
28459 H 7.978636679286211 116.87650179539007 49.22703066067042 H 0.0 **** 0.06
28460 H 6.263273851802779 116.69326757666438 49.6638286633211 H 0.0 **** 0.06
28461 C 146.6922846335417 23.797323982297712 131.6919646102062 C 0.0 **** -0.24
28462 H 145.6849149324144 23.441771119600233 131.4768067405292 H 0.0 **** 0.06
28463 H 146.9764230652214 23.496170419688497 132.70021525524453 H 0.0 **** 0.06
28464 H 146.7169773024963 24.88419149704606 131.61611776203307 H 0.0 **** 0.06
28465 H 147.39023707975036 23.367285944071938 130.9739178595956 H 0.0 **** 0.06
28466 C 47.716202495767874 62.33400888203985 24.790872047016478 C 0.0 **** -0.24
28467 H 48.63903237518562 62.672626684540006 25.262304435232963 H 0.0 **** 0.06
28468 H 46.871130507195545 62.87325761582113 25.21946584094141 H 0.0 **** 0.06
28469 H 47.59197445410051 61.26508144101879 24.963967394891256 H 0.0 **** 0.06
28470 H 47.76485233056977 62.52652055577798 23.71921495425306 H 0.0 **** 0.06
28471 C 64.39998201710418 10.290862738666704 90.66158940059377 C 0.0 **** -0.24
28472 H 63.47573710186154 9.806299062260763 90.97501217126874 H 0.0 **** 0.06
28473 H 64.17340602741953 11.070606557525394 89.93324508332631 H 0.0 **** 0.06
28474 H 65.06173067939645 9.551997694532673 90.20870015484836 H 0.0 **** 0.06
28475 H 64.89003628150274 10.734384908680397 91.52798270873011 H 0.0 **** 0.06
28476 C 91.24815057208258 74.60224562318136 103.13105692627846 C 0.0 **** -0.24
28477 H 91.58962596992725 73.57037878148334 103.04168745323727 H 0.0 **** 0.06
28478 H 92.10541471586467 75.25523130783886 103.29415309246497 H 0.0 **** 0.06
28479 H 90.5611872886943 74.68584323484309 103.97248329054497 H 0.0 **** 0.06
28480 H 90.7379233442218 74.89551146392274 102.21431336508186 H 0.0 **** 0.06
28481 C 146.32149336640575 100.31954327716387 31.131637461003237 C 0.0 **** -0.24
28482 H 145.77370894637096 99.60387827764053 30.51800210790489 H 0.0 **** 0.06
28483 H 147.3929564349911 100.17909876939873 30.98439356303774 H 0.0 **** 0.06
28484 H 146.07528271208838 100.16073667227269 32.18151043357611 H 0.0 **** 0.06
28485 H 146.0442904389127 101.3329116917918 30.841912656932124 H 0.0 **** 0.06
28486 C 33.78902299127936 144.56828222295064 66.33021104140158 C 0.0 **** -0.24
28487 H 34.03916375029551 143.80516427006665 67.06754210117518 H 0.0 **** 0.06
28488 H 33.55279243406571 144.09088557312282 65.37963594331944 H 0.0 **** 0.06
28489 H 34.63813616584335 145.23919085581298 66.20040387031622 H 0.0 **** 0.06
28490 H 32.92605763503303 145.1373231002617 66.6765299268347 H 0.0 **** 0.06
28491 C 52.05551093105831 68.1416783281043 121.20898739175591 C 0.0 **** -0.24
28492 H 52.12348767842437 67.32337023854585 120.4924139465932 H 0.0 **** 0.06
28493 H 51.83297350901722 69.06906193830477 120.67981702858516 H 0.0 **** 0.06
28494 H 53.004073045787635 68.2420069751155 121.73601067587752 H 0.0 **** 0.06
28495 H 51.26149171556588 67.93194691005608 121.92528040472841 H 0.0 **** 0.06
28496 C 64.97375046032411 145.57107640573906 90.75441424728685 C 0.0 **** -0.24
28497 H 63.973909508686006 145.86070488014187 91.07814702552855 H 0.0 **** 0.06
28498 H 64.91044413067814 144.67106356189186 90.14259672355662 H 0.0 **** 0.06
28499 H 65.59437486343373 145.37384724629408 91.62848832411373 H 0.0 **** 0.06
28500 H 65.41487197405394 146.37838453892118 90.17014046080617 H 0.0 **** 0.06
28501 C 130.49341135584785 123.0961153426006 129.75666557178312 C 0.0 **** -0.24
28502 H 130.0649916383412 123.21168839567886 128.761299868982 H 0.0 **** 0.06
28503 H 130.8667967713694 122.07962344059464 129.8761812041523 H 0.0 **** 0.06
28504 H 129.7277746218741 123.29288452993083 130.50684671463068 H 0.0 **** 0.06
28505 H 131.31438656682263 123.80247357264577 129.88216162376423 H 0.0 **** 0.06
28506 C 142.85606789941994 56.49976332269168 140.94877938939956 C 0.0 **** -0.24
28507 H 142.26543500070093 55.599123677608674 141.11808831686128 H 0.0 **** 0.06
28508 H 142.3080560637588 57.36728695880896 141.3158532731874 H 0.0 **** 0.06
28509 H 143.04611419208587 56.613979451097265 139.88139727426548 H 0.0 **** 0.06
28510 H 143.80450356473295 56.41727697305632 141.47955078345652 H 0.0 **** 0.06
28511 C 106.56907151035327 123.0833703606019 61.2013412391924 C 0.0 **** -0.24
28512 H 106.76634954897023 122.92188210732296 60.14185816654398 H 0.0 **** 0.06
28513 H 107.24921953864978 123.84391842011387 61.585124772704916 H 0.0 **** 0.06
28514 H 106.7232522319645 122.15048217673827 61.744981267028294 H 0.0 **** 0.06
28515 H 105.53983792223241 123.41571989665611 61.332975027296555 H 0.0 **** 0.06
28516 C 34.76364562672262 77.33464771798704 124.42143100893024 C 0.0 **** -0.24
28517 H 35.415415233773956 78.103755331457 124.83453910755112 H 0.0 **** 0.06
28518 H 33.94225955549035 77.14538090877281 125.11261946773551 H 0.0 **** 0.06
28519 H 35.332676787895366 76.41744517389941 124.27308183827348 H 0.0 **** 0.06
28520 H 34.363121211775535 77.67332063900747 123.46570597267778 H 0.0 **** 0.06
28521 C 105.21553356384216 124.67672864471145 132.74712710197895 C 0.0 **** -0.24
28522 H 105.68032014050651 125.55221804489341 133.20153800058517 H 0.0 **** 0.06
28523 H 105.92384240253143 124.19861071144355 132.07115130130092 H 0.0 **** 0.06
28524 H 104.33033762778852 124.98472268948665 132.18935263174185 H 0.0 **** 0.06
28525 H 104.92651951615095 123.97292689913307 133.52798719531904 H 0.0 **** 0.06
28526 C 8.122181212617875 2.6061396020911047 73.77162966913156 C 0.0 **** -0.24
28527 H 8.316244938840555 3.6053267659968355 74.16020234687456 H 0.0 **** 0.06
28528 H 7.778659724524289 2.678607045219735 72.73835330548772 H 0.0 **** 0.06
28529 H 7.354539807973367 2.1229362365510838 74.37609940912141 H 0.0 **** 0.06
28530 H 9.03886891712284 2.0171679832233735 73.80950562309869 H 0.0 **** 0.06
28531 C 84.27026878217468 93.10594710982588 17.6499569749067 C 0.0 **** -0.24
28532 H 85.0887475550934 93.01076436512385 18.364043283261935 H 0.0 **** 0.06
28533 H 84.67034745678887 93.38366425096726 16.67512175547796 H 0.0 **** 0.06
28534 H 83.57781394748255 93.87425087571957 17.992285862960472 H 0.0 **** 0.06
28535 H 83.74604934850109 92.15313042648093 17.570258352075825 H 0.0 **** 0.06
28536 C 66.55555642076592 81.89660456931063 109.0181121734503 C 0.0 **** -0.24
28537 H 66.36765351066973 82.00586134401416 107.95045918602094 H 0.0 **** 0.06
28538 H 66.98999844263423 82.81785599220133 109.4059090522347 H 0.0 **** 0.06
28539 H 67.24755837202267 81.0708691941662 109.18323899933708 H 0.0 **** 0.06
28540 H 65.61701535773688 81.69183174686067 109.53284145620844 H 0.0 **** 0.06
28541 C 79.7787918879426 144.62372407650952 75.02297591536637 C 0.0 **** -0.24
28542 H 79.38410770604563 145.250163602087 74.22347833858407 H 0.0 **** 0.06
28543 H 78.96175951601516 144.30302632133777 75.67024678783633 H 0.0 **** 0.06
28544 H 80.50236875127736 145.19378421166041 75.60638270130212 H 0.0 **** 0.06
28545 H 80.266849741842 143.74919517843517 74.59296752675925 H 0.0 **** 0.06
28546 C 82.69780783934664 142.6893384544437 105.12118650458743 C 0.0 **** -0.24
28547 H 82.08516712748923 142.52248471410334 104.2357365411099 H 0.0 **** 0.06
28548 H 82.44862734927062 143.6558464380102 105.5591007438139 H 0.0 **** 0.06
28549 H 83.75123625353598 142.6783765136476 104.84172114089583 H 0.0 **** 0.06
28550 H 82.5075504039682 141.89966146336286 105.84864432050668 H 0.0 **** 0.06
28551 C 107.48407167161623 21.12106827697719 46.58336689009482 C 0.0 **** -0.24
28552 H 108.05247840557409 21.051768457782188 45.65635245000203 H 0.0 **** 0.06
28553 H 108.1649073762358 21.062219989814224 47.432315116942945 H 0.0 **** 0.06
28554 H 106.7685702239081 20.299831121903402 46.633404130983735 H 0.0 **** 0.06
28555 H 106.94946646341502 22.070297997343737 46.6118743726187 H 0.0 **** 0.06
28556 C 51.82741569215935 114.49271023536313 100.4142784370838 C 0.0 **** -0.24
28557 H 51.118624329857624 113.66948316147686 100.50305607150165 H 0.0 **** 0.06
28558 H 52.674523867577676 114.31661911869197 101.0784600397381 H 0.0 **** 0.06
28559 H 51.33637958208058 115.42536790089865 100.69220235669098 H 0.0 **** 0.06
28560 H 52.17927553200505 114.56015975858934 99.38530289627283 H 0.0 **** 0.06
28561 C 129.44436585296341 128.93469098550875 82.25240568691066 C 0.0 **** -0.24
28562 H 129.70393550685242 128.76542501810067 81.2063300724181 H 0.0 **** 0.06
28563 H 128.45641478635525 129.39157674170326 82.31115587524206 H 0.0 **** 0.06
28564 H 130.18058812916263 129.59778574111687 82.70599533113324 H 0.0 **** 0.06
28565 H 129.43756006661613 127.98280188528109 82.78289346796694 H 0.0 **** 0.06
28566 C 102.37897042681806 46.923661857483125 109.65879700023011 C 0.0 **** -0.24
28567 H 101.77433141494708 46.75938567551597 108.76641954942714 H 0.0 **** 0.06
28568 H 101.72505049480296 47.08605812273038 110.51500995387015 H 0.0 **** 0.06
28569 H 103.01108021672394 47.799664720531695 109.51254143753083 H 0.0 **** 0.06
28570 H 103.00499626378382 46.049602371439875 109.83902230304419 H 0.0 **** 0.06
28571 C 45.57244178597442 140.78678143795176 33.38952053412356 C 0.0 **** -0.24
28572 H 45.75134012410916 140.0729622817106 32.584705572034665 H 0.0 **** 0.06
28573 H 45.26813417651023 140.2513228760386 34.28851467719977 H 0.0 **** 0.06
28574 H 44.784208559102126 141.47806755053884 33.09297485702368 H 0.0 **** 0.06
28575 H 46.48769421231496 141.34394406909195 33.589108301139206 H 0.0 **** 0.06
28576 C 55.118479608625464 45.6121634413029 70.96350043810926 C 0.0 **** -0.24
28577 H 54.63474011024891 44.69909682051704 71.30996531925621 H 0.0 **** 0.06
28578 H 55.04896149424077 45.66904158497104 69.87604943494219 H 0.0 **** 0.06
28579 H 56.167096793156986 45.60257770692559 71.26057718225496 H 0.0 **** 0.06
28580 H 54.62308217229777 46.47599806455074 71.40491243140937 H 0.0 **** 0.06
28581 C 83.5467549324124 35.472099709273905 134.98506466643457 C 0.0 **** -0.24
28582 H 82.72689678989457 36.18985716143999 134.95482635672718 H 0.0 **** 0.06
28583 H 83.15764446518205 34.48718930946188 135.24685485225672 H 0.0 **** 0.06
28584 H 84.27637781133654 35.78504701406143 135.73092314317807 H 0.0 **** 0.06
28585 H 84.02400155969411 35.425897282757674 134.0058029528583 H 0.0 **** 0.06
28586 C 98.98373701318059 30.142453424695674 67.81637894671422 C 0.0 **** -0.24
28587 H 98.34912115060797 29.9581730306067 68.68325259919297 H 0.0 **** 0.06
28588 H 99.35943860291461 29.193791345646645 67.43259506236905 H 0.0 **** 0.06
28589 H 99.82203441774504 30.774487357150974 68.1080706055073 H 0.0 **** 0.06
28590 H 98.40305648474937 30.643922755125487 67.04164599503639 H 0.0 **** 0.06
28591 C 135.89334291176408 8.952873442641561 12.666281824880144 C 0.0 **** -0.24
28592 H 135.25214508309773 9.035199007856676 13.54434694723264 H 0.0 **** 0.06
28593 H 135.99845439731936 7.904181090256401 12.390509520852476 H 0.0 **** 0.06
28594 H 136.874166525999 9.370590821109573 12.892745291438416 H 0.0 **** 0.06
28595 H 135.44586855845736 9.503566621488545 11.83905259504715 H 0.0 **** 0.06
28596 C 40.059951245357524 2.763971848218752 93.5555942501926 C 0.0 **** -0.24
28597 H 39.546799645464546 2.951946562651102 92.61271068855723 H 0.0 **** 0.06
28598 H 41.05232807753646 3.213227445171885 93.52569283654067 H 0.0 **** 0.06
28599 H 40.151916586871664 1.6888228206542735 93.71077299269791 H 0.0 **** 0.06
28600 H 39.488048417219034 3.200795361399596 94.3737420523158 H 0.0 **** 0.06
28601 C 33.432273793887354 74.45248955753533 84.22714249029198 C 0.0 **** -0.24
28602 H 34.04066658850788 74.18050613149256 85.09026747757305 H 0.0 **** 0.06
28603 H 34.02644841805506 75.05317346091249 83.53894206505771 H 0.0 **** 0.06
28604 H 32.5679980944507 75.02876747498999 84.55949142282591 H 0.0 **** 0.06
28605 H 33.0935492101022 73.5479149947625 83.72263483028502 H 0.0 **** 0.06
28606 C 61.305107681995025 47.83736565174044 58.54425168844361 C 0.0 **** -0.24
28607 H 60.398388732557066 48.27267286646324 58.96577500162637 H 0.0 **** 0.06
28608 H 62.00655589359252 47.61172986927076 59.3473502980231 H 0.0 **** 0.06
28609 H 61.75958651046301 48.54702683859867 57.852450053521395 H 0.0 **** 0.06
28610 H 61.053478379506544 46.920298395245965 58.01135223025534 H 0.0 **** 0.06
28611 C 110.31834905910942 47.093554658023294 36.840099721017594 C 0.0 **** -0.24
28612 H 110.4823263108069 47.28293029872928 35.779169553922685 H 0.0 **** 0.06
28613 H 111.1294972081618 46.477467822049135 37.22855459123741 H 0.0 **** 0.06
28614 H 109.36971771470458 46.572173584698334 36.972933750569325 H 0.0 **** 0.06
28615 H 110.29016526352525 48.04118518361888 37.3783511114716 H 0.0 **** 0.06
28616 C 65.92011092577938 13.08540163361377 50.53314760967284 C 0.0 **** -0.24
28617 H 66.37749798473244 12.604666104463803 51.398590246047746 H 0.0 **** 0.06
28618 H 66.5300501245282 13.934775250259094 50.22527081248046 H 0.0 **** 0.06
28619 H 64.92007213552668 13.430748281864396 50.7960612980022 H 0.0 **** 0.06
28620 H 65.85365909578512 12.369568449967204 49.71404109709404 H 0.0 **** 0.06
28621 C 3.047598638505235 146.2512679695635 8.677535330437777 C 0.0 **** -0.24
28622 H 3.020732755571032 146.09886638792324 7.598430851084196 H 0.0 **** 0.06
28623 H 2.369721847670462 147.0612444848265 8.946627472143774 H 0.0 **** 0.06
28624 H 4.061677153696564 146.5080997797425 8.983003254535333 H 0.0 **** 0.06
28625 H 2.736854586926654 145.3346150704169 9.181093831654515 H 0.0 **** 0.06
28626 C 110.26741160376596 107.31309429488334 120.20837553269354 C 0.0 **** -0.24
28627 H 109.45707444562723 107.81942854225599 119.68265046049896 H 0.0 **** 0.06
28628 H 110.74714670267653 106.60146938833765 119.5353987423079 H 0.0 **** 0.06
28629 H 109.86563929724375 106.78356569697786 121.07195062636481 H 0.0 **** 0.06
28630 H 110.99987840905956 108.04874418938925 120.54142825256787 H 0.0 **** 0.06
28631 C 22.955849223890766 144.15637972012792 124.35722924050107 C 0.0 **** -0.24
28632 H 23.294380493187063 143.20441133003098 123.94999196821205 H 0.0 **** 0.06
28633 H 23.817504015660504 144.73442827907047 124.69309143580251 H 0.0 **** 0.06
28634 H 22.289511315305333 143.97442050445804 125.20128680490795 H 0.0 **** 0.06
28635 H 22.42206267864188 144.71317869014132 123.58681615068441 H 0.0 **** 0.06
28636 C 147.40465938665375 80.6148294944004 63.403968399488534 C 0.0 **** -0.24
28637 H 147.11275474099688 80.34031246690387 64.41773640556407 H 0.0 **** 0.06
28638 H 148.28443267198077 81.25800583376156 63.44085580689824 H 0.0 **** 0.06
28639 H 146.58492945454475 81.14782966699869 62.921036540091535 H 0.0 **** 0.06
28640 H 147.63652067909248 79.71317000993736 62.83624484540056 H 0.0 **** 0.06
28641 C 71.68282389398702 69.27840005650074 37.90824620580531 C 0.0 **** -0.24
28642 H 71.31648169814552 70.12447377028157 37.32642392452186 H 0.0 **** 0.06
28643 H 71.78371163015696 68.40769217399938 37.25849623931617 H 0.0 **** 0.06
28644 H 70.97665762417698 69.05449406960969 38.707547010811766 H 0.0 **** 0.06
28645 H 72.65325530170873 69.52536461499311 38.33804714791853 H 0.0 **** 0.06
28646 C 53.95055814390693 71.11775045982587 82.46017226040092 C 0.0 **** -0.24
28647 H 54.51590203698113 70.96827930671759 83.38024462427954 H 0.0 **** 0.06
28648 H 53.70045413609974 72.17257783836854 82.35507895461706 H 0.0 **** 0.06
28649 H 53.03485093288603 70.52780000253853 82.49710786444096 H 0.0 **** 0.06
28650 H 54.55334896657904 70.80044796397442 81.60819344616141 H 0.0 **** 0.06
28651 C 103.25129106005467 105.30310499807679 107.30455624208405 C 0.0 **** -0.24
28652 H 104.08482558703996 104.77867971129622 106.8370995034757 H 0.0 **** 0.06
28653 H 103.53149124571327 106.34006037333755 107.4873590225232 H 0.0 **** 0.06
28654 H 103.00424056785398 104.82117415482257 108.25083221835352 H 0.0 **** 0.06
28655 H 102.3854103117737 105.27067490989138 106.64298514495654 H 0.0 **** 0.06
28656 C 45.832572659932055 11.607627643253835 8.978063384234595 C 0.0 **** -0.24
28657 H 45.30560111800497 11.59178894556544 9.931677344417565 H 0.0 **** 0.06
28658 H 45.13530893449811 11.372913164939462 8.173228041811718 H 0.0 **** 0.06
28659 H 46.63322945361638 10.86805228454591 8.992536668965407 H 0.0 **** 0.06
28660 H 46.255915546333085 12.599032334557819 8.813664297021148 H 0.0 **** 0.06
28661 C 23.403457996316035 36.762859095334704 134.8900799315145 C 0.0 **** -0.24
28662 H 22.64777881500197 36.5485915442047 134.13390343136135 H 0.0 **** 0.06
28663 H 24.348696849191697 36.3032977876064 134.59934390118102 H 0.0 **** 0.06
28664 H 23.082494099067503 36.35889884324942 135.8496083213764 H 0.0 **** 0.06
28665 H 23.534471569783307 37.841467716278686 134.97598897756444 H 0.0 **** 0.06
28666 C 88.03497682855574 88.69025440176756 25.019748593053492 C 0.0 **** -0.24
28667 H 87.55391193259877 88.87080277044993 25.980893912894686 H 0.0 **** 0.06
28668 H 87.9350547473107 89.57627527980219 24.392121239064778 H 0.0 **** 0.06
28669 H 87.55876649685388 87.84163609893665 24.52862418837347 H 0.0 **** 0.06
28670 H 89.09084684824293 88.47409036471532 25.177568222653804 H 0.0 **** 0.06
28671 C 85.82522431647277 4.744361635829787 56.74742020373456 C 0.0 **** -0.24
28672 H 85.61142385759767 4.208242779462026 57.672444227737486 H 0.0 **** 0.06
28673 H 86.07128452428016 4.0291849353041655 55.962648812145275 H 0.0 **** 0.06
28674 H 86.66734747319491 5.4180275524909405 56.90479648201146 H 0.0 **** 0.06
28675 H 84.94881762973769 5.32042536637179 56.45190142090428 H 0.0 **** 0.06
28676 C 135.9097699495876 121.6610558011145 26.89917730497396 C 0.0 **** -0.24
28677 H 135.1697939765117 121.31670095997258 26.17736517445968 H 0.0 **** 0.06
28678 H 136.85706587854577 121.8408934180451 26.389981497109574 H 0.0 **** 0.06
28679 H 136.04876524723977 120.9005510219978 27.667834112114093 H 0.0 **** 0.06
28680 H 135.56412946560107 122.58582032704054 27.360312514896776 H 0.0 **** 0.06
28681 C 136.64534770930842 137.6827398337416 110.73197994365817 C 0.0 **** -0.24
28682 H 136.44142361852684 137.33008439406953 109.72115920021385 H 0.0 **** 0.06
28683 H 136.20063025750122 138.66945778383945 110.86913545898243 H 0.0 **** 0.06
28684 H 137.72290630974967 137.74646517078133 110.8841773058564 H 0.0 **** 0.06
28685 H 136.2170862480917 136.9870504776536 111.45303950822979 H 0.0 **** 0.06
28686 C 120.98572568066062 80.67328203669192 128.24269133381594 C 0.0 **** -0.24
28687 H 119.99776447596786 80.47811721926345 128.65955921413462 H 0.0 **** 0.06
28688 H 121.40519801624662 81.56670324490617 128.70645531425538 H 0.0 **** 0.06
28689 H 120.90206982970265 80.82702801820378 127.16708576682807 H 0.0 **** 0.06
28690 H 121.63804644306639 79.82180710946616 128.43958622644806 H 0.0 **** 0.06
28691 C 113.1840680563764 95.61804512969714 118.87120315353474 C 0.0 **** -0.24
28692 H 112.944390764051 95.59826040516727 119.93436158263967 H 0.0 **** 0.06
28693 H 114.26622815930058 95.5962546409927 118.74192757344264 H 0.0 **** 0.06
28694 H 112.78245304677769 96.52844741574232 118.42477444282582 H 0.0 **** 0.06
28695 H 112.74246958927002 94.7489144125311 118.38313748947729 H 0.0 **** 0.06
28696 C 64.41170806275494 34.86962881274165 145.22001931843013 C 0.0 **** -0.24
28697 H 64.88088592082349 35.3508832088055 144.36230386322623 H 0.0 **** 0.06
28698 H 64.45807522265947 33.78707130877015 145.09850039793915 H 0.0 **** 0.06
28699 H 63.37090851136959 35.183468324729105 145.28908074496326 H 0.0 **** 0.06
28700 H 64.93853203641117 35.15650051309535 146.12976026439696 H 0.0 **** 0.06
28701 C 82.24410056911432 77.36547013475311 60.47842583884318 C 0.0 **** -0.24
28702 H 82.38936375201797 76.44872968484864 59.9073890445718 H 0.0 **** 0.06
28703 H 83.03171351923663 78.07692545933193 60.22840648173644 H 0.0 **** 0.06
28704 H 82.28192371290862 77.1398793908063 61.54355853627567 H 0.0 **** 0.06
28705 H 81.27376863931926 77.79564860218264 60.23203004583428 H 0.0 **** 0.06
28706 C 28.586095367417045 60.42716882871338 52.094965653586144 C 0.0 **** -0.24
28707 H 29.62336088762342 60.1627282361855 52.29865136558196 H 0.0 **** 0.06
28708 H 28.45558705676882 60.58869787104766 51.025563772475266 H 0.0 **** 0.06
28709 H 28.331894892390835 61.34043073380013 52.63526592744539 H 0.0 **** 0.06
28710 H 27.933478541705227 59.61781295023917 52.42338284384729 H 0.0 **** 0.06
28711 C 2.0431509398736125 29.607827180510355 144.16443510820184 C 0.0 **** -0.24
28712 H 1.8893897115248137 29.51018353760253 143.08957851234356 H 0.0 **** 0.06
28713 H 2.048578858429238 30.664175039546677 144.43587990235181 H 0.0 **** 0.06
28714 H 2.997597607095628 29.157610337918783 144.4363777859492 H 0.0 **** 0.06
28715 H 1.2370803489501156 29.10043413398634 144.6939546674886 H 0.0 **** 0.06
28716 C 133.40570535437192 138.43352681741976 125.65119052076844 C 0.0 **** -0.24
28717 H 133.25721393957693 137.59388774759736 124.97365753828062 H 0.0 **** 0.06
28718 H 133.86990520988817 138.07931254289693 126.57213745832264 H 0.0 **** 0.06
28719 H 132.4425549481555 138.88929800372517 125.88182100830323 H 0.0 **** 0.06
28720 H 134.05288738504893 139.17241188452198 125.17768255512713 H 0.0 **** 0.06
28721 C 90.24323108470227 17.88548352790616 4.788520518378164 C 0.0 **** -0.24
28722 H 89.44040455749024 17.983329012413094 5.519091734890992 H 0.0 **** 0.06
28723 H 90.46300175951947 16.82921562947746 4.628856772198503 H 0.0 **** 0.06
28724 H 91.13541002590577 18.390316967875833 5.160457956397124 H 0.0 **** 0.06
28725 H 89.93514280882661 18.3400312840526 3.8476781380535954 H 0.0 **** 0.06
28726 C 95.74193729573369 134.43364077795633 33.95149397027402 C 0.0 **** -0.24
28727 H 94.77074227648853 134.06796799618414 34.28716224419176 H 0.0 **** 0.06
28728 H 96.06791329231726 135.24543908738738 34.60236082878141 H 0.0 **** 0.06
28729 H 95.6575286980575 134.79854830107348 32.92816843603336 H 0.0 **** 0.06
28730 H 96.46852252528386 133.62215760246596 33.98952600353346 H 0.0 **** 0.06
28731 C 127.84565273161995 24.882489022644506 18.545601327547416 C 0.0 **** -0.24
28732 H 128.30945670370681 24.682690472558704 17.57889767517267 H 0.0 **** 0.06
28733 H 128.538990044582 25.44423307481196 19.171469899760154 H 0.0 **** 0.06
28734 H 127.60005428214957 23.937791651036548 19.032373163765158 H 0.0 **** 0.06
28735 H 126.93565373540531 25.462752912647716 18.397560529258215 H 0.0 **** 0.06
28736 C 58.103861674079056 52.467820132077506 5.457195799939711 C 0.0 **** -0.24
28737 H 57.094742455906314 52.58236809828023 5.852075052278678 H 0.0 **** 0.06
28738 H 58.14930207962999 52.88608483485076 4.451283119952166 H 0.0 **** 0.06
28739 H 58.362085003493775 51.40956254568742 5.422741994364969 H 0.0 **** 0.06
28740 H 58.80840626922759 52.99287935907313 6.102536191592151 H 0.0 **** 0.06
28741 C 147.67931434038462 130.4828253616007 76.33873840316357 C 0.0 **** -0.24
28742 H 148.70770338110628 130.75449788395187 76.10391624127169 H 0.0 **** 0.06
28743 H 147.22242113555126 130.0076616719942 75.47011329097938 H 0.0 **** 0.06
28744 H 147.1175595475617 131.37918392000097 76.60141380817356 H 0.0 **** 0.06
28745 H 147.6695723334359 129.78897380792057 77.17968764126738 H 0.0 **** 0.06
28746 C 58.56709412188843 17.23857515507467 149.8414059733612 C 0.0 **** -0.24
28747 H 58.54037566763404 17.027065226680463 148.77247886809818 H 0.0 **** 0.06
28748 H 57.62710426443098 17.698722392554316 150.14460894193755 H 0.0 **** 0.06
28749 H 59.391680605962875 17.91868036566825 150.05629789286502 H 0.0 **** 0.06
28750 H 58.71115710632654 16.308349645499163 150.39241949372902 H 0.0 **** 0.06
28751 C 112.18859495399464 111.97220401736695 137.4708777975504 C 0.0 **** -0.24
28752 H 112.85828976515661 111.77084619766583 136.63576264879165 H 0.0 **** 0.06
28753 H 111.18378123115481 111.63083916098503 137.2219342240655 H 0.0 **** 0.06
28754 H 112.16999409034678 113.04380447302373 137.6710926297861 H 0.0 **** 0.06
28755 H 112.54327576261916 111.44442856023431 138.35641327948244 H 0.0 **** 0.06
28756 C 56.716699023361315 30.984022841197316 99.94255334232477 C 0.0 **** -0.24
28757 H 55.72680627733415 31.347125127266224 100.22044108228062 H 0.0 **** 0.06
28758 H 56.96933082318391 31.346509690215214 98.94608661231996 H 0.0 **** 0.06
28759 H 56.717059021668334 29.89404636552206 99.9453164719522 H 0.0 **** 0.06
28760 H 57.45132521258009 31.349348799967274 100.65976374986468 H 0.0 **** 0.06
28761 C 81.00345717856796 1.933175941069976 6.265780172332203 C 0.0 **** -0.24
28762 H 81.25059145250702 2.7537293747400327 5.5909992777027675 H 0.0 **** 0.06
28763 H 81.89600967768912 1.336481872405784 6.451884122043069 H 0.0 **** 0.06
28764 H 80.23470609092024 1.3078037045247584 5.811648228856317 H 0.0 **** 0.06
28765 H 80.6328119519343 2.3379843225702075 7.20835315735372 H 0.0 **** 0.06
28766 C 144.29569825854418 82.3484522431193 34.14350552428655 C 0.0 **** -0.24
28767 H 145.24135071643423 82.60243272386687 34.62278189700676 H 0.0 **** 0.06
28768 H 143.58196914896055 82.01915946426367 34.89915328273652 H 0.0 **** 0.06
28769 H 144.45779387163677 81.54738412564345 33.422666881840584 H 0.0 **** 0.06
28770 H 143.9026282051518 83.22583767392253 33.6297193534613 H 0.0 **** 0.06
28771 C 5.7853530088925424 62.749558893744705 115.41891568564542 C 0.0 **** -0.24
28772 H 6.150722715500564 62.09643092664734 116.21150784182676 H 0.0 **** 0.06
28773 H 6.472820380163995 62.712440772007355 114.57306440343554 H 0.0 **** 0.06
28774 H 5.720932790828641 63.77220056427707 115.79080752243165 H 0.0 **** 0.06
28775 H 4.798153943860598 62.41529753790094 115.10009311782237 H 0.0 **** 0.06
28776 C 63.57518021926845 58.43468242456906 129.2987699090704 C 0.0 **** -0.24
28777 H 64.5607686295833 58.34461629907625 128.84114987909857 H 0.0 **** 0.06
28778 H 62.85823159585976 57.837778708909696 128.7337989713031 H 0.0 **** 0.06
28779 H 63.26540290175856 59.47930929071261 129.29101251137345 H 0.0 **** 0.06
28780 H 63.61809446464167 58.07546998282942 130.3263934920975 H 0.0 **** 0.06
28781 C 23.804263691436148 112.27940516971704 74.84614106075563 C 0.0 **** -0.24
28782 H 24.0268678745419 112.81668151435282 73.92343306470686 H 0.0 **** 0.06
28783 H 22.73722702106265 112.34655459164584 75.05657431781148 H 0.0 **** 0.06
28784 H 24.36701915327049 112.72155020976088 75.6673057693797 H 0.0 **** 0.06
28785 H 24.087580544462135 111.23284046477274 74.73285657938251 H 0.0 **** 0.06
28786 C 59.832844252462365 6.944380618834231 25.33105143680214 C 0.0 **** -0.24
28787 H 60.79378305555704 6.754026203224669 24.853331552579995 H 0.0 **** 0.06
28788 H 59.99207222751991 7.494645052225593 26.259085938430076 H 0.0 **** 0.06
28789 H 59.34143107778405 5.996878790023686 25.549534431145617 H 0.0 **** 0.06
28790 H 59.205981305801856 7.533527768634087 24.66233480483143 H 0.0 **** 0.06
28791 C 136.60939717463938 88.18717404048962 15.501485454260234 C 0.0 **** -0.24
28792 H 137.03250960951195 88.30973527678933 16.498691103941297 H 0.0 **** 0.06
28793 H 136.65278054487865 89.13708456009635 14.969113071037498 H 0.0 **** 0.06
28794 H 135.5708297323716 87.8641010793965 15.584467853523932 H 0.0 **** 0.06
28795 H 137.18002723673922 87.43667758686739 14.954516637343346 H 0.0 **** 0.06
28796 C 87.7592656684317 39.25046562369212 127.89030732672265 C 0.0 **** -0.24
28797 H 87.19938573489553 40.1580467959829 127.66568243504452 H 0.0 **** 0.06
28798 H 88.69948757724296 39.25904842815831 127.33988154319017 H 0.0 **** 0.06
28799 H 87.17234997447773 38.380396359574036 127.5954481406716 H 0.0 **** 0.06
28800 H 87.96350148446422 39.20508083573989 128.9603916521922 H 0.0 **** 0.06
28801 C 35.63221307206186 80.2222115646735 11.310038282990945 C 0.0 **** -0.24
28802 H 35.85330449056636 81.18624173978702 10.852302685511077 H 0.0 **** 0.06
28803 H 36.452344436928 79.93680897143304 11.970906263121307 H 0.0 **** 0.06
28804 H 35.513388441793325 79.46886656699792 10.531440507096526 H 0.0 **** 0.06
28805 H 34.71043922053343 80.29628892525125 11.886987147386009 H 0.0 **** 0.06
28806 C 78.01249106946256 61.86475349880432 6.072210780315629 C 0.0 **** -0.24
28807 H 77.47369857805498 61.294732103996836 6.8294741196570214 H 0.0 **** 0.06
28808 H 79.05514825207706 61.97412686329547 6.373057926531317 H 0.0 **** 0.06
28809 H 77.5591067156443 62.84984034592037 5.966930316480585 H 0.0 **** 0.06
28810 H 77.96246836758195 61.33791240785469 5.119239803797512 H 0.0 **** 0.06
28811 C 11.043680978498713 35.79403355040939 102.18095817276259 C 0.0 **** -0.24
28812 H 10.253965686560804 36.00394211079965 102.90194195668249 H 0.0 **** 0.06
28813 H 11.737814486417534 35.06725239342109 102.6031492588001 H 0.0 **** 0.06
28814 H 11.57813971549109 36.715417779366945 101.94950958882464 H 0.0 **** 0.06
28815 H 10.603964861946764 35.39103886818907 101.26823448353207 H 0.0 **** 0.06
28816 C 48.877962202323346 88.93393211210108 28.402749436859807 C 0.0 **** -0.24
28817 H 48.91652444784424 89.99511043921967 28.15814778138818 H 0.0 **** 0.06
28818 H 49.833029793336294 88.46991640703394 28.1564167202381 H 0.0 **** 0.06
28819 H 48.08311764890087 88.45715631714981 27.828723758784122 H 0.0 **** 0.06
28820 H 48.67917691921218 88.81354528500106 29.467709487028856 H 0.0 **** 0.06
28821 C 23.034384394429424 78.03406107707195 104.62512520140564 C 0.0 **** -0.24
28822 H 23.723880788127943 77.19699800604451 104.52012241382045 H 0.0 **** 0.06
28823 H 22.46918052660071 77.92478972845933 105.55032400043399 H 0.0 **** 0.06
28824 H 22.347000671538694 78.04673054626147 103.77870708868392 H 0.0 **** 0.06
28825 H 23.59696137780206 78.96783630903255 104.65003448300354 H 0.0 **** 0.06
28826 C 118.2591375898298 8.883585425184698 111.61627576569128 C 0.0 **** -0.24
28827 H 119.18299318332495 9.174359444554312 111.11424302904453 H 0.0 **** 0.06
28828 H 117.41225399554119 9.355467589143089 111.11818352494657 H 0.0 **** 0.06
28829 H 118.29487425253515 9.205917240704451 112.65709976113885 H 0.0 **** 0.06
28830 H 118.14835761115725 7.800320551421976 111.57405643506581 H 0.0 **** 0.06
28831 C 81.5425787923646 82.73872747863521 46.54723292465874 C 0.0 **** -0.24
28832 H 82.60880469588287 82.5640553868879 46.40233821975886 H 0.0 **** 0.06
28833 H 81.29167143278787 82.60123970507641 47.5995960452056 H 0.0 **** 0.06
28834 H 80.97293509171035 82.03248883855332 45.94216469064784 H 0.0 **** 0.06
28835 H 81.29690945788369 83.75615718065961 46.244584899731734 H 0.0 **** 0.06
28836 C 10.60206675811478 18.885544017773704 12.845289551781178 C 0.0 **** -0.24
28837 H 10.890552416251538 18.978490800979827 13.89186222980183 H 0.0 **** 0.06
28838 H 10.514928086760214 19.877918645675607 12.40230427765843 H 0.0 **** 0.06
28839 H 9.643008890272547 18.37153316918107 12.776599233235373 H 0.0 **** 0.06
28840 H 11.359798372768388 18.313613192374866 12.308775384527735 H 0.0 **** 0.06
28841 C 54.361931577972996 39.99876112701308 66.89647454051605 C 0.0 **** -0.24
28842 H 54.38410437604617 40.6936085834936 66.05736499011344 H 0.0 **** 0.06
28843 H 55.1013420837111 39.21289208052218 66.73699259841777 H 0.0 **** 0.06
28844 H 53.369823899933806 39.55380974431149 66.97281656925246 H 0.0 **** 0.06
28845 H 54.5919351036564 40.53306304163465 67.81733243514641 H 0.0 **** 0.06
28846 C 27.685101191857427 32.384961471747005 93.37707049880007 C 0.0 **** -0.24
28847 H 27.489424792430697 31.569059731067455 94.07361024525223 H 0.0 **** 0.06
28848 H 27.583094140360657 33.33755911387641 93.89612805516836 H 0.0 **** 0.06
28849 H 26.96966655091731 32.33931030531053 92.55534136563493 H 0.0 **** 0.06
28850 H 28.69716643912045 32.29093864142561 92.98335343371062 H 0.0 **** 0.06
28851 C 11.979715210616348 109.54105972325685 4.83267371320764 C 0.0 **** -0.24
28852 H 12.881948405155015 108.97339620185552 5.0580241831331705 H 0.0 **** 0.06
28853 H 11.776242601297497 109.49011551128139 3.7630424363651684 H 0.0 **** 0.06
28854 H 12.121552159055852 110.58101775176785 5.127222644950422 H 0.0 **** 0.06
28855 H 11.138489162459223 109.11987501101767 5.383661623824082 H 0.0 **** 0.06
28856 C 122.52672483309732 36.79330452819451 26.293473291357827 C 0.0 **** -0.24
28857 H 121.45851338087573 36.984194107273 26.185519668669116 H 0.0 **** 0.06
28858 H 123.08143859286832 37.71077271540187 26.097722833287804 H 0.0 **** 0.06
28859 H 122.83184773953423 36.02432018147101 25.58356302844325 H 0.0 **** 0.06
28860 H 122.73336476287847 36.4533076871883 27.308700656779337 H 0.0 **** 0.06
28861 C 79.73105797172957 119.94949652736048 106.59869599498737 C 0.0 **** -0.24
28862 H 80.41660364183342 120.78882366425793 106.71918917571494 H 0.0 **** 0.06
28863 H 80.28502768820982 119.01362952473059 106.67919463361417 H 0.0 **** 0.06
28864 H 79.25478153856915 120.00679138624739 105.62046314747496 H 0.0 **** 0.06
28865 H 78.96902067931404 119.98984101787048 107.37776660399837 H 0.0 **** 0.06
28866 C 35.786058492888344 117.23484286480193 99.92999585719139 C 0.0 **** -0.24
28867 H 36.011211291579045 117.65368930844015 100.91104803491223 H 0.0 **** 0.06
28868 H 36.278952778855256 117.82823797823671 99.15961026378838 H 0.0 **** 0.06
28869 H 34.70808986273876 117.24965620752137 99.76730995446994 H 0.0 **** 0.06
28870 H 36.146281845148124 116.2065935367764 99.88270967330672 H 0.0 **** 0.06
28871 C 146.02935194656877 34.970338673291536 9.261265296309254 C 0.0 **** -0.24
28872 H 144.97055255854534 34.975824182918814 8.998936657614735 H 0.0 **** 0.06
28873 H 146.25568228739823 35.840892391388024 9.876606072559085 H 0.0 **** 0.06
28874 H 146.6288901263255 35.00224915531682 8.350937215558346 H 0.0 **** 0.06
28875 H 146.2601297888735 34.06112749987187 9.815793103103204 H 0.0 **** 0.06
28876 C 77.12710208316219 33.96275875814382 16.671801700592454 C 0.0 **** -0.24
28877 H 78.07217346915996 33.55119161116005 17.024548070395582 H 0.0 **** 0.06
28878 H 77.32260841250286 34.747111994770364 15.941107009602547 H 0.0 **** 0.06
28879 H 76.57605119281737 34.38061413496797 17.514663673285185 H 0.0 **** 0.06
28880 H 76.53694978619029 33.17254286226131 16.208992296573513 H 0.0 **** 0.06
28881 C 38.407888077938644 13.706965748575044 16.654993374892342 C 0.0 **** -0.24
28882 H 39.00476968105197 14.603046114935154 16.489824509059076 H 0.0 **** 0.06
28883 H 38.396799601737186 13.104504513811008 15.746010407497494 H 0.0 **** 0.06
28884 H 37.38764244705128 13.992105024085078 16.914130357671297 H 0.0 **** 0.06
28885 H 38.840433072616804 13.127684590608425 17.470305355314707 H 0.0 **** 0.06
28886 C 86.96270181597562 64.9182144514663 9.906499206727858 C 0.0 **** -0.24
28887 H 86.34813475082159 65.71344408835377 10.33052243219953 H 0.0 **** 0.06
28888 H 86.68691270633599 64.7639200761722 8.863370215600241 H 0.0 **** 0.06
28889 H 86.80093038945698 63.99714880848343 10.465713422803645 H 0.0 **** 0.06
28890 H 88.01378236237342 65.20075350721437 9.96744064041831 H 0.0 **** 0.06
28891 C 51.85665265919198 95.21465207278348 103.90867469490557 C 0.0 **** -0.24
28892 H 51.24126710265395 95.90777222297069 103.33470468304294 H 0.0 **** 0.06
28893 H 51.25577467505906 94.35400983517212 104.20358670512927 H 0.0 **** 0.06
28894 H 52.2338466935725 95.71661156978249 104.79963754805881 H 0.0 **** 0.06
28895 H 52.695153415313285 94.88077873676386 103.29793535506924 H 0.0 **** 0.06
28896 C 50.49873621125107 5.604891105286697 41.57538185072616 C 0.0 **** -0.24
28897 H 50.46801117641863 5.48682305708067 40.492150851271674 H 0.0 **** 0.06
28898 H 50.698023663403575 6.6485120029849725 41.82124453828868 H 0.0 **** 0.06
28899 H 51.28821300590769 4.976576883797151 41.98623105372536 H 0.0 **** 0.06
28900 H 49.539197168051146 5.307712075792551 41.99911755876275 H 0.0 **** 0.06
28901 C 86.57938673239133 49.95197850287255 129.49414089369145 C 0.0 **** -0.24
28902 H 85.82921302328805 49.432391499883934 130.0917789966182 H 0.0 **** 0.06
28903 H 86.76911398576982 50.934735344894634 129.92565223661697 H 0.0 **** 0.06
28904 H 86.2147740120151 50.06654225910718 128.47359095624884 H 0.0 **** 0.06
28905 H 87.50255264944452 49.37315891141587 129.48903949972646 H 0.0 **** 0.06
28906 C 29.093977294340846 54.11765969077527 21.502608308042085 C 0.0 **** -0.24
28907 H 29.96827877661275 54.35819381334392 20.89798881820124 H 0.0 **** 0.06
28908 H 29.412756465946586 53.627341444147575 22.42314151681353 H 0.0 **** 0.06
28909 H 28.437734421520304 53.45067678458324 20.944300555611477 H 0.0 **** 0.06
28910 H 28.55709806211121 55.03490074902426 21.745881895894087 H 0.0 **** 0.06
28911 C 41.05010678362112 60.511429669004215 48.85211369302468 C 0.0 **** -0.24
28912 H 40.40988995380059 61.39296439907231 48.85150282305614 H 0.0 **** 0.06
28913 H 40.58310541162115 59.72331905243614 49.44431207562985 H 0.0 **** 0.06
28914 H 42.017953600213275 60.76476419486278 49.284082001298856 H 0.0 **** 0.06
28915 H 41.18896526456808 60.163016630152455 47.828559019877446 H 0.0 **** 0.06
28916 C 88.00983656995193 86.38288085455983 114.63702314920067 C 0.0 **** -0.24
28917 H 87.4444278101318 86.69458915787604 115.51580434401887 H 0.0 **** 0.06
28918 H 89.01165615693674 86.81079864809965 114.67998102464435 H 0.0 **** 0.06
28919 H 87.50374206770422 86.73171204436264 113.73650848363627 H 0.0 **** 0.06
28920 H 88.07904143023666 85.29519498393 114.61688305391533 H 0.0 **** 0.06
28921 C 138.80438948504593 138.81582279688482 13.10867523967363 C 0.0 **** -0.24
28922 H 138.80881546214994 138.6379128605499 12.033762725748545 H 0.0 **** 0.06
28923 H 139.78118876311262 139.18848757169872 13.419116323907133 H 0.0 **** 0.06
28924 H 138.58860965878804 137.88328121284874 13.629364893308832 H 0.0 **** 0.06
28925 H 138.03969183856685 139.55378938574756 13.351270191809306 H 0.0 **** 0.06
28926 C 29.363228358582234 9.74793661869522 69.24939992886743 C 0.0 **** -0.24
28927 H 29.691943760521013 10.698574837965843 69.67079367533015 H 0.0 **** 0.06
28928 H 28.93452210588859 9.1292530500139 70.0386192411377 H 0.0 **** 0.06
28929 H 30.217205520366832 9.233639035407045 68.80711774079998 H 0.0 **** 0.06
28930 H 28.61287430037129 9.931093748655293 68.48144897225546 H 0.0 **** 0.06
28931 C 42.74579561485798 27.601499450268967 143.44983666498393 C 0.0 **** -0.24
28932 H 42.83904964052154 28.647051669303686 143.74285665451825 H 0.0 **** 0.06
28933 H 43.73813506051866 27.179303921966465 143.2898589739795 H 0.0 **** 0.06
28934 H 42.16858968978086 27.53238762664587 142.52802684512255 H 0.0 **** 0.06
28935 H 42.238331444858986 27.04734605473171 144.2389770748466 H 0.0 **** 0.06
28936 C 124.61221387944046 143.99729121814266 106.98893613258365 C 0.0 **** -0.24
28937 H 125.044176139335 143.31565172234434 107.72220328501972 H 0.0 **** 0.06
28938 H 124.91520422624897 143.69250811405368 105.98645688096802 H 0.0 **** 0.06
28939 H 124.9639930920295 145.01014723885348 107.18298385998001 H 0.0 **** 0.06
28940 H 123.5244740708461 143.96945277835346 107.06400055900802 H 0.0 **** 0.06
28941 C 134.7005977405761 138.8391152319132 144.7227781442366 C 0.0 **** -0.24
28942 H 134.94925710574506 139.5674318556218 145.4933511937661 H 0.0 **** 0.06
28943 H 135.32546508463406 139.0093985318979 143.8460205461199 H 0.0 **** 0.06
28944 H 133.65103054560822 138.94534797369747 144.44830083076167 H 0.0 **** 0.06
28945 H 134.8755811422883 137.83244830910087 145.1041599065623 H 0.0 **** 0.06
28946 C 57.72677322901444 13.505442945279754 96.1476319340542 C 0.0 **** -0.24
28947 H 57.799198538217496 13.944145696216964 95.15242192793279 H 0.0 **** 0.06
28948 H 58.4039152760636 14.028558551380314 96.82394639365745 H 0.0 **** 0.06
28949 H 58.002049227482075 12.452447224139064 96.10112849618356 H 0.0 **** 0.06
28950 H 56.70460989408943 13.598235706600661 96.51257446282172 H 0.0 **** 0.06
28951 C 49.03732681334449 76.74195402874106 82.23101270586534 C 0.0 **** -0.24
28952 H 48.37351375615255 76.97861256496505 83.06320648513287 H 0.0 **** 0.06
28953 H 49.92107114964175 76.22585404777406 82.60702369640882 H 0.0 **** 0.06
28954 H 49.338731652841574 77.66319365464 81.73294329331155 H 0.0 **** 0.06
28955 H 48.514894445148954 76.09924022585881 81.52286734692132 H 0.0 **** 0.06
28956 C 17.64438258180789 13.612505470123608 93.80850907602883 C 0.0 **** -0.24
28957 H 16.879833880601183 13.633759681506262 93.03252003574005 H 0.0 **** 0.06
28958 H 17.95484179959064 12.58193599926966 93.98413699945888 H 0.0 **** 0.06
28959 H 17.237875662049476 14.031616219641705 94.72947912091183 H 0.0 **** 0.06
28960 H 18.503227241669578 14.20291528965248 93.48927471205127 H 0.0 **** 0.06
28961 C 39.93399017597761 47.72416101783364 48.04394865577436 C 0.0 **** -0.24
28962 H 39.40768041946609 46.80880935402271 47.77235728100075 H 0.0 **** 0.06
28963 H 40.54806970159615 48.05291292795235 47.20546788327053 H 0.0 **** 0.06
28964 H 40.570695612793486 47.53429017045377 48.907944446014454 H 0.0 **** 0.06
28965 H 39.209616072978974 48.50050467311084 48.29101177497384 H 0.0 **** 0.06
28966 C 118.84634595661069 82.03792515949092 88.66199754841158 C 0.0 **** -0.24
28967 H 117.8304563472008 81.8323158788231 88.99897618285145 H 0.0 **** 0.06
28968 H 118.8975181207363 83.04916326614186 88.25689085877549 H 0.0 **** 0.06
28969 H 119.12449301757735 81.32158178986306 87.88823148936356 H 0.0 **** 0.06
28970 H 119.53342167916188 81.9473192435269 89.50385860373662 H 0.0 **** 0.06
28971 C 101.09602085902165 77.59198005979414 23.569030657966778 C 0.0 **** -0.24
28972 H 101.25900555247625 77.1982357776239 24.572803516884903 H 0.0 **** 0.06
28973 H 100.45892241994585 76.9072934204601 23.009763060652404 H 0.0 **** 0.06
28974 H 102.05352588900254 77.69586277039427 23.059933481032374 H 0.0 **** 0.06
28975 H 100.61263260044709 78.56740641704818 23.635909289159827 H 0.0 **** 0.06
28976 C 37.219056714149055 77.37767544677833 13.069464242728941 C 0.0 **** -0.24
28977 H 37.19299366244096 77.76494990465307 12.051444765581607 H 0.0 **** 0.06
28978 H 36.40883352494338 76.66180738721157 13.20642326372871 H 0.0 **** 0.06
28979 H 37.100664947458604 78.2003410962947 13.774666414087562 H 0.0 **** 0.06
28980 H 38.1746358340939 76.88401585608551 13.245456364224935 H 0.0 **** 0.06
28981 C 37.54491176016932 26.70195363312547 65.13395741188037 C 0.0 **** -0.24
28982 H 38.18641073442648 27.294680687689663 64.48221576781418 H 0.0 **** 0.06
28983 H 38.07177752004795 25.797648451213206 65.4383881760973 H 0.0 **** 0.06
28984 H 36.63497324156032 26.43065148099106 64.5991822263336 H 0.0 **** 0.06
28985 H 37.28594056084607 27.28616361263454 66.01775668289872 H 0.0 **** 0.06
28986 C 50.50614637406203 49.816145560891556 2.03217926902677 C 0.0 **** -0.24
28987 H 50.32106702888805 49.50542232611869 3.0595940480600277 H 0.0 **** 0.06
28988 H 51.27899992729387 50.58432455461741 2.018655823100687 H 0.0 **** 0.06
28989 H 49.587552863168966 50.21621827999945 1.6023126790508968 H 0.0 **** 0.06
28990 H 50.83699795754626 48.9576986643919 1.4470795660206015 H 0.0 **** 0.06
28991 C 131.98950294803396 93.26390752331338 8.211234933722807 C 0.0 **** -0.24
28992 H 130.9915785144116 92.97388112023879 7.882358064752083 H 0.0 **** 0.06
28993 H 132.11697382691918 93.00192216599294 9.26208381453091 H 0.0 **** 0.06
28994 H 132.11478231939302 94.33914973049143 8.08684952543976 H 0.0 **** 0.06
28995 H 132.73549230597203 92.74014904527611 7.613410191486764 H 0.0 **** 0.06
28996 C 84.13386266320794 93.51471420049134 145.32379858865716 C 0.0 **** -0.24
28997 H 83.27305334660502 93.94582499885513 144.81373168719685 H 0.0 **** 0.06
28998 H 84.97952064365077 93.47493858906748 144.63708178257698 H 0.0 **** 0.06
28999 H 83.88954716393533 92.50740669105542 145.65950823071114 H 0.0 **** 0.06
29000 H 84.39296683803792 94.13139130880504 146.18426290760704 H 0.0 **** 0.06
29001 C 45.203545129141844 0.5024043382661318 113.42334232535875 C 0.0 **** -0.24
29002 H 44.14824312872315 0.2792016720284778 113.2671285826507 H 0.0 **** 0.06
29003 H 45.5617910026171 1.1451069707986505 112.61882897932232 H 0.0 **** 0.06
29004 H 45.7742015238986 -0.42651062745147783 113.4284183410437 H 0.0 **** 0.06
29005 H 45.329821225379646 1.0104329154357572 114.37874315715577 H 0.0 **** 0.06
29006 C 16.93356730697056 102.36609285099739 35.12217083437245 C 0.0 **** -0.24
29007 H 16.343924545841844 103.28172663679534 35.09662445462684 H 0.0 **** 0.06
29008 H 17.93972371451065 102.59192298769871 35.47663740449895 H 0.0 **** 0.06
29009 H 16.988698416900633 101.94123212481158 34.11913221908655 H 0.0 **** 0.06
29010 H 16.463297564774166 101.64867908999877 35.7937490525146 H 0.0 **** 0.06
29011 C 35.90411896428756 18.48538435217722 8.515437767240115 C 0.0 **** -0.24
29012 H 36.298307982900894 19.368743835301643 9.015879025958256 H 0.0 **** 0.06
29013 H 34.83192898505682 18.411057549554357 8.700545047803665 H 0.0 **** 0.06
29014 H 36.40196617823645 17.596386901839537 8.901656798883621 H 0.0 **** 0.06
29015 H 36.08305112542786 18.565705094120347 7.443052874796308 H 0.0 **** 0.06
29016 C 51.32692008046128 144.96088506711976 88.31448970329828 C 0.0 **** -0.24
29017 H 51.65954814481606 144.42808921187307 89.20513251526185 H 0.0 **** 0.06
29018 H 51.32391593466873 144.2799611732688 87.46258175195138 H 0.0 **** 0.06
29019 H 52.00352695368308 145.79168556994355 88.11423449547024 H 0.0 **** 0.06
29020 H 50.319095908844076 145.34532436037117 88.4763983556683 H 0.0 **** 0.06
29021 C 10.587823864270945 46.07885633657051 84.73763562404491 C 0.0 **** -0.24
29022 H 11.335090731884776 45.444442970833904 85.21447144423593 H 0.0 **** 0.06
29023 H 9.903213208014932 45.46085804506346 84.15601816072166 H 0.0 **** 0.06
29024 H 11.083909301729278 46.79061191477638 84.07774720844128 H 0.0 **** 0.06
29025 H 10.029952921673242 46.61986126069404 85.50195896331473 H 0.0 **** 0.06
29026 C 40.031388049986404 18.804322080805605 41.590838717739786 C 0.0 **** -0.24
29027 H 40.57624916809789 19.427948174386586 42.29939664153201 H 0.0 **** 0.06
29028 H 39.693888528168344 19.415134656540147 40.75433438192911 H 0.0 **** 0.06
29029 H 39.16921029438144 18.35966747098786 42.08774643061835 H 0.0 **** 0.06
29030 H 40.687029593675575 18.013937657553782 41.2235974315291 H 0.0 **** 0.06
29031 C 43.34394495538942 66.1048173036445 63.41930010222728 C 0.0 **** -0.24
29032 H 42.480530783629035 66.22871011986501 64.07167343121105 H 0.0 **** 0.06
29033 H 44.10702905613812 66.83848001956017 63.68217500634111 H 0.0 **** 0.06
29034 H 43.039807034793625 66.25163441892431 62.38306975448563 H 0.0 **** 0.06
29035 H 43.74904785311827 65.10005632522484 63.53961428734746 H 0.0 **** 0.06
29036 C 101.91780231379062 101.3600458995877 67.85363709213829 C 0.0 **** -0.24
29037 H 102.0450449140153 100.67725758824801 68.69330780255981 H 0.0 **** 0.06
29038 H 102.78254937809902 102.02069352056566 67.7888394705223 H 0.0 **** 0.06
29039 H 101.01660812624729 101.95508379412672 68.00300723584985 H 0.0 **** 0.06
29040 H 101.82748156714243 100.78815037272042 66.93072479292942 H 0.0 **** 0.06
29041 C 10.005339888261659 52.77083346821243 118.22125914808146 C 0.0 **** -0.24
29042 H 10.76871152563416 53.52160454100695 118.0143870547758 H 0.0 **** 0.06
29043 H 9.127595233027051 53.25431688307211 118.65137265779862 H 0.0 **** 0.06
29044 H 10.398646691549317 52.03683281780047 118.9243375754836 H 0.0 **** 0.06
29045 H 9.726782681140833 52.271361063936496 117.29264850290036 H 0.0 **** 0.06
29046 C 90.39979049848753 138.50740919749165 0.25072193508361806 C 0.0 **** -0.24
29047 H 90.50691183528647 139.58975843612438 0.3287838537866037 H 0.0 **** 0.06
29048 H 89.47798490451359 138.1976951161825 0.7452188454115003 H 0.0 **** 0.06
29049 H 91.25006364235983 138.02416311442187 0.73112515899237 H 0.0 **** 0.06
29050 H 90.36386530614922 138.22042892451458 -0.7993966890570618 H 0.0 **** 0.06
29051 C 14.997601964845046 139.13851243825638 29.908379738511243 C 0.0 **** -0.24
29052 H 14.736053219053588 138.17837111606048 30.353911334905142 H 0.0 **** 0.06
29053 H 15.460110060937893 138.9730033613481 28.935748019131125 H 0.0 **** 0.06
29054 H 15.69734736480865 139.66165525457643 30.55975016650504 H 0.0 **** 0.06
29055 H 14.09662816354404 139.73837020842012 29.78581427092208 H 0.0 **** 0.06
29056 C 85.93022616421797 19.091391691469624 95.04563240782106 C 0.0 **** -0.24
29057 H 86.89565514729242 18.930365418372133 95.52625589234604 H 0.0 **** 0.06
29058 H 85.26816198874474 18.256186166065874 95.27355395611394 H 0.0 **** 0.06
29059 H 86.06869177038931 19.160960761025734 93.96598942956865 H 0.0 **** 0.06
29060 H 85.4897461685917 20.016557551394897 95.41533896058229 H 0.0 **** 0.06
29061 C 9.134775274132387 8.246400330888122 49.51528565304932 C 0.0 **** -0.24
29062 H 9.983959495881393 8.732080953106475 49.03441355012751 H 0.0 **** 0.06
29063 H 8.347798423441489 8.980624105131113 49.68854667500989 H 0.0 **** 0.06
29064 H 9.450266213971098 7.820453246758035 50.46732924692685 H 0.0 **** 0.06
29065 H 8.756392199434003 7.4531064569066245 48.869808620485514 H 0.0 **** 0.06
29066 C 24.89070191643799 110.73859693653054 146.26354724830503 C 0.0 **** -0.24
29067 H 25.46214179410029 110.55062782304913 147.17284235107374 H 0.0 **** 0.06
29068 H 25.559703086917438 110.7101649545155 145.4021758872925 H 0.0 **** 0.06
29069 H 24.4201252609528 111.71971741515188 146.32660831623343 H 0.0 **** 0.06
29070 H 24.12278021283973 109.97365499656439 146.1529826458054 H 0.0 **** 0.06
29071 C 42.78343364316103 137.96476949542 6.619346086538307 C 0.0 **** -0.24
29072 H 43.368873623953476 138.8042430529866 6.241669330999898 H 0.0 **** 0.06
29073 H 42.02659515931006 137.69133265779573 5.88340972507671 H 0.0 **** 0.06
29074 H 42.2976115287569 138.2514953988362 7.552142753565093 H 0.0 **** 0.06
29075 H 43.441533829447195 137.11461158760508 6.7976243623587465 H 0.0 **** 0.06
29076 C 42.79151919562332 36.861473651415935 64.48107519628829 C 0.0 **** -0.24
29077 H 41.96246872756686 37.540644249642554 64.68064502225252 H 0.0 **** 0.06
29078 H 43.194135201828146 36.49222305156431 65.4243772877094 H 0.0 **** 0.06
29079 H 43.572771182894286 37.39211422974489 63.935718947330685 H 0.0 **** 0.06
29080 H 42.43775546398105 36.02264659422056 63.88261898982685 H 0.0 **** 0.06
29081 C 141.7148896424207 125.45879616580054 18.96843080791004 C 0.0 **** -0.24
29082 H 141.52543165520294 126.2176064931889 19.727677173252204 H 0.0 **** 0.06
29083 H 140.91453418735534 125.4792212804299 18.228146756332876 H 0.0 **** 0.06
29084 H 141.75057677880932 124.47594338949075 19.43864388940429 H 0.0 **** 0.06
29085 H 142.667496485147 125.66268191153137 18.48004236676769 H 0.0 **** 0.06
29086 C 121.50356611128898 63.59029924250035 113.15438588696053 C 0.0 **** -0.24
29087 H 121.0871196877152 62.797784147478396 113.77569713214676 H 0.0 **** 0.06
29088 H 122.55330796659543 63.737494775940434 113.4088500413596 H 0.0 **** 0.06
29089 H 120.95366710244134 64.51554618090657 113.32944503080556 H 0.0 **** 0.06
29090 H 121.41969023312596 63.31013560185187 112.10439652909712 H 0.0 **** 0.06
29091 C 113.05887520905165 86.6817281676525 125.35017424637967 C 0.0 **** -0.24
29092 H 113.76804356317112 87.10288893705055 126.06283779853183 H 0.0 **** 0.06
29093 H 112.5480989693298 87.48993547969516 124.8256429332486 H 0.0 **** 0.06
29094 H 112.32723261161098 86.07327561535777 125.88144543187543 H 0.0 **** 0.06
29095 H 113.59397402546111 86.06201344950493 124.63039412607604 H 0.0 **** 0.06
29096 C 8.465402468749744 77.2518383331057 58.32469709808488 C 0.0 **** -0.24
29097 H 8.530564391617872 76.16941719232315 58.43115764957341 H 0.0 **** 0.06
29098 H 7.449128586776283 77.52879111908842 58.04389281658196 H 0.0 **** 0.06
29099 H 9.159762163687788 77.58243268162256 57.552073331650845 H 0.0 **** 0.06
29100 H 8.722883356082662 77.72657459087151 59.27233554179563 H 0.0 **** 0.06
29101 C 40.429616993719506 115.2141161827224 111.56908508815594 C 0.0 **** -0.24
29102 H 41.08892537047747 114.47259301365072 111.11761820407436 H 0.0 **** 0.06
29103 H 39.39184706292765 114.92956259478943 111.39633295865751 H 0.0 **** 0.06
29104 H 40.619488956594495 116.18904666791848 111.12065153312604 H 0.0 **** 0.06
29105 H 40.62076259448217 115.26382558163074 112.64110319590755 H 0.0 **** 0.06
29106 C 32.40067219813007 91.44853092447829 18.667210107237423 C 0.0 **** -0.24
29107 H 31.46696421985063 90.91028892835439 18.50220867709072 H 0.0 **** 0.06
29108 H 32.991078979015676 91.44160389897567 17.749941660765643 H 0.0 **** 0.06
29109 H 32.96276632705561 90.96362410627091 19.465075406567507 H 0.0 **** 0.06
29110 H 32.18133732340896 92.47777275790094 18.95151091802768 H 0.0 **** 0.06
29111 C 95.46728817378853 84.8815707720024 24.35162238613725 C 0.0 **** -0.24
29112 H 94.51018620867856 85.2748649659032 24.695041968541943 H 0.0 **** 0.06
29113 H 96.23696878586271 85.10218628201721 25.092266087136267 H 0.0 **** 0.06
29114 H 95.73144562572969 85.34548099155026 23.4019063283678 H 0.0 **** 0.06
29115 H 95.3890324305966 83.80137989236026 24.219738848886124 H 0.0 **** 0.06
29116 C 26.974533459563716 106.23973161185475 65.30915780723079 C 0.0 **** -0.24
29117 H 26.45088167533683 107.19051132659646 65.40275366478323 H 0.0 **** 0.06
29118 H 27.521521855631164 106.03444988196313 66.22888524397545 H 0.0 **** 0.06
29119 H 27.673927895068346 106.29010805664214 64.47366921921083 H 0.0 **** 0.06
29120 H 26.2526656842158 105.44339275031072 65.13030371993366 H 0.0 **** 0.06
29121 C 107.09764784802 117.33495216650454 146.3910130919626 C 0.0 **** -0.24
29122 H 106.69866786148746 117.15062971493461 147.38846017644877 H 0.0 **** 0.06
29123 H 106.30102408328425 117.70045578638911 145.74250157362556 H 0.0 **** 0.06
29124 H 107.50122524539894 116.40732735458118 145.9838914722761 H 0.0 **** 0.06
29125 H 107.89019757909428 118.08008317466027 146.4492551605965 H 0.0 **** 0.06
29126 C 35.79847969938797 111.30698529869748 146.61347127435064 C 0.0 **** -0.24
29127 H 36.75447681701456 111.350746902273 146.09216915609457 H 0.0 **** 0.06
29128 H 35.89051892607691 110.66044186500478 147.4866212507395 H 0.0 **** 0.06
29129 H 35.037659410155555 110.90622830312448 145.94299768492826 H 0.0 **** 0.06
29130 H 35.51140145006278 112.30876083710139 146.9304022941241 H 0.0 **** 0.06
29131 C 70.81511884732288 84.0022848937733 62.81490318085007 C 0.0 **** -0.24
29132 H 71.52032484915429 84.36756691601161 62.06869543262847 H 0.0 **** 0.06
29133 H 70.21132419205452 84.83314438816663 63.180961956905506 H 0.0 **** 0.06
29134 H 71.363075748657 83.55762008128875 63.64541441435017 H 0.0 **** 0.06
29135 H 70.16575059942573 83.25080818962638 62.364540919516116 H 0.0 **** 0.06
29136 C 4.078889208063714 6.884455186198473 99.61349120935255 C 0.0 **** -0.24
29137 H 4.459811841171216 7.155069739911994 100.59806785989801 H 0.0 **** 0.06
29138 H 4.910589822544523 6.799519383718916 98.91324587788127 H 0.0 **** 0.06
29139 H 3.389392701365068 7.653799855141379 99.26646841850535 H 0.0 **** 0.06
29140 H 3.557221426607981 5.929979867925187 99.6754269487157 H 0.0 **** 0.06
29141 C 5.354780263113383 137.7299504778651 88.0266006966323 C 0.0 **** -0.24
29142 H 4.715190803910247 136.88860980823222 87.75941407110551 H 0.0 **** 0.06
29143 H 6.144274348768448 137.38816163775522 88.69556851663769 H 0.0 **** 0.06
29144 H 4.759405935401503 138.49308835046492 88.5278147024667 H 0.0 **** 0.06
29145 H 5.798028122419794 138.14893916222735 87.12336523884008 H 0.0 **** 0.06
29146 C 117.97021284084066 130.35216317470545 101.27351039381094 C 0.0 **** -0.24
29147 H 117.49290896711203 130.40462584656427 102.25177730251401 H 0.0 **** 0.06
29148 H 118.3598625540448 131.33507953476953 101.00659082935465 H 0.0 **** 0.06
29149 H 117.23817340614399 130.03760498618607 100.52873596650561 H 0.0 **** 0.06
29150 H 118.78802026614197 129.6325578480726 101.30595508101376 H 0.0 **** 0.06
29151 C 53.91539818321871 47.19881700281485 53.59475565274113 C 0.0 **** -0.24
29152 H 53.158969783291184 47.211313143436655 54.37960813212838 H 0.0 **** 0.06
29153 H 53.541255434516756 46.63451142223008 52.73958727235447 H 0.0 **** 0.06
29154 H 54.82345188581053 46.728428891285574 53.97133229086215 H 0.0 **** 0.06
29155 H 54.13561975951018 48.22131494845547 53.28769556271408 H 0.0 **** 0.06
29156 C 78.83100125655315 40.98067628153126 136.50240621889253 C 0.0 **** -0.24
29157 H 79.6064735378981 40.45240927589694 137.0554045252196 H 0.0 **** 0.06
29158 H 78.65886386208481 40.47911012621816 135.54896105956888 H 0.0 **** 0.06
29159 H 79.14927598750276 42.00711986085102 136.3204934561999 H 0.0 **** 0.06
29160 H 77.9081288769448 40.983689089965 137.08270096309772 H 0.0 **** 0.06
29161 C 120.1141711538415 63.67839466847694 46.260549557828654 C 0.0 **** -0.24
29162 H 119.18000111791245 63.65469836077911 46.82054443822878 H 0.0 **** 0.06
29163 H 119.99699304981122 63.11125165932343 45.33577516705907 H 0.0 **** 0.06
29164 H 120.90878592779087 63.235710245801684 46.85973507544753 H 0.0 **** 0.06
29165 H 120.3692690001128 64.7112166768974 46.02372839467439 H 0.0 **** 0.06
29166 C 137.08327600315712 134.48347077290848 103.64933780742764 C 0.0 **** -0.24
29167 H 137.59472548717255 135.44032028646737 103.54791348723411 H 0.0 **** 0.06
29168 H 137.50056857019206 133.7724719179625 102.93547152602083 H 0.0 **** 0.06
29169 H 136.0197657406348 134.61558124829625 103.45141304372494 H 0.0 **** 0.06
29170 H 137.22014029322494 134.1042421522846 104.6625654928006 H 0.0 **** 0.06
29171 C 19.146287255579864 113.48606693919126 92.20606235615003 C 0.0 **** -0.24
29172 H 18.085766386638227 113.34832346281755 92.41800509149567 H 0.0 **** 0.06
29173 H 19.261197315804452 114.08451534519108 91.30247580438503 H 0.0 **** 0.06
29174 H 19.616263874722904 112.51339801965364 92.06037557834223 H 0.0 **** 0.06
29175 H 19.620354724161245 113.9967905034002 93.04439640063066 H 0.0 **** 0.06
29176 C 102.13457185113984 44.54248633549699 92.82422762271429 C 0.0 **** -0.24
29177 H 101.5504928539921 45.39740830916554 92.48355530575961 H 0.0 **** 0.06
29178 H 103.16737605587159 44.6526810958904 92.4923344090169 H 0.0 **** 0.06
29179 H 101.71464309354948 43.6264450291814 92.40845045144437 H 0.0 **** 0.06
29180 H 102.10551278723378 44.49470256782355 93.91308288818334 H 0.0 **** 0.06
29181 C 119.98319820615677 79.20256846004352 81.23089947192182 C 0.0 **** -0.24
29182 H 120.93170274733404 78.76584791324066 80.91813952117288 H 0.0 **** 0.06
29183 H 119.92467802801883 80.23232649907905 80.87981655256759 H 0.0 **** 0.06
29184 H 119.91635412323666 79.18418852929184 82.31896544053221 H 0.0 **** 0.06
29185 H 119.16101520340834 78.62615860410801 80.80566976168055 H 0.0 **** 0.06
29186 C 121.36971451634979 30.441654789267233 43.67420794111797 C 0.0 **** -0.24
29187 H 120.79956704454678 30.066434846681865 44.52359084049367 H 0.0 **** 0.06
29188 H 121.35834984509764 31.532382633865687 43.68176848195752 H 0.0 **** 0.06
29189 H 120.92350921178966 30.080178244905937 42.74862004238754 H 0.0 **** 0.06
29190 H 122.3983643039348 30.08854355273502 43.74338549672294 H 0.0 **** 0.06
29191 C 12.359890981331915 18.283604481075912 1.711950971078437 C 0.0 **** -0.24
29192 H 11.492015021306202 17.807728992938124 1.2537824696133555 H 0.0 **** 0.06
29193 H 12.174013612123616 18.430197199711458 2.7762059608411107 H 0.0 **** 0.06
29194 H 12.537123910147898 19.248353646107347 1.2368720175793158 H 0.0 **** 0.06
29195 H 13.23432676116579 17.6469725430146 1.5794281275884714 H 0.0 **** 0.06
29196 C 44.268703165637135 114.53248287844225 69.08693377300912 C 0.0 **** -0.24
29197 H 43.31370936673255 114.01181394713056 69.01651935379815 H 0.0 **** 0.06
29198 H 44.35513151221005 115.24594861649574 68.26696713190114 H 0.0 **** 0.06
29199 H 45.081426336661536 113.80831310375801 69.02551968070443 H 0.0 **** 0.06
29200 H 44.32444137548197 115.06184715661173 70.03775193150324 H 0.0 **** 0.06
29201 C 133.64976714462242 26.429566792458672 25.80906169303576 C 0.0 **** -0.24
29202 H 132.88947451119193 26.022269147953182 26.475812199820993 H 0.0 **** 0.06
29203 H 133.52970055056974 27.510741419510225 25.739484930327677 H 0.0 **** 0.06
29204 H 133.5399520830819 25.986559545592627 24.819211847996257 H 0.0 **** 0.06
29205 H 134.6388775579991 26.197821237913672 26.20318736508139 H 0.0 **** 0.06
29206 C 145.13680040378898 79.07830157954872 28.11275306425778 C 0.0 **** -0.24
29207 H 146.07204766710632 79.44258350320828 27.68954665915743 H 0.0 **** 0.06
29208 H 145.3198986050052 78.14788606569859 28.651480780654296 H 0.0 **** 0.06
29209 H 144.42036928334852 78.89878232316036 27.311027565179515 H 0.0 **** 0.06
29210 H 144.73435998903423 79.82282059057232 28.799618871110063 H 0.0 **** 0.06
29211 C 24.251076815136905 52.98602461627085 140.98694971677213 C 0.0 **** -0.24
29212 H 25.316384650438188 53.11949714512929 141.17970305064762 H 0.0 **** 0.06
29213 H 23.818043424506506 52.35678986585391 141.76372455462 H 0.0 **** 0.06
29214 H 24.115015659823698 52.511586359714116 140.01521560809405 H 0.0 **** 0.06
29215 H 23.757333189199834 53.95817540541272 140.98884353917268 H 0.0 **** 0.06
29216 C 20.659853879181732 24.921867135732953 133.07494841317012 C 0.0 **** -0.24
29217 H 20.711975442964437 25.169915768080642 132.01542934513313 H 0.0 **** 0.06
29218 H 21.63147863869468 24.561122435343663 133.41173032129225 H 0.0 **** 0.06
29219 H 19.9099020758498 24.145494493334837 133.2298881958499 H 0.0 **** 0.06
29220 H 20.385100345289203 25.81121811897006 133.6427713041809 H 0.0 **** 0.06
29221 C 43.85816954114627 47.90200466907716 87.91900261276047 C 0.0 **** -0.24
29222 H 43.39946526557718 48.06070027546258 86.94248092046172 H 0.0 **** 0.06
29223 H 43.09119315428988 47.9498819301528 88.69180236767679 H 0.0 **** 0.06
29224 H 44.60489146760257 48.674552858437465 88.09868314140508 H 0.0 **** 0.06
29225 H 44.33598391895383 46.922093731193144 87.94020379293156 H 0.0 **** 0.06
29226 C 13.21326283992741 5.829536800684821 24.60491632681544 C 0.0 **** -0.24
29227 H 12.96863148657016 6.336735410211247 25.538595919926706 H 0.0 **** 0.06
29228 H 14.296593106800742 5.775475687889411 24.495050814620484 H 0.0 **** 0.06
29229 H 12.789243469087353 6.384920222453474 23.767837272909716 H 0.0 **** 0.06
29230 H 12.798524404336177 4.822121689609844 24.620123953805575 H 0.0 **** 0.06
29231 C 13.205867723537352 9.92807320063659 0.2484655284434325 C 0.0 **** -0.24
29232 H 12.155224295976296 9.637916935959623 0.24130916375241895 H 0.0 **** 0.06
29233 H 13.372269193369902 10.704171398591853 -0.4989698485003373 H 0.0 **** 0.06
29234 H 13.823348560397847 9.0608419106359 0.015230073736063332 H 0.0 **** 0.06
29235 H 13.471375645528752 10.30924763531587 1.2341911765223585 H 0.0 **** 0.06
29236 C 127.0557745465446 137.30877382603524 97.62862459559562 C 0.0 **** -0.24
29237 H 126.44975037817781 137.69115732961623 96.80735299474128 H 0.0 **** 0.06
29238 H 128.10934460881575 137.48893814721444 97.41595487483119 H 0.0 **** 0.06
29239 H 126.88397361929711 136.23816991694795 97.73712423693954 H 0.0 **** 0.06
29240 H 126.7789745373453 137.81695863535253 98.55185934707382 H 0.0 **** 0.06
29241 C 132.36475364779713 86.27316602048346 2.5298061147567523 C 0.0 **** -0.24
29242 H 132.2555365557781 86.9885298812685 3.34519477847806 H 0.0 **** 0.06
29243 H 131.38074015211959 85.9176953466927 2.2233366366045857 H 0.0 **** 0.06
29244 H 132.96781699165496 85.42939774409312 2.8652911153163245 H 0.0 **** 0.06
29245 H 132.85576732093313 86.75744770430796 1.6850580172794025 H 0.0 **** 0.06
29246 C 147.8091670356486 149.96996417555215 65.69727016377476 C 0.0 **** -0.24
29247 H 148.60099917664292 150.71834077923734 65.71751319441262 H 0.0 **** 0.06
29248 H 146.95677365343408 150.32659794375567 66.27522721220214 H 0.0 **** 0.06
29249 H 148.1774473192851 149.03970768146317 66.12909993227584 H 0.0 **** 0.06
29250 H 147.50170684841632 149.7945553403323 64.66601389948767 H 0.0 **** 0.06
29251 C 54.525351317760595 52.59531603814865 113.02100667192572 C 0.0 **** -0.24
29252 H 53.57233729326387 53.06646505332489 112.77881586589966 H 0.0 **** 0.06
29253 H 55.04416302322369 53.189621159545524 113.77205477937922 H 0.0 **** 0.06
29254 H 55.13703500555809 52.531829765987766 112.12001382424266 H 0.0 **** 0.06
29255 H 54.34647959282053 51.59318843127522 113.40926381461033 H 0.0 **** 0.06
29256 C 147.91126670490272 79.7560907339488 55.99537446650345 C 0.0 **** -0.24
29257 H 148.3321379105384 78.82107227699254 55.62500652239903 H 0.0 **** 0.06
29258 H 148.55238645123683 80.58602917460944 55.696754017849685 H 0.0 **** 0.06
29259 H 147.8462565436346 79.71952066296369 57.082129607995256 H 0.0 **** 0.06
29260 H 146.91532366109934 79.89760275549139 55.57539316616061 H 0.0 **** 0.06
29261 C 52.02716862969973 53.806572439528935 70.54186276165692 C 0.0 **** -0.24
29262 H 52.29241967594058 54.85266991164062 70.69329072116751 H 0.0 **** 0.06
29263 H 51.031145538360335 53.744246945013884 70.10281716028038 H 0.0 **** 0.06
29264 H 52.036003873471344 53.28825220813323 71.50007073268708 H 0.0 **** 0.06
29265 H 52.750103075574685 53.34249315323453 69.87162052581688 H 0.0 **** 0.06
29266 C 51.25169766939747 46.07639778862247 129.3292945322721 C 0.0 **** -0.24
29267 H 51.41288353697183 46.772203405280635 130.15354036637657 H 0.0 **** 0.06
29268 H 52.20444685104546 45.864196655903896 128.8427801857287 H 0.0 **** 0.06
29269 H 50.565522528296924 46.51971878380843 128.60899002351562 H 0.0 **** 0.06
29270 H 50.8254238851667 45.149427554409414 129.71483231911895 H 0.0 **** 0.06
29271 C 11.825128234864053 46.26855548995705 104.38815908254725 C 0.0 **** -0.24
29272 H 12.771998447827997 46.802310842005156 104.30004808090746 H 0.0 **** 0.06
29273 H 11.012670964059964 46.985802044875754 104.50233450289983 H 0.0 **** 0.06
29274 H 11.858234772090213 45.613630253762665 105.2583023706569 H 0.0 **** 0.06
29275 H 11.660218278755764 45.67267485836581 103.4908779467761 H 0.0 **** 0.06
29276 C 1.0782872683337175 146.21867718511274 48.886369054704744 C 0.0 **** -0.24
29277 H 1.628716830454298 146.28698413393917 49.82444843532227 H 0.0 **** 0.06
29278 H 0.11059084160109478 146.70834204637154 48.997136589457256 H 0.0 **** 0.06
29279 H 0.9280474722465577 145.17043749717757 48.62916481068896 H 0.0 **** 0.06
29280 H 1.6464991894370087 146.70946901198167 48.095204004318134 H 0.0 **** 0.06
29281 C 50.517527117312994 41.16286985612872 124.75264055983536 C 0.0 **** -0.24
29282 H 50.83421762517463 42.134792108049 124.37564360531877 H 0.0 **** 0.06
29283 H 50.28970629259264 40.50479828631758 123.91234295018296 H 0.0 **** 0.06
29284 H 49.62844094366915 41.2845186912045 125.37085395095156 H 0.0 **** 0.06
29285 H 51.31771277279667 40.726044454069594 125.34966229167608 H 0.0 **** 0.06
29286 C 72.54292078808763 72.55897522076569 99.75839703058621 C 0.0 **** -0.24
29287 H 72.57332532400491 73.63191009818517 99.94749697317626 H 0.0 **** 0.06
29288 H 71.59517493221816 72.29929173854099 99.28759692815689 H 0.0 **** 0.06
29289 H 72.63996481485796 72.02183272917122 100.70170709214781 H 0.0 **** 0.06
29290 H 73.36554871585565 72.2836401913153 99.09851037888366 H 0.0 **** 0.06
29291 C 13.32194868438171 117.8186103516176 107.74561852189893 C 0.0 **** -0.24
29292 H 14.329544476993277 117.43044318993785 107.89166791739237 H 0.0 **** 0.06
29293 H 13.081922239569451 117.81599139747877 106.6824751059323 H 0.0 **** 0.06
29294 H 13.266185990920377 118.83733120382996 108.12874750261224 H 0.0 **** 0.06
29295 H 12.6099067733563 117.18974058652671 108.2806181866288 H 0.0 **** 0.06
29296 C 148.88548544249932 20.99229044141913 93.35517519274411 C 0.0 **** -0.24
29297 H 147.88540723970817 21.39952293971112 93.21145772286123 H 0.0 **** 0.06
29298 H 149.61384087059372 21.631418882883395 92.8543660960103 H 0.0 **** 0.06
29299 H 148.9338967004445 19.987933320943455 92.9341103304851 H 0.0 **** 0.06
29300 H 149.11120572965564 20.950726824249955 94.42083194267374 H 0.0 **** 0.06
29301 C 65.31206777995878 24.09474586878413 69.77215550194938 C 0.0 **** -0.24
29302 H 64.6204318327978 24.446248277583095 70.53772343065066 H 0.0 **** 0.06
29303 H 65.14001626675784 24.645834760168782 68.84729236874892 H 0.0 **** 0.06
29304 H 65.1507098911047 23.03098166207711 69.5979348844227 H 0.0 **** 0.06
29305 H 66.33708118116972 24.2577154222044 70.10733603381686 H 0.0 **** 0.06
29306 C 31.848078251124946 50.47774319020925 59.53906460069996 C 0.0 **** -0.24
29307 H 32.18952740557975 51.49626425506722 59.35544329491054 H 0.0 **** 0.06
29308 H 31.058626705767097 50.48832734187533 60.29096069630762 H 0.0 **** 0.06
29309 H 32.68207864759293 49.8735612619754 59.89575635795737 H 0.0 **** 0.06
29310 H 31.461472113898395 50.0511118099883 58.61278932109198 H 0.0 **** 0.06
29311 C 87.77018745163559 72.68937637756011 0.41813979788292954 C 0.0 **** -0.24
29312 H 88.75672551742886 72.28787265074692 0.647995962231505 H 0.0 **** 0.06
29313 H 87.87623224985497 73.5878420526044 -0.19048606818000735 H 0.0 **** 0.06
29314 H 87.25375145526061 72.93645584366374 1.345552906217847 H 0.0 **** 0.06
29315 H 87.19412438154767 71.9448638175599 -0.1313816954834124 H 0.0 **** 0.06
29316 C 146.08507513542426 62.83211687908917 26.185445154925844 C 0.0 **** -0.24
29317 H 145.28845876987106 63.53620859012841 26.42474140245355 H 0.0 **** 0.06
29318 H 146.23556981621226 62.155171365672516 27.026740363401643 H 0.0 **** 0.06
29319 H 147.00716015739872 63.38030286007705 25.990525044069727 H 0.0 **** 0.06
29320 H 145.8087586737571 62.258876109700964 25.300999179186135 H 0.0 **** 0.06
29321 C 99.48098864374187 120.29712549964866 109.6083122829417 C 0.0 **** -0.24
29322 H 98.93338655618318 120.45598757357423 108.67980636111163 H 0.0 **** 0.06
29323 H 98.83144962967785 119.80429966961198 110.33264804978073 H 0.0 **** 0.06
29324 H 99.80699005462299 121.257580344387 110.00592768646398 H 0.0 **** 0.06
29325 H 100.35051479029265 119.66938104174004 109.41351582747122 H 0.0 **** 0.06
29326 C 86.22672931441537 111.28937206002502 10.542488287689046 C 0.0 **** -0.24
29327 H 86.64469019658523 112.11400169463514 11.120371641485598 H 0.0 **** 0.06
29328 H 85.13956690864691 111.30272540930912 10.625446755902146 H 0.0 **** 0.06
29329 H 86.61004999050107 110.34422088477135 10.927997077097544 H 0.0 **** 0.06
29330 H 86.5127403614591 111.39753163283427 9.496153408531889 H 0.0 **** 0.06
29331 C 42.7884457950739 9.95063713401455 96.32304983617668 C 0.0 **** -0.24
29332 H 43.65752929816057 10.555423920178882 96.06436800940777 H 0.0 **** 0.06
29333 H 42.30842444553437 9.596109232341021 95.40986254714427 H 0.0 **** 0.06
29334 H 42.083033241239804 10.55441473912311 96.89424877513548 H 0.0 **** 0.06
29335 H 43.10539070126816 9.096461837614584 96.92209908575386 H 0.0 **** 0.06
29336 C 45.91883622373608 124.35490679634904 81.69212531878186 C 0.0 **** -0.24
29337 H 45.52291576403748 123.50240481355564 81.13934337405679 H 0.0 **** 0.06
29338 H 46.82366013940684 124.71516210380992 81.2024363506932 H 0.0 **** 0.06
29339 H 46.154334343814114 124.04930791803531 82.7110725245499 H 0.0 **** 0.06
29340 H 45.17492181894448 125.15107919747032 81.71392756005785 H 0.0 **** 0.06
29341 C 122.12588315506687 120.53188020747977 13.7376755530359 C 0.0 **** -0.24
29342 H 122.68195846397592 119.66823979455468 14.103988281119278 H 0.0 **** 0.06
29343 H 121.28568409179891 120.19166657026393 13.131950601926114 H 0.0 **** 0.06
29344 H 122.78253496110628 121.1557128728757 13.132418877426879 H 0.0 **** 0.06
29345 H 121.75373572020496 121.1093968573981 14.584237016146183 H 0.0 **** 0.06
29346 C 91.66850955442543 98.37418212665496 104.24612892934499 C 0.0 **** -0.24
29347 H 91.63005822092758 98.39651228424184 105.33495321325091 H 0.0 **** 0.06
29348 H 92.66561858373258 98.07360517183213 103.92390761957938 H 0.0 **** 0.06
29349 H 91.4439236614017 99.36607828791186 103.85395974990536 H 0.0 **** 0.06
29350 H 90.93443775163963 97.660532762634 103.8716951346446 H 0.0 **** 0.06
29351 C 40.376496578007504 4.066118314816379 17.972965433585216 C 0.0 **** -0.24
29352 H 40.79204196888412 4.78915721883547 18.674208773845123 H 0.0 **** 0.06
29353 H 41.00177610982519 3.1730677587675586 17.957482573659888 H 0.0 **** 0.06
29354 H 40.3439816460326 4.50488599857556 16.975208840614926 H 0.0 **** 0.06
29355 H 39.366306661999886 3.7974530310907824 18.284284942856345 H 0.0 **** 0.06
29356 C 137.73303607171184 31.32635792173891 10.130364882593788 C 0.0 **** -0.24
29357 H 136.96691091146178 31.673247449014788 10.823505823929686 H 0.0 **** 0.06
29358 H 137.59797016968201 31.81643890622515 9.165411325317294 H 0.0 **** 0.06
29359 H 137.6471664828688 30.24749709736654 10.004845237791706 H 0.0 **** 0.06
29360 H 138.71815487216165 31.569314235703956 10.527392118619488 H 0.0 **** 0.06
29361 C 101.20698969442475 112.50747659410742 53.18681661345077 C 0.0 **** -0.24
29362 H 101.47353481841355 111.69206564873717 52.51480980548507 H 0.0 **** 0.06
29363 H 101.45664243642642 113.45995404419641 52.71838334081855 H 0.0 **** 0.06
29364 H 101.75860245006606 112.40465631136833 54.1205273761246 H 0.0 **** 0.06
29365 H 100.13640844369621 112.47275552379914 53.39249785557696 H 0.0 **** 0.06
29366 C 65.84773025120862 21.768771829076442 21.6529157445585 C 0.0 **** -0.24
29367 H 66.43308339287894 22.652433745357207 21.4000268815278 H 0.0 **** 0.06
29368 H 65.21676861621418 21.49639486861409 20.804993692522814 H 0.0 **** 0.06
29369 H 65.22086377906474 21.982897943267886 22.518052084471385 H 0.0 **** 0.06
29370 H 66.5200701597205 20.943153414887362 21.88615331589287 H 0.0 **** 0.06
29371 C 65.35196405193855 57.32629546343338 43.45006543773876 C 0.0 **** -0.24
29372 H 65.50709698710511 58.133518220647375 42.734734989877396 H 0.0 **** 0.06
29373 H 66.24885426607021 56.70934230852703 43.50139005740775 H 0.0 **** 0.06
29374 H 64.50783551556364 56.71558094522695 43.13002126958469 H 0.0 **** 0.06
29375 H 65.143039453102 57.747603781929115 44.43367527709525 H 0.0 **** 0.06
29376 C 34.88728022226033 91.74923461987788 129.99392722010276 C 0.0 **** -0.24
29377 H 34.67177498425832 91.39808239329972 131.0030219069029 H 0.0 **** 0.06
29378 H 34.61056598479834 92.80000454476487 129.908755196667 H 0.0 **** 0.06
29379 H 34.31331523583654 91.16259527169723 129.27596622681688 H 0.0 **** 0.06
29380 H 35.950698895159434 91.63481945356546 129.78909973392845 H 0.0 **** 0.06
29381 C 22.455345224722635 113.08680776474111 30.09759977251315 C 0.0 **** -0.24
29382 H 23.496446646184836 112.85065700175161 30.31602391082511 H 0.0 **** 0.06
29383 H 21.955034237393505 112.19655541855374 29.714209340103025 H 0.0 **** 0.06
29384 H 22.411848552022064 113.87801146147908 29.349968722133617 H 0.0 **** 0.06
29385 H 21.959689293278643 113.41899077462338 31.008707371725748 H 0.0 **** 0.06
29386 C 54.328510905650774 145.43198222133717 65.64420179280816 C 0.0 **** -0.24
29387 H 54.17583667317436 145.93666837546905 66.59827828593474 H 0.0 **** 0.06
29388 H 53.4026706507419 145.45808203890564 65.06805236073073 H 0.0 **** 0.06
29389 H 54.61554849317682 144.39596645712427 65.82288930419503 H 0.0 **** 0.06
29390 H 55.1180382209083 145.93695488133108 65.08795211645534 H 0.0 **** 0.06
29391 C 93.83588271783982 55.69660017730405 96.14957398639557 C 0.0 **** -0.24
29392 H 94.07599891076636 56.346610766600236 95.30788523754187 H 0.0 **** 0.06
29393 H 92.77011864770863 55.466218106801335 96.13801685707465 H 0.0 **** 0.06
29394 H 94.08997275013438 56.20022963653034 97.08149461334561 H 0.0 **** 0.06
29395 H 94.40844013171618 54.77165796875127 96.06862667105379 H 0.0 **** 0.06
29396 C 121.43314044121219 39.605821584436384 132.93410664042 C 0.0 **** -0.24
29397 H 121.87430747055616 39.4426024392658 133.9174477059584 H 0.0 **** 0.06
29398 H 122.19040113493783 39.448419961275235 132.16556159754188 H 0.0 **** 0.06
29399 H 121.0567982390897 40.62657026503538 132.86973935771448 H 0.0 **** 0.06
29400 H 120.6122706543304 38.90525420436951 132.7842514263467 H 0.0 **** 0.06
29401 C 93.65776832804161 95.77003528654069 99.4781256919272 C 0.0 **** -0.24
29402 H 94.61830429674342 96.03640779479169 99.03699438922311 H 0.0 **** 0.06
29403 H 92.86180776240776 96.31402055549763 98.96937791950637 H 0.0 **** 0.06
29404 H 93.65863049148292 96.03214665452414 100.53575385959992 H 0.0 **** 0.06
29405 H 93.49302921070162 94.69799024668154 99.36922231318172 H 0.0 **** 0.06
29406 C 19.9728699984366 59.07672783704774 61.0048018057295 C 0.0 **** -0.24
29407 H 20.12928337243992 59.981190765135324 61.59122834849509 H 0.0 **** 0.06
29408 H 19.297959435085374 59.292568054706265 60.176597596397954 H 0.0 **** 0.06
29409 H 19.535595827236932 58.30420242154199 61.637973421380906 H 0.0 **** 0.06
29410 H 20.92809562873569 58.72774806784676 60.6129005559101 H 0.0 **** 0.06
29411 C 1.87235201957078 128.44535717444066 123.48005143121252 C 0.0 **** -0.24
29412 H 2.310047361514748 128.05798049258945 122.56061272333672 H 0.0 **** 0.06
29413 H 2.2113226125041194 127.84550046480547 124.32440878023023 H 0.0 **** 0.06
29414 H 0.7854443452829933 128.39755783683358 123.41312299413623 H 0.0 **** 0.06
29415 H 2.182593758981195 129.48038990353427 123.62206122714689 H 0.0 **** 0.06
29416 C 77.96270324106193 94.31837717087197 13.456407903399878 C 0.0 **** -0.24
29417 H 77.02169273170887 94.85716278786016 13.57352671201204 H 0.0 **** 0.06
29418 H 78.33471450353294 94.02099021717963 14.437683687141117 H 0.0 **** 0.06
29419 H 78.69296638337407 94.96610408141656 12.970720659518946 H 0.0 **** 0.06
29420 H 77.79894052869209 93.43124169252658 12.84459265157534 H 0.0 **** 0.06
29421 C 54.545140922735754 137.8927801295555 144.89052720039217 C 0.0 **** -0.24
29422 H 53.92045684228734 138.45638085298992 144.19789130020317 H 0.0 **** 0.06
29423 H 55.35591344287636 138.52789347918258 145.24852505791222 H 0.0 **** 0.06
29424 H 54.96191247472396 137.02449605154806 144.37833799241014 H 0.0 **** 0.06
29425 H 53.94321886277268 137.56079625425224 145.73604834106794 H 0.0 **** 0.06
29426 C 130.77603714782256 1.3458365739086844 16.136248715515507 C 0.0 **** -0.24
29427 H 130.27607763784295 1.9433346381213426 16.898711201820248 H 0.0 **** 0.06
29428 H 131.71480503374553 1.8237332165144835 15.8582089740639 H 0.0 **** 0.06
29429 H 130.1343123234191 1.2655305145398472 15.258715423616422 H 0.0 **** 0.06
29430 H 130.97778309999617 0.3490578183351545 16.53023883971869 H 0.0 **** 0.06
29431 C 0.5352679230423973 61.740112498177055 88.33741620013512 C 0.0 **** -0.24
29432 H -0.13826825992867953 60.97999781347605 88.73138587714575 H 0.0 **** 0.06
29433 H -0.04815613419316378 62.55504667139451 87.906666600477 H 0.0 **** 0.06
29434 H 1.1691184970875952 61.300472505200304 87.56708275073558 H 0.0 **** 0.06
29435 H 1.158891509630962 62.12698877777825 89.14381552920966 H 0.0 **** 0.06
29436 C 99.53729262806362 33.04061161532911 24.222140083531002 C 0.0 **** -0.24
29437 H 99.32044927316339 34.019010821796144 23.79251412551261 H 0.0 **** 0.06
29438 H 99.68572353326066 33.140152851776236 25.297220210294967 H 0.0 **** 0.06
29439 H 100.44209747983328 32.63710331402308 23.7669426138672 H 0.0 **** 0.06
29440 H 98.70264121354792 32.36694021743557 24.030337276124413 H 0.0 **** 0.06
29441 C 142.81868887762278 54.71309569953284 44.39200271804991 C 0.0 **** -0.24
29442 H 143.19105404186448 55.72050768764062 44.20648789706159 H 0.0 **** 0.06
29443 H 143.306812805525 54.0134107719538 43.71297286140715 H 0.0 **** 0.06
29444 H 141.74103945817805 54.68827957858163 44.22717125986219 H 0.0 **** 0.06
29445 H 143.03409962551785 54.42977724129443 45.42271042566402 H 0.0 **** 0.06
29446 C 27.265173866783556 81.99805740355171 107.97390463649124 C 0.0 **** -0.24
29447 H 26.282116001765246 81.78700533668675 108.39304505293377 H 0.0 **** 0.06
29448 H 27.89916702729883 82.44201738111084 108.74240886611558 H 0.0 **** 0.06
29449 H 27.163204810024084 82.69285198127272 107.14105456511332 H 0.0 **** 0.06
29450 H 27.717305238566638 81.07137940386252 107.62104549291708 H 0.0 **** 0.06
29451 C 14.272729652722134 138.9000283470862 121.55511723736178 C 0.0 **** -0.24
29452 H 13.231644537619928 138.6454183469547 121.36275319112305 H 0.0 **** 0.06
29453 H 14.885511472802278 138.58634460414723 120.71002408668564 H 0.0 **** 0.06
29454 H 14.610338841993624 138.39211785664622 122.45788819971987 H 0.0 **** 0.06
29455 H 14.364211172571999 139.97843797994958 121.68908485356864 H 0.0 **** 0.06
29456 C 88.93381599728764 13.594544542586902 96.68518498910518 C 0.0 **** -0.24
29457 H 89.71633572588235 12.838593904510816 96.74345125357647 H 0.0 **** 0.06
29458 H 87.9920097074554 13.170033203667913 97.03432186192916 H 0.0 **** 0.06
29459 H 88.82273908660432 13.9233978220459 95.65177803367027 H 0.0 **** 0.06
29460 H 89.20227335595882 14.445211497686415 97.31049596060512 H 0.0 **** 0.06
29461 C 120.17087940840459 71.71657840017224 31.87508630860171 C 0.0 **** -0.24
29462 H 119.92187852837189 71.88027893855622 32.92385663699339 H 0.0 **** 0.06
29463 H 119.61797978606354 70.8542516879013 31.50143384629441 H 0.0 **** 0.06
29464 H 121.24064063351004 71.53337174337383 31.779888167283538 H 0.0 **** 0.06
29465 H 119.90129189372739 72.60000506665546 31.295858029154317 H 0.0 **** 0.06
29466 C 131.886581868202 46.40266477610275 128.44793872367686 C 0.0 **** -0.24
29467 H 131.8707173385478 47.153103543086004 129.2388568539786 H 0.0 **** 0.06
29468 H 131.06124152871658 45.705946149024186 128.5924411104166 H 0.0 **** 0.06
29469 H 132.830989107274 45.8607164730699 128.48070204912491 H 0.0 **** 0.06
29470 H 131.7823761096514 46.894386893286935 127.48064145252796 H 0.0 **** 0.06
29471 C 15.925058305290179 72.99067833686259 133.31856417138266 C 0.0 **** -0.24
29472 H 15.463902587629718 72.84471144715647 132.34171333386897 H 0.0 **** 0.06
29473 H 16.06639583199808 72.02370057238164 133.80124749063694 H 0.0 **** 0.06
29474 H 15.278188568568112 73.61344696418426 133.9362609046383 H 0.0 **** 0.06
29475 H 16.890941057671 73.48030249461954 133.19481777021366 H 0.0 **** 0.06
29476 C 143.72171980450034 121.01928682327976 11.984556997175247 C 0.0 **** -0.24
29477 H 144.7562424287451 120.7645180184678 11.752026740191234 H 0.0 **** 0.06
29478 H 143.22865534253268 121.39063234374719 11.086540070618376 H 0.0 **** 0.06
29479 H 143.70237527901045 121.79057543961925 12.755058245525639 H 0.0 **** 0.06
29480 H 143.2019984354251 120.13213341745701 12.345933537162523 H 0.0 **** 0.06
29481 C 103.19251983394737 91.60172133893968 116.4816865099246 C 0.0 **** -0.24
29482 H 103.70137749320632 90.73003561154547 116.06788410710601 H 0.0 **** 0.06
29483 H 103.22030728493657 91.5551682887828 117.5702108066709 H 0.0 **** 0.06
29484 H 102.1568529352979 91.61131589181434 116.1436000373227 H 0.0 **** 0.06
29485 H 103.69406181650642 92.50828225156113 116.14323203810534 H 0.0 **** 0.06
29486 C 49.10363822544733 35.48849456931296 16.63519157409523 C 0.0 **** -0.24
29487 H 49.30938178675615 36.33298773286762 17.29284677553342 H 0.0 **** 0.06
29488 H 49.4739440241766 34.57155181999755 17.093731753415184 H 0.0 **** 0.06
29489 H 49.603661903622196 35.64358075280069 15.678481520305752 H 0.0 **** 0.06
29490 H 48.02856754464494 35.40704336192192 16.47493797687833 H 0.0 **** 0.06
29491 C 144.73154055917368 138.1170698122453 120.82322652387182 C 0.0 **** -0.24
29492 H 145.35549955172877 138.56959106125453 120.05326539760154 H 0.0 **** 0.06
29493 H 144.61265978012975 138.81509771721338 121.6520141286789 H 0.0 **** 0.06
29494 H 145.2052586570037 137.20270161360276 121.18272270442066 H 0.0 **** 0.06
29495 H 143.75438115278357 137.87837482281998 120.40488141084893 H 0.0 **** 0.06
29496 C 101.59894677480168 0.627394788481098 9.407165787391307 C 0.0 **** -0.24
29497 H 101.15069725536955 0.31225181496969867 8.464855986163741 H 0.0 **** 0.06
29498 H 101.77616337502116 1.7031941329163374 9.382435706661909 H 0.0 **** 0.06
29499 H 102.5452760795427 0.10624680276893628 9.550801073221976 H 0.0 **** 0.06
29500 H 100.92333186747982 0.38900950877822993 10.228416921772975 H 0.0 **** 0.06
29501 C 144.1044199697309 18.686390171099347 134.94640541842037 C 0.0 **** -0.24
29502 H 144.78282514255812 19.20528021539758 134.27045500277885 H 0.0 **** 0.06
29503 H 144.10282743653858 19.186809144824096 135.91452306755502 H 0.0 **** 0.06
29504 H 144.4352721808802 17.654430630385825 135.0705902301489 H 0.0 **** 0.06
29505 H 143.0973177236724 18.69688620335519 134.52984884962646 H 0.0 **** 0.06
29506 C 34.57009437905515 113.34207202334206 27.948696887351517 C 0.0 **** -0.24
29507 H 33.88815817925041 112.57744705215067 27.57683246081342 H 0.0 **** 0.06
29508 H 33.997255832111364 114.13714160821219 28.426601541968864 H 0.0 **** 0.06
29509 H 35.142240703496384 113.75431407788604 27.11824007719659 H 0.0 **** 0.06
29510 H 35.25129570750471 112.89872378399751 28.674702780527454 H 0.0 **** 0.06
29511 C 45.112039995824816 34.306843197763754 55.34810602728078 C 0.0 **** -0.24
29512 H 46.05696145155488 34.65861296805353 55.76266840948597 H 0.0 **** 0.06
29513 H 45.01010295989359 33.23765695126198 55.53640931416288 H 0.0 **** 0.06
29514 H 45.09617823976892 34.491179978260334 54.27329679353937 H 0.0 **** 0.06
29515 H 44.28731503252277 34.84038822733211 55.8198632680124 H 0.0 **** 0.06
29516 C 77.6356512505068 103.85492538621155 6.916550214157041 C 0.0 **** -0.24
29517 H 77.3176914130433 104.157559599935 7.914822521462185 H 0.0 **** 0.06
29518 H 77.63518936552335 102.76694449289155 6.849365020116494 H 0.0 **** 0.06
29519 H 78.64072598321675 104.23115036420627 6.726697589938624 H 0.0 **** 0.06
29520 H 76.9476852483099 104.26543952920461 6.176844573944749 H 0.0 **** 0.06
29521 C 94.25882849826795 132.99603827505908 45.44015474549319 C 0.0 **** -0.24
29522 H 93.80462167689527 133.8345467221461 45.967836678079905 H 0.0 **** 0.06
29523 H 94.14687470760163 133.1406132654335 44.36535200817289 H 0.0 **** 0.06
29524 H 93.76623147119912 132.07040714809216 45.73633144125206 H 0.0 **** 0.06
29525 H 95.31811498183271 132.9408874685219 45.69174971749446 H 0.0 **** 0.06
29526 C 51.21567228062419 31.80304671736367 133.39899671029454 C 0.0 **** -0.24
29527 H 50.96681900484214 32.85417917385331 133.2548090851084 H 0.0 **** 0.06
29528 H 51.83081244347838 31.69422460743266 134.2926268564887 H 0.0 **** 0.06
29529 H 51.76508167178572 31.437870365712016 132.5316853404246 H 0.0 **** 0.06
29530 H 50.29789556268484 31.226531845941935 133.517402811187 H 0.0 **** 0.06
29531 C 139.00429203182915 35.60988313817553 2.9037814545470724 C 0.0 **** -0.24
29532 H 139.8602622251835 34.93649092108453 2.853736937823413 H 0.0 **** 0.06
29533 H 139.1168351378005 36.27745555230422 3.75909933125601 H 0.0 **** 0.06
29534 H 138.0904935305593 35.02773683942017 3.0138831997252282 H 0.0 **** 0.06
29535 H 138.95303302353466 36.19835870260707 1.987065276202003 H 0.0 **** 0.06
29536 C 0.2893033694189917 36.20351489216961 54.02204260691599 C 0.0 **** -0.24
29537 H -0.42134353682952863 37.01557710480185 54.1767210852224 H 0.0 **** 0.06
29538 H 0.6003086528542454 35.805310262928714 54.98832067398607 H 0.0 **** 0.06
29539 H 1.1604104624557934 36.58095787661719 53.48637599950695 H 0.0 **** 0.06
29540 H -0.18221121063358936 35.41286097478462 53.43889267231725 H 0.0 **** 0.06
29541 C 90.8730259282866 30.987295826453604 27.14392661222479 C 0.0 **** -0.24
29542 H 91.31479279350152 30.240700647749094 27.804322085353164 H 0.0 **** 0.06
29543 H 90.85289028684839 31.953004252984144 27.648943713218415 H 0.0 **** 0.06
29544 H 89.85623613935904 30.689068003804167 26.8875924758251 H 0.0 **** 0.06
29545 H 91.46928155443722 31.06516507279101 26.234352469018972 H 0.0 **** 0.06
29546 C 49.55479593834801 4.545437297014701 8.851217834357328 C 0.0 **** -0.24
29547 H 49.30831325794537 5.09541944845941 7.942291846269029 H 0.0 **** 0.06
29548 H 48.68415333573817 4.517421898680851 9.506094970733642 H 0.0 **** 0.06
29549 H 50.37925709341444 5.041999294809017 9.362318068166758 H 0.0 **** 0.06
29550 H 49.847909967163716 3.5275674006784357 8.591274423686315 H 0.0 **** 0.06
29551 C 52.863949207713915 70.5742544814172 96.56210542648653 C 0.0 **** -0.24
29552 H 52.02992990658514 71.27557667137573 96.55999571958823 H 0.0 **** 0.06
29553 H 52.480326879576964 69.55328411240741 96.56719978169677 H 0.0 **** 0.06
29554 H 53.47364582819256 70.737950235609 97.44999797064227 H 0.0 **** 0.06
29555 H 53.47033180817165 70.72917366655949 95.67000697282555 H 0.0 **** 0.06
29556 C 116.79354446404298 57.0167944966922 122.82992043591956 C 0.0 **** -0.24
29557 H 115.75269394843153 56.7363848610986 122.99083692501075 H 0.0 **** 0.06
29558 H 116.83795348585343 58.02598142443989 122.41998375654087 H 0.0 **** 0.06
29559 H 117.25349651418472 56.318999959556976 122.13016949450314 H 0.0 **** 0.06
29560 H 117.32879655561939 56.986105585678644 123.77931018602361 H 0.0 **** 0.06
29561 C 129.4120759647986 65.98492111048293 51.32261618796244 C 0.0 **** -0.24
29562 H 128.7576806419482 65.33982365301175 51.90942155454907 H 0.0 **** 0.06
29563 H 130.38345638691823 66.05898646215896 51.81308834695811 H 0.0 **** 0.06
29564 H 128.9680565898529 66.97770462327038 51.244948943918885 H 0.0 **** 0.06
29565 H 129.53865536984918 65.56317861592774 50.32579755577255 H 0.0 **** 0.06
29566 C 21.39627501570152 143.0595980964963 73.04067144825224 C 0.0 **** -0.24
29567 H 20.53162910517068 142.55995891456413 73.47832615948592 H 0.0 **** 0.06
29568 H 21.522585433947427 144.03959670898547 73.50256747541293 H 0.0 **** 0.06
29569 H 21.241843232557812 143.18029572751675 71.96859105113967 H 0.0 **** 0.06
29570 H 22.288443081082505 142.45858320124069 73.21482569280143 H 0.0 **** 0.06
29571 C 117.48799833132847 100.59496447172938 33.292260688023575 C 0.0 **** -0.24
29572 H 117.52346108757519 99.81776149573271 32.5292125962944 H 0.0 **** 0.06
29573 H 118.48540619175179 100.73951198103235 33.70982880650628 H 0.0 **** 0.06
29574 H 116.80241237032601 100.29548064346969 34.08546295677276 H 0.0 **** 0.06
29575 H 117.14188807567234 101.52696902643613 32.84531473193178 H 0.0 **** 0.06
29576 C 34.08738692465653 2.2898442583497776 6.079013517628653 C 0.0 **** -0.24
29577 H 34.600930303880546 1.5876700468585199 5.421255122515873 H 0.0 **** 0.06
29578 H 33.040232850635675 2.002085268970834 6.170984065904776 H 0.0 **** 0.06
29579 H 34.153393216538575 3.2939123144528217 5.658442430957365 H 0.0 **** 0.06
29580 H 34.55714235325095 2.276127887555308 7.061879804359506 H 0.0 **** 0.06
29581 C 33.91463419940459 89.58433668585792 7.041875417126363 C 0.0 **** -0.24
29582 H 33.093125844145305 90.0083660812291 6.466064241947834 H 0.0 **** 0.06
29583 H 34.46677019038495 90.38701183428951 7.532730802798966 H 0.0 **** 0.06
29584 H 34.58222781752258 89.03807106741085 6.375837802667178 H 0.0 **** 0.06
29585 H 33.5172357121435 88.9037610336756 7.795171988592159 H 0.0 **** 0.06
29586 C 54.861464963100616 112.39523732725573 77.3483049712691 C 0.0 **** -0.24
29587 H 54.53172556843231 112.37879066923134 78.38768072939715 H 0.0 **** 0.06
29588 H 54.135851401476486 111.86798627035714 76.72850275570966 H 0.0 **** 0.06
29589 H 55.8328169027763 111.90681357011348 77.26727320944374 H 0.0 **** 0.06
29590 H 54.94523176929118 113.42834798277326 77.01175488442243 H 0.0 **** 0.06
29591 C 43.610287776180584 146.66005851910973 45.28556424872242 C 0.0 **** -0.24
29592 H 43.6558812596076 145.99972945163006 44.41911155636639 H 0.0 **** 0.06
29593 H 42.85976185726834 147.4317680724276 45.113599994259715 H 0.0 **** 0.06
29594 H 44.58271160213971 147.12708686786817 45.43788911476324 H 0.0 **** 0.06
29595 H 43.34145544141573 146.08165665445716 46.16916592539019 H 0.0 **** 0.06
29596 C 77.2238831912519 122.76297071442427 74.90332267443006 C 0.0 **** -0.24
29597 H 77.2290818616661 122.06533561867575 75.7413905514291 H 0.0 **** 0.06
29598 H 78.07726630524088 123.43704178612101 74.98695873508572 H 0.0 **** 0.06
29599 H 76.30060734129759 123.34258556142707 74.91953495130792 H 0.0 **** 0.06
29600 H 77.28865844033736 122.20793468998498 73.9680453774823 H 0.0 **** 0.06
29601 C 84.76995659717046 28.20645236566267 80.62715961898049 C 0.0 **** -0.24
29602 H 85.79528673349235 27.87873901805535 80.45364713315699 H 0.0 **** 0.06
29603 H 84.46011638855414 28.872283327363327 79.821300026591 H 0.0 **** 0.06
29604 H 84.71446843151215 28.735434056132675 81.57840769717599 H 0.0 **** 0.06
29605 H 84.11209968801064 27.33818303127766 80.65510796049001 H 0.0 **** 0.06
29606 C 105.51493840635491 115.63886826244746 64.5947619674719 C 0.0 **** -0.24
29607 H 105.79634222344755 115.10631658017454 65.5034341278843 H 0.0 **** 0.06
29608 H 106.40288318469781 115.8133776063099 63.98685814629462 H 0.0 **** 0.06
29609 H 105.06223895027837 116.5942369222162 64.85991928946748 H 0.0 **** 0.06
29610 H 104.79994201531646 115.0406493669905 64.03040855115555 H 0.0 **** 0.06
29611 C 34.77619737132653 142.70005379213234 21.196310718961456 C 0.0 **** -0.24
29612 H 35.40011712956317 141.82106200916223 21.36197637627638 H 0.0 **** 0.06
29613 H 35.399572402948024 143.59356129842493 21.2027410574173 H 0.0 **** 0.06
29614 H 34.03066110183596 142.76961204820006 21.988698767614295 H 0.0 **** 0.06
29615 H 34.274335610993035 142.61266561226793 20.231750389987234 H 0.0 **** 0.06
29616 C 1.501190798621046 45.183958231402485 115.24320356034151 C 0.0 **** -0.24
29617 H 0.9536665995771223 45.98637515882206 115.73735212108217 H 0.0 **** 0.06
29618 H 0.8344871412663721 44.65508898659343 114.56151736584114 H 0.0 **** 0.06
29619 H 1.8808327617425036 44.48826033357717 115.99190438143116 H 0.0 **** 0.06
29620 H 2.3347911916396065 45.60509411825568 114.68204101852346 H 0.0 **** 0.06
29621 C 117.15961428901701 60.73218346580012 144.19806827386267 C 0.0 **** -0.24
29622 H 116.99866892125058 61.247210536759596 145.14499603163387 H 0.0 **** 0.06
29623 H 116.61839828539499 59.78545852504358 144.20323053253114 H 0.0 **** 0.06
29624 H 118.22365585004101 60.54253214645706 144.06424248234293 H 0.0 **** 0.06
29625 H 116.79431044646722 61.354425713625545 143.3804979673206 H 0.0 **** 0.06
29626 C 22.784791616761936 76.22277740396876 129.2456630828699 C 0.0 **** -0.24
29627 H 22.643351464765004 77.0404282137556 128.5394695613835 H 0.0 **** 0.06
29628 H 23.364425025616043 75.42942783179055 128.77265981834495 H 0.0 **** 0.06
29629 H 21.81361487219968 75.83307156138127 129.54869695257418 H 0.0 **** 0.06
29630 H 23.319158106113193 76.58930625598069 130.12317639099342 H 0.0 **** 0.06
29631 C 98.07730550648965 48.76541498086948 54.57289619910448 C 0.0 **** -0.24
29632 H 98.09942750497278 47.68266994326582 54.69463882831788 H 0.0 **** 0.06
29633 H 97.1795016660158 49.05097102104942 54.02460111432271 H 0.0 **** 0.06
29634 H 98.95952042331415 49.087520392526926 54.02019880718498 H 0.0 **** 0.06
29635 H 98.07026049879205 49.24053854747484 55.55492752445126 H 0.0 **** 0.06
29636 C 5.6792491860915675 18.82781130197605 118.83181352902828 C 0.0 **** -0.24
29637 H 5.137880876957638 19.496511780391174 118.1630224656456 H 0.0 **** 0.06
29638 H 5.402375011707193 17.795541578307926 118.6157477452136 H 0.0 **** 0.06
29639 H 5.424606373300151 19.064002155885866 119.86564158566274 H 0.0 **** 0.06
29640 H 6.751503451467784 18.95643064529417 118.68309113952084 H 0.0 **** 0.06
29641 C 140.28394848309256 112.19107907159349 77.48541446238762 C 0.0 **** -0.24
29642 H 140.49959646013247 111.1257028096311 77.41142923445709 H 0.0 **** 0.06
29643 H 140.9195262458943 112.63754627403267 78.25067484815715 H 0.0 **** 0.06
29644 H 139.23730953967208 112.3314840536957 77.75588415530935 H 0.0 **** 0.06
29645 H 140.47906548077015 112.66923971920625 76.52585924653596 H 0.0 **** 0.06
29646 C 112.56174827312351 8.603671080492319 127.54652819875659 C 0.0 **** -0.24
29647 H 112.41709983140838 7.5262369870151815 127.47322027439473 H 0.0 **** 0.06
29648 H 113.03137971062544 8.970368085891408 126.63383268528634 H 0.0 **** 0.06
29649 H 113.20202566846764 8.826595870635828 128.4000590306247 H 0.0 **** 0.06
29650 H 111.59575147334336 9.091415779201071 127.67967398318628 H 0.0 **** 0.06
29651 C 89.82722921494394 101.41880417864867 58.00718568029282 C 0.0 **** -0.24
29652 H 89.35141874654425 100.44613505738646 57.88164816618429 H 0.0 **** 0.06
29653 H 90.08374217036442 101.5652596887643 59.05592555957067 H 0.0 **** 0.06
29654 H 89.13977473045799 102.2022389320867 57.68784446569113 H 0.0 **** 0.06
29655 H 90.73269657880488 101.46021794726458 57.402105336846915 H 0.0 **** 0.06
29656 C 73.79167895609166 147.869079525966 15.861704671366198 C 0.0 **** -0.24
29657 H 73.8122201193762 148.23886042256078 14.836372702634264 H 0.0 **** 0.06
29658 H 74.3264150226467 146.92072937920827 15.917083656806 H 0.0 **** 0.06
29659 H 72.75836474513619 147.72311396464477 16.17480887536186 H 0.0 **** 0.06
29660 H 74.27116685115107 148.595315599528 16.518580636571926 H 0.0 **** 0.06
29661 C 112.29377607786226 38.079279570422585 19.10244195217345 C 0.0 **** -0.24
29662 H 112.27308818277744 38.218028020823 18.021160125107997 H 0.0 **** 0.06
29663 H 112.52411103086818 39.02894918122027 19.586284857887023 H 0.0 **** 0.06
29664 H 113.05821998832887 37.34582087744715 19.358735405492666 H 0.0 **** 0.06
29665 H 111.32156590605716 37.724429959121494 19.442021924362592 H 0.0 **** 0.06
29666 C 112.79564241510053 20.463212227287983 11.257339778303354 C 0.0 **** -0.24
29667 H 113.60354255378303 20.2624031596888 11.961284083550254 H 0.0 **** 0.06
29668 H 112.79300245629821 19.698997763857847 10.481113837196446 H 0.0 **** 0.06
29669 H 112.94558869187614 21.443495703659863 10.8032153889082 H 0.0 **** 0.06
29670 H 111.84275070716495 20.44973570954454 11.786082860846626 H 0.0 **** 0.06
29671 C 52.74578580515211 28.488778428148834 54.68627965907527 C 0.0 **** -0.24
29672 H 53.31184303890575 27.61226845590545 54.37004559697277 H 0.0 **** 0.06
29673 H 52.08789464167495 28.80681877094335 53.876923078229 H 0.0 **** 0.06
29674 H 53.43496158339357 29.296411215937056 54.93408105157053 H 0.0 **** 0.06
29675 H 52.14873205255546 28.238494413341698 55.56278019260091 H 0.0 **** 0.06
29676 C 116.87920040711445 102.27738076535901 29.79015875754108 C 0.0 **** -0.24
29677 H 117.3583479025856 102.83490614623578 30.59564038474548 H 0.0 **** 0.06
29678 H 117.640629504378 101.90159747085416 29.106137444067627 H 0.0 **** 0.06
29679 H 116.19678616158633 102.93363792893022 29.250390471903984 H 0.0 **** 0.06
29680 H 116.3226577444159 101.44004606923907 30.209857834516555 H 0.0 **** 0.06
29681 C 34.910792241429874 74.02533360692158 30.167063654102478 C 0.0 **** -0.24
29682 H 33.98666946306611 74.32634042174686 29.67253406892953 H 0.0 **** 0.06
29683 H 35.73429110797741 74.06783251379969 29.454586339167328 H 0.0 **** 0.06
29684 H 34.80617073803228 73.00706342857015 30.542801197335514 H 0.0 **** 0.06
29685 H 35.11379956153263 74.70045490527046 30.99926242685745 H 0.0 **** 0.06
29686 C 43.26740138550578 93.11843850469933 31.00587522298143 C 0.0 **** -0.24
29687 H 42.97281147543764 93.5863103478742 30.066227828450664 H 0.0 **** 0.06
29688 H 43.512315671886014 92.07154791521269 30.82931493778812 H 0.0 **** 0.06
29689 H 42.44346978089372 93.18396823616922 31.71753251705716 H 0.0 **** 0.06
29690 H 44.13797903339305 93.63322746061648 31.410789199515172 H 0.0 **** 0.06
29691 C 84.29936888128856 90.393796871318 6.11979386093935 C 0.0 **** -0.24
29692 H 85.29156726544892 90.38201407674859 5.668381604031257 H 0.0 **** 0.06
29693 H 84.39408146632242 90.36715091568982 7.2053849469958 H 0.0 **** 0.06
29694 H 83.73652096580895 89.52330277849576 5.781871139336523 H 0.0 **** 0.06
29695 H 83.77560714995522 91.30228745455335 5.821364612969234 H 0.0 **** 0.06
29696 C 11.112017106587423 86.03150398023331 49.52440814371168 C 0.0 **** -0.24
29697 H 12.193080603930504 86.02985178734102 49.38624716076541 H 0.0 **** 0.06
29698 H 10.863519320503997 86.57689494259442 50.43541421940594 H 0.0 **** 0.06
29699 H 10.754269550436838 85.00481932206758 49.60475612282775 H 0.0 **** 0.06
29700 H 10.638548419937756 86.51609366761802 48.669999719900446 H 0.0 **** 0.06
29701 C 134.20333936832014 116.89215474268818 63.75934716657716 C 0.0 **** -0.24
29702 H 133.46156134746604 116.29035041307267 64.2852838867571 H 0.0 **** 0.06
29703 H 134.9624279468341 116.23777850417943 63.3295032508091 H 0.0 **** 0.06
29704 H 134.6719634362836 117.58387499122946 64.45858105056625 H 0.0 **** 0.06
29705 H 133.71522592250574 117.45485105132653 62.96364457823239 H 0.0 **** 0.06
29706 C 136.57890697940618 15.328081827829408 46.492626805148575 C 0.0 **** -0.24
29707 H 137.33825733713726 15.128105461922814 47.24838599895149 H 0.0 **** 0.06
29708 H 136.98409942858032 15.108086053136276 45.503870768831575 H 0.0 **** 0.06
29709 H 136.2860967874541 16.37695559751296 46.53977009981999 H 0.0 **** 0.06
29710 H 135.707723079014 14.699391259946424 46.67632291272477 H 0.0 **** 0.06
29711 C 144.28270698937618 102.3975916190774 84.50328221105627 C 0.0 **** -0.24
29712 H 145.31826600626232 102.66390289167614 84.29601367737598 H 0.0 **** 0.06
29713 H 143.66974809137514 102.6111319070466 83.6268374217808 H 0.0 **** 0.06
29714 H 143.91952931788768 102.9791945786166 85.35013546366781 H 0.0 **** 0.06
29715 H 144.22104333401433 101.33522073176682 84.73977150167008 H 0.0 **** 0.06
29716 C 147.9954112533564 96.31471289386991 115.1850179450363 C 0.0 **** -0.24
29717 H 148.41042173678633 96.1989190285301 114.1826115157919 H 0.0 **** 0.06
29718 H 148.0235591236033 97.36702422944308 115.46932071712439 H 0.0 **** 0.06
29719 H 148.58434957961427 95.73062684743331 115.891456607468 H 0.0 **** 0.06
29720 H 146.96375789052559 95.96334539633523 115.19312315841069 H 0.0 **** 0.06
29721 C 81.20167504288621 92.62962877741231 58.92377542554755 C 0.0 **** -0.24
29722 H 80.93921908334477 92.7321836557565 57.87078309259698 H 0.0 **** 0.06
29723 H 80.35057314888996 92.22304079567911 59.47131657797706 H 0.0 **** 0.06
29724 H 81.46202843636691 93.6068322168814 59.33008813890069 H 0.0 **** 0.06
29725 H 82.0526511754646 91.95566731779795 59.02227443997754 H 0.0 **** 0.06
29726 C 115.56363120062068 123.32573029784999 103.43241301252586 C 0.0 **** -0.24
29727 H 115.52890855221452 124.3932307143757 103.64769572375566 H 0.0 **** 0.06
29728 H 114.70635467545983 123.05106867005173 102.81740776759891 H 0.0 **** 0.06
29729 H 115.53420004326014 122.76614543269488 104.36748898756495 H 0.0 **** 0.06
29730 H 116.48483492323439 123.09217446880285 102.89842250000011 H 0.0 **** 0.06
29731 C 136.63297450216652 93.40553840774727 54.11103063751602 C 0.0 **** -0.24
29732 H 137.35451520375787 94.09304163925981 53.67059133888881 H 0.0 **** 0.06
29733 H 137.10156643171683 92.86351823012826 54.932628607777986 H 0.0 **** 0.06
29734 H 136.29644196552266 92.69828970096385 53.35302100716761 H 0.0 **** 0.06
29735 H 135.7785161703278 93.96835482709179 54.48610409755808 H 0.0 **** 0.06
29736 C 101.89140594635553 85.51283800425021 43.414590317350346 C 0.0 **** -0.24
29737 H 101.92640498295644 86.45872994691466 43.95709198769879 H 0.0 **** 0.06
29738 H 100.85617504153333 85.18259211326757 43.32877592536747 H 0.0 **** 0.06
29739 H 102.46872373471506 84.7634154233163 43.95536237941705 H 0.0 **** 0.06
29740 H 102.31396331746612 85.64997221280537 42.41969990809132 H 0.0 **** 0.06
29741 C 148.1652158231115 62.37991536620166 102.19724382198291 C 0.0 **** -0.24
29742 H 147.80922612468208 61.85255227155693 103.08262227658885 H 0.0 **** 0.06
29743 H 148.44998199411884 61.65543170110362 101.43397182130454 H 0.0 **** 0.06
29744 H 149.02950984605872 62.98851094615907 102.46132091306615 H 0.0 **** 0.06
29745 H 147.37179011418328 63.02111470685958 101.81364178471783 H 0.0 **** 0.06
29746 C 17.094171808207378 94.30423400565411 137.8766473723375 C 0.0 **** -0.24
29747 H 17.9082930606887 95.02018583625619 137.98661565497562 H 0.0 **** 0.06
29748 H 17.482308813368967 93.37433658942433 137.4620705852403 H 0.0 **** 0.06
29749 H 16.337541234389313 94.71323206824746 137.2077144820553 H 0.0 **** 0.06
29750 H 16.648586784271878 94.10983693904427 138.85232624231892 H 0.0 **** 0.06
29751 C 54.188553241859154 102.1252937179558 74.74303286541834 C 0.0 **** -0.24
29752 H 54.47539648311562 103.17461243247362 74.81966650657994 H 0.0 **** 0.06
29753 H 54.92787473568586 101.5896595413511 74.1460510343344 H 0.0 **** 0.06
29754 H 53.212179250736654 102.0502803347336 74.26514556022373 H 0.0 **** 0.06
29755 H 54.14055469698661 101.6880792649988 75.74045211174294 H 0.0 **** 0.06
29756 C 66.88775729960285 85.95824577899965 112.83977741942549 C 0.0 **** -0.24
29757 H 67.11006625583227 84.90973530921354 112.63963488553291 H 0.0 **** 0.06
29758 H 66.03738825857566 86.0253147346186 113.51843030297626 H 0.0 **** 0.06
29759 H 66.64751551068147 86.46333260551658 111.90466264908802 H 0.0 **** 0.06
29760 H 67.75689517177625 86.43242060898586 113.29712315431156 H 0.0 **** 0.06
29761 C 108.47262405885132 92.4809714138292 141.77440199085484 C 0.0 **** -0.24
29762 H 107.41984461936752 92.36769140141058 142.0306470454747 H 0.0 **** 0.06
29763 H 109.07190073512763 91.82306203625569 142.4030920320331 H 0.0 **** 0.06
29764 H 108.77707267263034 93.51489499186252 141.93480939397986 H 0.0 **** 0.06
29765 H 108.62087664594608 92.21733789819854 140.72717564196037 H 0.0 **** 0.06
29766 C 45.91962830355834 18.376153053639996 50.92396750725851 C 0.0 **** -0.24
29767 H 45.09767440530277 18.89512501130224 50.430748099930156 H 0.0 **** 0.06
29768 H 46.86058228089942 18.861058358049405 50.6677061714113 H 0.0 **** 0.06
29769 H 45.942874109899876 17.337022687832132 50.592672666180064 H 0.0 **** 0.06
29770 H 45.774206680037395 18.408659381349935 52.00413434868342 H 0.0 **** 0.06
29771 C 139.91210494779725 127.06543212676965 124.87986805158235 C 0.0 **** -0.24
29772 H 140.68135299803768 126.63329741978177 125.51958791376867 H 0.0 **** 0.06
29773 H 140.274408345536 128.0045579567977 124.46092720836876 H 0.0 **** 0.06
29774 H 139.01344690756972 127.25135607707708 125.46717926211423 H 0.0 **** 0.06
29775 H 139.68013589800765 126.37225065756601 124.0707411597376 H 0.0 **** 0.06
29776 C 73.93504414322865 38.71946274034252 8.075606285159012 C 0.0 **** -0.24
29777 H 72.89989689216176 39.06070997255591 8.05822855917745 H 0.0 **** 0.06
29778 H 74.60192626468813 39.581637177233375 8.087687863495916 H 0.0 **** 0.06
29779 H 74.133391397395 38.117601874219964 7.189155315501722 H 0.0 **** 0.06
29780 H 74.10261249499405 38.11673053302825 8.968405943762633 H 0.0 **** 0.06
29781 C 130.10572856420885 31.873620380597117 50.252711911664775 C 0.0 **** -0.24
29782 H 130.27716348112375 32.948643721185334 50.31105043702816 H 0.0 **** 0.06
29783 H 129.85744717439218 31.491672265952246 51.24296262420573 H 0.0 **** 0.06
29784 H 131.0065807652623 31.38086090050342 49.88749707538447 H 0.0 **** 0.06
29785 H 129.28045043087081 31.675284039226 49.56865694956832 H 0.0 **** 0.06
29786 C 136.71071983077587 64.79517753920095 72.16472355920723 C 0.0 **** -0.24
29787 H 136.55422335290046 65.74065430557397 71.645813157411 H 0.0 **** 0.06
29788 H 137.71964042479473 64.76964906617802 72.5769322804286 H 0.0 **** 0.06
29789 H 136.58327533801653 63.96965866769088 71.46344684538718 H 0.0 **** 0.06
29790 H 135.98587539241717 64.70006592523559 72.97342054633361 H 0.0 **** 0.06
29791 C 56.91254662610949 90.77969461482732 47.134805446172834 C 0.0 **** -0.24
29792 H 56.655434094789484 89.8491721454125 46.62785515682373 H 0.0 **** 0.06
29793 H 56.578468093891544 90.73339630828701 48.170620792757745 H 0.0 **** 0.06
29794 H 56.424001835942065 91.61466400747 46.63228619774998 H 0.0 **** 0.06
29795 H 57.99268661187094 90.92185548250521 47.10714017917212 H 0.0 **** 0.06
29796 C 82.8952802590003 33.466945474680955 76.73337650110182 C 0.0 **** -0.24
29797 H 83.2135088413716 32.79060200151548 75.94030617411323 H 0.0 **** 0.06
29798 H 82.97252188104072 34.497079500007885 76.3858292393914 H 0.0 **** 0.06
29799 H 83.53340485695054 33.32808621714038 77.60613453803795 H 0.0 **** 0.06
29800 H 81.86100645171787 33.25013968580109 77.00107677325637 H 0.0 **** 0.06
29801 C 73.15255226937482 10.198172910516746 84.21783591039468 C 0.0 **** -0.24
29802 H 73.29326180627606 10.463720720967643 85.26532178130162 H 0.0 **** 0.06
29803 H 73.84536937262031 10.770941158761246 83.60165211822459 H 0.0 **** 0.06
29804 H 72.12879039866972 10.424859378450378 83.92016266608124 H 0.0 **** 0.06
29805 H 73.34278749993297 9.13317038388766 84.0842070759715 H 0.0 **** 0.06
29806 C 139.85291359993505 133.7317398018871 143.9923616417918 C 0.0 **** -0.24
29807 H 140.87851361392808 134.09861594733977 143.95064842783918 H 0.0 **** 0.06
29808 H 139.33621485006086 133.99387541615675 143.06866210461243 H 0.0 **** 0.06
29809 H 139.33830979719454 134.18622068412844 144.83837730437727 H 0.0 **** 0.06
29810 H 139.85963411130382 132.64850614521836 144.11005673018965 H 0.0 **** 0.06
29811 C 84.43709197021151 75.06823984395098 47.530341226163955 C 0.0 **** -0.24
29812 H 85.35340500529783 74.49244780177663 47.65757094823732 H 0.0 **** 0.06
29813 H 84.116701869448 75.45764785034514 48.49674439048542 H 0.0 **** 0.06
29814 H 83.65770397737919 74.4250879071031 47.121106033000586 H 0.0 **** 0.06
29815 H 84.62083587087474 75.89660792906241 46.84669076716827 H 0.0 **** 0.06
29816 C 39.28251605616555 135.18425866105054 74.70884624548177 C 0.0 **** -0.24
29817 H 39.106279515084395 134.17939288240788 75.09283314366563 H 0.0 **** 0.06
29818 H 38.37834296542752 135.78152934633647 74.82930893140195 H 0.0 **** 0.06
29819 H 39.54252313645918 135.1279105861296 73.65136493082059 H 0.0 **** 0.06
29820 H 40.10027562260831 135.6465128084435 75.26079990326305 H 0.0 **** 0.06
29821 C 43.73972027977621 82.98230913940645 145.49054979699437 C 0.0 **** -0.24
29822 H 44.598543785066 82.51142721056945 145.9703809468428 H 0.0 **** 0.06
29823 H 43.91713360687146 84.05421273078194 145.39933186883292 H 0.0 **** 0.06
29824 H 42.84849797304179 82.81145897013536 146.09386188832207 H 0.0 **** 0.06
29825 H 43.596527962984425 82.5518566685776 144.50023719166825 H 0.0 **** 0.06
29826 C 4.579943561862912 66.14165013134715 74.97367067584932 C 0.0 **** -0.24
29827 H 3.5180535270438114 66.18540951210011 75.21361049626225 H 0.0 **** 0.06
29828 H 4.823264644816067 65.15412487106968 74.5816525715216 H 0.0 **** 0.06
29829 H 5.164631281960176 66.33003434150172 75.87387961225744 H 0.0 **** 0.06
29830 H 4.814168008575969 66.89765329278127 74.22341961440534 H 0.0 **** 0.06
29831 C 124.54037220256886 84.0934631176948 149.03750725220797 C 0.0 **** -0.24
29832 H 124.69878217293082 83.68966127785887 150.03767916415072 H 0.0 **** 0.06
29833 H 125.50341147698344 84.350837514099 148.59337735739487 H 0.0 **** 0.06
29834 H 123.91983061633475 84.98647915743663 149.10081538488518 H 0.0 **** 0.06
29835 H 124.0423889136783 83.3472174348127 148.4187322562291 H 0.0 **** 0.06
29836 C 2.8499816510355345 123.33355396264454 140.58910612635935 C 0.0 **** -0.24
29837 H 3.466874410086916 123.48184530160592 139.70264152132725 H 0.0 **** 0.06
29838 H 2.3926525761569337 122.34464373971798 140.55206310756674 H 0.0 **** 0.06
29839 H 2.0701089203576544 124.09414812432385 140.62003366613885 H 0.0 **** 0.06
29840 H 3.471781029743113 123.41396880484768 141.48089448685576 H 0.0 **** 0.06
29841 C 125.88913056281487 97.38451446628635 132.3374340683224 C 0.0 **** -0.24
29842 H 125.14198037908608 96.59700748433981 132.24082751302257 H 0.0 **** 0.06
29843 H 125.920625371342 97.73130031551204 133.37020951694154 H 0.0 **** 0.06
29844 H 125.62809160514283 98.21567515177816 131.6822607587938 H 0.0 **** 0.06
29845 H 126.86760229992953 96.99441763463162 132.0551256405181 H 0.0 **** 0.06
29846 C 3.0542241919817066 125.40855258862462 28.89648043294315 C 0.0 **** -0.24
29847 H 2.2577766296620077 125.59487817161227 28.176524521140536 H 0.0 **** 0.06
29848 H 3.801606682797086 126.19937492633125 28.822717470857143 H 0.0 **** 0.06
29849 H 3.5203102482155693 124.44726626432544 28.68064515569189 H 0.0 **** 0.06
29850 H 2.637984312124786 125.39299644326957 29.902825693706745 H 0.0 **** 0.06
29851 C 126.86391887851897 46.729767807946715 112.82872070205214 C 0.0 **** -0.24
29852 H 126.01566010598928 46.04669188561586 112.8000017004304 H 0.0 **** 0.06
29853 H 127.59356577256908 46.43389761285209 112.07440793471936 H 0.0 **** 0.06
29854 H 127.32632041368859 46.69417242019715 113.81495609949091 H 0.0 **** 0.06
29855 H 126.52042988422092 47.743860598523355 112.6242100423761 H 0.0 **** 0.06
29856 C 142.76089054826045 38.38955638635906 132.8220063655611 C 0.0 **** -0.24
29857 H 142.12694049022718 38.657756615606615 133.6666296023182 H 0.0 **** 0.06
29858 H 142.6083558542582 39.103502707719485 132.01209443712918 H 0.0 **** 0.06
29859 H 142.50194023475677 37.38835206676458 132.47773594126318 H 0.0 **** 0.06
29860 H 143.80549935942332 38.40853836217303 133.13100727395454 H 0.0 **** 0.06
29861 C 111.64755990109451 24.159324119954448 32.249827752474076 C 0.0 **** -0.24
29862 H 112.23348630676234 24.739310521256556 32.96388556451909 H 0.0 **** 0.06
29863 H 112.19414335900642 24.082183004143303 31.309973373941446 H 0.0 **** 0.06
29864 H 110.69227066372646 24.655440005468705 32.0762160819462 H 0.0 **** 0.06
29865 H 111.4718305652661 23.161215109451575 32.650982441629 H 0.0 **** 0.06
29866 C 46.1902211209385 52.827619110860184 73.36870783910263 C 0.0 **** -0.24
29867 H 46.197702635772856 53.3465995994184 72.40961409738665 H 0.0 **** 0.06
29868 H 46.65172828250829 51.846872720683734 73.25374201608949 H 0.0 **** 0.06
29869 H 45.16227238060256 52.708296971729254 73.70961407633243 H 0.0 **** 0.06
29870 H 46.75116348012287 53.40972456607645 74.09961712129481 H 0.0 **** 0.06
29871 C 122.38123564528546 51.10534202755957 94.83831589420424 C 0.0 **** -0.24
29872 H 121.32307720197743 51.36388293949926 94.8248719762361 H 0.0 **** 0.06
29873 H 122.97155123310976 52.00377262274941 95.02487564917854 H 0.0 **** 0.06
29874 H 122.6632533559888 50.67830456833218 93.87597837608138 H 0.0 **** 0.06
29875 H 122.5671172836072 50.37713242866778 95.62768987073227 H 0.0 **** 0.06
29876 C 16.659135958209887 3.1694817253131475 54.41825873094736 C 0.0 **** -0.24
29877 H 16.1668447877718 3.489419548411064 55.33599487733646 H 0.0 **** 0.06
29878 H 17.550827752659075 2.594037844973286 54.66653792922632 H 0.0 **** 0.06
29879 H 16.942030053244792 4.0444881259918475 53.83290651152849 H 0.0 **** 0.06
29880 H 15.976359062144567 2.548977860694521 53.83672352556404 H 0.0 **** 0.06
29881 C 67.19019228447006 59.43634756347895 150.41602887562019 C 0.0 **** -0.24
29882 H 68.19859871338167 59.5325595748953 150.01419160907486 H 0.0 **** 0.06
29883 H 66.46552202443576 59.539079013494174 149.60849142344733 H 0.0 **** 0.06
29884 H 67.01915710186367 60.21620267031898 151.15934208662088 H 0.0 **** 0.06
29885 H 67.07719746518029 58.4583804346498 150.88414526864182 H 0.0 **** 0.06
29886 C 17.03656587337943 98.2556654036523 80.50083089052181 C 0.0 **** -0.24
29887 H 16.677507893221332 97.37472536216768 79.96772345915423 H 0.0 **** 0.06
29888 H 16.32988650606356 98.51491641131526 81.28924745197428 H 0.0 **** 0.06
29889 H 17.128230203448226 99.08910436995995 79.80534431747323 H 0.0 **** 0.06
29890 H 18.010747929048392 98.04098645212201 80.94164808929918 H 0.0 **** 0.06
29891 C 113.58156334909766 143.1778702155909 49.69034690790913 C 0.0 **** -0.24
29892 H 114.4671565468614 143.60161389718544 49.215467439481145 H 0.0 **** 0.06
29893 H 113.46444280478694 143.6047202269713 50.6863666491074 H 0.0 **** 0.06
29894 H 113.6946016953003 142.0957555929797 49.76872308430899 H 0.0 **** 0.06
29895 H 112.70173630844182 143.40849552220422 49.08966327216844 H 0.0 **** 0.06
29896 C 33.51344726612109 50.28644114483471 147.50739717246762 C 0.0 **** -0.24
29897 H 33.16233334790164 49.27704064632633 147.72150492674592 H 0.0 **** 0.06
29898 H 34.55310695007515 50.38391944789606 147.82302397054715 H 0.0 **** 0.06
29899 H 32.90039094226786 51.00695511818367 148.04736382383436 H 0.0 **** 0.06
29900 H 33.439552400142304 50.47704144842278 146.4363525483416 H 0.0 **** 0.06
29901 C 61.184082518481915 41.799303817380874 96.32850443312964 C 0.0 **** -0.24
29902 H 61.882092162370554 41.01944674267504 96.6307938889841 H 0.0 **** 0.06
29903 H 60.162455711950216 41.44046257722965 96.4537486700064 H 0.0 **** 0.06
29904 H 61.35482650759286 42.05522357302222 95.28275300102663 H 0.0 **** 0.06
29905 H 61.33676804091391 42.68326259474294 96.94886041752824 H 0.0 **** 0.06
29906 C 131.7898357612835 59.093994884869474 5.1816922510064956 C 0.0 **** -0.24
29907 H 132.00319061499593 59.37787308974515 6.212370360767238 H 0.0 **** 0.06
29908 H 130.71123925834232 59.06461167328527 5.029289262469035 H 0.0 **** 0.06
29909 H 132.2119493929165 58.10874239808962 4.982077305121948 H 0.0 **** 0.06
29910 H 132.23457238074016 59.82315690884434 4.50396325593465 H 0.0 **** 0.06
29911 C 31.063899514882493 107.04591284760339 65.32232553389122 C 0.0 **** -0.24
29912 H 30.787933674224874 107.6243813725667 66.20336722666094 H 0.0 **** 0.06
29913 H 30.202457168051723 106.47425982844909 64.97885159539213 H 0.0 **** 0.06
29914 H 31.875675756892484 106.36479195255022 65.57490045665557 H 0.0 **** 0.06
29915 H 31.390278781227458 107.7224802612826 64.53161278968369 H 0.0 **** 0.06
29916 C 94.21921668697095 125.16969546526725 133.64005039926198 C 0.0 **** -0.24
29917 H 94.82496746924905 126.07277772069209 133.5738849379468 H 0.0 **** 0.06
29918 H 93.21516073200107 125.42994494384705 133.97730310362437 H 0.0 **** 0.06
29919 H 94.67358766155243 124.47860227434715 134.34953026352866 H 0.0 **** 0.06
29920 H 94.16238344662112 124.6984418454581 132.65828284446746 H 0.0 **** 0.06
29921 C 26.232786082385132 115.40011375756553 115.48144515664389 C 0.0 **** -0.24
29922 H 25.809645332554794 114.59920013994899 116.08821347134442 H 0.0 **** 0.06
29923 H 26.763774595127927 114.96989908063556 114.63119573284136 H 0.0 **** 0.06
29924 H 26.92642919902039 115.98542722012114 116.08501110841222 H 0.0 **** 0.06
29925 H 25.431033492056997 116.04464918903138 115.1208174374121 H 0.0 **** 0.06
29926 C 55.275741741535725 98.00661455844144 73.9532400730958 C 0.0 **** -0.24
29927 H 54.74154065751371 97.56408175472478 73.112058506244 H 0.0 **** 0.06
29928 H 54.793434917751895 97.71218332036224 74.88474145113 H 0.0 **** 0.06
29929 H 55.25978660181174 99.09241726026664 73.86258476057652 H 0.0 **** 0.06
29930 H 56.30805768322304 97.65734413515202 73.95138648252923 H 0.0 **** 0.06
29931 C 115.46744175795877 49.07536807214353 66.38155413951722 C 0.0 **** -0.24
29932 H 114.70604398362391 48.29627190937248 66.42717329733642 H 0.0 **** 0.06
29933 H 116.44890155645018 48.634145496432325 66.55314889490904 H 0.0 **** 0.06
29934 H 115.26670727613762 49.82479835618386 67.14741601665003 H 0.0 **** 0.06
29935 H 115.44630060822996 49.54542696331498 65.39862934389362 H 0.0 **** 0.06
29936 C 62.77929021818386 13.024262863295235 113.64811708487596 C 0.0 **** -0.24
29937 H 62.87395292971853 12.480433173665261 112.70793053747647 H 0.0 **** 0.06
29938 H 62.738243218135295 14.09381786431507 113.44500213505685 H 0.0 **** 0.06
29939 H 63.63919795283418 12.805980413719084 114.28210208278253 H 0.0 **** 0.06
29940 H 61.8658688202342 12.71417511329571 114.15543494583673 H 0.0 **** 0.06
29941 C 146.68313504650064 38.037066218963574 101.75304621766459 C 0.0 **** -0.24
29942 H 146.9114357684048 37.04174955854867 101.37030472238172 H 0.0 **** 0.06
29943 H 145.64363552054226 38.28026610870418 101.5327122930284 H 0.0 **** 0.06
29944 H 147.3365833782951 38.76769018889371 101.27638766846219 H 0.0 **** 0.06
29945 H 146.8404842194062 38.0558905197679 102.83146931062696 H 0.0 **** 0.06
29946 C 53.161306854735045 128.95661398659374 75.9038276503674 C 0.0 **** -0.24
29947 H 52.2513109089726 129.51590040919325 76.1231073619479 H 0.0 **** 0.06
29948 H 53.559960054738596 128.53409674481236 76.82649135619141 H 0.0 **** 0.06
29949 H 53.899629631522245 129.6247780341632 75.46070039998907 H 0.0 **** 0.06
29950 H 52.93317467725568 128.15249820042152 75.20494500040087 H 0.0 **** 0.06
29951 C 114.78474610991434 33.06333555883177 98.1393075514325 C 0.0 **** -0.24
29952 H 115.12094679865159 32.8625069588814 99.15639380341025 H 0.0 **** 0.06
29953 H 115.37507450120007 32.471720573552716 97.43817870762828 H 0.0 **** 0.06
29954 H 114.91162736809157 34.12272296740517 97.91802962311354 H 0.0 **** 0.06
29955 H 113.73326481990681 32.795304078209455 98.04493784200466 H 0.0 **** 0.06
29956 C 25.696362296399087 116.22169393920191 72.10567418134906 C 0.0 **** -0.24
29957 H 26.618724340282 116.26221099154148 71.52683129387734 H 0.0 **** 0.06
29958 H 25.275205132648267 117.22405279456748 72.1897449316416 H 0.0 **** 0.06
29959 H 25.90893982393581 115.83217948799646 73.10130351696017 H 0.0 **** 0.06
29960 H 24.981751758481806 115.56886072369142 71.60500459514988 H 0.0 **** 0.06
29961 C 74.68536794810898 148.10232732889648 62.28828077576625 C 0.0 **** -0.24
29962 H 74.18112147535372 147.36769467300442 61.66175321838571 H 0.0 **** 0.06
29963 H 75.26908202877543 148.77617776135807 61.66028635732327 H 0.0 **** 0.06
29964 H 75.34803269473818 147.5905202192939 62.986015963798096 H 0.0 **** 0.06
29965 H 73.94453518393662 148.675028808074 62.84561397120697 H 0.0 **** 0.06
29966 C 38.73139220525228 52.05589133702394 43.528498647894864 C 0.0 **** -0.24
29967 H 39.598063303484594 51.4001703394913 43.60995201311016 H 0.0 **** 0.06
29968 H 39.06564685824358 53.085714927059556 43.395386842162694 H 0.0 **** 0.06
29969 H 38.1332594929175 51.98281688615195 44.43750190083874 H 0.0 **** 0.06
29970 H 38.127843368675855 51.75605487661528 42.67106035326992 H 0.0 **** 0.06
29971 C 65.00034454349472 94.45509250012383 88.62447335846977 C 0.0 **** -0.24
29972 H 65.58348534282192 95.3296342781539 88.33603624359827 H 0.0 **** 0.06
29973 H 64.21178277650495 94.28586700962826 87.89128132746923 H 0.0 **** 0.06
29974 H 64.5551154844664 94.62498052158026 89.60505922850363 H 0.0 **** 0.06
29975 H 65.65137072389474 93.58192416291517 88.66744370983683 H 0.0 **** 0.06
29976 C 135.7515440994062 19.271742532557717 95.56699796130847 C 0.0 **** -0.24
29977 H 134.96320346103226 19.33266820664158 96.31681897928802 H 0.0 **** 0.06
29978 H 136.7024619739409 19.05863173896823 96.05666368193322 H 0.0 **** 0.06
29979 H 135.82120857643224 20.220434227511966 95.03536332138013 H 0.0 **** 0.06
29980 H 135.51878904325838 18.475280627361116 94.86000290415647 H 0.0 **** 0.06
29981 C 113.79868729424543 32.98889407084735 43.618530381984584 C 0.0 **** -0.24
29982 H 113.0719098750469 32.26521213374181 43.98632854318596 H 0.0 **** 0.06
29983 H 114.69958186375688 32.466719137008766 43.29477610309948 H 0.0 **** 0.06
29984 H 114.0508393639714 33.688412354820656 44.41534151222325 H 0.0 **** 0.06
29985 H 113.3738030311603 33.534792215457315 42.77570353668659 H 0.0 **** 0.06
29986 C 102.33168156403798 113.31153283590231 68.12494833445574 C 0.0 **** -0.24
29987 H 102.23181608254896 113.73854646966186 69.12216981282059 H 0.0 **** 0.06
29988 H 102.21814482576164 114.09936274676193 67.37947803466857 H 0.0 **** 0.06
29989 H 101.5618034738801 112.55471498795566 67.9746354801287 H 0.0 **** 0.06
29990 H 103.31601683595864 112.85344516903797 68.02257017613424 H 0.0 **** 0.06
29991 C 137.2894878731517 126.93493159287534 109.60573652348405 C 0.0 **** -0.24
29992 H 137.53239024995037 125.87963206456817 109.47887893266814 H 0.0 **** 0.06
29993 H 138.0947915014955 127.54480349609557 109.19703517863782 H 0.0 **** 0.06
29994 H 137.169698656007 127.15415319891329 110.66715441857146 H 0.0 **** 0.06
29995 H 136.360597477513 127.15872305262907 109.08127251639415 H 0.0 **** 0.06
29996 C 29.582334047172345 85.05621556036175 99.50905237734614 C 0.0 **** -0.24
29997 H 30.09163497802237 85.00555616998776 100.471268393175 H 0.0 **** 0.06
29998 H 28.505157012370155 85.10570543943686 99.67092239525141 H 0.0 **** 0.06
29999 H 29.8212867597059 84.16766881085718 98.92468198212535 H 0.0 **** 0.06
30000 H 29.9110849527368 85.94461250796451 98.97044568928723 H 0.0 **** 0.06
30001 C 47.450778906801446 97.64677421976015 136.50672290042695 C 0.0 **** -0.24
30002 H 46.83168709259107 97.80921332711972 137.38989864890235 H 0.0 **** 0.06
30003 H 46.84793472834227 97.1939659012832 135.71967842942618 H 0.0 **** 0.06
30004 H 48.27651411861572 96.98244557969718 136.75992888715734 H 0.0 **** 0.06
30005 H 47.84448610106509 98.60191224663023 136.1595277552383 H 0.0 **** 0.06
30006 C 18.391723848510253 28.873949040854683 13.221050239725109 C 0.0 **** -0.24
30007 H 17.984855826424734 27.939323245568744 12.835514891777805 H 0.0 **** 0.06
30008 H 19.29810376156985 28.668250364130756 13.789656392003842 H 0.0 **** 0.06
30009 H 17.65523170572459 29.349979826085814 13.868816801100479 H 0.0 **** 0.06
30010 H 18.626940823359007 29.53766606017055 12.388613333899166 H 0.0 **** 0.06
30011 C 109.42194074708048 94.07086902673927 91.59942321798125 C 0.0 **** -0.24
30012 H 110.16256897534059 94.53482748904094 90.9477224652892 H 0.0 **** 0.06
30013 H 109.88657702322307 93.25247613380105 92.15074049718389 H 0.0 **** 0.06
30014 H 108.60084862189841 93.68354634567874 90.99703604263335 H 0.0 **** 0.06
30015 H 109.04081801029086 94.81178942504772 92.30077964231167 H 0.0 **** 0.06
30016 C 108.70891738321056 4.965739740653095 44.632638820089895 C 0.0 **** -0.24
30017 H 107.68457920464995 5.014575570360801 45.003986224071696 H 0.0 **** 0.06
30018 H 108.8359269721996 5.687868802135153 43.82525618678784 H 0.0 **** 0.06
30019 H 108.91234194645462 3.9627190680051427 44.25926445726708 H 0.0 **** 0.06
30020 H 109.39991611867232 5.200146881321732 45.44222421682727 H 0.0 **** 0.06
30021 C 85.26005838925158 28.508778506828378 33.96201548828233 C 0.0 **** -0.24
30022 H 85.51183650984636 29.40468077345355 34.529818625341164 H 0.0 **** 0.06
30023 H 85.5551606209198 27.624989846722656 34.52776522613226 H 0.0 **** 0.06
30024 H 85.78905044893703 28.52262124627879 33.00910979449402 H 0.0 **** 0.06
30025 H 84.18604204962384 28.484038622165087 33.78164289855506 H 0.0 **** 0.06
30026 C 94.28435727238102 57.495152154642824 57.49047859865007 C 0.0 **** -0.24
30027 H 94.29092959359306 58.5695795230796 57.67660531365085 H 0.0 **** 0.06
30028 H 94.34141571213365 56.962381840298065 58.43906099707344 H 0.0 **** 0.06
30029 H 95.14160171640444 57.22949005393559 56.87133635329417 H 0.0 **** 0.06
30030 H 93.36369468637687 57.22248956724434 56.973989467437036 H 0.0 **** 0.06
30031 C 28.209096841888908 121.48815392567587 2.903027434498398 C 0.0 **** -0.24
30032 H 27.420272321269977 121.40341052660415 2.1560663316925854 H 0.0 **** 0.06
30033 H 29.025340699600036 120.81092346565009 2.646620637960723 H 0.0 **** 0.06
30034 H 27.811192271341298 121.22365445060666 3.882504053930319 H 0.0 **** 0.06
30035 H 28.579831321675528 122.51250361234088 2.9257236340115753 H 0.0 **** 0.06
30036 C 17.720920172939827 53.62885752652744 128.76037946830456 C 0.0 **** -0.24
30037 H 17.563574500974994 52.551756022184804 128.71413950950765 H 0.0 **** 0.06
30038 H 17.205181982028137 54.10779855182885 127.92767056297998 H 0.0 **** 0.06
30039 H 18.788621757964847 53.84219439933295 128.6989772660444 H 0.0 **** 0.06
30040 H 17.327931575591776 54.0127071972597 129.70191272968825 H 0.0 **** 0.06
30041 C 81.2693114613259 109.82043638032667 117.35446645655826 C 0.0 **** -0.24
30042 H 80.8971442482022 109.25855097888098 116.4973171842354 H 0.0 **** 0.06
30043 H 82.0984413359121 110.45468483396775 117.03993497303166 H 0.0 **** 0.06
30044 H 81.61237018945054 109.12646368362277 118.121132649232 H 0.0 **** 0.06
30045 H 80.46883307959315 110.44060026252714 117.75670589891966 H 0.0 **** 0.06
30046 C 32.328075193020865 105.96818404853593 56.672787502090316 C 0.0 **** -0.24
30047 H 32.64416891515969 106.07387748585455 55.63499651176225 H 0.0 **** 0.06
30048 H 32.49145552060307 106.90859318594897 57.20031480194348 H 0.0 **** 0.06
30049 H 32.908800287613474 105.17796924226275 57.15031285957504 H 0.0 **** 0.06
30050 H 31.270021789581698 105.7111308835265 56.705331241702524 H 0.0 **** 0.06
30051 C 60.574997814951416 58.554644818413365 3.168453496883785 C 0.0 **** -0.24
30052 H 60.34814495872422 58.00292171152441 4.081847690844764 H 0.0 **** 0.06
30053 H 59.722068384517 59.17913489746428 2.9004888449020036 H 0.0 **** 0.06
30054 H 60.77782214947143 57.85072790861739 2.360628764696738 H 0.0 **** 0.06
30055 H 61.44987832585184 59.183764785182234 3.3315995436576706 H 0.0 **** 0.06
30056 C 8.721075345279445 57.5770092509305 35.93468054126669 C 0.0 **** -0.24
30057 H 8.580284863178122 58.57303910505371 35.51448050934812 H 0.0 **** 0.06
30058 H 9.336535833082792 57.64515994138236 36.83233548385681 H 0.0 **** 0.06
30059 H 9.21670909579538 56.940767584521865 35.20194444707073 H 0.0 **** 0.06
30060 H 7.750882894636476 57.150446101621384 36.190270033696095 H 0.0 **** 0.06
30061 C 128.26028145519942 85.23186293526575 95.7262880459324 C 0.0 **** -0.24
30062 H 129.12413153013242 85.42126536039426 96.36316891341203 H 0.0 **** 0.06
30063 H 128.0964907335704 84.1564586862118 95.64711204717042 H 0.0 **** 0.06
30064 H 128.44300420045116 85.64463643930075 94.73396454521311 H 0.0 **** 0.06
30065 H 127.37868927607215 85.70310540105835 96.16010624376435 H 0.0 **** 0.06
30066 C 12.572413529367964 6.0125833515621565 143.60671839224085 C 0.0 **** -0.24
30067 H 13.085207577610902 5.188735366944687 143.10786136333303 H 0.0 **** 0.06
30068 H 13.19478220607268 6.388447329437238 144.41891232869824 H 0.0 **** 0.06
30069 H 11.623632580145816 5.658288395046899 144.00931156964376 H 0.0 **** 0.06
30070 H 12.38734406810569 6.811630692228157 142.8898745666349 H 0.0 **** 0.06
30071 C 114.21306065558876 133.36880679181684 62.317879574761605 C 0.0 **** -0.24
30072 H 114.6134848199052 132.62730280811655 63.00818368360895 H 0.0 **** 0.06
30073 H 113.23416444177194 133.04436728814352 61.96347058588255 H 0.0 **** 0.06
30074 H 114.88878226420304 133.47731460749148 61.468713575183315 H 0.0 **** 0.06
30075 H 114.11585378319582 134.32616301945163 62.82942072136143 H 0.0 **** 0.06
30076 C 143.76356960589132 7.83188956743092 37.66422599861084 C 0.0 **** -0.24
30077 H 144.33891785183846 8.450143415196436 38.35254352750118 H 0.0 **** 0.06
30078 H 144.43859658591649 7.35175867497756 36.9559390672933 H 0.0 **** 0.06
30079 H 143.05212958188028 8.455735501808135 37.12287136732685 H 0.0 **** 0.06
30080 H 143.22376361177436 7.068678841462855 38.226386497192834 H 0.0 **** 0.06
30081 C 25.663230353099948 45.27621985575081 88.89830854735524 C 0.0 **** -0.24
30082 H 26.703804046821233 45.59694794649164 88.90181204537149 H 0.0 **** 0.06
30083 H 25.38612872172186 44.92978807586343 89.8943357656448 H 0.0 **** 0.06
30084 H 25.53534981256115 44.46454718437849 88.18184253995764 H 0.0 **** 0.06
30085 H 25.025383722570893 46.11414890231026 88.61446329864421 H 0.0 **** 0.06
30086 C 46.436181535257674 83.15715626336602 94.01306947736498 C 0.0 **** -0.24
30087 H 46.107856069730275 82.18686996216158 94.38437976577404 H 0.0 **** 0.06
30088 H 45.64763362786701 83.59772365396161 93.40279735407847 H 0.0 **** 0.06
30089 H 47.33489813420712 83.0296908894445 93.40945076994797 H 0.0 **** 0.06
30090 H 46.65343595859767 83.8132516340952 94.8556398571061 H 0.0 **** 0.06
30091 C 85.5607776797594 127.925695576678 16.589684331666547 C 0.0 **** -0.24
30092 H 86.34226014641715 128.25524778102735 17.275090064890207 H 0.0 **** 0.06
30093 H 85.3160995279409 128.73633889011515 15.9019470465999 H 0.0 **** 0.06
30094 H 84.6722307330693 127.65047214192272 17.15781624047264 H 0.0 **** 0.06
30095 H 85.91348682906766 127.06386882233116 16.02430009257023 H 0.0 **** 0.06
30096 C 51.354577876697945 74.41137289305138 46.738509429010975 C 0.0 **** -0.24
30097 H 52.11966084151054 74.92661205772932 47.319116987918136 H 0.0 **** 0.06
30098 H 50.76852577124073 73.77071458262914 47.39750058609994 H 0.0 **** 0.06
30099 H 51.829266126835805 73.80448777826273 45.9683860908157 H 0.0 **** 0.06
30100 H 50.69942549417965 75.14653881874581 46.269904110716965 H 0.0 **** 0.06
30101 C 119.76650868478039 38.59094403871114 47.056188063392426 C 0.0 **** -0.24
30102 H 120.03557187027262 39.1760237766178 46.17739961034785 H 0.0 **** 0.06
30103 H 118.9883561350267 37.874314583233684 46.79148945235502 H 0.0 **** 0.06
30104 H 119.39712545773803 39.25634972169428 47.83668585498769 H 0.0 **** 0.06
30105 H 120.64427242519425 38.05717499664058 47.41987734398576 H 0.0 **** 0.06
30106 C 6.530084226065156 26.91905086381624 31.448553430057054 C 0.0 **** -0.24
30107 H 5.948516403501941 27.832015049292494 31.32719162743423 H 0.0 **** 0.06
30108 H 6.487363664771351 26.595995118965988 32.48921930454681 H 0.0 **** 0.06
30109 H 7.566915262064214 27.108977934477963 31.169532597334147 H 0.0 **** 0.06
30110 H 6.118705769829944 26.138504221459925 30.807897345509787 H 0.0 **** 0.06
30111 C 111.25695417423371 120.2352043048343 61.14041342853412 C 0.0 **** -0.24
30112 H 111.62097297272432 120.8421485948318 60.31143307486613 H 0.0 **** 0.06
30113 H 112.03340432229719 119.53488607651676 61.44680043393865 H 0.0 **** 0.06
30114 H 110.37241393268805 119.68135955174463 60.82389000185211 H 0.0 **** 0.06
30115 H 110.99892914319811 120.88243294032807 61.97875206383557 H 0.0 **** 0.06
30116 C 58.44435080487753 121.48115696809478 113.04553332675052 C 0.0 **** -0.24
30117 H 57.9294417847143 121.54948719673396 114.00437283558459 H 0.0 **** 0.06
30118 H 58.39551869364584 122.4447191044076 112.53812725149386 H 0.0 **** 0.06
30119 H 57.9646566678134 120.72067751951616 112.42871726344943 H 0.0 **** 0.06
30120 H 59.48705800708561 121.21055808809538 113.21181447609992 H 0.0 **** 0.06
30121 C 103.46232216246081 99.3439661125766 116.78301448933877 C 0.0 **** -0.24
30122 H 103.87227333784772 99.81002189849602 117.6786625776802 H 0.0 **** 0.06
30123 H 103.50875665171147 100.04997449059633 115.95307621475939 H 0.0 **** 0.06
30124 H 102.424917598687 99.06267776687622 116.96212924615674 H 0.0 **** 0.06
30125 H 104.04216150037438 98.45512724398088 116.53726413206266 H 0.0 **** 0.06
30126 C 141.85492360298696 65.20589948263363 116.84491163324202 C 0.0 **** -0.24
30127 H 141.9847211483448 64.34245628401025 117.49763970514562 H 0.0 **** 0.06
30128 H 142.7465128331868 65.33549694834281 116.23173660862102 H 0.0 **** 0.06
30129 H 141.69789828125369 66.09811012065028 117.45130236582622 H 0.0 **** 0.06
30130 H 140.99001428296066 65.04732030587064 116.20112519277438 H 0.0 **** 0.06
30131 C 115.15648533307063 123.84073514182329 89.93742056929429 C 0.0 **** -0.24
30132 H 116.07938338981722 123.35168606709884 89.62628932884614 H 0.0 **** 0.06
30133 H 115.36364680429233 124.88194208102176 90.1870197742904 H 0.0 **** 0.06
30134 H 114.751159495703 123.33019965726912 90.81100683736031 H 0.0 **** 0.06
30135 H 114.43239679406878 123.79885973452916 89.12377892798555 H 0.0 **** 0.06
30136 C 8.550625590184524 104.27958830200626 77.57718202488707 C 0.0 **** -0.24
30137 H 7.6209110819352475 104.70017167176658 77.19318584228733 H 0.0 **** 0.06
30138 H 8.325957643663742 103.56582808295084 78.36936137599224 H 0.0 **** 0.06
30139 H 9.173072256838054 105.0808400788741 77.97508679848607 H 0.0 **** 0.06
30140 H 9.081176486946532 103.77324944792852 76.77083272524999 H 0.0 **** 0.06
30141 C 109.57986599066221 1.4149338404851797 71.40617111936173 C 0.0 **** -0.24
30142 H 110.25611267086457 1.8088470330604416 70.64793680064255 H 0.0 **** 0.06
30143 H 109.25540158160545 0.41448481020016814 71.1188436201404 H 0.0 **** 0.06
30144 H 108.7116047015101 2.0685333454879427 71.49242956501291 H 0.0 **** 0.06
30145 H 110.09701213487098 1.3683052827769124 72.36486979430522 H 0.0 **** 0.06
30146 C 32.90422505025712 142.5734266427232 129.56886966543289 C 0.0 **** -0.24
30147 H 32.92305000602588 141.64569397572203 128.99745371938215 H 0.0 **** 0.06
30148 H 32.37940156152678 142.4090422279056 130.51056632343833 H 0.0 **** 0.06
30149 H 32.389018207505885 143.3433580638588 128.99435508177703 H 0.0 **** 0.06
30150 H 33.92588482592437 142.8942971772357 129.7733565925392 H 0.0 **** 0.06
30151 C 139.06642075655571 63.940227726121336 59.33966846914518 C 0.0 **** -0.24
30152 H 138.2863708224234 64.49896752516055 58.82193065563126 H 0.0 **** 0.06
30153 H 138.68155065862226 63.57625767912188 60.292103917222846 H 0.0 **** 0.06
30154 H 139.92120835561485 64.59255672876452 59.51870623577247 H 0.0 **** 0.06
30155 H 139.3766182709128 63.095825047337485 58.72461881205447 H 0.0 **** 0.06
30156 C 81.00200911535808 5.357624573755629 19.896530836960977 C 0.0 **** -0.24
30157 H 80.04171206620833 5.226363349775568 19.39735895336719 H 0.0 **** 0.06
30158 H 81.77157656433826 5.569056182787847 19.154216149673772 H 0.0 **** 0.06
30159 H 81.25750646452275 4.445301045620795 20.43551911973819 H 0.0 **** 0.06
30160 H 80.93583281987424 6.188065571795107 20.59932022495056 H 0.0 **** 0.06
30161 C 130.68472736051692 37.27966395654463 63.962385427049654 C 0.0 **** -0.24
30162 H 130.53460918493218 38.070999028722866 63.22834332954986 H 0.0 **** 0.06
30163 H 129.7244980809204 36.82594358435973 64.20808044987011 H 0.0 **** 0.06
30164 H 131.12940735323716 37.700089521981205 64.86421441326894 H 0.0 **** 0.06
30165 H 131.34945223654307 36.52165826957507 63.54923573793961 H 0.0 **** 0.06
30166 C 142.1900203043902 122.33662959794322 125.07040958442819 C 0.0 **** -0.24
30167 H 141.2097432177338 121.9523251488306 124.78978281952054 H 0.0 **** 0.06
30168 H 142.80656351470154 122.44529003697608 124.17787393865747 H 0.0 **** 0.06
30169 H 142.66842902071264 121.64241329488254 125.76109496825902 H 0.0 **** 0.06
30170 H 142.07460332497334 123.30768497858071 125.55274129805836 H 0.0 **** 0.06
30171 C 53.53706220814583 54.06218666314955 4.751268990973131 C 0.0 **** -0.24
30172 H 54.05501493842591 53.65085373107215 3.8849649644399165 H 0.0 **** 0.06
30173 H 52.539560664230876 53.6267225957298 4.817474981663338 H 0.0 **** 0.06
30174 H 53.454922409841615 55.14381761895997 4.644456014737841 H 0.0 **** 0.06
30175 H 54.098549894501886 53.827051186754204 5.655374827948833 H 0.0 **** 0.06
30176 C 69.02953918562667 16.121821656329843 1.1597125216689506 C 0.0 **** -0.24
30177 H 68.69501586825031 16.93080065856958 1.8084756343914137 H 0.0 **** 0.06
30178 H 69.21259648910059 15.229205224409604 1.7572394113475411 H 0.0 **** 0.06
30179 H 69.949373708217 16.417940260449747 0.6553726477458781 H 0.0 **** 0.06
30180 H 68.25955171792165 15.910318539007108 0.4165696824208567 H 0.0 **** 0.06
30181 C 35.13034472863777 12.858820235037257 7.366025263231023 C 0.0 **** -0.24
30182 H 34.9135291397565 12.643585427383499 6.319565769016521 H 0.0 **** 0.06
30183 H 34.373102767031135 12.392908668011017 7.9970843173233845 H 0.0 **** 0.06
30184 H 35.12263396576097 13.937942852187717 7.524010886087552 H 0.0 **** 0.06
30185 H 36.11287611938653 12.461198262506144 7.6228994860861405 H 0.0 **** 0.06
30186 C 145.011598492546 105.72501701431256 101.98373930136297 C 0.0 **** -0.24
30187 H 143.93714225144623 105.63192802375553 101.82905681717446 H 0.0 **** 0.06
30188 H 145.2392976533006 106.72720797796731 102.34963535471321 H 0.0 **** 0.06
30189 H 145.53010843396962 105.55678341284178 101.03984397912407 H 0.0 **** 0.06
30190 H 145.33897332062574 104.98763685766662 102.71615290177714 H 0.0 **** 0.06
30191 C 0.3986729605123287 41.76886830172802 80.61127272723323 C 0.0 **** -0.24
30192 H 0.6405543891859224 41.62278700847399 81.66431125317717 H 0.0 **** 0.06
30193 H -0.629396021710221 42.1190167336012 80.52067629362452 H 0.0 **** 0.06
30194 H 0.5089863032290509 40.82312285704951 80.07912700896517 H 0.0 **** 0.06
30195 H 1.074920248183986 42.50869632522698 80.18217529066303 H 0.0 **** 0.06
30196 C 63.94974063020891 118.46090273522324 69.27508918059449 C 0.0 **** -0.24
30197 H 64.60893234842176 118.77297218023054 68.46540010297606 H 0.0 **** 0.06
30198 H 63.95246355595313 119.218914670651 70.0588589195738 H 0.0 **** 0.06
30199 H 64.3008269899569 117.51334935134898 69.68455036447668 H 0.0 **** 0.06
30200 H 62.93673962650388 118.33837473866257 68.89154733535143 H 0.0 **** 0.06
30201 C 0.39502005962313547 19.3498385875071 138.207658008988 C 0.0 **** -0.24
30202 H 0.4360929160574756 19.34575340117712 137.1184446162436 H 0.0 **** 0.06
30203 H 0.5926907879488397 18.344758936679945 138.58083581868203 H 0.0 **** 0.06
30204 H -0.5951672985139567 19.6704084483734 138.53243557326113 H 0.0 **** 0.06
30205 H 1.1455577875910876 20.03740776596954 138.59714769421788 H 0.0 **** 0.06
30206 C 57.388992131988545 136.73812073786624 77.76794442188339 C 0.0 **** -0.24
30207 H 56.501105240388725 136.52316634984405 77.17381233054778 H 0.0 **** 0.06
30208 H 57.63326408803772 135.87124823366193 78.38360328229095 H 0.0 **** 0.06
30209 H 57.19746851576497 137.5977361800228 78.41033642564636 H 0.0 **** 0.06
30210 H 58.2250565012495 136.95928048839343 77.10421764710662 H 0.0 **** 0.06
30211 C 77.94577855180428 4.998066489689279 130.85127015193177 C 0.0 **** -0.24
30212 H 76.97430292069888 4.62950250113235 130.52463105118525 H 0.0 **** 0.06
30213 H 78.23477616157113 4.492224947515723 131.77410616460722 H 0.0 **** 0.06
30214 H 77.88631582081871 6.0717570749131085 131.0290486349619 H 0.0 **** 0.06
30215 H 78.6889152732053 4.798074031767953 130.07931204672883 H 0.0 **** 0.06
30216 C 149.36875686794843 130.97593208134063 142.95968189820383 C 0.0 **** -0.24
30217 H 148.9805753578379 131.93544800206152 142.62006336907973 H 0.0 **** 0.06
30218 H 148.84593052870937 130.67352392411954 143.86741667992845 H 0.0 **** 0.06
30219 H 150.434571907935 131.0688597676906 143.1681698545721 H 0.0 **** 0.06
30220 H 149.21380358484757 130.2268435562525 142.18336409295048 H 0.0 **** 0.06
30221 C 19.33530562158031 63.556851430109816 55.389654703303975 C 0.0 **** -0.24
30222 H 20.33963627394653 63.13313178640806 55.416019786936815 H 0.0 **** 0.06
30223 H 18.942190575030352 63.494341827208984 54.37477017505671 H 0.0 **** 0.06
30224 H 19.3736710122661 64.6005858267556 55.70180065723676 H 0.0 **** 0.06
30225 H 18.68865342115705 62.99870817971049 56.06615193108489 H 0.0 **** 0.06
30226 C 53.7015460436011 99.6306982773001 18.421293300632584 C 0.0 **** -0.24
30227 H 52.658011460069446 99.37856966935473 18.23107173447437 H 0.0 **** 0.06
30228 H 53.76739671430576 100.65770372700729 18.778080234040175 H 0.0 **** 0.06
30229 H 54.27339815442673 99.5279185263617 17.499398541655324 H 0.0 **** 0.06
30230 H 54.10523500729059 98.956171942667 19.175910357404803 H 0.0 **** 0.06
30231 C 0.8456132443425304 8.398686868066484 16.822845475821197 C 0.0 **** -0.24
30232 H 0.21482147470726431 8.38385927028316 15.934318970356088 H 0.0 **** 0.06
30233 H 0.2552113068086044 8.715913142204151 17.682650419021428 H 0.0 **** 0.06
30234 H 1.6710715078978353 9.09509513432215 16.671479335229492 H 0.0 **** 0.06
30235 H 1.2422513994455073 7.398794963818219 17.003022863751625 H 0.0 **** 0.06
30236 C 25.737616795022404 149.14809781224267 114.9203714853549 C 0.0 **** -0.24
30237 H 24.905010579439534 148.89726015487136 114.26338759565516 H 0.0 **** 0.06
30238 H 25.551219912650936 150.11538224587125 115.38928148668015 H 0.0 **** 0.06
30239 H 26.657602676310034 149.1980166958824 114.3383967890465 H 0.0 **** 0.06
30240 H 25.83682997248576 148.3840059629075 115.69130979162327 H 0.0 **** 0.06
30241 C 101.46680078805244 37.740162194549946 63.80565993085126 C 0.0 **** -0.24
30242 H 102.44564873913006 37.71786414299286 64.28615136768221 H 0.0 **** 0.06
30243 H 100.96752105024856 36.78263233010079 63.955195212684146 H 0.0 **** 0.06
30244 H 101.5915036931791 37.92246314180493 62.73759575366405 H 0.0 **** 0.06
30245 H 100.86604986233769 38.5369052482728 64.24270027699691 H 0.0 **** 0.06
30246 C 111.19217430294962 70.78712688737532 86.56141757396276 C 0.0 **** -0.24
30247 H 110.79377627389543 70.88034668740241 85.5509753073905 H 0.0 **** 0.06
30248 H 110.94962025640847 71.68437569528783 87.13136986845294 H 0.0 **** 0.06
30249 H 112.2738114090515 70.66587299163915 86.51525375168828 H 0.0 **** 0.06
30250 H 110.74932884625802 69.91730752622433 87.04708791625964 H 0.0 **** 0.06
30251 C 27.050778814252723 126.71222949229224 123.5308634369581 C 0.0 **** -0.24
30252 H 26.911165296245734 126.9232938494843 124.59125459112624 H 0.0 **** 0.06
30253 H 27.8780509471867 126.01474574244392 123.40566893570218 H 0.0 **** 0.06
30254 H 27.272455357903233 127.63878180982074 123.00136858997291 H 0.0 **** 0.06
30255 H 26.139273633159107 126.27172136835755 123.1255494595328 H 0.0 **** 0.06
30256 C 79.25027854188313 108.9499233620284 13.889559897169647 C 0.0 **** -0.24
30257 H 78.40915701894583 108.6762798961155 14.5250189834546 H 0.0 **** 0.06
30258 H 79.33392297487349 108.2370869879962 13.068669265604854 H 0.0 **** 0.06
30259 H 80.16902021317233 108.9365205209455 14.477371644831521 H 0.0 **** 0.06
30260 H 79.09169942399593 109.9510700706593 13.48761655821707 H 0.0 **** 0.06
30261 C 29.34202850976476 9.204480445474566 17.402611775568616 C 0.0 **** -0.24
30262 H 30.275224998087026 9.216656886392222 16.83800076442232 H 0.0 **** 0.06
30263 H 28.499578599705103 9.244916633026683 16.71118094302998 H 0.0 **** 0.06
30264 H 29.30936858122749 10.069084973539724 18.066727638746038 H 0.0 **** 0.06
30265 H 29.286309761303016 8.290850918741832 17.992660854048445 H 0.0 **** 0.06
30266 C 132.1814053011714 17.572747313269225 143.5013700663116 C 0.0 **** -0.24
30267 H 131.1516065957743 17.234663482540554 143.61098022004475 H 0.0 **** 0.06
30268 H 132.29295481138638 18.09590356230973 142.55107233939762 H 0.0 **** 0.06
30269 H 132.85051992593543 16.711965495988835 143.52285966740862 H 0.0 **** 0.06
30270 H 132.43201460785718 18.247265910992112 144.31992984427546 H 0.0 **** 0.06
30271 C 64.96545252761018 118.27024170872963 28.8635984755864 C 0.0 **** -0.24
30272 H 65.56121944639894 117.65737876284047 29.54033866715065 H 0.0 **** 0.06
30273 H 64.28443620559023 118.89375447756927 29.441781002094046 H 0.0 **** 0.06
30274 H 64.39226328769001 117.62483535876791 28.19871563776445 H 0.0 **** 0.06
30275 H 65.62654733775776 118.90477303595523 28.27218222643603 H 0.0 **** 0.06
30276 C 35.95324852824345 48.38732732578528 99.09552887129443 C 0.0 **** -0.24
30277 H 35.77942586808513 49.455414263521874 99.22713612338302 H 0.0 **** 0.06
30278 H 35.01270569304731 47.8941499239733 98.84881905906694 H 0.0 **** 0.06
30279 H 36.352973614727404 47.9679117354725 100.01932372814632 H 0.0 **** 0.06
30280 H 36.668631928978726 48.232222371940395 98.28738126265272 H 0.0 **** 0.06
30281 C 132.56393166846692 101.09412154424652 3.9346595824722783 C 0.0 **** -0.24
30282 H 133.54348369918063 100.61600322805828 3.92964160671562 H 0.0 **** 0.06
30283 H 132.08474502456804 100.9316218468808 4.901054201547055 H 0.0 **** 0.06
30284 H 131.94541937673506 100.66464068390997 3.1461361242988914 H 0.0 **** 0.06
30285 H 132.68127184392455 102.16426819022112 3.7623954151605687 H 0.0 **** 0.06
30286 C 59.002853433481505 20.105900587336002 99.25660099102927 C 0.0 **** -0.24
30287 H 58.476598898049744 19.17007709581268 99.06790004187162 H 0.0 **** 0.06
30288 H 58.54283477295955 20.90504471121009 98.67478915824361 H 0.0 **** 0.06
30289 H 60.047965671568136 19.99990820243621 98.96666394977579 H 0.0 **** 0.06
30290 H 58.94295774741421 20.348240128270447 100.31793013910338 H 0.0 **** 0.06
30291 C 3.6962509567791244 71.61696475008257 1.2089506823815555 C 0.0 **** -0.24
30292 H 4.4109557096277285 71.58599947954039 2.0320131295260637 H 0.0 **** 0.06
30293 H 2.7654508783355425 72.06830543433658 1.5526835579977103 H 0.0 **** 0.06
30294 H 3.5014844595094416 70.60249207359205 0.8594542941416989 H 0.0 **** 0.06
30295 H 4.109039561704321 72.2086319099282 0.3928275510889421 H 0.0 **** 0.06
30296 C 67.64292486770346 76.79930332072503 96.59986006376636 C 0.0 **** -0.24
30297 H 68.21654876387898 76.2392524778067 95.86085858257582 H 0.0 **** 0.06
30298 H 67.11526311870963 77.61597300921838 96.10710131412384 H 0.0 **** 0.06
30299 H 68.3188851492703 77.20352445471019 97.35312790631974 H 0.0 **** 0.06
30300 H 66.92125865959949 76.13649725831552 97.07691401928287 H 0.0 **** 0.06
30301 C 92.05144350572567 31.016241974480494 113.21106099837571 C 0.0 **** -0.24
30302 H 92.20204522048778 30.831821196935792 114.27517359480011 H 0.0 **** 0.06
30303 H 91.33059770467096 31.823834413897572 113.0817579329357 H 0.0 **** 0.06
30304 H 91.67346822223973 30.11157590955682 112.73573537581758 H 0.0 **** 0.06
30305 H 92.99992136275193 31.29888526589494 112.75451198447557 H 0.0 **** 0.06
30306 C 121.48640833223406 81.31354683935902 51.49192709558045 C 0.0 **** -0.24
30307 H 120.84865821774754 81.233781564138 52.372268947112445 H 0.0 **** 0.06
30308 H 121.5397701549394 82.35578666906878 51.17652076262007 H 0.0 **** 0.06
30309 H 121.06918735166529 80.71038173776225 50.68597674168589 H 0.0 **** 0.06
30310 H 122.48636156570079 80.95539852936378 51.733895589854285 H 0.0 **** 0.06
30311 C 108.20511813331757 103.81168194528595 94.33024094291783 C 0.0 **** -0.24
30312 H 107.62181214479085 104.45212497686782 94.99146126420396 H 0.0 **** 0.06
30313 H 109.20366611250967 103.6745642263362 94.74489638835665 H 0.0 **** 0.06
30314 H 108.2794086564113 104.2758208515927 93.34715119515342 H 0.0 **** 0.06
30315 H 107.71365921118684 102.84324563692917 94.23804158906682 H 0.0 **** 0.06
30316 C 57.89564007453319 105.126175496252 137.75369890804996 C 0.0 **** -0.24
30317 H 58.18601354208576 106.16036035543969 137.93998209751908 H 0.0 **** 0.06
30318 H 57.42800621635827 105.05186236359707 136.77124042789455 H 0.0 **** 0.06
30319 H 57.18722431604563 104.80506147079434 138.5180616624304 H 0.0 **** 0.06
30320 H 58.779135330598976 104.48930465179119 137.78468451808664 H 0.0 **** 0.06
30321 C 137.76610351305106 59.17966851869832 68.72408947457672 C 0.0 **** -0.24
30322 H 137.04553137915792 58.784875631906544 68.0081482452845 H 0.0 **** 0.06
30323 H 137.38283901605035 60.106886760782515 69.15039822438926 H 0.0 **** 0.06
30324 H 138.71114210341733 59.375217955210616 68.21809052440769 H 0.0 **** 0.06
30325 H 137.92275557151254 58.451371761311094 69.52026060982902 H 0.0 **** 0.06
30326 C 69.43116993177158 20.772593216011423 134.9958500992795 C 0.0 **** -0.24
30327 H 70.0025329034118 20.617572964994714 135.91139233322582 H 0.0 **** 0.06
30328 H 68.37085903862287 20.6209612163343 135.20025671441718 H 0.0 **** 0.06
30329 H 69.76149112256938 20.06233600456968 134.2377233970374 H 0.0 **** 0.06
30330 H 69.59034442898158 21.7888586411295 134.6360980614166 H 0.0 **** 0.06
30331 C 5.7080760236326284 39.025801848009706 56.741201755349294 C 0.0 **** -0.24
30332 H 6.389229639729507 39.76632447578204 56.32075376809246 H 0.0 **** 0.06
30333 H 5.784073409764034 38.098665447065336 56.17305038739754 H 0.0 **** 0.06
30334 H 4.6860063740460305 39.40239774400652 56.6900677993858 H 0.0 **** 0.06
30335 H 5.974022308932206 38.83826952051484 57.78232890744074 H 0.0 **** 0.06
30336 C 79.03658402247339 41.666626066800674 50.791149338993904 C 0.0 **** -0.24
30337 H 78.5400106720374 40.748443925772264 50.47757168905426 H 0.0 **** 0.06
30338 H 78.4904585139424 42.52626910095451 50.40315932045306 H 0.0 **** 0.06
30339 H 80.05550839405996 41.67824021226417 50.40407735260419 H 0.0 **** 0.06
30340 H 79.06130423211013 41.71252775977662 51.880031077164915 H 0.0 **** 0.06
30341 C 132.95670663251957 61.719285850779755 109.13374465586212 C 0.0 **** -0.24
30342 H 133.7179926820814 61.580399492268526 109.90126182667113 H 0.0 **** 0.06
30343 H 133.4112962470024 61.61877039481978 108.14784687571897 H 0.0 **** 0.06
30344 H 132.5178793949282 62.711347525252066 109.23198268927818 H 0.0 **** 0.06
30345 H 132.1791836295076 60.96393027097545 109.2531743751055 H 0.0 **** 0.06
30346 C 13.802410333864742 16.616734581505206 135.05951622328462 C 0.0 **** -0.24
30347 H 14.314254512648887 15.868944916175323 134.45358665238535 H 0.0 **** 0.06
30348 H 14.5384192447992 17.21035266391256 135.60217814031677 H 0.0 **** 0.06
30349 H 13.141835237055915 16.117761922779373 135.76930587436854 H 0.0 **** 0.06
30350 H 13.215103315911676 17.268945579794817 134.41335234752904 H 0.0 **** 0.06
30351 C 107.9700421261548 119.14933968795289 58.745456360163814 C 0.0 **** -0.24
30352 H 108.4739228685545 118.43900532171092 59.401431050091574 H 0.0 **** 0.06
30353 H 108.3447213485195 120.15379248647933 58.94122030573948 H 0.0 **** 0.06
30354 H 106.89721570558208 119.11696562264994 58.931447811111084 H 0.0 **** 0.06
30355 H 108.16694184251247 118.88466189997764 57.7058657158493 H 0.0 **** 0.06
30356 C 41.434676512739685 111.3333524105714 89.80248170690425 C 0.0 **** -0.24
30357 H 42.37774514718764 111.45117397218698 89.26747874919207 H 0.0 **** 0.06
30358 H 40.91488989725208 110.44953509393216 89.43090485665965 H 0.0 **** 0.06
30359 H 40.81378376961466 112.21516718202386 89.64148969534563 H 0.0 **** 0.06
30360 H 41.633701495092424 111.21761089207146 90.86805500510334 H 0.0 **** 0.06
30361 C 88.41329665429922 54.716150995522554 118.65161117705703 C 0.0 **** -0.24
30362 H 88.30432243231982 54.84708387605194 119.72844621612656 H 0.0 **** 0.06
30363 H 87.92125626600381 55.53940835860837 118.13426020106154 H 0.0 **** 0.06
30364 H 87.95561131063732 53.77291529913305 118.35377561397125 H 0.0 **** 0.06
30365 H 89.47169614485043 54.70392784344922 118.39284377573127 H 0.0 **** 0.06
30366 C 58.03720570035824 27.77089112014216 38.637267377690335 C 0.0 **** -0.24
30367 H 58.65206914066354 27.980447773477195 39.51326480228522 H 0.0 **** 0.06
30368 H 58.615723236117105 27.1927475480148 37.91650044810652 H 0.0 **** 0.06
30369 H 57.72300876228135 28.70952183302672 38.18205192197627 H 0.0 **** 0.06
30370 H 57.158182588299184 27.200858813271005 38.93948261951758 H 0.0 **** 0.06
30371 C 60.94077973564754 65.5011249580768 100.429398917627 C 0.0 **** -0.24
30372 H 61.77052870606167 64.96752143464946 100.89367193411792 H 0.0 **** 0.06
30373 H 60.55743577168971 66.24910763638552 101.12263968538521 H 0.0 **** 0.06
30374 H 60.148211202060054 64.79440821423847 100.18225104904894 H 0.0 **** 0.06
30375 H 61.288194436299534 65.99113811810201 99.5200488207222 H 0.0 **** 0.06
30376 C 138.29248227715277 17.784393848996984 122.99356278207999 C 0.0 **** -0.24
30377 H 138.57879196824882 17.863918028640995 121.94471428992098 H 0.0 **** 0.06
30378 H 138.90613448169748 18.46099170065807 123.58929413483797 H 0.0 **** 0.06
30379 H 138.44379723161694 16.760590065751245 123.33469333982914 H 0.0 **** 0.06
30380 H 137.24211835847996 18.053700794437304 123.10431425835465 H 0.0 **** 0.06
30381 C 38.81770627198351 48.39495713567551 128.8369187777798 C 0.0 **** -0.24
30382 H 38.285998490698375 49.2691153270076 128.46035032942783 H 0.0 **** 0.06
30383 H 38.6482594259717 47.550169477697736 128.16789476370758 H 0.0 **** 0.06
30384 H 38.45106017346747 48.14841540202903 129.83382014173375 H 0.0 **** 0.06
30385 H 39.88411642386049 48.61233129104134 128.88576857901901 H 0.0 **** 0.06
30386 C 60.553034326074865 7.609449142764902 126.33077696974118 C 0.0 **** -0.24
30387 H 60.10828866605907 6.700188086212449 126.7359264909233 H 0.0 **** 0.06
30388 H 59.827568950875616 8.421675438095235 126.38231277218009 H 0.0 **** 0.06
30389 H 60.838215636188195 7.442785358601185 125.29241900764123 H 0.0 **** 0.06
30390 H 61.4359780901472 7.872582760373547 126.91302389577271 H 0.0 **** 0.06
30391 C 54.25646623938235 49.484352943019076 119.3423168194978 C 0.0 **** -0.24
30392 H 55.03224299920612 49.46448012720873 118.57620454819977 H 0.0 **** 0.06
30393 H 53.300347348823266 49.2091124307924 118.89794784560382 H 0.0 **** 0.06
30394 H 54.18731088118295 50.48847970285317 119.76242695163648 H 0.0 **** 0.06
30395 H 54.50837850835103 48.77706585771608 120.13312255258796 H 0.0 **** 0.06
30396 C 22.392115848804806 97.64970788868791 41.82505587193772 C 0.0 **** -0.24
30397 H 22.534876779697967 98.67353232176426 42.17039095765301 H 0.0 **** 0.06
30398 H 22.73086367362115 96.95607536296913 42.5948632036375 H 0.0 **** 0.06
30399 H 22.96902608881466 97.49095389346081 40.91395970332022 H 0.0 **** 0.06
30400 H 21.335133304275487 97.47905415083436 41.62044235910601 H 0.0 **** 0.06
30401 C 135.36465829961108 39.43505357075239 7.139801577231168 C 0.0 **** -0.24
30402 H 134.83440150183355 38.78240319459695 7.832053434583457 H 0.0 **** 0.06
30403 H 134.8338950768248 39.4626117397344 6.187572364872324 H 0.0 **** 0.06
30404 H 136.37458679058594 39.053946975990115 6.982624110271246 H 0.0 **** 0.06
30405 H 135.41769385582418 40.44018530597437 7.55666949831695 H 0.0 **** 0.06
30406 C 137.31706977639305 93.93405339833328 108.89325042108108 C 0.0 **** -0.24
30407 H 137.5956646125094 94.94540879024345 108.59704495939813 H 0.0 **** 0.06
30408 H 136.71601935660374 93.47840142691479 108.1058876179299 H 0.0 **** 0.06
30409 H 136.73969200013215 93.97239323706134 109.81664059934833 H 0.0 **** 0.06
30410 H 138.21836222052454 93.34036803740474 109.05177225732866 H 0.0 **** 0.06
30411 C 105.53446367762442 142.2823939835792 134.94570806413867 C 0.0 **** -0.24
30412 H 105.11590431185348 142.76588934839882 135.8276200341943 H 0.0 **** 0.06
30413 H 106.30784202820982 142.919774029062 134.51544402996024 H 0.0 **** 0.06
30414 H 104.74506556969752 142.12181317165573 134.21120351969046 H 0.0 **** 0.06
30415 H 105.96845192895827 141.32333045948377 135.22819670552178 H 0.0 **** 0.06
30416 C 66.36458474433236 93.98741325826654 135.3352719922488 C 0.0 **** -0.24
30417 H 67.01276029832056 93.89999892878994 134.46411149134357 H 0.0 **** 0.06
30418 H 65.726158084369 93.10619174505321 135.40233575126072 H 0.0 **** 0.06
30419 H 65.74415070632685 94.87914978870067 135.23790616799064 H 0.0 **** 0.06
30420 H 66.97349321513919 94.06469485125196 136.23543168585118 H 0.0 **** 0.06
30421 C 57.3513007787069 31.405812179921384 137.05163284695382 C 0.0 **** -0.24
30422 H 56.44273531721235 31.240887392901357 137.63191135639434 H 0.0 **** 0.06
30423 H 57.67760465015277 30.46380423645303 136.61155185388586 H 0.0 **** 0.06
30424 H 58.133111079983806 31.79363651191511 137.70402336862543 H 0.0 **** 0.06
30425 H 57.14916380195763 32.12667296273344 136.2585648122401 H 0.0 **** 0.06
30426 C 122.32228094032187 65.36130567315038 148.14337208428586 C 0.0 **** -0.24
30427 H 121.77136240834945 65.55943400052607 149.06275416919016 H 0.0 **** 0.06
30428 H 121.6545191224101 65.47596054615371 147.28938853233427 H 0.0 **** 0.06
30429 H 122.71267374841604 64.3440295104341 148.16580276269744 H 0.0 **** 0.06
30430 H 123.14939508155133 66.06557044982236 148.05629860807895 H 0.0 **** 0.06
30431 C 60.79787101811024 39.428666858476845 142.24140489525757 C 0.0 **** -0.24
30432 H 61.7329998177689 39.443927851020675 141.68121409842593 H 0.0 **** 0.06
30433 H 60.810982266759595 40.218405671988265 142.9919980967092 H 0.0 **** 0.06
30434 H 60.68488481630055 38.46200021664036 142.7322207525271 H 0.0 **** 0.06
30435 H 59.96286958340386 39.58844862643035 141.55864292770445 H 0.0 **** 0.06
30436 C 63.32834753380149 63.3562475933672 45.17727330390764 C 0.0 **** -0.24
30437 H 63.87301408039646 63.813901549265395 46.00339781705654 H 0.0 **** 0.06
30438 H 64.02253353047276 63.128689255456464 44.367686665338425 H 0.0 **** 0.06
30439 H 62.56458094238242 64.04551078316177 44.81916817965677 H 0.0 **** 0.06
30440 H 62.855946352514195 62.43509974855881 45.51960981047071 H 0.0 **** 0.06
30441 C 104.72084520141829 5.030311657666914 131.10519312272632 C 0.0 **** -0.24
30442 H 105.6424730117285 4.685122226470014 130.63727336722795 H 0.0 **** 0.06
30443 H 104.37291358706022 5.931336256645125 130.59961250353447 H 0.0 **** 0.06
30444 H 104.90841598395485 5.253049217721355 132.1562158216507 H 0.0 **** 0.06
30445 H 103.96140706156007 4.253027907041201 131.02866784744757 H 0.0 **** 0.06
30446 C 37.34012956584773 42.27263824455716 54.06446263103065 C 0.0 **** -0.24
30447 H 37.36668344791143 41.89554626733539 53.04185956301538 H 0.0 **** 0.06
30448 H 36.9786165735905 41.48931934374151 54.73090419000826 H 0.0 **** 0.06
30449 H 36.670291176036656 43.13180325594456 54.11604314960583 H 0.0 **** 0.06
30450 H 38.34198302272185 42.57420189568478 54.366756235325425 H 0.0 **** 0.06
30451 C 114.21121686243507 147.7209737483699 76.89159530486627 C 0.0 **** -0.24
30452 H 113.59443828325405 148.094397546943 77.70908129016102 H 0.0 **** 0.06
30453 H 113.56877956826978 147.33116382717344 76.1011453805672 H 0.0 **** 0.06
30454 H 114.85997489780206 146.92663969115432 77.25959648778378 H 0.0 **** 0.06
30455 H 114.82067100834772 148.53451031766883 76.49631131806771 H 0.0 **** 0.06
30456 C 69.24816891012264 43.76275828716538 21.681560625779724 C 0.0 **** -0.24
30457 H 68.33065078581268 43.19636304910145 21.52380642272385 H 0.0 **** 0.06
30458 H 69.42621170122902 44.41100294343717 20.823322239226314 H 0.0 **** 0.06
30459 H 70.08534408208524 43.074076160066866 21.797198673784436 H 0.0 **** 0.06
30460 H 69.14999734336536 44.36995821867126 22.58063349135344 H 0.0 **** 0.06
30461 C 7.431318286299813 99.65960062660582 117.9304087608179 C 0.0 **** -0.24
30462 H 7.955869103657875 98.78743935484482 117.54074143664457 H 0.0 **** 0.06
30463 H 6.383203814169917 99.41001373824965 118.09188284101208 H 0.0 **** 0.06
30464 H 7.504662821063192 100.47757709182635 117.21309948441296 H 0.0 **** 0.06
30465 H 7.883104587104299 99.96305242268473 118.87524666183663 H 0.0 **** 0.06
30466 C 85.63034093490734 72.31794549469845 86.25504629328793 C 0.0 **** -0.24
30467 H 85.2905362005074 73.22997628886071 86.74521976869548 H 0.0 **** 0.06
30468 H 85.8056859116108 71.54625809797187 87.00517509239046 H 0.0 **** 0.06
30469 H 86.55593014021395 72.51831681066534 85.71630293502727 H 0.0 **** 0.06
30470 H 84.86804009727422 71.97703611760073 85.55425550766611 H 0.0 **** 0.06
30471 C 101.03984265559028 9.023795408222298 56.62282787129365 C 0.0 **** -0.24
30472 H 101.11502239641895 9.42763168451836 55.612562659254834 H 0.0 **** 0.06
30473 H 101.17020349411753 9.829083145438005 57.345615660700034 H 0.0 **** 0.06
30474 H 101.81528725086191 8.272197053705696 56.771586352282895 H 0.0 **** 0.06
30475 H 100.06005145374786 8.566742820272935 56.75946094324338 H 0.0 **** 0.06
30476 C 137.97728506009628 14.158636127501424 99.96205404940605 C 0.0 **** -0.24
30477 H 138.72555323495263 14.904419668221514 99.69191488504697 H 0.0 **** 0.06
30478 H 137.61833058004996 13.66203974567376 99.06055518613442 H 0.0 **** 0.06
30479 H 137.1440399104576 14.647360370175754 100.46562089564418 H 0.0 **** 0.06
30480 H 138.4251871557253 13.422469690595392 100.62968956420804 H 0.0 **** 0.06
30481 C 137.91142049261407 73.6145597065173 59.35456588415086 C 0.0 **** -0.24
30482 H 137.10716017963486 73.9226977457135 58.686415612624884 H 0.0 **** 0.06
30483 H 137.75522306446237 72.57880516535845 59.65605116857306 H 0.0 **** 0.06
30484 H 137.91551513231647 74.254103490565 60.2369917742316 H 0.0 **** 0.06
30485 H 138.86691654230293 73.70310928923445 58.836799736988354 H 0.0 **** 0.06
30486 C 84.54704598896714 64.49472734392864 114.53101977988838 C 0.0 **** -0.24
30487 H 84.49959900297691 65.46386258400725 114.03544827576734 H 0.0 **** 0.06
30488 H 83.54271321473342 64.07913474568926 114.61276299909987 H 0.0 **** 0.06
30489 H 84.97285458374492 64.61618459518377 115.52730722866592 H 0.0 **** 0.06
30490 H 85.17367801958235 63.81918365959871 113.94804332990883 H 0.0 **** 0.06
30491 C 128.69706798276695 19.93701092568503 67.5292058203923 C 0.0 **** -0.24
30492 H 128.75019187822153 20.072980198844988 68.60962967764607 H 0.0 **** 0.06
30493 H 127.73400974045899 19.497823579985408 67.26577301722187 H 0.0 **** 0.06
30494 H 129.49968240226917 19.273416302923778 67.20680270598424 H 0.0 **** 0.06
30495 H 128.80339475144007 20.90335762882441 67.0359582526605 H 0.0 **** 0.06
30496 C 46.04076608040572 135.82734239168732 21.763832442184054 C 0.0 **** -0.24
30497 H 45.175636822609405 135.60078575045222 21.140323055454104 H 0.0 **** 0.06
30498 H 46.88246362280252 135.20777112968617 21.454804657295597 H 0.0 **** 0.06
30499 H 45.79990303195625 135.62117362506152 22.806431067921523 H 0.0 **** 0.06
30500 H 46.30270858212836 136.87890587340027 21.65178865004347 H 0.0 **** 0.06
30501 C 138.877170606746 37.82808411254089 117.27944906587261 C 0.0 **** -0.24
30502 H 139.50818956035562 38.22986828561105 116.48679653466424 H 0.0 **** 0.06
30503 H 139.16690269186984 38.2699565524366 118.23310181683802 H 0.0 **** 0.06
30504 H 138.9997164920503 36.74590141735709 117.32741380494026 H 0.0 **** 0.06
30505 H 137.83456352841245 38.0677893253241 117.07011826935867 H 0.0 **** 0.06
30506 C 135.60811312744818 58.82205744682605 4.36149015094394 C 0.0 **** -0.24
30507 H 136.68879159283767 58.72172849729233 4.255685247933492 H 0.0 **** 0.06
30508 H 135.3682598830578 59.11065149163491 5.3844761495682505 H 0.0 **** 0.06
30509 H 135.1315775355327 57.86881211511357 4.130969695930311 H 0.0 **** 0.06
30510 H 135.24613841259279 59.585332855264625 3.672434672975875 H 0.0 **** 0.06
30511 C 47.179325563057574 54.5962706436416 32.92618773287188 C 0.0 **** -0.24
30512 H 47.61591242234792 54.78141524855886 31.945228590482714 H 0.0 **** 0.06
30513 H 47.35421139462565 53.55904000360654 33.21104736456306 H 0.0 **** 0.06
30514 H 46.106815648975015 54.78723217762317 32.88860233140167 H 0.0 **** 0.06
30515 H 47.64076892303831 55.257616380475866 33.658985997251136 H 0.0 **** 0.06
30516 C 44.99651349892795 32.55683985453416 64.6510739249407 C 0.0 **** -0.24
30517 H 45.42720997165455 33.21123967765723 65.4090487988646 H 0.0 **** 0.06
30518 H 45.306911126939866 31.529365795414634 64.83880464807301 H 0.0 **** 0.06
30519 H 45.34149095385237 32.867547426719455 63.664966000539536 H 0.0 **** 0.06
30520 H 43.909189362168206 32.62125197816101 64.6919735995909 H 0.0 **** 0.06
30521 C 149.34083957506894 32.3860691398057 36.893429889025214 C 0.0 **** -0.24
30522 H 149.73190512155514 31.429084433743995 37.23830737365057 H 0.0 **** 0.06
30523 H 150.1291808592713 32.9357994490459 36.377504356697585 H 0.0 **** 0.06
30524 H 148.9924214394813 32.96557150822914 37.746929275547785 H 0.0 **** 0.06
30525 H 148.51094096651434 32.2127837446787 36.20838320954198 H 0.0 **** 0.06
30526 C 21.37152774885803 100.23899097121775 89.77506658325771 C 0.0 **** -0.24
30527 H 22.38472830602356 100.23194245939564 90.17560546382938 H 0.0 **** 0.06
30528 H 20.75390042623104 100.92252440627516 90.35882943485103 H 0.0 **** 0.06
30529 H 20.952590841299497 99.23373910640365 89.83011269900831 H 0.0 **** 0.06
30530 H 21.39377278233465 100.56611880028375 88.73596793836225 H 0.0 **** 0.06
30531 C 38.805712218265 120.57826961164866 51.72984417204347 C 0.0 **** -0.24
30532 H 38.91537256277485 119.88533658518875 50.89540608160641 H 0.0 **** 0.06
30533 H 39.753834885726576 120.65893590546452 52.261500865955014 H 0.0 **** 0.06
30534 H 38.03722133840938 120.21042586215756 52.40962812540121 H 0.0 **** 0.06
30535 H 38.516816946573044 121.55865638581074 51.35151261644492 H 0.0 **** 0.06
30536 C 31.724803385715234 69.9741138970584 67.19431637777379 C 0.0 **** -0.24
30537 H 31.150067308959308 69.28366600286691 66.57614110276657 H 0.0 **** 0.06
30538 H 31.864946126991867 69.543959538661 68.18645183060411 H 0.0 **** 0.06
30539 H 31.18660722238701 70.91771029531563 67.27961105205506 H 0.0 **** 0.06
30540 H 32.69639269660627 70.15054791794213 66.73326354389116 H 0.0 **** 0.06
30541 C 128.06189717851248 60.90720563742559 79.99647387506798 C 0.0 **** -0.24
30542 H 128.15473189794946 59.873661439233274 79.6641463880899 H 0.0 **** 0.06
30543 H 127.175914347407 61.00877648612304 80.623203695865 H 0.0 **** 0.06
30544 H 127.97052571354999 61.56088973812217 79.12875338237392 H 0.0 **** 0.06
30545 H 128.94612656999158 61.184712630210825 80.5686501314477 H 0.0 **** 0.06
30546 C 45.90717030866236 76.26906570101634 18.72887322961037 C 0.0 **** -0.24
30547 H 46.247833459286056 76.68141236643793 17.77837000418799 H 0.0 **** 0.06
30548 H 46.74005564468172 76.24165655885679 19.431057833592547 H 0.0 **** 0.06
30549 H 45.528758044184514 75.25945322418961 18.572172079081497 H 0.0 **** 0.06
30550 H 45.11143886540509 76.89668272768392 19.1318954046439 H 0.0 **** 0.06
30551 C 21.757710004561304 55.191743154480065 57.46780877566883 C 0.0 **** -0.24
30552 H 21.738845122350348 56.12507418161722 56.90472014197286 H 0.0 **** 0.06
30553 H 20.9430918469157 55.18862375393505 58.192218204431015 H 0.0 **** 0.06
30554 H 22.70965067754657 55.10264582547967 57.99047413296168 H 0.0 **** 0.06
30555 H 21.63864236914113 54.35190427439177 56.783786837866785 H 0.0 **** 0.06
30556 C 36.68625258541525 106.0560845187892 149.7984930585437 C 0.0 **** -0.24
30557 H 37.76159348610196 105.87938152583972 149.76939846768332 H 0.0 **** 0.06
30558 H 36.170765074232406 105.12129248947299 150.01668549049018 H 0.0 **** 0.06
30559 H 36.354895245354044 106.43859923375514 148.83343022833324 H 0.0 **** 0.06
30560 H 36.459670934890966 106.7869694149182 150.57576493235243 H 0.0 **** 0.06
30561 C 75.81124681734002 70.6818328388324 147.04225471621422 C 0.0 **** -0.24
30562 H 75.22553203945819 70.15141433578346 147.79212260006406 H 0.0 **** 0.06
30563 H 75.37100476512006 71.66329086096816 146.86526720046075 H 0.0 **** 0.06
30564 H 75.81327870265409 70.11199384462763 146.11264624769993 H 0.0 **** 0.06
30565 H 76.83433145826604 70.80038038908197 147.39787353917288 H 0.0 **** 0.06
30566 C 100.96874214639715 81.48164970794485 34.502167555479616 C 0.0 **** -0.24
30567 H 101.91902842276701 81.98257085736729 34.68391583825132 H 0.0 **** 0.06
30568 H 100.91475365632672 81.17242489143693 33.45809870802367 H 0.0 **** 0.06
30569 H 100.14935615351988 82.16563917283833 34.721690824190944 H 0.0 **** 0.06
30570 H 100.89166474612742 80.60461851912058 35.14536805188163 H 0.0 **** 0.06
30571 C 124.80343868290403 98.72854652477753 76.22974491628436 C 0.0 **** -0.24
30572 H 124.83932058938298 98.79917746649306 77.31651315960927 H 0.0 **** 0.06
30573 H 123.76776334480361 98.62421928438732 75.90579288670887 H 0.0 **** 0.06
30574 H 125.37479433567013 97.85929510497596 75.9037124336976 H 0.0 **** 0.06
30575 H 125.23255367214561 99.63026646170448 75.79314560789966 H 0.0 **** 0.06
30576 C 107.06347817206274 127.12134659104905 95.94338807622073 C 0.0 **** -0.24
30577 H 106.51484828533417 126.22255810701266 96.2270005479116 H 0.0 **** 0.06
30578 H 106.4200246637826 127.76581273837832 95.3440647344639 H 0.0 **** 0.06
30579 H 107.9424885821045 126.84234956773436 95.36229785432585 H 0.0 **** 0.06
30580 H 107.37496801947584 127.65425293503006 96.84171339790139 H 0.0 **** 0.06
30581 C 139.2572580410388 13.217378256552479 80.3720759000805 C 0.0 **** -0.24
30582 H 138.91792099289773 13.935384095272468 79.6244673649209 H 0.0 **** 0.06
30583 H 138.9656520902392 12.212107032904271 80.06785193318672 H 0.0 **** 0.06
30584 H 138.8012492018754 13.453149118215833 81.33373827913407 H 0.0 **** 0.06
30585 H 140.34207551074454 13.271105622779146 80.4615683433234 H 0.0 **** 0.06
30586 C 50.24888864569641 55.21895796951523 142.77125136910584 C 0.0 **** -0.24
30587 H 49.956244295171615 55.91135715980241 141.98149561346065 H 0.0 **** 0.06
30588 H 49.452358714858946 55.15601799398348 143.5128564684166 H 0.0 **** 0.06
30589 H 51.16133838310398 55.576034373328866 143.24707522593215 H 0.0 **** 0.06
30590 H 50.42489663787555 54.23191122607386 142.34247120062932 H 0.0 **** 0.06
30591 C 59.72051487823799 13.838054477102276 148.00953137210027 C 0.0 **** -0.24
30592 H 60.244470991872305 14.31333404637116 148.83801900538108 H 0.0 **** 0.06
30593 H 59.17981727141638 12.964722465820259 148.3757591965199 H 0.0 **** 0.06
30594 H 60.44240858010363 13.52762459926329 147.25324352488772 H 0.0 **** 0.06
30595 H 59.01564134434321 14.543724494570355 147.57122033120763 H 0.0 **** 0.06
30596 C 140.04933496201153 53.10460945529401 37.17663955489766 C 0.0 **** -0.24
30597 H 140.04574521680746 52.24440494358008 36.50740134169868 H 0.0 **** 0.06
30598 H 140.33551016129908 52.78406566329846 38.17844039428567 H 0.0 **** 0.06
30599 H 139.05300127632972 53.54514172386571 37.20603297112734 H 0.0 **** 0.06
30600 H 140.76324426356464 53.8438084244887 36.81371412786066 H 0.0 **** 0.06
30601 C 120.34446704728634 140.32234664807405 124.85915899459388 C 0.0 **** -0.24
30602 H 119.83315485999424 140.49204025312528 125.80664693982396 H 0.0 **** 0.06
30603 H 120.66448245058416 141.27710135274512 124.4421768970596 H 0.0 **** 0.06
30604 H 119.66444887020754 139.83064932928113 124.16274995635837 H 0.0 **** 0.06
30605 H 121.21533945340661 139.6880935846767 125.02432189247804 H 0.0 **** 0.06
30606 C 132.6947586849606 31.01596302742611 87.12324592331379 C 0.0 **** -0.24
30607 H 132.93430178828922 30.122016625361645 87.69913255965696 H 0.0 **** 0.06
30608 H 133.19977666714414 30.97239081229811 86.15869797019838 H 0.0 **** 0.06
30609 H 133.0255644824979 31.89900257207656 87.66916637384682 H 0.0 **** 0.06
30610 H 131.61671562030878 31.06864553468337 86.96676833150067 H 0.0 **** 0.06
30611 C 45.828706190312104 146.7454701274448 13.050247242157383 C 0.0 **** -0.24
30612 H 46.00313467040816 146.81121510591123 11.976876038030156 H 0.0 **** 0.06
30613 H 46.4856107971185 145.9887907344648 13.479368579599225 H 0.0 **** 0.06
30614 H 44.78981903201628 146.47055755314815 13.233173567975314 H 0.0 **** 0.06
30615 H 46.03535408012206 147.7109705293557 13.51181316507791 H 0.0 **** 0.06
30616 C 87.49817808061206 92.02758650286785 144.30954695782845 C 0.0 **** -0.24
30617 H 86.78070454614797 91.5864793228459 143.61751323586628 H 0.0 **** 0.06
30618 H 87.63489074616027 93.08113610653403 144.0686417653157 H 0.0 **** 0.06
30619 H 88.45214920393349 91.50696342084107 144.22434017526223 H 0.0 **** 0.06
30620 H 87.12332055994808 91.93256002745487 145.32869331420136 H 0.0 **** 0.06
30621 C 78.37426795155059 8.24737073252328 70.79183900517843 C 0.0 **** -0.24
30622 H 78.80602305158763 7.9438590974498595 69.83916611692791 H 0.0 **** 0.06
30623 H 77.2889163615911 8.155543481381137 70.74577185943325 H 0.0 **** 0.06
30624 H 78.64308300315321 9.283874481610042 70.99826325394818 H 0.0 **** 0.06
30625 H 78.75987805562946 7.608255828456457 71.58618242729621 H 0.0 **** 0.06
30626 C 136.11976091288037 64.52847591744984 111.39546325096613 C 0.0 **** -0.24
30627 H 135.46332727937443 65.08369055317175 110.72541170216105 H 0.0 **** 0.06
30628 H 137.04568400830595 64.28120464761278 110.87501645300178 H 0.0 **** 0.06
30629 H 135.62357746993032 63.610449116539456 111.71129277781229 H 0.0 **** 0.06
30630 H 136.34600769077952 65.13916187108987 112.2694709980649 H 0.0 **** 0.06
30631 C 122.4573096304599 29.781251710418985 5.01696862387956 C 0.0 **** -0.24
30632 H 123.26703967902488 29.285006315653277 5.553403427206213 H 0.0 **** 0.06
30633 H 122.8632826289308 30.606617083197477 4.431398440147738 H 0.0 **** 0.06
30634 H 121.73000954859573 30.16567801910736 5.731290293447547 H 0.0 **** 0.06
30635 H 121.97167436256596 29.06715735726999 4.351582916184647 H 0.0 **** 0.06
30636 C 27.54698215937138 127.8443785432935 2.2596339779582593 C 0.0 **** -0.24
30637 H 26.82803425284041 128.6634815224576 2.242525467447166 H 0.0 **** 0.06
30638 H 28.411669648207635 128.1087082516856 1.6501383915106373 H 0.0 **** 0.06
30639 H 27.080350026323913 126.9446069153148 1.8577297836968683 H 0.0 **** 0.06
30640 H 27.865479285333095 127.66128356844912 3.2853241136455154 H 0.0 **** 0.06
30641 C 142.99928085831147 43.84789820673299 57.4315922623838 C 0.0 **** -0.24
30642 H 142.58415847048576 42.86812966654699 57.67125985185845 H 0.0 **** 0.06
30643 H 143.32364206191772 44.33798977509721 58.34925261669416 H 0.0 **** 0.06
30644 H 142.23786646486798 44.45541265703639 56.944162538213874 H 0.0 **** 0.06
30645 H 143.85112132740517 43.72682087907614 56.76287366930974 H 0.0 **** 0.06
30646 C 149.54313432193837 124.34525572200194 68.2274722888217 C 0.0 **** -0.24
30647 H 148.81533198671028 123.53731820087931 68.3016288881289 H 0.0 **** 0.06
30648 H 150.17853653421423 124.34491935085678 69.11348832889377 H 0.0 **** 0.06
30649 H 149.02075093926993 125.29869721893758 68.15481305249014 H 0.0 **** 0.06
30650 H 150.15796483325698 124.19923900735391 67.33882889643439 H 0.0 **** 0.06
30651 C 3.989453153819923 136.62786673780997 31.607686666215216 C 0.0 **** -0.24
30652 H 3.049801325301196 137.08691598945362 31.30088917890464 H 0.0 **** 0.06
30653 H 3.8014356413074992 135.6135732915869 31.960065313861065 H 0.0 **** 0.06
30654 H 4.435135972636182 137.21501913379038 32.41009762152177 H 0.0 **** 0.06
30655 H 4.6720494325101 136.59746972326494 30.75738266732958 H 0.0 **** 0.06
30656 C 77.5163123964064 139.648704737431 95.47301576710782 C 0.0 **** -0.24
30657 H 76.53449637759228 139.8966769558307 95.87633148501054 H 0.0 **** 0.06
30658 H 78.25731109096691 139.68714191369185 96.27189499832083 H 0.0 **** 0.06
30659 H 77.78122972901718 140.3667859726327 94.69656058343001 H 0.0 **** 0.06
30660 H 77.49163980200989 138.64573496211824 95.04787538173962 H 0.0 **** 0.06
30661 C 94.92327325057633 105.99774318798171 123.93059022331435 C 0.0 **** -0.24
30662 H 94.56655190383847 105.66572868988442 122.95568369903292 H 0.0 **** 0.06
30663 H 95.61623137526422 106.82998558689917 123.79853648650966 H 0.0 **** 0.06
30664 H 95.4330898397422 105.1754811336125 124.43089970598383 H 0.0 **** 0.06
30665 H 94.0769021544917 106.32285121783315 124.53603653695875 H 0.0 **** 0.06
30666 C 75.62823058271475 88.14127619004744 65.4357941596547 C 0.0 **** -0.24
30667 H 75.55089465748009 87.24856217896964 64.8152215771837 H 0.0 **** 0.06
30668 H 75.46705605802745 89.02666879345722 64.82031368354276 H 0.0 **** 0.06
30669 H 76.61960906787881 88.18628844501676 65.88593531210603 H 0.0 **** 0.06
30670 H 74.87318633742096 88.10334117517196 66.22125365556357 H 0.0 **** 0.06
30671 C 86.75136773784097 89.42457773947578 0.8450504980584981 C 0.0 **** -0.24
30672 H 87.47881078166789 89.97706716586848 1.4393833331142503 H 0.0 **** 0.06
30673 H 86.24186284180395 90.10971900646874 0.16654350780001437 H 0.0 **** 0.06
30674 H 86.02082535124934 88.95781631881772 1.506675108621181 H 0.0 **** 0.06
30675 H 87.2635296152856 88.65480548487912 0.26837524644722066 H 0.0 **** 0.06
30676 C 109.85170156917938 1.6875384060461442 109.10444573027024 C 0.0 **** -0.24
30677 H 108.79532254087822 1.4185840935961664 109.07294251393182 H 0.0 **** 0.06
30678 H 109.98732358031545 2.6753837218743683 108.66385431531182 H 0.0 **** 0.06
30679 H 110.42872682143035 0.9560412028763778 108.54013542132174 H 0.0 **** 0.06
30680 H 110.19281374401045 1.7009982298519049 110.13966348761289 H 0.0 **** 0.06
30681 C 79.55619430473814 106.23858195045662 115.66079250746286 C 0.0 **** -0.24
30682 H 79.35087443796147 106.84426775263594 114.77789106304407 H 0.0 **** 0.06
30683 H 79.1766152878314 105.22824442211405 115.50415158090179 H 0.0 **** 0.06
30684 H 79.0644193405069 106.68191472198797 116.52738755040612 H 0.0 **** 0.06
30685 H 80.63204306100147 106.20064890858234 115.83286817745757 H 0.0 **** 0.06
30686 C 58.86108376231991 137.45049008915996 81.75087861900964 C 0.0 **** -0.24
30687 H 58.579104353359156 136.4908227925052 81.3177761201942 H 0.0 **** 0.06
30688 H 59.1957321995136 137.30136065261573 82.77841177649934 H 0.0 **** 0.06
30689 H 58.00024600250035 138.11925143445163 81.74274799503226 H 0.0 **** 0.06
30690 H 59.66813102940742 137.88966833584132 81.16558244490955 H 0.0 **** 0.06
30691 C 105.13509835312671 109.81322150086987 145.67503390187193 C 0.0 **** -0.24
30692 H 105.47741859479656 110.72571661841465 145.18615045646385 H 0.0 **** 0.06
30693 H 105.18505836445046 109.94101013307858 146.7565192502072 H 0.0 **** 0.06
30694 H 105.77339064613174 108.98144941943275 145.37753327212417 H 0.0 **** 0.06
30695 H 104.10682188574005 109.60701750441063 145.37929774585885 H 0.0 **** 0.06
30696 C 82.71977576150596 52.46950450047403 114.52921730305256 C 0.0 **** -0.24
30697 H 82.99563984108681 52.728818705243256 115.55190967043073 H 0.0 **** 0.06
30698 H 81.63437125022642 52.479400495529305 114.43181306948598 H 0.0 **** 0.06
30699 H 83.09762279995607 51.475611301834235 114.29227773526621 H 0.0 **** 0.06
30700 H 83.15383502795078 53.196233688858044 113.84197153114961 H 0.0 **** 0.06
30701 C 136.3366052378779 52.04013843912088 92.87208314352341 C 0.0 **** -0.24
30702 H 135.5069079297695 52.39716997025221 92.261052548901 H 0.0 **** 0.06
30703 H 136.02396890504116 51.1557175818962 93.42599622813876 H 0.0 **** 0.06
30704 H 136.63397810084484 52.82208915888344 93.57098438449972 H 0.0 **** 0.06
30705 H 137.1790950188012 51.78829040257435 92.22794727265781 H 0.0 **** 0.06
30706 C 4.1282644803954085 32.036920110108426 13.196530459838208 C 0.0 **** -0.24
30707 H 3.4943076489079097 32.65288157451869 12.55928665424328 H 0.0 **** 0.06
30708 H 5.061828305656455 32.56389911215163 13.396328453428161 H 0.0 **** 0.06
30709 H 4.3438066525243535 31.094524870954118 12.692169180719581 H 0.0 **** 0.06
30710 H 3.6145235915888456 31.837195864619275 14.136509173513815 H 0.0 **** 0.06
30711 C 9.847539918058601 79.27410417781755 137.6679272270286 C 0.0 **** -0.24
30712 H 9.160200107357241 78.65801707543096 137.08797364312332 H 0.0 **** 0.06
30713 H 10.835695089442197 79.24745060222006 137.20576434992788 H 0.0 **** 0.06
30714 H 9.91190725060369 78.88850693385223 138.6850772015907 H 0.0 **** 0.06
30715 H 9.48456676082776 80.30097437536324 137.69025472727247 H 0.0 **** 0.06
30716 C 128.20399350290367 34.64893228987503 74.27486808538481 C 0.0 **** -0.24
30717 H 127.20664798007397 35.077810267714504 74.36574727804432 H 0.0 **** 0.06
30718 H 128.3768653625825 33.95517373351828 75.09798587251268 H 0.0 **** 0.06
30719 H 128.94668060135606 35.445989543527126 74.30777837169066 H 0.0 **** 0.06
30720 H 128.28490255154418 34.11616700564269 73.32658837085907 H 0.0 **** 0.06
30721 C 13.436367063647253 104.33435253471032 60.54152363410728 C 0.0 **** -0.24
30722 H 13.744379886477702 103.89009382189204 59.59422070668117 H 0.0 **** 0.06
30723 H 14.179273740771691 104.108466398968 61.30629392360319 H 0.0 **** 0.06
30724 H 12.471719151232833 103.92200420299935 60.838176224794296 H 0.0 **** 0.06
30725 H 13.350136174032514 105.4148530092096 60.42475266833813 H 0.0 **** 0.06
30726 C 82.3831609358517 81.67388305048145 7.734163679967935 C 0.0 **** -0.24
30727 H 81.41682677723944 81.50070682357241 7.261568994528005 H 0.0 **** 0.06
30728 H 83.05789079720122 82.14823908639518 7.019991060692945 H 0.0 **** 0.06
30729 H 82.80599433504374 80.72269029301992 8.056687662267024 H 0.0 **** 0.06
30730 H 82.25345749085515 82.32468533261681 8.598629337871756 H 0.0 **** 0.06
30731 C 44.67562725027152 38.796151516975755 148.31344952411814 C 0.0 **** -0.24
30732 H 43.96022250006787 38.92542578706448 147.50007275828906 H 0.0 **** 0.06
30733 H 44.32894254655933 38.00596038318295 148.97958853396142 H 0.0 **** 0.06
30734 H 44.76485108528139 39.729562989318396 148.86991663229026 H 0.0 **** 0.06
30735 H 45.647316131193264 38.524149848138194 147.90132661632015 H 0.0 **** 0.06
30736 C 81.26384021523401 76.81721560762139 133.11687128430967 C 0.0 **** -0.24
30737 H 80.88420056471867 76.46419508787335 132.15853799295672 H 0.0 **** 0.06
30738 H 81.58518286395339 77.85508687713693 133.0216259945693 H 0.0 **** 0.06
30739 H 82.10931634622507 76.2010009538611 133.42175335033528 H 0.0 **** 0.06
30740 H 80.4747849426709 76.74815702492225 133.86670875251454 H 0.0 **** 0.06
30741 C 96.59188363568224 89.58251026587209 61.11208998116078 C 0.0 **** -0.24
30742 H 97.27919673936917 89.54645056398945 61.957914972702525 H 0.0 **** 0.06
30743 H 97.15615734111914 89.74324503473568 60.19289139431062 H 0.0 **** 0.06
30744 H 95.88585890051618 90.40114787988674 61.25300494960446 H 0.0 **** 0.06
30745 H 96.04776174816368 88.64030575129362 61.0458516863863 H 0.0 **** 0.06
30746 C 71.27920822393406 130.27258826207833 42.24568845087285 C 0.0 **** -0.24
30747 H 71.12438166545115 130.21148609051983 41.16759392148876 H 0.0 **** 0.06
30748 H 71.89964094995261 131.13924774474717 42.47384860715054 H 0.0 **** 0.06
30749 H 71.77724332121879 129.36717167133398 42.59244963853696 H 0.0 **** 0.06
30750 H 70.3158386024641 130.37251878732985 42.745130464064644 H 0.0 **** 0.06
30751 C 15.19297856648982 36.86690605419605 130.643945340992 C 0.0 **** -0.24
30752 H 15.019347452520414 37.387384637846196 129.70221408599775 H 0.0 **** 0.06
30753 H 15.906070590330678 36.05706372914602 130.48547544675608 H 0.0 **** 0.06
30754 H 14.252431506836032 36.456129545361506 131.01082320492662 H 0.0 **** 0.06
30755 H 15.593844141399586 37.56607393514648 131.37734531593435 H 0.0 **** 0.06
30756 C 26.096352580014866 17.72084803938594 45.45836654843637 C 0.0 **** -0.24
30757 H 26.640139656801182 17.72103932753393 46.403594616653834 H 0.0 **** 0.06
30758 H 25.466722914373975 16.833913766967214 45.401414820150904 H 0.0 **** 0.06
30759 H 26.80737107139572 17.716021152506016 44.63193511964292 H 0.0 **** 0.06
30760 H 25.474553084213085 18.613487313798714 45.39772860320531 H 0.0 **** 0.06
30761 C 147.1507665408216 108.69507019905446 86.79032162078519 C 0.0 **** -0.24
30762 H 147.4289210301799 108.3815549179614 85.78514021566679 H 0.0 **** 0.06
30763 H 146.068915959021 108.82277949008817 86.84474768804297 H 0.0 **** 0.06
30764 H 147.6399296870386 109.64097144323658 87.02387836553979 H 0.0 **** 0.06
30765 H 147.46366029655422 107.9373803505268 87.50824644240649 H 0.0 **** 0.06
30766 C 107.72573790578285 126.29924526430852 138.873900802153 C 0.0 **** -0.24
30767 H 107.49335844787795 125.47095712502582 139.5430136607343 H 0.0 **** 0.06
30768 H 107.96462808067052 127.18526146060427 139.4622640180885 H 0.0 **** 0.06
30769 H 106.86373449486844 126.50534028027346 138.238698093734 H 0.0 **** 0.06
30770 H 108.58075754050928 126.03377739387608 138.2513610413787 H 0.0 **** 0.06
30771 C 108.05975913509175 67.6815510403726 80.00663467515847 C 0.0 **** -0.24
30772 H 108.92547832141426 67.05689377307525 80.22952056075223 H 0.0 **** 0.06
30773 H 107.322692142166 67.57622858778282 80.80225323061381 H 0.0 **** 0.06
30774 H 107.61986706000684 67.36815901141077 79.05964740129082 H 0.0 **** 0.06
30775 H 108.37235234336092 68.72316126014383 79.93537383877276 H 0.0 **** 0.06
30776 C 3.7038321086143924 72.0230460986009 32.45754030356744 C 0.0 **** -0.24
30777 H 2.7061003425940555 72.42468550919398 32.63087392396329 H 0.0 **** 0.06
30778 H 4.447042342281776 72.79276399334896 32.6728993256165 H 0.0 **** 0.06
30779 H 3.7949634632028904 71.71147853321094 31.417072520976077 H 0.0 **** 0.06
30780 H 3.869298069219525 71.16538611896601 33.10892101247941 H 0.0 **** 0.06
30781 C 112.05817986272666 136.61925003039974 47.28676324659591 C 0.0 **** -0.24
30782 H 111.6340220513614 135.77181172498044 46.747253292139675 H 0.0 **** 0.06
30783 H 112.12485359405639 137.47795718421378 46.61889041963187 H 0.0 **** 0.06
30784 H 113.05336282836288 136.35921725738996 47.64559364751858 H 0.0 **** 0.06
30785 H 111.41920350520434 136.8664888032601 48.13429476441084 H 0.0 **** 0.06
30786 C 43.73226696993923 83.48832697688135 149.53969216449985 C 0.0 **** -0.24
30787 H 43.60355283844261 83.85979123436212 150.55585574694496 H 0.0 **** 0.06
30788 H 43.26521792883909 84.1801628300939 148.8386715993707 H 0.0 **** 0.06
30789 H 43.26492842264628 82.50845358517022 149.4487347262774 H 0.0 **** 0.06
30790 H 44.79619109470667 83.40604526208182 149.31539394065345 H 0.0 **** 0.06
30791 C 121.77009437516581 139.93438778478819 49.56055228867962 C 0.0 **** -0.24
30792 H 120.92770454228103 140.46419886600842 50.00543550532208 H 0.0 **** 0.06
30793 H 122.68285661646739 140.51054866820556 49.71692768293573 H 0.0 **** 0.06
30794 H 121.59746311183984 139.80940818445092 48.492661401790656 H 0.0 **** 0.06
30795 H 121.87291570370253 138.95619138464278 50.02960669601865 H 0.0 **** 0.06
30796 C 35.55282251644366 13.402973659295753 24.09959890650086 C 0.0 **** -0.24
30797 H 34.99630701582145 14.146556437895697 24.670639758767038 H 0.0 **** 0.06
30798 H 35.85194436510697 12.5888633778045 24.75982466680037 H 0.0 **** 0.06
30799 H 36.43964391733688 13.865990638641676 23.66716908148105 H 0.0 **** 0.06
30800 H 34.92100363277826 13.011427524483508 23.30194231980603 H 0.0 **** 0.06
30801 C 24.669687611615494 139.94257799963196 74.93975674427779 C 0.0 **** -0.24
30802 H 24.117461706080285 140.01786360854408 74.0029370628396 H 0.0 **** 0.06
30803 H 25.575250126847635 140.54644904791616 74.8772604219825 H 0.0 **** 0.06
30804 H 24.937918117084003 138.9012489705426 75.12065662560306 H 0.0 **** 0.06
30805 H 24.046911357916883 140.30437374344 75.7575434157391 H 0.0 **** 0.06
30806 C 33.716538498829266 7.969658874957247 88.12754810705019 C 0.0 **** -0.24
30807 H 32.8591010900447 7.386956776839526 87.79270516909142 H 0.0 **** 0.06
30808 H 33.62810888226721 8.162335560297976 89.19741746124438 H 0.0 **** 0.06
30809 H 33.74365816146775 8.917127229235916 87.58970267307521 H 0.0 **** 0.06
30810 H 34.632969580290194 7.4135260759990445 87.93279999213252 H 0.0 **** 0.06
30811 C 129.33395778877912 58.152118455101686 38.815983658522185 C 0.0 **** -0.24
30812 H 129.456926990446 58.473690520932564 39.85045573939644 H 0.0 **** 0.06
30813 H 128.4376340035589 57.53677733623272 38.73304697741176 H 0.0 **** 0.06
30814 H 130.2033853273923 57.57118429221367 38.510890758814895 H 0.0 **** 0.06
30815 H 129.23593141972438 59.02628333560608 38.173400570875685 H 0.0 **** 0.06
30816 C 121.34892915467985 94.2810118455256 44.74937143340841 C 0.0 **** -0.24
30817 H 120.56480996519291 93.54641525214899 44.561077800376864 H 0.0 **** 0.06
30818 H 121.53988683415987 94.84929907518841 43.839192185463304 H 0.0 **** 0.06
30819 H 122.26056869110953 93.76702965890763 45.05562163497231 H 0.0 **** 0.06
30820 H 121.03022134961161 94.9577058554639 45.5416674660797 H 0.0 **** 0.06
30821 C 94.51251184204855 107.70560365916494 102.03137986054307 C 0.0 **** -0.24
30822 H 94.47402057496484 107.28313800987179 101.02715693064599 H 0.0 **** 0.06
30823 H 94.07490140720168 108.70452941892692 102.02255001311494 H 0.0 **** 0.06
30824 H 95.5498515343065 107.7665477671532 102.3604294932131 H 0.0 **** 0.06
30825 H 93.95166306632663 107.06898945350544 102.71490926648228 H 0.0 **** 0.06
30826 C 65.35637151317007 138.65532743971326 57.73866414421656 C 0.0 **** -0.24
30827 H 65.65193654074403 138.21315377145868 56.78730919479921 H 0.0 **** 0.06
30828 H 64.42748000733445 139.21170191235612 57.60700716691002 H 0.0 **** 0.06
30829 H 66.13906799149709 139.3311618689031 58.08390543300294 H 0.0 **** 0.06
30830 H 65.20655342123996 137.86539778541152 58.47509756867163 H 0.0 **** 0.06
30831 C 96.20479470192473 51.988850003971834 112.77278310746657 C 0.0 **** -0.24
30832 H 96.56521160928787 51.12888664615082 112.20735919763156 H 0.0 **** 0.06
30833 H 97.04916006781819 52.5010329174674 113.23384521490102 H 0.0 **** 0.06
30834 H 95.51738752576674 51.65036609083114 113.54815366766017 H 0.0 **** 0.06
30835 H 95.68580907918933 52.673275804589736 112.10161268492162 H 0.0 **** 0.06
30836 C 76.30089544399715 56.446083789763065 90.11532848977674 C 0.0 **** -0.24
30837 H 76.26931555566296 57.3092098015931 90.78103091590214 H 0.0 **** 0.06
30838 H 75.32259592999782 56.30962297974965 89.65260497165156 H 0.0 **** 0.06
30839 H 76.5606067653659 55.55582491060798 90.68745313819838 H 0.0 **** 0.06
30840 H 77.04920375543875 56.612731805680895 89.34132619879688 H 0.0 **** 0.06
30841 C 149.67740180769812 127.43547899687383 108.68777078480308 C 0.0 **** -0.24
30842 H 148.76779053726415 127.6814285712861 108.1394372697357 H 0.0 **** 0.06
30843 H 149.43055564235402 127.24327623965199 109.73211391329095 H 0.0 **** 0.06
30844 H 150.37427518932677 128.27128939041532 108.62715765275645 H 0.0 **** 0.06
30845 H 150.13543761410017 126.54781897818853 108.25243603555764 H 0.0 **** 0.06
30846 C 131.71205023014085 78.97965892181298 13.783326299719477 C 0.0 **** -0.24
30847 H 132.63188804388898 78.6518638956598 14.268123492759997 H 0.0 **** 0.06
30848 H 131.13143918228792 78.1076619977119 13.479837068058686 H 0.0 **** 0.06
30849 H 131.95767335436784 79.5762695968408 12.905536792534264 H 0.0 **** 0.06
30850 H 131.12863634520085 79.58087740112589 14.48010031932185 H 0.0 **** 0.06
30851 C 99.69291159179697 57.28011255056168 3.873387419895419 C 0.0 **** -0.24
30852 H 100.55555676056481 57.48075602704898 4.508732988038123 H 0.0 **** 0.06
30853 H 99.94926460224465 56.511036405607 3.1450561183247494 H 0.0 **** 0.06
30854 H 99.40558943948359 58.19285516167946 3.3520848542309807 H 0.0 **** 0.06
30855 H 98.86070591180226 56.93629585298896 4.488890729315333 H 0.0 **** 0.06
30856 C 60.89120481498243 74.25993203163578 8.012422539140829 C 0.0 **** -0.24
30857 H 60.74679986933516 73.82151036541141 9.000097665387756 H 0.0 **** 0.06
30858 H 61.384343140838155 73.53780824293939 7.3622769546255995 H 0.0 **** 0.06
30859 H 61.509645493392995 75.1537746103471 8.099031346710603 H 0.0 **** 0.06
30860 H 59.922876665202566 74.52892976307433 7.589468253130178 H 0.0 **** 0.06
30861 C 108.98291679423143 50.23918427292412 41.33781364111721 C 0.0 **** -0.24
30862 H 109.90687319671868 50.776918400808995 41.123020507687244 H 0.0 **** 0.06
30863 H 108.27674443568309 50.38935172149078 40.52048392589819 H 0.0 **** 0.06
30864 H 108.55198150540649 50.614613379429386 42.26538100115148 H 0.0 **** 0.06
30865 H 109.19825796236888 49.17518821997581 41.44149635339694 H 0.0 **** 0.06
30866 C 0.8939517993582626 80.90337185935402 124.19333012570273 C 0.0 **** -0.24
30867 H -0.07355471973733074 81.15660232414672 123.75881777422616 H 0.0 **** 0.06
30868 H 0.8857144508300507 79.86179353938374 124.51566575922341 H 0.0 **** 0.06
30869 H 1.0860230085169746 81.54846575989913 125.05108651227759 H 0.0 **** 0.06
30870 H 1.675782370880313 81.04787945510435 123.44793829383617 H 0.0 **** 0.06
30871 C 81.11771135925437 28.389092107307214 28.03885355986351 C 0.0 **** -0.24
30872 H 81.09550019493508 28.469038544965827 26.951765828897983 H 0.0 **** 0.06
30873 H 81.89510854811499 29.04311039871113 28.434918201179784 H 0.0 **** 0.06
30874 H 81.33045722323288 27.358888711263198 28.32335597209854 H 0.0 **** 0.06
30875 H 80.1512988310634 28.686382616909256 28.44460917669499 H 0.0 **** 0.06
30876 C 59.677777423894824 23.96533645865742 21.718315903701694 C 0.0 **** -0.24
30877 H 59.07851064794991 23.160718241332106 21.291920139008937 H 0.0 **** 0.06
30878 H 60.621223571676495 24.03937433032341 21.17840738753756 H 0.0 **** 0.06
30879 H 59.874558346185296 23.75250839046865 22.769113205295866 H 0.0 **** 0.06
30880 H 59.134344914042984 24.90657852310531 21.633380749166292 H 0.0 **** 0.06
30881 C 43.501114996705326 109.43151260439373 45.936247125807256 C 0.0 **** -0.24
30882 H 43.88732532258001 109.32334970671957 44.92289682011257 H 0.0 **** 0.06
30883 H 43.541520103556536 110.48118533185476 46.22953729970972 H 0.0 **** 0.06
30884 H 44.107476130445946 108.83923782549391 46.620982269510236 H 0.0 **** 0.06
30885 H 42.46897129282695 109.08332037232981 45.97110420149767 H 0.0 **** 0.06
30886 C 15.861898517187967 4.547944220951479 98.98534110054457 C 0.0 **** -0.24
30887 H 15.774409530018602 5.441672174726904 99.60177312670022 H 0.0 **** 0.06
30888 H 14.910382688079068 4.01663288519174 98.97701271522847 H 0.0 **** 0.06
30889 H 16.636503830574583 3.8987622156708426 99.39394583300093 H 0.0 **** 0.06
30890 H 16.12759710389909 4.833539316369979 97.96691720463804 H 0.0 **** 0.06
30891 C 61.16352548134823 53.53091929965437 44.31162622653281 C 0.0 **** -0.24
30892 H 60.68808971770811 53.66421183409558 43.33998822259208 H 0.0 **** 0.06
30893 H 61.36345592532855 52.47212112327536 44.476148938126954 H 0.0 **** 0.06
30894 H 60.50156527737589 53.90253510720879 45.09390486551415 H 0.0 **** 0.06
30895 H 62.102005773728266 54.086067832758886 44.33584156538882 H 0.0 **** 0.06
30896 C 116.93213406184329 129.301495688589 50.48328830733996 C 0.0 **** -0.24
30897 H 115.87348369361767 129.43476584997504 50.2601158333737 H 0.0 **** 0.06
30898 H 117.4472394482285 128.93622346893338 49.59407507096083 H 0.0 **** 0.06
30899 H 117.04464504327954 128.57851349986404 51.2912855362284 H 0.0 **** 0.06
30900 H 117.36227127558949 130.2557506290297 50.78686195210045 H 0.0 **** 0.06
30901 C 27.93786677359131 109.59628158329087 18.83950659467915 C 0.0 **** -0.24
30902 H 27.87787778517791 108.78946935856385 18.110366163066146 H 0.0 **** 0.06
30903 H 28.70147757791701 109.36046503741306 19.58087397220865 H 0.0 **** 0.06
30904 H 26.97286944511722 109.70974422633742 19.335266549808942 H 0.0 **** 0.06
30905 H 28.19729116110895 110.52559466599342 18.332993374348504 H 0.0 **** 0.06
30906 C 148.70267771768926 134.47104794667345 87.78700503712464 C 0.0 **** -0.24
30907 H 149.27588259587998 135.3747438970623 87.99597228254797 H 0.0 **** 0.06
30908 H 147.97042806934334 134.67860740431973 87.00681082860321 H 0.0 **** 0.06
30909 H 148.1882235490032 134.1503154648752 88.69371564366419 H 0.0 **** 0.06
30910 H 149.3767794824745 133.6822103916594 87.45431361991508 H 0.0 **** 0.06
30911 C 75.26346078928334 104.34526094778086 120.13163753586691 C 0.0 **** -0.24
30912 H 75.27703456860577 103.38869240517202 119.60797456399992 H 0.0 **** 0.06
30913 H 75.5191204360041 104.1888554275467 121.17937697052581 H 0.0 **** 0.06
30914 H 74.26849701996709 104.78395177228948 120.06089210141921 H 0.0 **** 0.06
30915 H 75.9911186276407 105.01862473110695 119.67619944924313 H 0.0 **** 0.06
30916 C 51.44582212643955 68.97669479295996 113.33508002247318 C 0.0 **** -0.24
30917 H 51.68437048721775 68.50221056697876 112.38272089039602 H 0.0 **** 0.06
30918 H 51.265019740508464 68.20843972112863 114.08677884527178 H 0.0 **** 0.06
30919 H 50.55361057607672 69.59141688967492 113.22046877186868 H 0.0 **** 0.06
30920 H 52.28126686492823 69.603272360034 113.64752862356129 H 0.0 **** 0.06
30921 C 44.14818275220543 38.218139873934604 138.5221875344226 C 0.0 **** -0.24
30922 H 44.615732790773706 37.946657791032564 137.57557518822912 H 0.0 **** 0.06
30923 H 43.06509407682731 38.24285808601379 138.3980889800923 H 0.0 **** 0.06
30924 H 44.5004401919027 39.20161869452295 138.83249153229886 H 0.0 **** 0.06
30925 H 44.41053889936481 37.48148877762384 139.28113145548397 H 0.0 **** 0.06
30926 C 75.44450602205974 149.29033544877146 93.43638139153983 C 0.0 **** -0.24
30927 H 74.82549847458036 150.18315395836646 93.34688694380675 H 0.0 **** 0.06
30928 H 74.83242474638487 148.45789217343875 93.78551638002249 H 0.0 **** 0.06
30929 H 76.24757591409538 149.47558594346353 94.14982479606937 H 0.0 **** 0.06
30930 H 75.87158003015648 149.04552177347128 92.46396659687659 H 0.0 **** 0.06
30931 C 134.5962092647215 54.10555878966005 89.69487784744709 C 0.0 **** -0.24
30932 H 135.64702575496358 54.27143455019879 89.93099094914209 H 0.0 **** 0.06
30933 H 134.06134072291087 55.055395624379884 89.7322298411988 H 0.0 **** 0.06
30934 H 134.16518563520776 53.417277772246536 90.42183200754064 H 0.0 **** 0.06
30935 H 134.51063517459178 53.679502184799986 88.69575758885267 H 0.0 **** 0.06
30936 C 98.42012526243737 138.69118946991952 62.3625640838483 C 0.0 **** -0.24
30937 H 98.68201818653928 138.30175680946112 61.378998241459726 H 0.0 **** 0.06
30938 H 97.7495728458669 137.99218825799716 62.86324988984312 H 0.0 **** 0.06
30939 H 97.92232478598017 139.65488146921288 62.25031019014894 H 0.0 **** 0.06
30940 H 99.32508088104316 138.81635199341252 62.95581116393298 H 0.0 **** 0.06
30941 C 131.68660539360323 111.874431489005 60.48918398483451 C 0.0 **** -0.24
30942 H 130.5981283158031 111.89780951173246 60.53557989113281 H 0.0 **** 0.06
30943 H 132.02979129032906 112.50889917322614 59.671630497750385 H 0.0 **** 0.06
30944 H 132.02083274952028 110.85032168800082 60.31960003401093 H 0.0 **** 0.06
30945 H 132.09834452664245 112.23956935924791 61.43045054252866 H 0.0 **** 0.06
30946 C 102.115707794255 69.71203884410184 41.08686270945759 C 0.0 **** -0.24
30947 H 101.82701093519051 69.19709783220705 40.16983249675354 H 0.0 **** 0.06
30948 H 101.39488578102413 69.48554131425058 41.87289833278976 H 0.0 **** 0.06
30949 H 102.13488849779264 70.78723042061367 40.909437654507826 H 0.0 **** 0.06
30950 H 103.10625042485952 69.37609738172816 41.39487105952861 H 0.0 **** 0.06
30951 C 18.901510773185862 140.8913665418737 5.4055197061601135 C 0.0 **** -0.24
30952 H 19.799897824034133 141.34291004658817 5.8245120651885784 H 0.0 **** 0.06
30953 H 19.02079520579673 140.7756842770594 4.328544173045408 H 0.0 **** 0.06
30954 H 18.043651364596997 141.53283567199813 5.608960358874953 H 0.0 **** 0.06
30955 H 18.74070355232186 139.91441141938472 5.860994400766025 H 0.0 **** 0.06
30956 C 109.1649922113909 21.883332680987962 35.438848546350414 C 0.0 **** -0.24
30957 H 109.97714806082594 21.402435934788627 35.9842041052309 H 0.0 **** 0.06
30958 H 109.38476565029946 21.86536022408498 34.370881716647716 H 0.0 **** 0.06
30959 H 109.0660998723382 22.916100451495865 35.773093249209694 H 0.0 **** 0.06
30960 H 108.23396373350143 21.348759039183506 35.62844415328334 H 0.0 **** 0.06
30961 C 94.00749034889257 102.53740278161956 81.3726527216979 C 0.0 **** -0.24
30962 H 93.20280389786377 102.22517115591577 80.7072801963543 H 0.0 **** 0.06
30963 H 94.85412552038582 101.85989576641353 81.2627545576949 H 0.0 **** 0.06
30964 H 93.65473614877578 102.5139684035835 82.4044656134337 H 0.0 **** 0.06
30965 H 94.31670183852948 103.55102201808998 81.11761393833078 H 0.0 **** 0.06
30966 C 81.77447623924023 127.35251837836574 12.475416785097082 C 0.0 **** -0.24
30967 H 81.99903507466621 126.3317751526665 12.786836317364134 H 0.0 **** 0.06
30968 H 82.70372867870617 127.91306266487283 12.372123509377275 H 0.0 **** 0.06
30969 H 81.14370772931314 127.82984033500625 13.224966182611638 H 0.0 **** 0.06
30970 H 81.25208808464643 127.33381649127944 11.51877978513113 H 0.0 **** 0.06
30971 C 130.68073656829435 64.02885609168533 119.12917592304431 C 0.0 **** -0.24
30972 H 130.91597974051226 63.6672415770866 118.12741141349427 H 0.0 **** 0.06
30973 H 129.6032477925992 63.98599180847458 119.28715713481732 H 0.0 **** 0.06
30974 H 131.02360845056322 65.05920839014544 119.23163349964084 H 0.0 **** 0.06
30975 H 131.1820940331603 63.404043008035615 119.86768371010719 H 0.0 **** 0.06
30976 C 0.6879189286863436 40.18385543571897 140.59890330270952 C 0.0 **** -0.24
30977 H 1.6581845274565126 40.297916556384095 141.08164048668382 H 0.0 **** 0.06
30978 H 0.8314847154697134 39.933838172996715 139.54788584125964 H 0.0 **** 0.06
30979 H 0.13196288746453888 41.11801712952963 140.6781452794912 H 0.0 **** 0.06
30980 H 0.1301611379083738 39.385924689859976 141.09037283405587 H 0.0 **** 0.06
30981 C 75.13057071571448 38.67080703110531 71.33740819739924 C 0.0 **** -0.24
30982 H 75.19537240615783 38.73861364752844 70.25171511632337 H 0.0 **** 0.06
30983 H 75.85317260338479 37.9392677636061 71.6988888897474 H 0.0 **** 0.06
30984 H 74.12570331490507 38.36138686783136 71.62354125436443 H 0.0 **** 0.06
30985 H 75.3488636947706 39.64575672100392 71.77519790113087 H 0.0 **** 0.06
30986 C 34.654311079480976 41.2477511931782 144.74963086664656 C 0.0 **** -0.24
30987 H 34.92354224358371 40.35240556857002 145.31002740398685 H 0.0 **** 0.06
30988 H 34.91564189712642 41.110340206599446 143.6999809541133 H 0.0 **** 0.06
30989 H 35.19610172555116 42.10336893590201 145.15132181323963 H 0.0 **** 0.06
30990 H 33.58163321074545 41.42255633958034 144.83786275718802 H 0.0 **** 0.06
30991 C 110.77459390260086 99.34403225276338 40.81078742554081 C 0.0 **** -0.24
30992 H 110.14597801916327 99.00606151620862 39.98672714315293 H 0.0 **** 0.06
30993 H 110.63306505981777 100.41465266942637 40.96058400612819 H 0.0 **** 0.06
30994 H 111.8200373638945 99.14421040468788 40.57545640807129 H 0.0 **** 0.06
30995 H 110.49831551122318 98.810186651479 41.720315118874254 H 0.0 **** 0.06
30996 C 38.95939436667204 147.02522334269372 120.62646614947182 C 0.0 **** -0.24
30997 H 39.55906751491935 146.28812411635707 120.09352498264651 H 0.0 **** 0.06
30998 H 37.934828616339715 146.6646188308049 120.71558336817672 H 0.0 **** 0.06
30999 H 38.96735028462345 147.9661449350181 120.076386391763 H 0.0 **** 0.06
31000 H 39.37751023974535 147.18268331280012 121.62075733561345 H 0.0 **** 0.06
31001 C 35.37545738498019 102.91207993729562 27.010744080294103 C 0.0 **** -0.24
31002 H 36.28620060420826 103.03638918044341 26.42540702929449 H 0.0 **** 0.06
31003 H 34.839644810761044 102.02618384719221 26.665795404686094 H 0.0 **** 0.06
31004 H 34.74192188605877 103.79052710054562 26.88754570052771 H 0.0 **** 0.06
31005 H 35.63245253240735 102.79389790909865 28.063414487902833 H 0.0 **** 0.06
31006 C 27.83246968358074 77.03709954757201 93.33921878310301 C 0.0 **** -0.24
31007 H 28.497176423640866 76.25538650944944 92.97228535693716 H 0.0 **** 0.06
31008 H 27.18235726050625 76.62758044534314 94.1131706367442 H 0.0 **** 0.06
31009 H 27.225316792865215 77.41349766789534 92.51644161057831 H 0.0 **** 0.06
31010 H 28.425538397806832 77.85140526837944 93.75565627199828 H 0.0 **** 0.06
31011 C 142.93606442730362 116.6964985458121 137.43245373543962 C 0.0 **** -0.24
31012 H 141.96722643802428 116.5537328195018 137.90973911658762 H 0.0 **** 0.06
31013 H 143.71894766854646 116.28335641843852 138.07026717281659 H 0.0 **** 0.06
31014 H 143.11425850327356 117.76074943781346 137.2816513546182 H 0.0 **** 0.06
31015 H 142.94506075507454 116.18571473215077 136.46938859790555 H 0.0 **** 0.06
31016 C 101.67259028150718 76.50789038876765 76.07161223557652 C 0.0 **** -0.24
31017 H 102.24289264659683 76.86159838738136 76.93048087767447 H 0.0 **** 0.06
31018 H 101.37318288605518 77.35939039737929 75.4584845793664 H 0.0 **** 0.06
31019 H 100.78442556975493 75.97889939579474 76.41778772950224 H 0.0 **** 0.06
31020 H 102.28981752215756 75.83301708225196 75.47925676106487 H 0.0 **** 0.06
31021 C 126.6021982320299 96.83267287527417 81.7903729856791 C 0.0 **** -0.24
31022 H 126.46768125873444 97.87206753533664 81.48957165913392 H 0.0 **** 0.06
31023 H 126.63584654729428 96.77097113189276 82.87869518813496 H 0.0 **** 0.06
31024 H 127.53663151728617 96.45357321032137 81.37564127510905 H 0.0 **** 0.06
31025 H 125.770213179915 96.23655211947182 81.41820994793919 H 0.0 **** 0.06
31026 C 43.44519669572438 99.90920266250072 131.4752493876495 C 0.0 **** -0.24
31027 H 43.92237780956091 98.94780082055118 131.66782197745948 H 0.0 **** 0.06
31028 H 42.62414710328966 99.77193285565659 130.77182345797132 H 0.0 **** 0.06
31029 H 44.17606323872492 100.5986797999563 131.05247064684477 H 0.0 **** 0.06
31030 H 43.060591625198 100.31575677702119 132.41002269457718 H 0.0 **** 0.06
31031 C 23.05878881536458 33.98509665569736 71.01151475903572 C 0.0 **** -0.24
31032 H 22.46838819013442 33.27809250251681 71.59449307743483 H 0.0 **** 0.06
31033 H 23.99432795449301 33.51326375173828 70.70910318868852 H 0.0 **** 0.06
31034 H 23.27429626308681 34.86487338503335 71.61797822498517 H 0.0 **** 0.06
31035 H 22.49867385633715 34.282553711668 70.12486881769462 H 0.0 **** 0.06
31036 C 131.04704012918694 120.65501768319814 114.90561780779382 C 0.0 **** -0.24
31037 H 130.99206228067803 120.86294304369358 113.83715257394306 H 0.0 **** 0.06
31038 H 130.207262028218 120.02272241440699 115.19659542907317 H 0.0 **** 0.06
31039 H 131.00522718527344 121.59210659456869 115.46049484058818 H 0.0 **** 0.06
31040 H 131.98290467495843 120.14170277342936 115.12784260752625 H 0.0 **** 0.06
31041 C 53.98603470714559 97.33616416425566 65.359183472158 C 0.0 **** -0.24
31042 H 53.16692491865712 96.86471054920906 65.90365310752071 H 0.0 **** 0.06
31043 H 54.6380335556814 97.85350461331511 66.06215416953918 H 0.0 **** 0.06
31044 H 53.58188566832621 98.05076285260778 64.64339740906395 H 0.0 **** 0.06
31045 H 54.55565667801943 96.57183235627305 64.82876359000134 H 0.0 **** 0.06
31046 C 8.370718059294347 93.26339916422478 101.13864594460145 C 0.0 **** -0.24
31047 H 7.362254938633697 93.36180940148661 101.54086486053995 H 0.0 **** 0.06
31048 H 8.807243027578238 94.25366205452528 101.0080823654258 H 0.0 **** 0.06
31049 H 8.32996651509643 92.75346962998682 100.17616598960674 H 0.0 **** 0.06
31050 H 8.98207583596124 92.68520302396418 101.83145210367482 H 0.0 **** 0.06
31051 C 78.13000890474626 123.09030891505282 66.33896446447005 C 0.0 **** -0.24
31052 H 77.38289599977001 122.9368813345765 67.1168196694588 H 0.0 **** 0.06
31053 H 78.58993228419632 122.13514352546795 66.08361552124325 H 0.0 **** 0.06
31054 H 78.8956807665848 123.77716910982505 66.70054734714262 H 0.0 **** 0.06
31055 H 77.65198455613842 123.51257313223587 65.45416268171485 H 0.0 **** 0.06
31056 C 34.00134222729251 59.05315124314153 137.81751375667952 C 0.0 **** -0.24
31057 H 33.165769185819386 58.535587336143735 138.28773896226863 H 0.0 **** 0.06
31058 H 34.75359105470304 58.325689953687984 137.51203173020946 H 0.0 **** 0.06
31059 H 34.43969176820886 59.75510830984946 138.52662547331144 H 0.0 **** 0.06
31060 H 33.64490662997568 59.597016001091646 136.94182127002622 H 0.0 **** 0.06
31061 C 125.5906194952095 38.73945875735282 141.72352161688448 C 0.0 **** -0.24
31062 H 126.48996365912707 39.237214792370935 142.08891258683647 H 0.0 **** 0.06
31063 H 125.41289620168253 39.02606558299712 140.6873264530793 H 0.0 **** 0.06
31064 H 124.73804357746978 39.03466600586168 142.33429606881631 H 0.0 **** 0.06
31065 H 125.72518577138597 37.65906182760003 141.78407662682352 H 0.0 **** 0.06
31066 C 129.07905339371214 26.52230561919106 111.56105763136453 C 0.0 **** -0.24
31067 H 130.07775123398415 26.95703452380748 111.54496932216158 H 0.0 **** 0.06
31068 H 129.0781665809947 25.634636720114315 112.19453270173095 H 0.0 **** 0.06
31069 H 128.786149950078 26.2462477651367 110.54803239873989 H 0.0 **** 0.06
31070 H 128.37159518705204 27.251848230831484 111.95779056597236 H 0.0 **** 0.06
31071 C 115.49913260850654 25.21500011390814 142.7191242579289 C 0.0 **** -0.24
31072 H 114.50220271597264 24.839101934129502 142.94895425467746 H 0.0 **** 0.06
31073 H 116.24654154554018 24.519396750677807 143.10230224499946 H 0.0 **** 0.06
31074 H 115.63544746093577 26.189542780937813 143.18657723756792 H 0.0 **** 0.06
31075 H 115.61088240914644 25.31048386608976 141.63950196962475 H 0.0 **** 0.06
31076 C 123.93322732114065 93.99922467715884 0.036320807166077884 C 0.0 **** -0.24
31077 H 122.84552757428052 93.96283407304546 -0.003659085871447587 H 0.0 **** 0.06
31078 H 124.28854614205498 94.8731556634164 -0.5104430191333904 H 0.0 **** 0.06
31079 H 124.34361795659619 93.09565871825393 -0.4157816257802551 H 0.0 **** 0.06
31080 H 124.25684951810742 94.06474498822753 1.0754527874281905 H 0.0 **** 0.06
31081 C 100.52751086309075 12.406690036460063 41.92364524514508 C 0.0 **** -0.24
31082 H 101.14091124395742 12.085385241339381 41.08227275954134 H 0.0 **** 0.06
31083 H 100.08300873694282 11.534679135188284 42.403180776300445 H 0.0 **** 0.06
31084 H 99.73755167362035 13.067908936306793 41.56609305975849 H 0.0 **** 0.06
31085 H 101.14884367191326 12.940464464202918 42.64270009789125 H 0.0 **** 0.06
31086 C 22.586515629159166 44.30312163003306 147.40165542629288 C 0.0 **** -0.24
31087 H 23.291813938708678 45.056104161298194 147.75597329795895 H 0.0 **** 0.06
31088 H 23.13107057170729 43.40359268607678 147.11160346512625 H 0.0 **** 0.06
31089 H 22.042546538894477 44.691618868535954 146.5412369389077 H 0.0 **** 0.06
31090 H 21.882988711908048 44.06182346147196 148.19794087943012 H 0.0 **** 0.06
31091 C 82.19453681600648 148.5524816453227 1.190310917452166 C 0.0 **** -0.24
31092 H 81.50131134813715 149.32231205470626 0.8494632654953875 H 0.0 **** 0.06
31093 H 81.84944289106785 148.14804344778884 2.1418961283891633 H 0.0 **** 0.06
31094 H 83.18596549412248 148.98734413242266 1.3174182756544042 H 0.0 **** 0.06
31095 H 82.24131659593029 147.75363321876281 0.45046342416657126 H 0.0 **** 0.06
31096 C 145.25512123239554 148.3265462316929 44.11860818184499 C 0.0 **** -0.24
31097 H 146.04625700377287 148.06261710272622 43.41699997275478 H 0.0 **** 0.06
31098 H 144.98337300747895 149.37374590055387 43.982706488453644 H 0.0 **** 0.06
31099 H 145.60826789045456 148.1714041596294 45.13883703639466 H 0.0 **** 0.06
31100 H 144.38382094993523 147.69752363178952 43.93752573434209 H 0.0 **** 0.06
31101 C 50.71974859806794 77.35229145174077 146.0513016838829 C 0.0 **** -0.24
31102 H 50.88741024098742 78.39867549490484 146.30425316455964 H 0.0 **** 0.06
31103 H 51.05170232193639 77.16800473431138 145.02914237818163 H 0.0 **** 0.06
31104 H 49.65752478090623 77.12327422641616 146.1344229260331 H 0.0 **** 0.06
31105 H 51.28323053563513 76.7183318998218 146.7367073421153 H 0.0 **** 0.06
31106 C 28.216836644651607 9.822786786682371 133.77377086534602 C 0.0 **** -0.24
31107 H 28.525807274875433 8.801799985393643 133.54840759071487 H 0.0 **** 0.06
31108 H 28.673432958019703 10.505624600742152 133.0575357106988 H 0.0 **** 0.06
31109 H 28.539353954556873 10.085002893929612 134.78172860524973 H 0.0 **** 0.06
31110 H 27.13173428507605 9.896463720332434 133.70755129447042 H 0.0 **** 0.06
31111 C 44.64130494822584 81.45441864165659 63.37057434661256 C 0.0 **** -0.24
31112 H 44.998528792712506 81.2432306196529 62.36266253115974 H 0.0 **** 0.06
31113 H 43.56538277612732 81.62968353744552 63.344589495485906 H 0.0 **** 0.06
31114 H 45.145114727815454 82.34132924643725 63.75490203267573 H 0.0 **** 0.06
31115 H 44.85664421597146 80.6050476620753 64.01765653960906 H 0.0 **** 0.06
31116 C 103.67078178011204 30.60377803057039 48.83220416278445 C 0.0 **** -0.24
31117 H 104.40570487169472 30.053596536578127 48.24383872435473 H 0.0 **** 0.06
31118 H 102.66993067338245 30.385379544312656 48.45835434544895 H 0.0 **** 0.06
31119 H 103.86570303777924 31.67284061101256 48.74719600684162 H 0.0 **** 0.06
31120 H 103.74261450266559 30.302876198009926 49.87675506280442 H 0.0 **** 0.06
31121 C 68.35856749799191 88.10041074875642 38.51619530068413 C 0.0 **** -0.24
31122 H 68.42940055178559 88.47118757591795 37.49362075160872 H 0.0 **** 0.06
31123 H 68.82186264456058 88.81713897812563 39.1950419514973 H 0.0 **** 0.06
31124 H 68.87362677804842 87.14200940556714 38.59152350260811 H 0.0 **** 0.06
31125 H 67.30991692471635 87.97108108516795 38.783306295968686 H 0.0 **** 0.06
31126 C 40.96348556807368 30.153157893786357 47.20814660307582 C 0.0 **** -0.24
31127 H 40.581604725878876 30.938247846011848 46.55589952143097 H 0.0 **** 0.06
31128 H 40.70611561193215 29.17838075137516 46.79225267501286 H 0.0 **** 0.06
31129 H 40.51837270965514 30.254557924121315 48.19809310251685 H 0.0 **** 0.06
31130 H 42.04680220227405 30.240203611364024 47.285738888587844 H 0.0 **** 0.06
31131 C 106.02400186034045 147.624143402259 126.28933069332072 C 0.0 **** -0.24
31132 H 105.63264539245502 148.63957516355973 126.35779212657758 H 0.0 **** 0.06
31133 H 106.33916579970692 147.2893247227272 127.27771909656815 H 0.0 **** 0.06
31134 H 106.87685102614985 147.60891852786767 125.61048682421858 H 0.0 **** 0.06
31135 H 105.24584273609149 146.961093213237 125.9107988971316 H 0.0 **** 0.06
31136 C 57.39216111804984 51.17005264813558 28.366612702685458 C 0.0 **** -0.24
31137 H 56.42167142985679 50.98745853107452 27.904852322616243 H 0.0 **** 0.06
31138 H 57.4328659288862 50.66980749828102 29.33511435875674 H 0.0 **** 0.06
31139 H 57.532113765583574 52.24249467527912 28.505518684920467 H 0.0 **** 0.06
31140 H 58.18089675344504 50.78120019235044 27.72302329369132 H 0.0 **** 0.06
31141 C 8.818581608412416 44.91148251083422 147.8732575469269 C 0.0 **** -0.24
31142 H 9.288678624141795 43.95760985403638 147.63134789223938 H 0.0 **** 0.06
31143 H 9.575151156342514 45.606929906918 148.23691113061108 H 0.0 **** 0.06
31144 H 8.065007879662858 44.75811755004304 148.64655590768777 H 0.0 **** 0.06
31145 H 8.346399321674369 45.32124683754512 146.98122643048168 H 0.0 **** 0.06
31146 C 149.27689283295098 36.54797020590499 143.74703658224985 C 0.0 **** -0.24
31147 H 150.18562105312995 35.95472179898033 143.6410042046264 H 0.0 **** 0.06
31148 H 148.5303865703577 36.19881217042237 143.0335433759331 H 0.0 **** 0.06
31149 H 149.50332415796225 37.59621099388019 143.55333947146747 H 0.0 **** 0.06
31150 H 148.88986569673727 36.44097895917017 144.7603910875712 H 0.0 **** 0.06
31151 C 115.3709995826823 121.4654058957313 10.678391429714395 C 0.0 **** -0.24
31152 H 114.45496135781356 121.1116496161801 10.205154751779332 H 0.0 **** 0.06
31153 H 115.35494811332056 122.55448068562072 10.730496813017282 H 0.0 **** 0.06
31154 H 116.23059870948158 121.14212576139596 10.09099650933257 H 0.0 **** 0.06
31155 H 115.44176606036022 121.05354029680069 11.684272266000676 H 0.0 **** 0.06
31156 C 54.97860426880827 124.95248030392239 129.14080088275503 C 0.0 **** -0.24
31157 H 55.277553282186744 125.76109118982211 128.47447410574605 H 0.0 **** 0.06
31158 H 55.862020781837586 124.53916498470605 129.62921695271513 H 0.0 **** 0.06
31159 H 54.4819134771966 124.17113316007126 128.5652251741895 H 0.0 **** 0.06
31160 H 54.294201102834194 125.33861002519117 129.8958291001187 H 0.0 **** 0.06
31161 C 26.569509831784977 66.54998905990655 95.94535907623873 C 0.0 **** -0.24
31162 H 27.06890288212241 66.0300614832946 96.7622870675387 H 0.0 **** 0.06
31163 H 26.525079010599313 65.89779768900218 95.07283869225792 H 0.0 **** 0.06
31164 H 27.125087447368898 67.4540018400761 95.69657226189489 H 0.0 **** 0.06
31165 H 25.55771955385631 66.81775782953467 96.25030630862456 H 0.0 **** 0.06
31166 C 71.9009388763568 137.7356781034913 44.71078119566579 C 0.0 **** -0.24
31167 H 72.89925289614031 137.4428723652233 45.03471849193966 H 0.0 **** 0.06
31168 H 71.88263249970625 138.80873662608428 44.5172151613736 H 0.0 **** 0.06
31169 H 71.18080046839003 137.49437642236393 45.49328850799631 H 0.0 **** 0.06
31170 H 71.64172908556571 137.1968911504529 43.79914288787421 H 0.0 **** 0.06
31171 C 106.35746202136255 148.78095657811505 146.32170396629908 C 0.0 **** -0.24
31172 H 105.53233376968853 149.49221932031338 146.28762822923784 H 0.0 **** 0.06
31173 H 106.94389456851923 148.94832117880804 147.22512161105024 H 0.0 **** 0.06
31174 H 106.99105359835676 148.91810496955193 145.44585210155833 H 0.0 **** 0.06
31175 H 105.96031857106658 147.765526009341 146.32730316855807 H 0.0 **** 0.06
31176 C 44.790107082885754 147.92544673879289 115.84756760125669 C 0.0 **** -0.24
31177 H 45.41191154326589 147.2283258522368 116.40950191836106 H 0.0 **** 0.06
31178 H 45.38407414372149 148.38648142742207 115.05854312562116 H 0.0 **** 0.06
31179 H 44.41120447295333 148.69664865312475 116.51749958852184 H 0.0 **** 0.06
31180 H 43.95229903900983 147.38665986118255 115.4031005871206 H 0.0 **** 0.06
31181 C 45.06440417675962 110.95676546101227 82.68694071961696 C 0.0 **** -0.24
31182 H 45.060440280569836 110.67445368242129 83.73960629831132 H 0.0 **** 0.06
31183 H 45.898418267021825 110.46792125849215 82.18335723285696 H 0.0 **** 0.06
31184 H 45.170363718769195 112.03806912134367 82.60104285530738 H 0.0 **** 0.06
31185 H 44.1269455417339 110.6453864388149 82.22493321172368 H 0.0 **** 0.06
31186 C 108.37855454497492 80.9857689465775 134.14441846249275 C 0.0 **** -0.24
31187 H 109.41546191461413 80.89812891503524 134.47114138847564 H 0.0 **** 0.06
31188 H 108.1821868482042 80.25476121983111 133.3597752742141 H 0.0 **** 0.06
31189 H 108.20260079521194 81.98983279553269 133.7597452097932 H 0.0 **** 0.06
31190 H 107.71521126457634 80.79883662329986 134.99003808944622 H 0.0 **** 0.06
31191 C 132.9075349374608 15.12357286720217 0.9067237867746485 C 0.0 **** -0.24
31192 H 133.0487334304159 14.676864987055751 -0.07789774998201437 H 0.0 **** 0.06
31193 H 133.16468839011347 16.181856988784546 0.8655377207772403 H 0.0 **** 0.06
31194 H 133.5513355752372 14.620120839417751 1.628370723108958 H 0.0 **** 0.06
31195 H 131.86613017220094 15.013020030940652 1.2087530304585243 H 0.0 **** 0.06
31196 C 52.37871731032642 98.36615683790755 109.96367476913024 C 0.0 **** -0.24
31197 H 53.30573262296676 98.88816169835395 109.72749051440154 H 0.0 **** 0.06
31198 H 52.49449337473824 97.82772350518528 110.90507903193834 H 0.0 **** 0.06
31199 H 52.146162380406054 97.66063680057545 109.16649465325308 H 0.0 **** 0.06
31200 H 51.567528150867446 99.08943464448647 110.05620533164695 H 0.0 **** 0.06
31201 C 60.55249391294511 53.757822240193136 109.34500559356756 C 0.0 **** -0.24
31202 H 59.46373563683615 53.81627891865935 109.34143585050198 H 0.0 **** 0.06
31203 H 60.86271479547891 52.75201066054433 109.06053664955054 H 0.0 **** 0.06
31204 H 60.924629027873834 53.985749212262476 110.34371587506375 H 0.0 **** 0.06
31205 H 60.955998416142975 54.477798711542675 108.63319278713517 H 0.0 **** 0.06
31206 C 33.01761731208177 73.14509153424906 110.04601336958068 C 0.0 **** -0.24
31207 H 32.98176355416081 73.23224233977331 111.13205376405135 H 0.0 **** 0.06
31208 H 32.35156795803363 73.88387585270364 109.59996686675545 H 0.0 **** 0.06
31209 H 32.70158651772249 72.14495469174612 109.74998413915573 H 0.0 **** 0.06
31210 H 34.03776762223052 73.3201617050232 109.70147115801733 H 0.0 **** 0.06
31211 C 1.0643544739372715 135.14698597197358 35.59696968992506 C 0.0 **** -0.24
31212 H 1.2318238559046506 136.15238501820568 35.20909820076676 H 0.0 **** 0.06
31213 H 0.09926181364596687 134.7790008895869 35.247689507394206 H 0.0 **** 0.06
31214 H 1.0714683343454396 135.17190866185842 36.686134826220474 H 0.0 **** 0.06
31215 H 1.8553237755467364 134.4853322867875 35.24287722460729 H 0.0 **** 0.06
31216 C 84.73625965754457 95.92823916591954 96.90760744924418 C 0.0 **** -0.24
31217 H 85.10828627946933 95.92610019079733 95.88314217651997 H 0.0 **** 0.06
31218 H 84.25123846890133 96.88305516838196 97.11593990691262 H 0.0 **** 0.06
31219 H 85.56863570678695 95.78526546606408 97.59685713316597 H 0.0 **** 0.06
31220 H 84.01625474367961 95.12068104111476 97.03458867130064 H 0.0 **** 0.06
31221 C 101.5924212901449 130.24453369714107 127.56545396121075 C 0.0 **** -0.24
31222 H 101.06279401061647 130.1164231878978 128.50917855295765 H 0.0 **** 0.06
31223 H 101.16366667204558 131.08430934162718 127.01925271443153 H 0.0 **** 0.06
31224 H 101.4978419919345 129.3368173707501 126.96890778951405 H 0.0 **** 0.06
31225 H 102.64630094812577 130.43991452176533 127.76531768580358 H 0.0 **** 0.06
31226 C 43.97710196049712 142.01982644703867 81.96495564260337 C 0.0 **** -0.24
31227 H 44.83733585302156 142.1465837282421 82.62204902710381 H 0.0 **** 0.06
31228 H 43.10564616553074 141.74032778145008 82.55646029391573 H 0.0 **** 0.06
31229 H 44.18915410979264 141.23624788867318 81.23668985488531 H 0.0 **** 0.06
31230 H 43.7781661022247 142.95565816657248 81.44354029109856 H 0.0 **** 0.06
31231 C 24.540154317600724 107.0249174082973 125.09408478882564 C 0.0 **** -0.24
31232 H 23.895962083835023 106.34927986059246 125.65648210502039 H 0.0 **** 0.06
31233 H 23.942749522110176 107.57444944781473 124.36677775431546 H 0.0 **** 0.06
31234 H 25.30628588256223 106.44817094651272 124.57486280612473 H 0.0 **** 0.06
31235 H 25.01622409905113 107.72693640675756 125.77960971237945 H 0.0 **** 0.06
31236 C 134.79577285518425 77.3242626745124 1.3671425775267494 C 0.0 **** -0.24
31237 H 135.13387474983665 78.07223017468803 2.0843658439868307 H 0.0 **** 0.06
31238 H 134.65591311224847 76.36963258756455 1.8754635153268566 H 0.0 **** 0.06
31239 H 135.54297277136547 77.21183381837321 0.581197578450741 H 0.0 **** 0.06
31240 H 133.85111242065702 77.64442362702187 0.9270481232188104 H 0.0 **** 0.06
31241 C 12.043652153107587 49.48416292055097 15.404110479312095 C 0.0 **** -0.24
31242 H 11.431265805977603 49.70318929433418 14.52921625422124 H 0.0 **** 0.06
31243 H 13.06390524015734 49.266523428192585 15.087020271275492 H 0.0 **** 0.06
31244 H 11.633076040336931 48.620717861936555 15.927632563953438 H 0.0 **** 0.06
31245 H 12.046933002964437 50.34689091774959 16.070517362354707 H 0.0 **** 0.06
31246 C 103.00226802683453 91.37459160886574 97.86404516719631 C 0.0 **** -0.24
31247 H 102.19137280718873 91.54339992783717 97.15643360086028 H 0.0 **** 0.06
31248 H 103.54675720018646 90.47281487337371 97.58445308296035 H 0.0 **** 0.06
31249 H 102.59002037125201 91.25460860840798 98.86701351854435 H 0.0 **** 0.06
31250 H 103.68047469022638 92.2282787623698 97.85057373220548 H 0.0 **** 0.06
31251 C 53.13252357313786 109.47408446100054 34.62183065805541 C 0.0 **** -0.24
31252 H 53.31294185460777 108.40134894531518 34.6865780047496 H 0.0 **** 0.06
31253 H 53.552556449236775 109.96708795060086 35.49936839456666 H 0.0 **** 0.06
31254 H 52.05919586369467 109.6591699253742 34.58019557929251 H 0.0 **** 0.06
31255 H 53.60413431203362 109.86868568086912 33.72180972818873 H 0.0 **** 0.06
31256 C 16.429101444781942 41.69997472994156 101.59597782326342 C 0.0 **** -0.24
31257 H 16.5650134396453 41.00437401470208 102.42478184126061 H 0.0 **** 0.06
31258 H 16.928064628524254 42.640889755501334 101.82702354107224 H 0.0 **** 0.06
31259 H 15.365277087592155 41.87869794840219 101.44375369380336 H 0.0 **** 0.06
31260 H 16.85929824998714 41.272484821714954 100.69022974885782 H 0.0 **** 0.06
31261 C 54.91921273804138 8.35886811660123 8.582017971266339 C 0.0 **** -0.24
31262 H 53.88384387309226 8.42994917129397 8.915753334227304 H 0.0 **** 0.06
31263 H 55.55791647900459 8.112656755473779 9.430260259595514 H 0.0 **** 0.06
31264 H 55.23028338529241 9.313073219595765 8.156307773907542 H 0.0 **** 0.06
31265 H 55.00389050808218 7.578369029086332 7.825388365551532 H 0.0 **** 0.06
31266 C 124.84486875870736 117.95848150803864 76.2971657958279 C 0.0 **** -0.24
31267 H 125.43631326409488 117.31474272473933 76.9483180540484 H 0.0 **** 0.06
31268 H 125.50943244239826 118.6019982545515 75.72169924796664 H 0.0 **** 0.06
31269 H 124.17733004269074 118.57230231775763 76.90189512296436 H 0.0 **** 0.06
31270 H 124.25522668767796 117.34327368205744 75.61694078121424 H 0.0 **** 0.06
31271 C 129.4899250200114 136.60336236812705 125.36701468338333 C 0.0 **** -0.24
31272 H 129.57224990813188 135.55163703868297 125.64091415651134 H 0.0 **** 0.06
31273 H 128.82951769759956 136.70463534220963 124.50537295783981 H 0.0 **** 0.06
31274 H 130.47721290263377 136.99167615296827 125.11549023095958 H 0.0 **** 0.06
31275 H 129.08148913520216 137.166064450951 126.20658182535425 H 0.0 **** 0.06
31276 C 144.86203269643525 64.61643670975576 97.80610467202257 C 0.0 **** -0.24
31277 H 145.8078175546952 64.30848997523718 97.36017497172253 H 0.0 **** 0.06
31278 H 144.2984187071004 63.73235026974038 98.10547559615321 H 0.0 **** 0.06
31279 H 144.2855018062908 65.18627079560835 97.07770456561894 H 0.0 **** 0.06
31280 H 145.0573217909026 65.23646924957785 98.6817292185826 H 0.0 **** 0.06
31281 C 127.97803757067757 7.704740322284607 28.333264960055885 C 0.0 **** -0.24
31282 H 127.94611997202671 6.626296317004375 28.490625388425556 H 0.0 **** 0.06
31283 H 126.96361167200538 8.082578196808782 28.205237133404438 H 0.0 **** 0.06
31284 H 128.56395310993182 7.924063761806991 27.440000868082507 H 0.0 **** 0.06
31285 H 128.43879046916757 8.183917715770491 29.19651651052103 H 0.0 **** 0.06
31286 C 120.09924980470147 6.60000334175183 57.54700652201841 C 0.0 **** -0.24
31287 H 119.94637969723688 5.739900295088802 58.19996748131979 H 0.0 **** 0.06
31288 H 120.86614994488725 6.36404373010015 56.80863009115703 H 0.0 **** 0.06
31289 H 120.41836410855599 7.455787958149756 58.14258041721661 H 0.0 **** 0.06
31290 H 119.16608653065599 6.83883521626268 57.03780117288325 H 0.0 **** 0.06
31291 C 140.71517231412665 43.264201922164446 14.252088312334365 C 0.0 **** -0.24
31292 H 141.2435408210457 43.645781514426446 13.377811893135629 H 0.0 **** 0.06
31293 H 140.010657345482 42.49219718523268 13.941986968919224 H 0.0 **** 0.06
31294 H 140.17452380020075 44.07885527969515 14.733277000089089 H 0.0 **** 0.06
31295 H 141.43392561519906 42.83989095111255 14.954201145756628 H 0.0 **** 0.06
31296 C 5.64350872311827 50.20431749514162 52.31116078155509 C 0.0 **** -0.24
31297 H 6.134891905185992 49.84058590585201 51.40887292563667 H 0.0 **** 0.06
31298 H 4.780903301186154 50.811606737410216 52.03572808610164 H 0.0 **** 0.06
31299 H 6.343846534550224 50.807098793200836 52.887795046269105 H 0.0 **** 0.06
31300 H 5.313430705872687 49.35655515435646 52.91202850529976 H 0.0 **** 0.06
31301 C 42.279052382672745 95.25611779736323 150.26085695503554 C 0.0 **** -0.24
31302 H 42.184291479450195 94.24720702387468 150.6631751492592 H 0.0 **** 0.06
31303 H 42.803879532038906 95.88561594728502 150.97941525040693 H 0.0 **** 0.06
31304 H 41.28726637127639 95.66604932807637 150.07342407564346 H 0.0 **** 0.06
31305 H 42.84070492404189 95.22245039949468 149.32712550263875 H 0.0 **** 0.06
31306 C 16.909905274878 93.12106119100017 122.13976488637547 C 0.0 **** -0.24
31307 H 17.65027113850816 93.74943820500155 122.6349711106393 H 0.0 **** 0.06
31308 H 16.07263102740948 93.73623126553872 121.8105687628742 H 0.0 **** 0.06
31309 H 16.552978286174685 92.36270156554355 122.83598558051801 H 0.0 **** 0.06
31310 H 17.365322592038524 92.6346919776197 121.27648475812936 H 0.0 **** 0.06
31311 C 30.473077367118435 11.386298882432527 85.26155750041059 C 0.0 **** -0.24
31312 H 30.66447134040243 10.489623031585324 84.67188533804145 H 0.0 **** 0.06
31313 H 30.587310652176683 11.15587691862548 86.32010646310627 H 0.0 **** 0.06
31314 H 29.45768552645552 11.735568951585428 85.07187000757088 H 0.0 **** 0.06
31315 H 31.18297206927022 12.16388757766697 84.97921759142446 H 0.0 **** 0.06
31316 C 73.82635483945914 107.37382256810513 89.30426205263373 C 0.0 **** -0.24
31317 H 73.40038413748512 106.4164605064987 89.00207109969853 H 0.0 **** 0.06
31318 H 74.73193723144198 107.56562237462394 88.72655456513651 H 0.0 **** 0.06
31319 H 74.07258273054985 107.34272214325621 90.36546187343409 H 0.0 **** 0.06
31320 H 73.1036296656696 108.16795732419816 89.12125457626614 H 0.0 **** 0.06
31321 C 21.473666103595434 108.78702879808218 147.83772237433976 C 0.0 **** -0.24
31322 H 20.979161954135698 108.3652839683402 148.71216298976543 H 0.0 **** 0.06
31323 H 20.722797020077856 109.16153767805942 147.14152396457698 H 0.0 **** 0.06
31324 H 22.070401113662662 108.0159226080281 147.35018256496193 H 0.0 **** 0.06
31325 H 22.122523147865948 109.606763045449 148.14713925499427 H 0.0 **** 0.06
31326 C 18.818857767892467 67.39747623775136 77.39760023974952 C 0.0 **** -0.24
31327 H 19.669225139037025 67.9837798365923 77.05112965739573 H 0.0 **** 0.06
31328 H 17.90328913764978 67.78687324904482 76.95131605915293 H 0.0 **** 0.06
31329 H 18.750500158431777 67.46214168808396 78.4830748198807 H 0.0 **** 0.06
31330 H 18.952400000532805 66.35568471408791 77.1031576454721 H 0.0 **** 0.06
31331 C 149.64106601157818 52.46092114122351 26.186215184673614 C 0.0 **** -0.24
31332 H 150.46907443063697 52.995135956193025 25.719415332717944 H 0.0 **** 0.06
31333 H 148.99165065859842 52.05110520767411 25.412158267449016 H 0.0 **** 0.06
31334 H 149.07217939399408 53.147875366920886 26.81269294846831 H 0.0 **** 0.06
31335 H 150.0330010272642 51.64878663327269 26.798952475198604 H 0.0 **** 0.06
31336 C 29.86991145764585 65.44926628794025 35.94346273621299 C 0.0 **** -0.24
31337 H 29.33342578472432 64.98746587848137 36.77262617369337 H 0.0 **** 0.06
31338 H 29.73032271845947 64.85119150256446 35.04303227624987 H 0.0 **** 0.06
31339 H 30.932497785535205 65.50235326328408 36.18371387227045 H 0.0 **** 0.06
31340 H 29.484333135410147 66.45466325088148 35.77696722419534 H 0.0 **** 0.06
31341 C 59.80924598858155 40.02358734635034 43.75211169697087 C 0.0 **** -0.24
31342 H 60.61455361239024 39.336929233287265 44.01206887038697 H 0.0 **** 0.06
31343 H 58.922324101723746 39.45420540976576 43.47288009775991 H 0.0 **** 0.06
31344 H 60.12036765973312 40.64769273995857 42.91383472579197 H 0.0 **** 0.06
31345 H 59.580498823413734 40.65638352189313 44.610487647173386 H 0.0 **** 0.06
31346 C 51.087155449319 71.86329794996135 132.9816478733161 C 0.0 **** -0.24
31347 H 50.72585437257497 71.16941230911036 132.22180132307943 H 0.0 **** 0.06
31348 H 51.97685469995959 72.37356110268644 132.61375901536388 H 0.0 **** 0.06
31349 H 51.33288982560448 71.31168725733329 133.88850216429108 H 0.0 **** 0.06
31350 H 50.31134029348934 72.59660079608844 133.20132776645985 H 0.0 **** 0.06
31351 C 140.24478344217528 73.87165943208034 55.863365032358985 C 0.0 **** -0.24
31352 H 139.41997642599506 74.37067878861616 56.37212190324975 H 0.0 **** 0.06
31353 H 141.10803363647597 74.53815101581746 55.83241931352369 H 0.0 **** 0.06
31354 H 139.9445474469644 73.6180497318512 54.8467141835027 H 0.0 **** 0.06
31355 H 140.50643213257428 72.96213390524649 56.402783895669 H 0.0 **** 0.06
31356 C 12.701331244765527 19.015121047691252 82.88364652296923 C 0.0 **** -0.24
31357 H 11.828261684373302 19.63558831353646 82.68282974459373 H 0.0 **** 0.06
31358 H 13.58363930579688 19.47469322903987 82.43735244199434 H 0.0 **** 0.06
31359 H 12.549436687274635 18.025846667934672 82.45227114312723 H 0.0 **** 0.06
31360 H 12.84280294240665 18.925571802114064 83.96036661095968 H 0.0 **** 0.06
31361 C 82.60716083844677 3.1986797129050615 16.143177172440403 C 0.0 **** -0.24
31362 H 81.93441002339513 2.4150368969725484 15.7941158922143 H 0.0 **** 0.06
31363 H 82.76138148297457 3.9260405853210223 15.34500005897511 H 0.0 **** 0.06
31364 H 83.56405621577535 2.758224733342054 16.42414718772634 H 0.0 **** 0.06
31365 H 82.1679404251121 3.6959226605718136 17.00744236740133 H 0.0 **** 0.06
31366 C 135.64100043980187 94.12188193955207 63.8776667539376 C 0.0 **** -0.24
31367 H 134.76036779381758 94.61400291997228 64.29141377294134 H 0.0 **** 0.06
31368 H 135.41092032191793 93.07481944230086 63.678624600400525 H 0.0 **** 0.06
31369 H 136.46153309965365 94.18447769278337 64.59283486690089 H 0.0 **** 0.06
31370 H 135.9294587180648 94.61394206302371 62.94919159838426 H 0.0 **** 0.06
31371 C 60.5053196881602 75.245314626052 4.400096293791233 C 0.0 **** -0.24
31372 H 60.82991683198709 75.09397025567415 5.430423971371887 H 0.0 **** 0.06
31373 H 59.82948263242233 76.09979624527074 4.354238328732723 H 0.0 **** 0.06
31374 H 59.9868930678697 74.3528460941505 4.048019194708722 H 0.0 **** 0.06
31375 H 61.374376758370275 75.43334831173894 3.770694533029964 H 0.0 **** 0.06
31376 C 38.83508047009002 30.84440938728983 74.13233508045903 C 0.0 **** -0.24
31377 H 38.91278210582317 31.51216681867271 73.27417719159865 H 0.0 **** 0.06
31378 H 38.289554414218685 31.343877150708238 74.93347850610922 H 0.0 **** 0.06
31379 H 39.83417881423594 30.58338082742887 74.48026905024747 H 0.0 **** 0.06
31380 H 38.30365697493801 29.938738184801878 73.84057796668685 H 0.0 **** 0.06
31381 C 39.38855623858714 82.04978512623116 75.23392211253112 C 0.0 **** -0.24
31382 H 39.76756142117509 82.60010784642958 74.37315476072457 H 0.0 **** 0.06
31383 H 40.22395897926444 81.71969916396374 75.85125346325405 H 0.0 **** 0.06
31384 H 38.8248959401231 81.18212516399741 74.89105516802061 H 0.0 **** 0.06
31385 H 38.73645798768575 82.69709102082406 75.82062770036222 H 0.0 **** 0.06
31386 C 15.069689311511297 109.88954975852545 66.63727416552283 C 0.0 **** -0.24
31387 H 15.570384988140404 110.44149967757227 67.43294220059764 H 0.0 **** 0.06
31388 H 14.427883059435146 110.56730035492058 66.07400126230826 H 0.0 **** 0.06
31389 H 14.46443572696117 109.09487501141047 67.07349386853292 H 0.0 **** 0.06
31390 H 15.81542285772258 109.45549477886976 65.9717674326802 H 0.0 **** 0.06
31391 C 106.82427754257218 93.48539217339919 53.47255261396896 C 0.0 **** -0.24
31392 H 107.15044007746631 93.0349971337946 54.410128637317996 H 0.0 **** 0.06
31393 H 106.19761979065261 94.35211048340108 53.68455719880262 H 0.0 **** 0.06
31394 H 106.25278255050544 92.7555248607498 52.898673982477646 H 0.0 **** 0.06
31395 H 107.69552449193601 93.79873111764823 52.89748745466596 H 0.0 **** 0.06
31396 C 36.593827209181 122.68512639843135 76.09434179227216 C 0.0 **** -0.24
31397 H 37.00179839008695 122.94073804770261 77.07296466878566 H 0.0 **** 0.06
31398 H 37.27964023520133 122.01157084524544 75.58055984471703 H 0.0 **** 0.06
31399 H 36.46719017231902 123.59373815005353 75.50547657903823 H 0.0 **** 0.06
31400 H 35.6285009053922 122.19653856651121 76.21953154200652 H 0.0 **** 0.06
31401 C 148.334562861108 123.20203619780658 133.87281326171987 C 0.0 **** -0.24
31402 H 148.07992315500474 124.1540606300235 133.4075632561846 H 0.0 **** 0.06
31403 H 147.42975716259886 122.60924222950446 134.0060440117534 H 0.0 **** 0.06
31404 H 148.79705364142796 123.38464757257658 134.84376532891562 H 0.0 **** 0.06
31405 H 149.03340262631895 122.66158079334032 133.2346045104368 H 0.0 **** 0.06
31406 C 140.43214087443684 129.49621453137252 133.82651481946087 C 0.0 **** -0.24
31407 H 141.09301578139116 129.5830856343211 132.96382874205347 H 0.0 **** 0.06
31408 H 141.02284474414176 129.53861402529085 134.74199979037644 H 0.0 **** 0.06
31409 H 139.89913390492083 128.54645992182517 133.78106991668758 H 0.0 **** 0.06
31410 H 139.71456982867136 130.3157833700782 133.81875957262056 H 0.0 **** 0.06
31411 C 89.97145874526916 65.12102446948444 108.47151808465574 C 0.0 **** -0.24
31412 H 89.17045384255695 64.38209021818068 108.51593493714958 H 0.0 **** 0.06
31413 H 90.39655353657204 65.13483855332242 107.46746773405997 H 0.0 **** 0.06
31414 H 90.74635880934699 64.86023105799563 109.19162927895135 H 0.0 **** 0.06
31415 H 89.56973149206199 66.10596555937434 108.70943980938361 H 0.0 **** 0.06
31416 C 90.38368506889363 108.45921916151529 65.85182651573652 C 0.0 **** -0.24
31417 H 89.70434939433704 108.19699104512195 65.04080682628174 H 0.0 **** 0.06
31418 H 91.00890321938518 107.59964272329167 66.09320607641794 H 0.0 **** 0.06
31419 H 89.80603784584665 108.74648952756134 66.73062451314308 H 0.0 **** 0.06
31420 H 91.01441329925296 109.29241260549615 65.54231067117226 H 0.0 **** 0.06
31421 C 26.336624687300628 13.862756328364924 16.231246419644975 C 0.0 **** -0.24
31422 H 25.49341032359149 13.855090822939331 15.539831712017417 H 0.0 **** 0.06
31423 H 25.97282324031204 13.732702156772035 17.250455378339694 H 0.0 **** 0.06
31424 H 26.86254386019931 14.814618998777064 16.150897181493548 H 0.0 **** 0.06
31425 H 27.017599515037148 13.049144753359741 15.981632780480112 H 0.0 **** 0.06
31426 C 69.13672271892881 9.975444942035551 88.55794792255881 C 0.0 **** -0.24
31427 H 70.16415968435058 9.677177331250789 88.34678628410757 H 0.0 **** 0.06
31428 H 68.98639739321032 11.007777318028957 88.23996098262927 H 0.0 **** 0.06
31429 H 68.94758303466 9.89301569321151 89.62794981947638 H 0.0 **** 0.06
31430 H 68.45081526826328 9.324023203973354 88.01579370491265 H 0.0 **** 0.06
31431 C 30.499425108053856 148.27033825122786 104.46823888516936 C 0.0 **** -0.24
31432 H 30.304314697129314 147.7754358222313 105.4196105250076 H 0.0 **** 0.06
31433 H 29.767307584358946 149.06297381492416 104.31466066652361 H 0.0 **** 0.06
31434 H 30.42331802886281 147.54279192684075 103.65878003881797 H 0.0 **** 0.06
31435 H 31.50210556140462 148.69701435998277 104.47904951419297 H 0.0 **** 0.06
31436 C 55.890949670508476 66.49418515132574 110.5746721593138 C 0.0 **** -0.24
31437 H 56.64203907122294 65.7755457236389 110.24325300854714 H 0.0 **** 0.06
31438 H 56.20181116105263 66.93226849218102 111.52305214605066 H 0.0 **** 0.06
31439 H 54.935090605748485 65.98607706232929 110.7032144148492 H 0.0 **** 0.06
31440 H 55.78664599593233 67.27998476526153 109.82641271273711 H 0.0 **** 0.06
31441 C 46.711990974977624 90.21892337952326 71.33000584110827 C 0.0 **** -0.24
31442 H 45.87845142127887 90.46890718384618 71.98693233654554 H 0.0 **** 0.06
31443 H 46.335692741616484 89.69310509563923 70.45116038161026 H 0.0 **** 0.06
31444 H 47.416071451152675 89.58025301321638 71.86304366094205 H 0.0 **** 0.06
31445 H 47.21480737428702 91.13456255732477 71.01785512644172 H 0.0 **** 0.06
31446 C 29.262249057615975 43.26318911520127 109.6163741614593 C 0.0 **** -0.24
31447 H 29.572652936390284 42.87582119909236 108.64634066385423 H 0.0 **** 0.06
31448 H 30.131283459725125 43.653011350182666 110.14725018279353 H 0.0 **** 0.06
31449 H 28.80877355338231 42.4626056611215 110.2000594816979 H 0.0 **** 0.06
31450 H 28.53540976311791 44.06337439989963 109.471910728166 H 0.0 **** 0.06
31451 C 33.70787079909027 121.37536135454032 43.92833715338121 C 0.0 **** -0.24
31452 H 33.283912906000936 122.13813167044925 43.27459816558584 H 0.0 **** 0.06
31453 H 34.625717406472546 121.75355759121614 44.37919602178471 H 0.0 **** 0.06
31454 H 33.92854458004207 120.48063329059242 43.346222682412005 H 0.0 **** 0.06
31455 H 32.99148373897927 121.13155121778787 44.712451723185524 H 0.0 **** 0.06
31456 C 77.31579848273306 80.46693814594681 59.004140617768485 C 0.0 **** -0.24
31457 H 77.61557536917105 80.62809481702197 60.04033311038674 H 0.0 **** 0.06
31458 H 78.07891933685072 79.88158590961763 58.49216135165388 H 0.0 **** 0.06
31459 H 77.20002651535424 81.4292403570987 58.50612780103708 H 0.0 **** 0.06
31460 H 76.36708837364372 79.92941042363233 58.9804211466505 H 0.0 **** 0.06
31461 C 3.794691070197274 28.945732494083785 33.163795463910915 C 0.0 **** -0.24
31462 H 4.095503528166148 29.569265839089198 32.321071567028596 H 0.0 **** 0.06
31463 H 2.9340337800765894 28.340858876740597 32.87839851588899 H 0.0 **** 0.06
31464 H 3.529068316947672 29.580688743397502 34.00867271985405 H 0.0 **** 0.06
31465 H 4.620736911677682 28.292964740359544 33.444815012219046 H 0.0 **** 0.06
31466 C 21.69050896132029 141.4850327809485 99.96504441995418 C 0.0 **** -0.24
31467 H 21.98894656641943 142.46150157023547 99.5825196343302 H 0.0 **** 0.06
31468 H 22.23150190100506 141.27590498454342 100.88800254111777 H 0.0 **** 0.06
31469 H 21.922401737563348 140.7190080828867 99.22551797503309 H 0.0 **** 0.06
31470 H 20.618529371071702 141.48584613738805 100.16432213492953 H 0.0 **** 0.06
31471 C 21.748964781638477 133.633038246835 132.7727129297604 C 0.0 **** -0.24
31472 H 20.825386556960297 133.06221650924653 132.87120306277566 H 0.0 **** 0.06
31473 H 22.524440686467244 133.17750256676476 133.3893383310428 H 0.0 **** 0.06
31474 H 21.579541365302674 134.65931557753046 133.0995080547061 H 0.0 **** 0.06
31475 H 22.065870675441147 133.631636605663 131.72924648770513 H 0.0 **** 0.06
31476 C 105.41642475927031 123.28725224942262 80.27529281463873 C 0.0 **** -0.24
31477 H 106.01770822416998 122.37902032760279 80.23235727146402 H 0.0 **** 0.06
31478 H 106.06193738537868 124.1405435376388 80.48204844361331 H 0.0 **** 0.06
31479 H 104.6721967403627 123.1927315959626 81.06587676068958 H 0.0 **** 0.06
31480 H 104.91439807311983 123.43372915274661 79.31869769462105 H 0.0 **** 0.06
31481 C 81.76522058641115 106.22215840026404 111.03616368738226 C 0.0 **** -0.24
31482 H 81.4055753494661 105.38614673590267 111.63682026056837 H 0.0 **** 0.06
31483 H 81.71060208537384 107.14003128391532 111.62293939740634 H 0.0 **** 0.06
31484 H 81.14568959691769 106.3223927167236 110.14558023909309 H 0.0 **** 0.06
31485 H 82.79893158830792 106.04050301573206 110.74150561487097 H 0.0 **** 0.06
31486 C 122.45852972932799 129.03709668595232 16.761586567406766 C 0.0 **** -0.24
31487 H 121.44172986606135 128.6890365822477 16.57740264564029 H 0.0 **** 0.06
31488 H 122.48743093091313 130.1252052565104 16.693483760081392 H 0.0 **** 0.06
31489 H 123.12872651383928 128.60840541711804 16.017085044546945 H 0.0 **** 0.06
31490 H 122.7740840228234 128.72587492335458 17.75720445137773 H 0.0 **** 0.06
31491 C 15.142289179417986 29.319981790860112 108.27386851595486 C 0.0 **** -0.24
31492 H 15.370228483163544 28.872323024648125 107.30703360205342 H 0.0 **** 0.06
31493 H 14.7454063615194 28.55635683974009 108.94332685864646 H 0.0 **** 0.06
31494 H 14.40168264756764 30.109356519414945 108.14281886294611 H 0.0 **** 0.06
31495 H 16.051839225421503 29.741890779637316 108.70229474017339 H 0.0 **** 0.06
31496 C 149.36401762552674 59.28222918973448 11.53394626426249 C 0.0 **** -0.24
31497 H 149.76272858083055 58.48958954250473 10.90068134839018 H 0.0 **** 0.06
31498 H 149.63122631088012 60.25157833255261 11.112531669434702 H 0.0 **** 0.06
31499 H 149.78440161630985 59.19243641712143 12.534927778802917 H 0.0 **** 0.06
31500 H 148.2789187831988 59.19437519157333 11.586010191444402 H 0.0 **** 0.06
31501 C 45.95024402730962 107.60092300274998 95.90947414242717 C 0.0 **** -0.24
31502 H 45.125385420137434 107.58277420055579 96.62216439971283 H 0.0 **** 0.06
31503 H 46.108700044584566 106.59803695041306 95.51216851238686 H 0.0 **** 0.06
31504 H 46.855757324152705 107.94047932500824 96.4116649756879 H 0.0 **** 0.06
31505 H 45.70922267929859 108.28160319092221 95.09320723723911 H 0.0 **** 0.06
31506 C 145.85404105829718 148.50294178861282 114.59920352847416 C 0.0 **** -0.24
31507 H 145.94127978189096 148.16309279116052 115.63075503709365 H 0.0 **** 0.06
31508 H 144.8250055535971 148.3768201135005 114.26137255318645 H 0.0 **** 0.06
31509 H 146.51921492380416 147.9158667040939 113.96604631752257 H 0.0 **** 0.06
31510 H 146.13020061873465 149.55590962862584 114.53997411168461 H 0.0 **** 0.06
31511 C 41.79221516317719 51.84521898327186 93.41029067932577 C 0.0 **** -0.24
31512 H 42.68301100953465 52.46624194449734 93.31665991524316 H 0.0 **** 0.06
31513 H 41.55120848405235 51.40775562978699 92.44090782542933 H 0.0 **** 0.06
31514 H 40.956655745987604 52.45807817103764 93.74966892026846 H 0.0 **** 0.06
31515 H 41.97754535438909 51.050371345433476 94.13276935489436 H 0.0 **** 0.06
31516 C 77.16684232865151 55.67368811729304 84.06831609279196 C 0.0 **** -0.24
31517 H 76.74157428546016 55.02090128900262 84.83059158756457 H 0.0 **** 0.06
31518 H 78.25198532458722 55.691644461476116 84.1702265286119 H 0.0 **** 0.06
31519 H 76.77319529071059 56.681942770637846 84.19181912566428 H 0.0 **** 0.06
31520 H 76.90088057540174 55.29784375933407 83.08035868159705 H 0.0 **** 0.06
31521 C 9.847011658786698 135.69989203062542 147.58702899958035 C 0.0 **** -0.24
31522 H 10.193698117439425 135.62136465212612 146.5565386114729 H 0.0 **** 0.06
31523 H 10.47190720619949 136.41187309238094 148.12683732844545 H 0.0 **** 0.06
31524 H 9.90950740937518 134.72366702620442 148.0671065763512 H 0.0 **** 0.06
31525 H 8.812622481821677 136.04485286584782 147.5956063227124 H 0.0 **** 0.06
31526 C 13.88947117356085 146.1635580926327 70.78856563979933 C 0.0 **** -0.24
31527 H 14.589722223465316 146.9644303649855 70.55153284047526 H 0.0 **** 0.06
31528 H 12.944159512227913 146.59431935136578 71.119012449748 H 0.0 **** 0.06
31529 H 14.30329498960657 145.5435608204632 71.58403954087419 H 0.0 **** 0.06
31530 H 13.721737766801454 145.5531224896171 69.90125827382289 H 0.0 **** 0.06
31531 C 78.53208750030677 71.49447060327836 54.31904496503631 C 0.0 **** -0.24
31532 H 78.04380662902955 70.52326660798099 54.40425120725217 H 0.0 **** 0.06
31533 H 78.05670965091385 72.07069258484634 53.525097472003495 H 0.0 **** 0.06
31534 H 79.58624289183574 71.3509946250878 54.08400347886112 H 0.0 **** 0.06
31535 H 78.43901657704825 72.03096121568208 55.26353695870267 H 0.0 **** 0.06
31536 C 61.99034514085304 71.98096705183319 24.275638889478813 C 0.0 **** -0.24
31537 H 62.92804478015876 71.69056596130766 24.748291020440256 H 0.0 **** 0.06
31538 H 62.12454679078019 72.93111512642704 23.756969341815875 H 0.0 **** 0.06
31539 H 61.2182180670419 72.08884941147853 25.037198900713612 H 0.0 **** 0.06
31540 H 61.69190333382778 71.21580204957506 23.56048616910487 H 0.0 **** 0.06
31541 C 27.561841870277 34.20604768019544 69.2695762513668 C 0.0 **** -0.24
31542 H 27.272729666113662 33.77046459432208 68.31335087148196 H 0.0 **** 0.06
31543 H 28.049941033332196 33.44624721339255 69.8814479765272 H 0.0 **** 0.06
31544 H 26.674425592801214 34.572855192394826 69.78533984244072 H 0.0 **** 0.06
31545 H 28.25141628437138 35.03274071444912 69.09778786179871 H 0.0 **** 0.06
31546 C 111.02249587811603 9.985764081912386 121.6939770517831 C 0.0 **** -0.24
31547 H 111.21968027946328 9.510847474944839 120.73323099350998 H 0.0 **** 0.06
31548 H 111.95464233883486 10.073663277838378 122.25357802755727 H 0.0 **** 0.06
31549 H 110.31391825990504 9.381011139988495 122.2597907282213 H 0.0 **** 0.06
31550 H 110.60244593812571 10.978588704452747 121.52868080145814 H 0.0 **** 0.06
31551 C 35.41489832274871 83.81870959081955 102.95761283588764 C 0.0 **** -0.24
31552 H 34.51225902264744 83.89464657072556 102.35010941455477 H 0.0 **** 0.06
31553 H 36.04755772397661 83.02068826371304 102.56937126527757 H 0.0 **** 0.06
31554 H 35.140040284517625 83.59592620818837 103.98848872509934 H 0.0 **** 0.06
31555 H 35.95730194123189 84.76350747113132 102.9222184362519 H 0.0 **** 0.06
31556 C 11.567978371523424 94.38545561292614 140.11616564138427 C 0.0 **** -0.24
31557 H 10.638967883808903 93.86165114852312 139.88949207330114 H 0.0 **** 0.06
31558 H 12.409165738456096 93.7033332545351 139.9956900839789 H 0.0 **** 0.06
31559 H 11.537488901100204 94.74869632471496 141.14419634151224 H 0.0 **** 0.06
31560 H 11.682987063759896 95.22955839178275 139.43556295670936 H 0.0 **** 0.06
31561 C 135.5826069787925 56.6246390887063 103.86844180752625 C 0.0 **** -0.24
31562 H 135.68231316948965 55.55126906298902 103.70502524920256 H 0.0 **** 0.06
31563 H 135.8398486040439 57.157043069609884 102.95214912943011 H 0.0 **** 0.06
31564 H 136.2542895768228 56.93309331557515 104.66981623671877 H 0.0 **** 0.06
31565 H 134.5542935600756 56.8551886359288 104.14655490769807 H 0.0 **** 0.06
31566 C 114.4715629237582 111.65120180145146 133.15218076788454 C 0.0 **** -0.24
31567 H 114.925297265484 111.40812714464948 132.19151832343778 H 0.0 **** 0.06
31568 H 115.1885375793853 112.20067564381668 133.76335208163565 H 0.0 **** 0.06
31569 H 114.18853702810662 110.73078160486062 133.66359010874996 H 0.0 **** 0.06
31570 H 113.58534276122111 112.26448682858694 132.99178516065552 H 0.0 **** 0.06
31571 C 114.04209428378839 128.89841429854056 100.17282052204295 C 0.0 **** -0.24
31572 H 113.52708470829596 128.42299433105163 101.00767468919297 H 0.0 **** 0.06
31573 H 113.30876940512677 129.2578059751002 99.45059635691393 H 0.0 **** 0.06
31574 H 114.70172949161783 128.17557309146048 99.69406962782986 H 0.0 **** 0.06
31575 H 114.63078929832331 129.73893867796355 100.54181574062665 H 0.0 **** 0.06
31576 C 24.312993544403263 146.8682924764824 103.01478488166039 C 0.0 **** -0.24
31577 H 23.639496318974302 147.0252385749723 103.8577860214658 H 0.0 **** 0.06
31578 H 24.849004017322017 147.79295146574418 102.80104904967821 H 0.0 **** 0.06
31579 H 23.735270019094322 146.57254556614458 102.13887461814936 H 0.0 **** 0.06
31580 H 25.026866026948298 146.08289294261402 103.26143464402993 H 0.0 **** 0.06
31581 C 89.28431944764779 17.573343134229304 10.583874844981843 C 0.0 **** -0.24
31582 H 89.62035058337494 16.947619953424272 9.756337472382732 H 0.0 **** 0.06
31583 H 88.24588398207545 17.336349584677066 10.81859676582856 H 0.0 **** 0.06
31584 H 89.36188591570335 18.622719445926045 10.300244334030452 H 0.0 **** 0.06
31585 H 89.90684018565709 17.38604270359641 11.457453620566255 H 0.0 **** 0.06
31586 C 56.117811386421835 17.479248724762975 18.917237582856387 C 0.0 **** -0.24
31587 H 56.7826601991313 16.61583818741896 18.95219193401266 H 0.0 **** 0.06
31588 H 55.32490908384557 17.298378817262353 18.191510018055965 H 0.0 **** 0.06
31589 H 56.68576505997004 18.362493242925545 18.62327794922186 H 0.0 **** 0.06
31590 H 55.68003198604518 17.640421622601856 19.902665915634827 H 0.0 **** 0.06
31591 C 3.1279898738158067 57.06788020012266 20.690633302292753 C 0.0 **** -0.24
31592 H 2.0952837527421764 56.77732691973296 20.500835253298703 H 0.0 **** 0.06
31593 H 3.1879841462245793 57.59645436047552 21.64165512299698 H 0.0 **** 0.06
31594 H 3.4746761638017745 57.72078568806424 19.88946382403975 H 0.0 **** 0.06
31595 H 3.755082355390414 56.176311904654256 20.72990842868475 H 0.0 **** 0.06
31596 C 51.2899806488295 18.432672631487748 9.479286191862784 C 0.0 **** -0.24
31597 H 52.37941865189717 18.409690737891594 9.489141733360384 H 0.0 **** 0.06
31598 H 50.920816380899765 18.554493245516795 10.497880313803009 H 0.0 **** 0.06
31599 H 50.91008254838789 17.499841159399324 9.063142771973588 H 0.0 **** 0.06
31600 H 50.9495656284125 19.268858171130233 8.867416196651526 H 0.0 **** 0.06
31601 C 100.44399955685803 137.80390815980005 106.09864405983745 C 0.0 **** -0.24
31602 H 100.39165035406779 138.23569041233236 107.09726914954285 H 0.0 **** 0.06
31603 H 99.4787970681862 137.36821633995336 105.83908808579707 H 0.0 **** 0.06
31604 H 101.21044089773088 137.02831176464787 106.0783109871241 H 0.0 **** 0.06
31605 H 100.69605905400003 138.5826508792539 105.37918923032049 H 0.0 **** 0.06
31606 C 73.61625357427639 134.17509158567003 95.21184083561079 C 0.0 **** -0.24
31607 H 73.13416309318455 134.87448806332202 94.52830089963524 H 0.0 **** 0.06
31608 H 74.33944427344177 133.57128370603823 94.66256059332406 H 0.0 **** 0.06
31609 H 72.86223441104984 133.524959849875 95.6564309160469 H 0.0 **** 0.06
31610 H 74.12752159616782 134.73080414659643 95.99764044626684 H 0.0 **** 0.06
31611 C 63.212569012280554 132.93440238357292 128.48742540521835 C 0.0 **** -0.24
31612 H 63.79244370361748 133.6798012652827 127.94236085406988 H 0.0 **** 0.06
31613 H 63.48223085853459 132.96514940797837 129.54329737115478 H 0.0 **** 0.06
31614 H 63.42551326496569 131.94413909999722 128.08580017237642 H 0.0 **** 0.06
31615 H 62.14956096546739 133.1510117352751 128.37701344372852 H 0.0 **** 0.06
31616 C 14.596370863193286 100.97342632027028 142.16853067278947 C 0.0 **** -0.24
31617 H 13.68997224882147 100.39719832805173 142.35255597843286 H 0.0 **** 0.06
31618 H 15.193417768999026 100.47594405445736 141.40343923010516 H 0.0 **** 0.06
31619 H 15.173750650727506 101.04533533158536 143.09097319545975 H 0.0 **** 0.06
31620 H 14.328181717309171 101.97286026994223 141.82776271279647 H 0.0 **** 0.06
31621 C 130.6975630312448 5.450976474233187 24.64680024971851 C 0.0 **** -0.24
31622 H 129.91311417887883 5.830633318248317 23.99233546663521 H 0.0 **** 0.06
31623 H 130.4337577098158 4.448820824065223 24.986294473266625 H 0.0 **** 0.06
31624 H 130.80186153697494 6.1114557480397025 25.507884131588796 H 0.0 **** 0.06
31625 H 131.63984213388883 5.414750218097112 24.10102172574726 H 0.0 **** 0.06
31626 C 55.59883277460301 106.43857558775879 79.54559236033373 C 0.0 **** -0.24
31627 H 54.5746315504754 106.72602293061398 79.78333247568128 H 0.0 **** 0.06
31628 H 56.170740418348515 106.33795949740671 80.46820850196218 H 0.0 **** 0.06
31629 H 56.05483436771742 107.20332807861105 78.91686296079303 H 0.0 **** 0.06
31630 H 55.594110409101475 105.48609976733671 79.01438426317344 H 0.0 **** 0.06
31631 C 80.8799352578016 61.84872955378074 1.2517383618817632 C 0.0 **** -0.24
31632 H 81.58837972222946 62.54636675402219 0.8042997777073708 H 0.0 **** 0.06
31633 H 81.18265841594436 61.6311044409984 2.2758982499329363 H 0.0 **** 0.06
31634 H 80.86534388845519 60.92615432601991 0.6725359116891809 H 0.0 **** 0.06
31635 H 79.88465343516592 62.29281443925669 1.2532150560685977 H 0.0 **** 0.06
31636 C 39.11928160633552 4.312124517830512 144.92072452736835 C 0.0 **** -0.24
31637 H 38.57292651417251 3.4772561311137338 145.36053631052468 H 0.0 **** 0.06
31638 H 39.18517153585235 5.124228630344106 145.644681643789 H 0.0 **** 0.06
31639 H 38.59510873137015 4.65895682782903 144.0293667522624 H 0.0 **** 0.06
31640 H 40.12239892576369 3.98515346003839 144.64780322440035 H 0.0 **** 0.06
31641 C 110.29132752685922 149.0569377687627 18.49565512408092 C 0.0 **** -0.24
31642 H 110.8242514124463 149.99779448411152 18.363768041513786 H 0.0 **** 0.06
31643 H 110.06785373766814 148.91091881195018 19.553310303782773 H 0.0 **** 0.06
31644 H 110.91213806048171 148.2351207280046 18.139328723251054 H 0.0 **** 0.06
31645 H 109.36214651690119 149.08357268268855 17.927861450046443 H 0.0 **** 0.06
31646 C 116.05460752490073 127.69631284435167 145.83722434992558 C 0.0 **** -0.24
31647 H 116.16628224706194 126.61493804346503 145.91843267703487 H 0.0 **** 0.06
31648 H 116.99040845830503 128.13274213364053 145.4865070674534 H 0.0 **** 0.06
31649 H 115.8033796717303 128.10992207099002 146.81415498955974 H 0.0 **** 0.06
31650 H 115.25755526710621 127.92652823482496 145.12949198855156 H 0.0 **** 0.06
31651 C 131.6559903659734 96.40709451774552 11.407007340255092 C 0.0 **** -0.24
31652 H 132.02193692019185 95.91307132701708 12.30709994195496 H 0.0 **** 0.06
31653 H 131.9933981528338 97.44467736049957 11.400419475018367 H 0.0 **** 0.06
31654 H 130.56689079462714 96.37841062266037 11.394247805910112 H 0.0 **** 0.06
31655 H 132.04416715242715 95.89336605788168 10.527593142771337 H 0.0 **** 0.06
31656 C 48.44610153652107 100.90391407310125 71.60724662193704 C 0.0 **** -0.24
31657 H 48.13722930197342 100.28669019537213 72.45017311155104 H 0.0 **** 0.06
31658 H 49.12341196120859 101.68391165232873 71.95727362928395 H 0.0 **** 0.06
31659 H 47.56731625045458 101.36237675757599 71.15219066517302 H 0.0 **** 0.06
31660 H 48.955246761974564 100.28391645450728 70.86949424560599 H 0.0 **** 0.06
31661 C 79.98283746447129 27.349569283878793 79.87206004313312 C 0.0 **** -0.24
31662 H 79.11779894824608 27.155505064246938 79.23621729028916 H 0.0 **** 0.06
31663 H 80.41507153882537 28.316183900191447 79.61080840102431 H 0.0 **** 0.06
31664 H 80.7255541230137 26.566534319611208 79.72305785445971 H 0.0 **** 0.06
31665 H 79.66989273448178 27.360785202911927 80.91609034980615 H 0.0 **** 0.06
31666 C 112.13665403125434 12.977893721464262 133.15823124099424 C 0.0 **** -0.24
31667 H 112.99153324695642 12.476338793001936 133.61320894458493 H 0.0 **** 0.06
31668 H 112.44091050093088 13.425199514558095 132.21134843224436 H 0.0 **** 0.06
31669 H 111.77343050597979 13.75666691549106 133.8283196249454 H 0.0 **** 0.06
31670 H 111.3438539930021 12.25185118744237 132.98014475764336 H 0.0 **** 0.06
31671 C 134.99999689628046 44.809407972518386 125.59937400880023 C 0.0 **** -0.24
31672 H 133.9193373769008 44.871669324753725 125.73356070571685 H 0.0 **** 0.06
31673 H 135.2210512692769 44.274956902365886 124.67562864847355 H 0.0 **** 0.06
31674 H 135.44040494687474 44.2768680772777 126.443252880871 H 0.0 **** 0.06
31675 H 135.41695883249233 45.8154456441915 125.54656818912224 H 0.0 **** 0.06
31676 C 47.13383654661318 132.66903510408994 132.2109997224613 C 0.0 **** -0.24
31677 H 47.786142725158115 131.86067535660808 132.54027866969977 H 0.0 **** 0.06
31678 H 47.53185000356946 133.10559106698787 131.29448856843143 H 0.0 **** 0.06
31679 H 47.082894565723834 133.43343241715274 132.98576621090618 H 0.0 **** 0.06
31680 H 46.13457444431218 132.27563475449642 132.02230968972998 H 0.0 **** 0.06
31681 C 21.882209517741813 130.15447320203734 147.61915464660532 C 0.0 **** -0.24
31682 H 21.916867927211342 129.58468438774227 146.68999049218638 H 0.0 **** 0.06
31683 H 21.597433588649096 129.4939819633636 148.43872252772252 H 0.0 **** 0.06
31684 H 21.147865762581745 130.9553110332142 147.5253593984479 H 0.0 **** 0.06
31685 H 22.863866849412233 130.5824208507435 147.81956206858172 H 0.0 **** 0.06
31686 C 68.92504927792953 106.73651252220945 3.535217033035565 C 0.0 **** -0.24
31687 H 69.22347528855198 107.1341892540746 2.5658107328930555 H 0.0 **** 0.06
31688 H 69.67873703841673 106.99258168205667 4.281034633460649 H 0.0 **** 0.06
31689 H 68.8319763881579 105.6524634377859 3.4700441679374308 H 0.0 **** 0.06
31690 H 67.9665458938898 107.16647772849738 3.8252422967999564 H 0.0 **** 0.06
31691 C 84.07011338860906 52.17906700893701 137.99015584311172 C 0.0 **** -0.24
31692 H 84.05619458007887 52.969560892497725 138.7403259308401 H 0.0 **** 0.06
31693 H 83.5490396207169 52.519161767187484 137.09439626535814 H 0.0 **** 0.06
31694 H 83.57136313567663 51.29479649586341 138.38605267770288 H 0.0 **** 0.06
31695 H 85.10182119871976 51.9332909985211 137.73909684210616 H 0.0 **** 0.06
31696 C 59.51470024095627 130.60825030404519 48.55129822048231 C 0.0 **** -0.24
31697 H 60.45456541749523 130.73595307183874 48.01424614118413 H 0.0 **** 0.06
31698 H 58.75344526346022 131.25279204631258 48.11180500640235 H 0.0 **** 0.06
31699 H 59.655942854119004 130.875313812474 49.59915609893143 H 0.0 **** 0.06
31700 H 59.19496687549457 129.56797458404313 48.48199796472353 H 0.0 **** 0.06
31701 C 17.383159780413422 136.26264426969004 136.10381175154404 C 0.0 **** -0.24
31702 H 17.199566973446537 137.3347772022645 136.0414731462402 H 0.0 **** 0.06
31703 H 16.460027517477556 135.72277532597653 135.88614012054526 H 0.0 **** 0.06
31704 H 17.7231148576426 136.01099593623925 137.10819222220184 H 0.0 **** 0.06
31705 H 18.147688280741903 135.9810676711768 135.37967068966407 H 0.0 **** 0.06
31706 C 81.66467989901464 107.47287384395487 73.92659636963884 C 0.0 **** -0.24
31707 H 81.50115716931522 108.45760787348316 73.48891533497579 H 0.0 **** 0.06
31708 H 82.73174712860671 107.32205655142504 74.09420664857242 H 0.0 **** 0.06
31709 H 81.2913777774838 106.70664773987953 73.24692322868515 H 0.0 **** 0.06
31710 H 81.13443752065267 107.40518321103154 74.8763402663219 H 0.0 **** 0.06
31711 C 147.1583800033611 57.734687812652595 32.34003426443843 C 0.0 **** -0.24
31712 H 147.01786652666325 58.24488054418937 31.38746416273949 H 0.0 **** 0.06
31713 H 148.18385641847075 57.37303284859294 32.410007567000946 H 0.0 **** 0.06
31714 H 146.46926563653446 56.892992071288745 32.40649582552953 H 0.0 **** 0.06
31715 H 146.9623360552765 58.43055013567157 33.156974869853855 H 0.0 **** 0.06
31716 C 102.80514420303076 87.21024005630537 62.127313735360275 C 0.0 **** -0.24
31717 H 103.76970666845641 87.19566637032952 62.63419766734765 H 0.0 **** 0.06
31718 H 102.95211014982961 87.03086808160086 61.061615260405716 H 0.0 **** 0.06
31719 H 102.33392006782466 88.1831924803682 62.27033092547137 H 0.0 **** 0.06
31720 H 102.16447105279579 86.43208513385574 62.54204414268048 H 0.0 **** 0.06
31721 C 65.63317222096428 10.044776827943195 80.01355061227352 C 0.0 **** -0.24
31722 H 66.19585092690005 10.35990690621555 80.89303525631883 H 0.0 **** 0.06
31723 H 65.61956564414967 10.853794595551761 79.28230397498379 H 0.0 **** 0.06
31724 H 64.611788045507 9.799733480118078 80.30458601009286 H 0.0 **** 0.06
31725 H 66.10743953890687 9.166510654544972 79.57496590771737 H 0.0 **** 0.06
31726 C 104.84003331348258 65.5972441596329 86.69009820161999 C 0.0 **** -0.24
31727 H 105.18661967323642 66.20462796397094 87.52638541576147 H 0.0 **** 0.06
31728 H 105.30846751864597 64.61445301090798 86.73792516675628 H 0.0 **** 0.06
31729 H 105.1086207199704 66.08372111179348 85.75253462851644 H 0.0 **** 0.06
31730 H 103.7566506852687 65.48762196079467 86.74551087011436 H 0.0 **** 0.06
31731 C 86.34083132335927 149.99258285657206 91.35000227047223 C 0.0 **** -0.24
31732 H 86.23577315339601 150.83156395980754 92.03894858686414 H 0.0 **** 0.06
31733 H 87.36444644162837 149.61907733424184 91.38796569103317 H 0.0 **** 0.06
31734 H 86.11178249405154 150.3229890644219 90.33739286142298 H 0.0 **** 0.06
31735 H 85.65313247840372 149.19830414249986 91.63904219723119 H 0.0 **** 0.06
31736 C 87.17831032130422 112.90982580191697 77.17912210551331 C 0.0 **** -0.24
31737 H 86.82089417104118 111.89803510430649 76.98512777574844 H 0.0 **** 0.06
31738 H 86.43665864450935 113.44963420372302 77.76821477802716 H 0.0 **** 0.06
31739 H 87.33667294866873 113.42662345858606 76.23203289015181 H 0.0 **** 0.06
31740 H 88.11718244366409 112.86464603718697 77.7295295461205 H 0.0 **** 0.06
31741 C 68.59761760652717 55.67512135072275 149.4478451340566 C 0.0 **** -0.24
31742 H 68.08340662322217 54.84010890544505 149.92412948118837 H 0.0 **** 0.06
31743 H 69.3211933676889 55.29230502773194 148.7283437420791 H 0.0 **** 0.06
31744 H 69.11423653807346 56.26364196890205 150.20631785009653 H 0.0 **** 0.06
31745 H 67.87044163597615 56.30302940701293 148.93386163962373 H 0.0 **** 0.06
31746 C 138.25516962278544 30.505820979607705 120.47580817568611 C 0.0 **** -0.24
31747 H 137.56000942092606 31.28798717922173 120.17299839508759 H 0.0 **** 0.06
31748 H 139.0990642069283 30.483337716032537 119.78590605461527 H 0.0 **** 0.06
31749 H 137.74732025422642 29.541836049071236 120.45969818169952 H 0.0 **** 0.06
31750 H 138.61505303339462 30.709966083536898 121.48400963118102 H 0.0 **** 0.06
31751 C 22.530640313874336 1.9184446652430438 52.59879469174709 C 0.0 **** -0.24
31752 H 23.25235631476518 2.5148327533435264 52.03950514950836 H 0.0 **** 0.06
31753 H 22.80125237035442 0.8643558174567723 52.53055004293114 H 0.0 **** 0.06
31754 H 21.53492017272351 2.065859472379799 52.17825357614052 H 0.0 **** 0.06
31755 H 22.53427640349615 2.229172048399157 53.642777783558415 H 0.0 **** 0.06
31756 C 39.6124898226263 127.45451004759508 95.88676735141519 C 0.0 **** -0.24
31757 H 40.17546035545605 128.38555990943513 95.94924776960369 H 0.0 **** 0.06
31758 H 39.08772532507221 127.41029469933187 94.93191042772446 H 0.0 **** 0.06
31759 H 38.889925705341696 127.41098049982594 96.70183837106242 H 0.0 **** 0.06
31760 H 40.29897950457476 126.61054109203144 95.96394800817029 H 0.0 **** 0.06
31761 C 71.71385911604209 101.87339262178438 120.219868453462 C 0.0 **** -0.24
31762 H 71.56391261408018 101.23727614003275 121.09345613178172 H 0.0 **** 0.06
31763 H 71.71283636600062 102.91925143267412 120.52767976327996 H 0.0 **** 0.06
31764 H 70.90881130588141 101.70327440534405 119.50562811171815 H 0.0 **** 0.06
31765 H 72.66907526537281 101.63143134811321 119.75513811026676 H 0.0 **** 0.06
31766 C 6.228013102569264 61.38536336719922 75.57181726915289 C 0.0 **** -0.24
31767 H 6.861881658957969 62.197974991580466 75.21860566077598 H 0.0 **** 0.06
31768 H 5.43675886362152 61.79042706040424 76.20311802107273 H 0.0 **** 0.06
31769 H 6.827950059456327 60.68040035188319 76.147397221614 H 0.0 **** 0.06
31770 H 5.784938491427226 60.873351948493806 74.71766349035781 H 0.0 **** 0.06
31771 C 63.6808462495984 105.73076599535868 128.8017260225909 C 0.0 **** -0.24
31772 H 63.33676075893382 106.33743898041361 129.64022861673553 H 0.0 **** 0.06
31773 H 62.844503082701806 105.15946380683728 128.39958005275642 H 0.0 **** 0.06
31774 H 64.4572572482715 105.0471567715873 129.14313167930547 H 0.0 **** 0.06
31775 H 64.08420876149327 106.38156925723784 128.02537538425688 H 0.0 **** 0.06
31776 C 56.62873169954223 110.31689783738601 142.96369966008987 C 0.0 **** -0.24
31777 H 57.5637425152689 110.87301650124466 142.89540403343273 H 0.0 **** 0.06
31778 H 56.429713758715664 109.82238538717225 142.01287697230555 H 0.0 **** 0.06
31779 H 55.81422647312594 111.00411872871642 143.19458750996552 H 0.0 **** 0.06
31780 H 56.70731872676593 109.57009431294775 143.75330844426728 H 0.0 **** 0.06
31781 C 102.65130417383861 54.654099293588246 35.101360046512795 C 0.0 **** -0.24
31782 H 102.92248497379036 55.70920800180183 35.13100891739782 H 0.0 **** 0.06
31783 H 103.00548067572608 54.214980798083005 34.166937466937 H 0.0 **** 0.06
31784 H 101.56744907853646 54.55448574926119 35.16160757671042 H 0.0 **** 0.06
31785 H 103.11150301196896 54.13661171638741 35.94308037970663 H 0.0 **** 0.06
31786 C 32.599072088436486 129.038458417227 103.02346527674125 C 0.0 **** -0.24
31787 H 33.08219963343452 128.39920383899664 102.28551216887922 H 0.0 **** 0.06
31788 H 33.268171649562525 129.18337305902827 103.8721961185541 H 0.0 **** 0.06
31789 H 31.677107966163106 128.56642339531817 103.36462890346836 H 0.0 **** 0.06
31790 H 32.368451396479095 130.00368939529068 102.57427413122728 H 0.0 **** 0.06
31791 C 72.06880937347236 60.37685994204463 135.00857475683068 C 0.0 **** -0.24
31792 H 71.12997233934078 59.82489474172098 135.0534738041239 H 0.0 **** 0.06
31793 H 72.58962910175131 60.286205915222865 135.96270378642004 H 0.0 **** 0.06
31794 H 71.86353983163058 61.42790854135262 134.80552121815137 H 0.0 **** 0.06
31795 H 72.69335904249193 59.968484816390514 134.21323457879237 H 0.0 **** 0.06
31796 C 9.295351125233339 47.7835299058668 107.35374044761504 C 0.0 **** -0.24
31797 H 9.235125125931972 46.88134312944953 106.74485840601055 H 0.0 **** 0.06
31798 H 8.992151040408231 48.6447067754838 106.75942610103057 H 0.0 **** 0.06
31799 H 10.320901435427658 47.92148360335895 107.69776059247992 H 0.0 **** 0.06
31800 H 8.63398095758859 47.68501047752471 108.21535576684924 H 0.0 **** 0.06
31801 C 55.883389326533546 134.61632415757032 106.98030388188144 C 0.0 **** -0.24
31802 H 54.83062076386659 134.37123346321297 107.11697264526353 H 0.0 **** 0.06
31803 H 56.49725828098704 133.88995611173326 107.51207434019912 H 0.0 **** 0.06
31804 H 56.07789347943401 135.6150176034275 107.37252837686279 H 0.0 **** 0.06
31805 H 56.12651523669577 134.5904647882067 105.91729558963547 H 0.0 **** 0.06
31806 C 91.04354972468883 97.60837690335863 144.1260356896746 C 0.0 **** -0.24
31807 H 91.19156666305426 98.12636300777969 143.1778511569494 H 0.0 **** 0.06
31808 H 90.23244122408042 98.08562215228251 144.67741896306856 H 0.0 **** 0.06
31809 H 91.96029281826785 97.65570675570449 144.71330347238714 H 0.0 **** 0.06
31810 H 90.78879514235578 96.56638177081904 143.93345657090148 H 0.0 **** 0.06
31811 C 3.9074476793146005 38.75369214106617 111.53072367940236 C 0.0 **** -0.24
31812 H 4.880829020965848 38.80513270779382 112.01898911009756 H 0.0 **** 0.06
31813 H 3.617924541755656 39.74890584171412 111.1928738043898 H 0.0 **** 0.06
31814 H 3.166161086507259 38.37882969557935 112.23518712904318 H 0.0 **** 0.06
31815 H 3.9666040131378395 38.08182125131367 110.67411026536696 H 0.0 **** 0.06
31816 C 21.248547365168015 37.87845756904929 46.35337101096978 C 0.0 **** -0.24
31817 H 21.272701235974907 38.23846052270307 45.325226119907825 H 0.0 **** 0.06
31818 H 22.051027119711627 38.34819457879686 46.92241747768841 H 0.0 **** 0.06
31819 H 21.381133101337127 36.797083168136666 46.36225200185996 H 0.0 **** 0.06
31820 H 20.28845254525629 38.13032568833553 46.804011530740524 H 0.0 **** 0.06
31821 C 100.14512921044658 127.42305687266264 69.14522343373122 C 0.0 **** -0.24
31822 H 99.75221056127401 127.25675115716427 68.14213827672299 H 0.0 **** 0.06
31823 H 99.76338497655539 126.65379534838428 69.81630950984388 H 0.0 **** 0.06
31824 H 99.8292009631785 128.40456787679318 69.49973436796637 H 0.0 **** 0.06
31825 H 101.23420779750208 127.37793436609991 69.12096860360393 H 0.0 **** 0.06
31826 C 39.03198510241235 22.117666513548073 34.832722546389476 C 0.0 **** -0.24
31827 H 38.272163694443634 22.231895019792347 34.05920281020738 H 0.0 **** 0.06
31828 H 38.67209837943076 21.426633655424666 35.59554143044383 H 0.0 **** 0.06
31829 H 39.23640750993718 23.086776305028252 35.28678326874493 H 0.0 **** 0.06
31830 H 39.946216693783214 21.723967266801395 34.38713862578993 H 0.0 **** 0.06
31831 C 104.37665186741965 142.89593927166356 83.73131718160779 C 0.0 **** -0.24
31832 H 104.3657808222235 141.80823741668024 83.66095397385646 H 0.0 **** 0.06
31833 H 104.97411827301052 143.19802921987406 84.59204540628714 H 0.0 **** 0.06
31834 H 103.35626062104329 143.26218206757065 83.85098530263109 H 0.0 **** 0.06
31835 H 104.8091353263275 143.31449066397056 82.82318380446742 H 0.0 **** 0.06
31836 C 116.23181918160205 99.79172402295454 46.46280239374444 C 0.0 **** -0.24
31837 H 115.92366398626174 100.83182805964161 46.563238476888884 H 0.0 **** 0.06
31838 H 116.75004712763078 99.65656510433213 45.51280008249246 H 0.0 **** 0.06
31839 H 115.35202597911635 99.14835199860403 46.491661850383466 H 0.0 **** 0.06
31840 H 116.90065000811174 99.52989710102126 47.283129461797486 H 0.0 **** 0.06
31841 C 136.12840326639315 61.705490103097645 92.78974542696395 C 0.0 **** -0.24
31842 H 135.42841983557892 61.352270538870044 93.54707998105877 H 0.0 **** 0.06
31843 H 135.58424258518903 61.935043009129515 91.87290184825454 H 0.0 **** 0.06
31844 H 136.86836956209967 60.93106298552664 92.58872306587202 H 0.0 **** 0.06
31845 H 136.63026374801913 62.60373246689076 93.14949700426143 H 0.0 **** 0.06
31846 C 46.82994855469575 15.902489984495304 104.89211283394339 C 0.0 **** -0.24
31847 H 47.007626297402155 14.904349111256785 104.49202047680318 H 0.0 **** 0.06
31848 H 45.9137931322329 15.899430145920348 105.48245456028461 H 0.0 **** 0.06
31849 H 46.72914804210728 16.6110236083638 104.06884318677389 H 0.0 **** 0.06
31850 H 47.6687860483069 16.195625298109704 105.52276947722102 H 0.0 **** 0.06
31851 C 78.21454858890897 147.88682458564875 1.7541171196425225 C 0.0 **** -0.24
31852 H 78.81621725852366 148.34175841117826 0.9677714697775421 H 0.0 **** 0.06
31853 H 77.17199223855494 147.84648333581316 1.4362014402757524 H 0.0 **** 0.06
31854 H 78.2935519610684 148.48229114828067 2.663817913163573 H 0.0 **** 0.06
31855 H 78.57399476650474 146.87694568585513 1.9485251726368595 H 0.0 **** 0.06
31856 C 67.72701972644782 62.620840286982656 134.3944301483562 C 0.0 **** -0.24
31857 H 66.89315775391447 62.15306898017161 133.86965995975623 H 0.0 **** 0.06
31858 H 68.48632494151667 62.92179578990681 133.67339906779554 H 0.0 **** 0.06
31859 H 68.15579574796094 61.91066473153569 135.10073974745475 H 0.0 **** 0.06
31860 H 67.36955464471181 63.499040616423144 134.93386267427366 H 0.0 **** 0.06
31861 C 102.3235713985436 135.74563972635673 119.2906442895486 C 0.0 **** -0.24
31862 H 103.20375569907307 135.60370667004136 119.91740666366326 H 0.0 **** 0.06
31863 H 101.57202903147518 134.9986400415337 119.54562667223223 H 0.0 **** 0.06
31864 H 102.60193290541909 135.638154434947 118.24210707957025 H 0.0 **** 0.06
31865 H 101.915170200197 136.74308017184674 119.45746920998778 H 0.0 **** 0.06
31866 C 31.09631705481263 85.55771593072062 81.98502129353636 C 0.0 **** -0.24
31867 H 30.76373345975057 84.5416474460903 82.19751005225021 H 0.0 **** 0.06
31868 H 31.44467389420535 85.6170673123505 80.95408851453607 H 0.0 **** 0.06
31869 H 31.910732769643857 85.82071641490664 82.65978811225017 H 0.0 **** 0.06
31870 H 30.2668537017326 86.24939687579479 82.12927269998505 H 0.0 **** 0.06
31871 C 1.9141194733393547 143.77800361118238 146.63263398224666 C 0.0 **** -0.24
31872 H 2.195322883913878 144.54705173853037 145.9125269495031 H 0.0 **** 0.06
31873 H 2.5293875707724744 143.87652881495632 147.5275392696067 H 0.0 **** 0.06
31874 H 2.0685354148552513 142.79367262247217 146.19152438467316 H 0.0 **** 0.06
31875 H 0.8631166794708918 143.89698925837394 146.89879386229435 H 0.0 **** 0.06
31876 C 25.421162653969077 115.0524173110601 106.67271841218174 C 0.0 **** -0.24
31877 H 26.40082093477878 115.52589638333357 106.60955436122903 H 0.0 **** 0.06
31878 H 24.75150911595776 115.68171635639307 107.26027980646934 H 0.0 **** 0.06
31879 H 25.518516593138656 114.07822314405884 107.15029287188126 H 0.0 **** 0.06
31880 H 25.01431331293506 114.92641146236939 105.66929944235132 H 0.0 **** 0.06
31881 C 39.55568415834527 25.56617321590116 32.68920172812739 C 0.0 **** -0.24
31882 H 39.0471342000741 26.46382094110237 32.335488515905695 H 0.0 **** 0.06
31883 H 38.97903402832861 24.686637873324685 32.40244102461668 H 0.0 **** 0.06
31884 H 39.64774752809757 25.604480538459 33.77439772427351 H 0.0 **** 0.06
31885 H 40.54827906388762 25.51235538993791 32.24132730169583 H 0.0 **** 0.06
31886 C 51.01919166743335 31.701508503881428 15.178885828275014 C 0.0 **** -0.24
31887 H 50.62602167567316 31.30855850003573 16.11652175848306 H 0.0 **** 0.06
31888 H 50.19355574368389 31.911375024919124 14.4985815844299 H 0.0 **** 0.06
31889 H 51.68357713695002 30.965214768979223 14.728194232260932 H 0.0 **** 0.06
31890 H 51.57225308299033 32.61982712444939 15.37367142771268 H 0.0 **** 0.06
31891 C 105.9519896426523 12.830582483777974 140.49902659369138 C 0.0 **** -0.24
31892 H 105.92609236104617 13.693740594460003 141.1651984495367 H 0.0 **** 0.06
31893 H 105.07473185547475 12.208476870532593 140.6762097204247 H 0.0 **** 0.06
31894 H 106.8546410249527 12.25041985569618 140.6921206403853 H 0.0 **** 0.06
31895 H 105.95339053575044 13.171277371911621 139.4638751571887 H 0.0 **** 0.06
31896 C 146.2428939952683 10.49500302484455 88.81858807937657 C 0.0 **** -0.24
31897 H 147.18640313406033 9.952798371335831 88.87448149370151 H 0.0 **** 0.06
31898 H 145.76709555684678 10.298034073337107 87.85740516409011 H 0.0 **** 0.06
31899 H 146.43105123641826 11.563417465566943 88.91882718030219 H 0.0 **** 0.06
31900 H 145.58584361282254 10.165086621694655 89.62401994407367 H 0.0 **** 0.06
31901 C 98.0710023683325 34.27760872027252 121.67725987729374 C 0.0 **** -0.24
31902 H 98.74998213163897 34.93318834972319 122.22131802345022 H 0.0 **** 0.06
31903 H 98.63270624397906 33.70428282889287 120.93979960002439 H 0.0 **** 0.06
31904 H 97.31445990912597 34.8770295902699 121.17089379383408 H 0.0 **** 0.06
31905 H 97.58570780216756 33.59571840616744 122.37623863390273 H 0.0 **** 0.06
31906 C 54.16553975685082 15.930484979992173 96.27511726430419 C 0.0 **** -0.24
31907 H 54.34239654196671 15.458703897258033 95.30911429768632 H 0.0 **** 0.06
31908 H 53.257153449619295 15.521026407412023 96.71804447159127 H 0.0 **** 0.06
31909 H 54.049495872222906 17.00621707293658 96.13804861657324 H 0.0 **** 0.06
31910 H 55.01121905708101 15.737015100228405 96.93409250263194 H 0.0 **** 0.06
31911 C 27.52521038816502 120.4400454022752 119.5725970953887 C 0.0 **** -0.24
31912 H 27.953225827037784 119.8748638240907 120.40070038707925 H 0.0 **** 0.06
31913 H 28.009530366301817 120.1428744813884 118.64216434457775 H 0.0 **** 0.06
31914 H 27.680942399872663 121.50499761107527 119.74072729432457 H 0.0 **** 0.06
31915 H 26.456026902515646 120.23480199555179 119.50767134844783 H 0.0 **** 0.06
31916 C 108.46659327041382 10.755884866785493 16.666538897604894 C 0.0 **** -0.24
31917 H 108.91546672974104 11.086904830222863 17.6040152715261 H 0.0 **** 0.06
31918 H 109.25393082343484 10.547920627818826 15.941495475795882 H 0.0 **** 0.06
31919 H 107.81433532586496 11.538504823903338 16.281074240113206 H 0.0 **** 0.06
31920 H 107.88507402776136 9.850914828918974 16.841710454544234 H 0.0 **** 0.06
31921 C 83.93056426061221 42.91711050468808 88.8249969475675 C 0.0 **** -0.24
31922 H 83.8523072631598 43.62678037849582 88.00046674723345 H 0.0 **** 0.06
31923 H 83.11173617281707 42.19987244097587 88.76421352329788 H 0.0 **** 0.06
31924 H 83.87526680561221 43.45375698536799 89.77248164640571 H 0.0 **** 0.06
31925 H 84.88222942044054 42.38992168186877 88.76060875683073 H 0.0 **** 0.06
31926 C 143.9186695218497 126.45149026168458 33.224688071976445 C 0.0 **** -0.24
31927 H 144.52405582661092 127.05160292813802 32.544690478592045 H 0.0 **** 0.06
31928 H 143.8664927686174 126.94499507543932 34.19529719929281 H 0.0 **** 0.06
31929 H 144.37329195778122 125.46751818470648 33.341815756286294 H 0.0 **** 0.06
31930 H 142.91383686904499 126.34179729502927 32.8169034802948 H 0.0 **** 0.06
31931 C 4.8340005167297875 93.90342090762786 148.79903288688635 C 0.0 **** -0.24
31932 H 4.904628201809224 94.38369885927727 149.7756399476056 H 0.0 **** 0.06
31933 H 3.7844404243769887 93.74520407592226 148.5483646210839 H 0.0 **** 0.06
31934 H 5.350107050177904 92.94449843836037 148.82846380239963 H 0.0 **** 0.06
31935 H 5.295489353786962 94.54278591490865 148.04610131958677 H 0.0 **** 0.06
31936 C 127.43312124393223 26.904246124056442 31.22092550993608 C 0.0 **** -0.24
31937 H 128.46371625122543 26.68952317374901 31.503666507816206 H 0.0 **** 0.06
31938 H 127.40860621361064 27.791255087248842 30.58616360422718 H 0.0 **** 0.06
31939 H 126.840174519359 27.0833795869693 32.11790369984584 H 0.0 **** 0.06
31940 H 127.021146552491 26.055922026381438 30.675691147738178 H 0.0 **** 0.06
31941 C 134.69002073969654 104.3868835907374 106.74270599789696 C 0.0 **** -0.24
31942 H 134.0852682544344 104.22508633925872 107.63539664432699 H 0.0 **** 0.06
31943 H 134.2932891268341 103.7873329375982 105.92308441148396 H 0.0 **** 0.06
31944 H 135.72016917120544 104.09239966365163 106.9442076730009 H 0.0 **** 0.06
31945 H 134.65970964438273 105.441211001022 106.47113949375051 H 0.0 **** 0.06
31946 C 119.49055909760168 92.7216671669588 88.99224200398623 C 0.0 **** -0.24
31947 H 119.10044144396582 93.00992196764591 89.96821939068849 H 0.0 **** 0.06
31948 H 120.52250654525236 92.3868511413877 89.09816736894695 H 0.0 **** 0.06
31949 H 119.45336193023056 93.57802035625873 88.31937942782122 H 0.0 **** 0.06
31950 H 118.88536365967573 91.91199999666603 88.58401896157872 H 0.0 **** 0.06
31951 C 1.9922841147491113 65.35059961188382 116.7647899985339 C 0.0 **** -0.24
31952 H 1.853651389808931 64.6870087474169 117.61840327188435 H 0.0 **** 0.06
31953 H 1.0288578247287887 65.76159830236598 116.46288049295475 H 0.0 **** 0.06
31954 H 2.4245758085818636 64.78944026196979 115.93565936917821 H 0.0 **** 0.06
31955 H 2.663659547346242 66.16332131828683 117.04281150272533 H 0.0 **** 0.06
31956 C 124.34148627779793 79.23732773520496 27.688875172086227 C 0.0 **** -0.24
31957 H 124.59817955674013 78.62091552539455 28.551020212179083 H 0.0 **** 0.06
31958 H 123.26224473423089 79.38815053978884 27.65770355324142 H 0.0 **** 0.06
31959 H 124.66646751421088 78.7381040357404 26.775864553644197 H 0.0 **** 0.06
31960 H 124.8410184232631 80.20295403455681 27.77212779028835 H 0.0 **** 0.06
31961 C 42.560132262986315 49.91272940373071 34.766732871417396 C 0.0 **** -0.24
31962 H 42.89887468367323 49.00649344444969 34.26472546184889 H 0.0 **** 0.06
31963 H 42.6448861377105 49.783150406076004 35.84573359057904 H 0.0 **** 0.06
31964 H 41.52013067078843 50.10662707263228 34.50329809005691 H 0.0 **** 0.06
31965 H 43.17667210925629 50.754375935446134 34.45221229643431 H 0.0 **** 0.06
31966 C 81.78447251733868 46.94498188813941 124.83994114174152 C 0.0 **** -0.24
31967 H 82.37691838131374 47.82679352963491 124.59360873752331 H 0.0 **** 0.06
31968 H 80.73512547282968 47.13792937524076 124.6175933963188 H 0.0 **** 0.06
31969 H 81.89632988627912 46.71806114351827 125.90049402258848 H 0.0 **** 0.06
31970 H 82.13216182795065 46.09827187716158 124.24892189675506 H 0.0 **** 0.06
31971 C 146.4548823038762 18.801249818369683 58.56617420179812 C 0.0 **** -0.24
31972 H 145.6610739814211 18.25810583435151 59.08002289826882 H 0.0 **** 0.06
31973 H 146.25172106522183 18.81444673510063 57.49539839296314 H 0.0 **** 0.06
31974 H 147.40912168494143 18.30897422893358 58.75012360162283 H 0.0 **** 0.06
31975 H 146.4950988718563 19.824531456730938 58.94040117079143 H 0.0 **** 0.06
31976 C 38.314870477029956 63.76034649526423 134.02875852843835 C 0.0 **** -0.24
31977 H 37.30245890446906 64.1581997490184 134.1027727388231 H 0.0 **** 0.06
31978 H 38.98488954713976 64.35363294606319 134.65090409997146 H 0.0 **** 0.06
31979 H 38.64690259597495 63.80503213498301 132.99157081854634 H 0.0 **** 0.06
31980 H 38.323086747888055 62.724559486447475 134.36915282059584 H 0.0 **** 0.06
31981 C 79.2590683127643 108.1861951801 106.09282618390489 C 0.0 **** -0.24
31982 H 78.37721133461358 108.23328172752495 105.45449900814913 H 0.0 **** 0.06
31983 H 79.82768405303847 107.28543129520425 105.86071615708818 H 0.0 **** 0.06
31984 H 78.95023100178693 108.1622448874328 107.13808184524606 H 0.0 **** 0.06
31985 H 79.8811468616181 109.06382281023794 105.91800772513625 H 0.0 **** 0.06
31986 C 149.18062002430878 62.97260860885156 138.3095651155051 C 0.0 **** -0.24
31987 H 149.6075422516751 62.00307251974674 138.5652634741899 H 0.0 **** 0.06
31988 H 148.33017334001977 63.17737382057143 138.9617922384719 H 0.0 **** 0.06
31989 H 148.84845959810025 62.960423147301555 137.27199082391218 H 0.0 **** 0.06
31990 H 149.9349393286949 63.74783111966423 138.44168969549636 H 0.0 **** 0.06
31991 C 74.68189728036478 53.04675781546605 18.802029282268677 C 0.0 **** -0.24
31992 H 75.36179615636479 52.67068179844898 19.56703834233455 H 0.0 **** 0.06
31993 H 74.42304471453562 54.08291746900541 19.02365524084488 H 0.0 **** 0.06
31994 H 73.77601496187643 52.44052579572539 18.791956940362937 H 0.0 **** 0.06
31995 H 75.16718426369604 52.993353659250076 17.827077974633752 H 0.0 **** 0.06
31996 C 59.43010550383201 75.83332104175304 105.91963948917646 C 0.0 **** -0.24
31997 H 60.14034980899214 76.012005116083 105.11305504213618 H 0.0 **** 0.06
31998 H 59.23187729422409 76.76910885985984 106.44285860565208 H 0.0 **** 0.06
31999 H 59.84946164406958 75.10879610731848 106.6182442113751 H 0.0 **** 0.06
32000 H 58.50057884749009 75.44313340506301 105.50675301906182 H 0.0 **** 0.06
32001 C 8.114752435298044 138.91866737576046 34.503871578711255 C 0.0 **** -0.24
32002 H 8.004212482635182 138.16685424148685 35.28467397163689 H 0.0 **** 0.06
32003 H 7.574344543045129 138.5993743201837 33.612826836431566 H 0.0 **** 0.06
32004 H 9.171633616446911 139.04048138526673 34.26429686996016 H 0.0 **** 0.06
32005 H 7.710406376695971 139.8686527436602 34.85370090619256 H 0.0 **** 0.06
32006 C 130.4524561104635 102.11897924274987 95.16628072801927 C 0.0 **** -0.24
32007 H 129.66420061997246 101.36853289998515 95.2115023559634 H 0.0 **** 0.06
32008 H 130.82976439179652 102.30980648459445 96.17111997987135 H 0.0 **** 0.06
32009 H 130.05246424996903 103.04175724106786 94.74659424447225 H 0.0 **** 0.06
32010 H 131.26444497430614 101.7541902029446 94.53639695819791 H 0.0 **** 0.06
32011 C 37.662638472130894 67.14689448584599 17.679729759851455 C 0.0 **** -0.24
32012 H 36.84414162852964 67.84710052274696 17.840782035919347 H 0.0 **** 0.06
32013 H 37.66855696163393 66.40490020667156 18.478642128175636 H 0.0 **** 0.06
32014 H 38.6093670098623 67.68864776448294 17.679810026328823 H 0.0 **** 0.06
32015 H 37.5294344910639 66.6473690103785 16.721067454032152 H 0.0 **** 0.06
32016 C 107.53021084220507 137.23280539529188 122.9511515021532 C 0.0 **** -0.24
32017 H 107.52770887292615 137.28336911690678 124.04054655416918 H 0.0 **** 0.06
32018 H 106.52308297154116 137.41525540498824 122.57628228431624 H 0.0 **** 0.06
32019 H 107.86290004666478 136.2446891176218 122.634606769504 H 0.0 **** 0.06
32020 H 108.2087964934068 137.98881907728847 122.55438033373672 H 0.0 **** 0.06
32021 C 85.03150124872741 30.396784466393 101.00661096385936 C 0.0 **** -0.24
32022 H 84.27615794801514 30.608048179998377 101.76334712325561 H 0.0 **** 0.06
32023 H 85.6861674949517 31.261260889373403 100.89501296504841 H 0.0 **** 0.06
32024 H 84.5428670383244 30.185593154160046 100.05527015575016 H 0.0 **** 0.06
32025 H 85.62046073509194 29.53176482003454 101.31200452850267 H 0.0 **** 0.06
32026 C 108.03237302932922 87.14001847244498 36.306278324770375 C 0.0 **** -0.24
32027 H 107.59898475388155 87.36773885352673 35.332308344921074 H 0.0 **** 0.06
32028 H 107.35283609213764 86.49314019897953 36.8625854274168 H 0.0 **** 0.06
32029 H 108.18870603882965 88.06578948566677 36.859628566262415 H 0.0 **** 0.06
32030 H 108.98681935879193 86.63253288670698 36.16868456058356 H 0.0 **** 0.06
32031 C 59.67578517787581 139.71558241331616 108.03544024135022 C 0.0 **** -0.24
32032 H 58.91197918770706 139.33834428880826 108.71468633312895 H 0.0 **** 0.06
32033 H 59.36842517088576 139.5335771997674 107.00543178163758 H 0.0 **** 0.06
32034 H 60.61898417684199 139.20393521728602 108.2293224519675 H 0.0 **** 0.06
32035 H 59.80537759592352 140.78596448552528 108.19200482519653 H 0.0 **** 0.06
32036 C 86.42053416383311 10.519655707387443 150.0315395596717 C 0.0 **** -0.24
32037 H 85.52158254788152 9.948904555810657 150.2576401678478 H 0.0 **** 0.06
32038 H 86.2048936376395 11.241410755965461 149.24299067807956 H 0.0 **** 0.06
32039 H 87.20670525718187 9.841848251940462 149.69819204200158 H 0.0 **** 0.06
32040 H 86.75181417537293 11.046549454650403 150.92643062570914 H 0.0 **** 0.06
32041 C 49.43236393108975 109.6515812952673 14.66330733563499 C 0.0 **** -0.24
32042 H 50.45660225924496 109.40433554530665 14.382460570744044 H 0.0 **** 0.06
32043 H 49.43856565623537 110.21116511905484 15.599589359629313 H 0.0 **** 0.06
32044 H 48.85990323801755 108.7331969399873 14.792950726983506 H 0.0 **** 0.06
32045 H 48.97700034019621 110.25704072192337 13.880422720607058 H 0.0 **** 0.06
32046 C 96.48192002840244 96.24529253485503 22.434926468350255 C 0.0 **** -0.24
32047 H 97.40017606718554 95.80865272750306 22.042095700923454 H 0.0 **** 0.06
32048 H 96.16771710840328 97.06831542670201 21.793345363480483 H 0.0 **** 0.06
32049 H 96.65985661060687 96.61725312305003 23.443992066755598 H 0.0 **** 0.06
32050 H 95.70067107834905 95.48499611746395 22.461552701533094 H 0.0 **** 0.06
32051 C 145.44935780250933 107.10710850970072 35.726490921952916 C 0.0 **** -0.24
32052 H 145.39506225560382 108.11844160272217 36.12677803675868 H 0.0 **** 0.06
32053 H 144.67829629174608 106.97390556894256 34.96749776261217 H 0.0 **** 0.06
32054 H 145.29607026304456 106.3879624787753 36.53156012757162 H 0.0 **** 0.06
32055 H 146.43090929404758 106.94623897038723 35.278715076762865 H 0.0 **** 0.06
32056 C 36.19319626006671 106.05672672861759 135.22086783261233 C 0.0 **** -0.24
32057 H 35.943711668519825 107.00956771345695 134.75555403818038 H 0.0 **** 0.06
32058 H 37.22441681074389 105.79403416483741 134.9819508432575 H 0.0 **** 0.06
32059 H 35.5248738821154 105.28228549315303 134.84404099309535 H 0.0 **** 0.06
32060 H 36.07981026617108 106.13819448075155 136.30206167232015 H 0.0 **** 0.06
32061 C 86.27690875287746 142.67439936710082 80.44961849818077 C 0.0 **** -0.24
32062 H 86.20214904774826 143.29329948845947 79.55630665108507 H 0.0 **** 0.06
32063 H 87.31479419158157 142.63754048562907 80.77992700063137 H 0.0 **** 0.06
32064 H 85.93109646241936 141.66581926067994 80.22306935576185 H 0.0 **** 0.06
32065 H 85.6585349045715 143.1009737867844 81.24010605209213 H 0.0 **** 0.06
32066 C 77.73748349739196 102.98632894154484 47.49608013953136 C 0.0 **** -0.24
32067 H 78.65633557405869 103.06172325408686 48.077296132886744 H 0.0 **** 0.06
32068 H 77.66432196055297 101.98898939199661 47.06108848631911 H 0.0 **** 0.06
32069 H 77.74995191831096 103.73060340258961 46.699549810182646 H 0.0 **** 0.06
32070 H 76.88043193868583 103.16379304716419 48.14553113090665 H 0.0 **** 0.06
32071 C 138.023062241779 37.17873237714339 45.4900759281398 C 0.0 **** -0.24
32072 H 138.9827970389509 37.66347396231313 45.66719502372895 H 0.0 **** 0.06
32073 H 137.2172155753107 37.885417095441376 45.687621700790345 H 0.0 **** 0.06
32074 H 137.92306202759602 36.31900205731577 46.15306630485769 H 0.0 **** 0.06
32075 H 137.96947104106252 36.84591983179376 44.453236356451015 H 0.0 **** 0.06
32076 C 117.00861583580001 2.5532991848715767 68.7210806287047 C 0.0 **** -0.24
32077 H 117.27594502396244 1.4988462944942 68.64951454862157 H 0.0 **** 0.06
32078 H 116.98898474259175 2.8520414885359457 69.76882301786085 H 0.0 **** 0.06
32079 H 116.02489210618546 2.7092894274438493 68.27930792811287 H 0.0 **** 0.06
32080 H 117.74639693383443 3.1521945976579673 68.18618918520356 H 0.0 **** 0.06
32081 C 26.309228788044805 112.56070683110097 91.71697804582169 C 0.0 **** -0.24
32082 H 27.356452786346935 112.27572209898877 91.81586721526992 H 0.0 **** 0.06
32083 H 26.162071491101507 113.55500179063104 92.13943132205432 H 0.0 **** 0.06
32084 H 25.68568551242614 111.84274086770806 92.24997537436275 H 0.0 **** 0.06
32085 H 26.033642974676034 112.56906023110973 90.66281006393194 H 0.0 **** 0.06
32086 C 56.76955187134348 102.28796697476685 84.19247660875422 C 0.0 **** -0.24
32087 H 57.02518622282804 102.12583986850714 83.14517704467562 H 0.0 **** 0.06
32088 H 56.785201862327995 101.33526680046015 84.72125909433943 H 0.0 **** 0.06
32089 H 55.772946360838034 102.72526263595236 84.25819166949141 H 0.0 **** 0.06
32090 H 57.49452750241562 102.96603092244209 84.64252226593919 H 0.0 **** 0.06
32091 C 45.63716413954256 15.204703305137926 38.40234476647527 C 0.0 **** -0.24
32092 H 44.90322632284551 15.616628554429482 37.709695970788005 H 0.0 **** 0.06
32093 H 45.457271781354734 15.603006305140099 39.40074445226588 H 0.0 **** 0.06
32094 H 46.63990610791524 15.480907566702896 38.07610982296626 H 0.0 **** 0.06
32095 H 45.54743625980683 14.118522916968544 38.422308748745024 H 0.0 **** 0.06
32096 C 4.138106735900063 88.93618544290476 1.431309594325775 C 0.0 **** -0.24
32097 H 4.660039868853364 89.21316870426037 2.346956655636969 H 0.0 **** 0.06
32098 H 4.673711448926468 88.12369998532094 0.9405709201823562 H 0.0 **** 0.06
32099 H 4.092553526547761 89.79789305078779 0.7650143112590158 H 0.0 **** 0.06
32100 H 3.126631428992386 88.6113003127085 1.6736952644277032 H 0.0 **** 0.06
32101 C 143.96451470739217 61.60776459386909 145.3121098233479 C 0.0 **** -0.24
32102 H 143.54437101676365 61.93729303989761 146.26311077906928 H 0.0 **** 0.06
32103 H 145.04957093214236 61.54062609573833 145.39879858424416 H 0.0 **** 0.06
32104 H 143.7058005135433 62.324862903971535 144.53327579085055 H 0.0 **** 0.06
32105 H 143.55786654868356 60.62990844728168 145.05471498101028 H 0.0 **** 0.06
32106 C 108.2674936926488 105.71054081449711 131.26531119891823 C 0.0 **** -0.24
32107 H 107.50781164256787 105.56232883323054 132.03256725966517 H 0.0 **** 0.06
32108 H 109.1472881512739 105.11399384817724 131.50506708548593 H 0.0 **** 0.06
32109 H 108.54186904665292 106.76474964785172 131.22546914843 H 0.0 **** 0.06
32110 H 107.8716784423801 105.40127710153263 130.2976905369189 H 0.0 **** 0.06
32111 C 34.40773942153254 149.7041592191321 39.22782344479643 C 0.0 **** -0.24
32112 H 34.25046520718317 150.71474232272217 38.85071324812397 H 0.0 **** 0.06
32113 H 34.69272286899272 149.7490299489474 40.27844349827619 H 0.0 **** 0.06
32114 H 35.20045160326791 149.2231374652343 38.656027237656275 H 0.0 **** 0.06
32115 H 33.485743056827204 149.13144342531473 39.12421923283823 H 0.0 **** 0.06
32116 C 93.4156804553581 41.06642668264669 28.91664494240507 C 0.0 **** -0.24
32117 H 93.37818192284604 40.079461153525585 28.454399956034138 H 0.0 **** 0.06
32118 H 93.94236563716997 41.00090140665259 29.869338327264813 H 0.0 **** 0.06
32119 H 92.40117383084213 41.42653224918138 29.08608152457259 H 0.0 **** 0.06
32120 H 93.94089329917622 41.756381544981764 28.25647358128157 H 0.0 **** 0.06
32121 C 134.69334098607172 19.306730253638072 100.18952742712005 C 0.0 **** -0.24
32122 H 133.95203906066658 19.380611421420205 100.98624605520595 H 0.0 **** 0.06
32123 H 134.67117090889357 20.216162007416095 99.58880963298239 H 0.0 **** 0.06
32124 H 134.46381115168273 18.44833882453362 99.55819732877555 H 0.0 **** 0.06
32125 H 135.6840711622372 19.182136200574455 100.62571258883938 H 0.0 **** 0.06
32126 C 13.55309373071617 93.86749447900198 136.20263320045882 C 0.0 **** -0.24
32127 H 13.171966796964938 94.6839090071955 136.8158069524566 H 0.0 **** 0.06
32128 H 13.690893488432522 94.21604641023706 135.179366743698 H 0.0 **** 0.06
32129 H 12.84037457499835 93.04234372229467 136.21298445506469 H 0.0 **** 0.06
32130 H 14.508187540200282 93.52754630387432 136.60264885672368 H 0.0 **** 0.06
32131 C 50.025531880286394 146.2564247786291 33.33847535800399 C 0.0 **** -0.24
32132 H 50.04671749226566 145.644342912694 32.43716996090032 H 0.0 **** 0.06
32133 H 50.12159775957937 147.30751996866044 33.066668947260695 H 0.0 **** 0.06
32134 H 50.85254379935847 145.97151786484451 33.990232894196794 H 0.0 **** 0.06
32135 H 49.081257457106176 146.1001206379735 33.860911331861445 H 0.0 **** 0.06
32136 C 100.70740545277272 145.96187035079498 43.20392495299615 C 0.0 **** -0.24
32137 H 100.28453878516926 146.0580775291773 44.20347555699209 H 0.0 **** 0.06
32138 H 100.10019686561786 146.52815500469748 42.49653964969315 H 0.0 **** 0.06
32139 H 100.71807941214172 144.91110497015293 42.914443239991954 H 0.0 **** 0.06
32140 H 101.72585523534 146.34983743068253 43.20126851355843 H 0.0 **** 0.06
32141 C 0.7968936549049062 93.25637622023132 80.86183683959342 C 0.0 **** -0.24
32142 H 0.2002662065392613 92.50508957614838 81.37714594178863 H 0.0 **** 0.06
32143 H 1.8481145420936222 92.96664171217387 80.8881066587121 H 0.0 **** 0.06
32144 H 0.6732011102285149 94.22046523295083 81.35596035022633 H 0.0 **** 0.06
32145 H 0.467476646546352 93.33493670923664 79.82575133637118 H 0.0 **** 0.06
32146 C 19.529266552491215 34.1934635588093 17.928626275092938 C 0.0 **** -0.24
32147 H 19.301166160307517 34.93351800590932 17.162204671879664 H 0.0 **** 0.06
32148 H 19.084061150063917 33.236278405120856 17.652991918633404 H 0.0 **** 0.06
32149 H 19.12105538292549 34.522315325102625 18.884143218529772 H 0.0 **** 0.06
32150 H 20.610467419818562 34.08015545456641 18.014547648860344 H 0.0 **** 0.06
32151 C 20.593598810427793 85.36607119238825 62.24825502893627 C 0.0 **** -0.24
32152 H 20.156492621685175 84.9688306089537 61.331999828303594 H 0.0 **** 0.06
32153 H 19.828328031875387 85.42092601197248 63.022160093359346 H 0.0 **** 0.06
32154 H 20.990782872907026 86.36371763234841 62.05795020042868 H 0.0 **** 0.06
32155 H 21.400081596141703 84.71115323139767 62.57787368730804 H 0.0 **** 0.06
32156 C 124.601289195795 23.252975589353156 133.59582446537402 C 0.0 **** -0.24
32157 H 123.96036844973548 23.670439120738507 132.8192825928207 H 0.0 **** 0.06
32158 H 124.63712479919377 22.168208701301836 133.49248951000618 H 0.0 **** 0.06
32159 H 124.20097264431632 23.512197085623797 134.57600626583042 H 0.0 **** 0.06
32160 H 125.60708426053657 23.661734825693117 133.49434199778534 H 0.0 **** 0.06
32161 C 127.63248047217067 78.58156796906653 3.0698078374992477 C 0.0 **** -0.24
32162 H 127.25284891925679 79.58186946252928 2.8591034779714413 H 0.0 **** 0.06
32163 H 128.68931550905117 78.53155664707432 2.8077447624416507 H 0.0 **** 0.06
32164 H 127.07725626563898 77.85130005356419 2.481528721141565 H 0.0 **** 0.06
32165 H 127.50989309922686 78.36249984343254 4.130005902520924 H 0.0 **** 0.06
32166 C 103.40990834691574 34.00247858197079 59.91971859613251 C 0.0 **** -0.24
32167 H 102.66569898589375 34.742049596648535 60.21766939620127 H 0.0 **** 0.06
32168 H 104.30980518367598 34.13137824383569 60.52080014664364 H 0.0 **** 0.06
32169 H 103.65341419795537 34.13695930747037 58.8662722125611 H 0.0 **** 0.06
32170 H 103.00885266077732 33.001374915043414 60.075587902969545 H 0.0 **** 0.06
32171 C 103.62534547232217 57.512599434034996 88.97032114655882 C 0.0 **** -0.24
32172 H 103.77959463916604 56.56907174526293 88.44788824424542 H 0.0 **** 0.06
32173 H 104.47308619296221 57.70653080909446 89.62856869080277 H 0.0 **** 0.06
32174 H 102.71219863601472 57.456168548060106 89.56163818672205 H 0.0 **** 0.06
32175 H 103.53835460925173 58.31983549721501 88.24286047923873 H 0.0 **** 0.06
32176 C 2.46632307622664 52.2076418023735 111.333390305529 C 0.0 **** -0.24
32177 H 1.8510813425703105 52.613100738901835 112.13576745709862 H 0.0 **** 0.06
32178 H 3.4406243006310326 52.69698816470101 111.33993016488144 H 0.0 **** 0.06
32179 H 1.9772433185450708 52.38454594394639 110.37482343541943 H 0.0 **** 0.06
32180 H 2.5963433431600613 51.1359323619447 111.48304016471666 H 0.0 **** 0.06
32181 C 27.352073245995292 136.49432847446909 123.9665526189058 C 0.0 **** -0.24
32182 H 26.942728657674536 137.49808750574394 123.85701147619618 H 0.0 **** 0.06
32183 H 27.06779088716761 136.0894218560168 124.93783406954329 H 0.0 **** 0.06
32184 H 28.43905911243045 136.53535204154528 123.89404544292164 H 0.0 **** 0.06
32185 H 26.960200092879937 135.85388101375904 123.17663683158203 H 0.0 **** 0.06
32186 C 94.3188160823162 86.64813912887966 121.16815363230684 C 0.0 **** -0.24
32187 H 93.28607794138128 86.84390518731203 120.88154060629687 H 0.0 **** 0.06
32188 H 94.54124643992483 87.1649121272851 122.10202884236249 H 0.0 **** 0.06
32189 H 94.98772536785066 87.008048552803 120.38546907791523 H 0.0 **** 0.06
32190 H 94.46199304740017 85.57595398951648 121.30224638300696 H 0.0 **** 0.06
32191 C 100.13402336402957 32.095298005035204 42.45068432165857 C 0.0 **** -0.24
32192 H 99.67637422676538 32.63307514491737 43.28047795010281 H 0.0 **** 0.06
32193 H 99.86527695586324 31.040067243231988 42.5082683984956 H 0.0 **** 0.06
32194 H 101.21795477111517 32.19783739870013 42.50602757015622 H 0.0 **** 0.06
32195 H 99.77781629939105 32.51060004657751 41.50767358771287 H 0.0 **** 0.06
32196 C 82.0755870308852 119.44651592135821 26.739258632672822 C 0.0 **** -0.24
32197 H 83.12068639179714 119.57259870946248 27.021788161339003 H 0.0 **** 0.06
32198 H 81.8108456855467 120.19141765386112 25.98705851942993 H 0.0 **** 0.06
32199 H 81.44405217307522 119.57625298985991 27.61796534643507 H 0.0 **** 0.06
32200 H 81.92828671631665 118.44755875466129 26.32946885784135 H 0.0 **** 0.06
32201 C 97.76442627997157 31.02824671987691 62.88086346452883 C 0.0 **** -0.24
32202 H 96.91545087544532 31.681796432981997 63.08174657420514 H 0.0 **** 0.06
32203 H 98.06444067944189 31.132426313372527 61.83789775284079 H 0.0 **** 0.06
32204 H 97.48072838369973 29.99375051766515 63.077239726430435 H 0.0 **** 0.06
32205 H 98.59689458237075 31.305802646982897 63.52865337953571 H 0.0 **** 0.06
32206 C 116.52604089267264 141.5454581839208 7.9195206971037635 C 0.0 **** -0.24
32207 H 115.7892881869496 141.04640894661296 7.290148161958911 H 0.0 **** 0.06
32208 H 117.06198920388401 140.80265959274857 8.51097836282625 H 0.0 **** 0.06
32209 H 116.02040679806261 142.24532871190985 8.585904927997916 H 0.0 **** 0.06
32210 H 117.23247938179414 142.08743548441186 7.291051335632034 H 0.0 **** 0.06
32211 C 83.57322939931747 88.49769381639445 51.051464532288136 C 0.0 **** -0.24
32212 H 83.23374381978657 87.83702338823295 50.253934220063286 H 0.0 **** 0.06
32213 H 84.54083782354947 88.15496995135709 51.41894759012213 H 0.0 **** 0.06
32214 H 82.84925822240245 88.48382917681457 51.86623504795732 H 0.0 **** 0.06
32215 H 83.6677460584839 89.51289682990375 50.66674917394778 H 0.0 **** 0.06
32216 C 89.54987752195437 59.89211540634409 17.010777944845984 C 0.0 **** -0.24
32217 H 89.92888372164056 58.957665259455325 17.42247278644487 H 0.0 **** 0.06
32218 H 88.86564382930354 59.6758289638484 16.189692717739604 H 0.0 **** 0.06
32219 H 90.38296137917042 60.49075681054893 16.641839935381938 H 0.0 **** 0.06
32220 H 89.02253128589837 60.44436582825915 17.78826034491175 H 0.0 **** 0.06
32221 C 115.10753948719382 141.7649515572024 82.07309537763598 C 0.0 **** -0.24
32222 H 115.3969673682556 140.78715601087626 81.68808128123197 H 0.0 **** 0.06
32223 H 115.5083428639093 142.54450461577244 81.4239858153382 H 0.0 **** 0.06
32224 H 115.50535489720532 141.89078276216733 83.08015242501284 H 0.0 **** 0.06
32225 H 114.0208570156412 141.83764904729313 82.09992297596386 H 0.0 **** 0.06
32226 C 109.25974134364292 34.980755150668244 63.179010905783755 C 0.0 **** -0.24
32227 H 108.86095605631958 34.037377735048494 63.55246752054548 H 0.0 **** 0.06
32228 H 110.05315695917544 35.32743415303173 63.84206283366062 H 0.0 **** 0.06
32229 H 108.46249914449156 35.723529754191645 63.14649540780874 H 0.0 **** 0.06
32230 H 109.66138320027333 34.833785530736634 62.17682369573954 H 0.0 **** 0.06
32231 C 130.54663389772494 109.93582072676686 143.6542528636744 C 0.0 **** -0.24
32232 H 130.40309041513345 109.16231934776626 144.40856338417188 H 0.0 **** 0.06
32233 H 131.2734205416235 110.66404116593257 144.01387994953507 H 0.0 **** 0.06
32234 H 129.59706671936263 110.43399167997596 143.4602906616172 H 0.0 **** 0.06
32235 H 130.91360924730392 109.48076371582421 142.73333931914607 H 0.0 **** 0.06
32236 C 140.29182750012887 122.72212311871601 4.265833980496609 C 0.0 **** -0.24
32237 H 139.6397908151351 123.38338715457502 4.838030260841606 H 0.0 **** 0.06
32238 H 141.2871442671666 123.16245968190907 4.201361116112992 H 0.0 **** 0.06
32239 H 139.8863978420006 122.59019054423311 3.263534120717395 H 0.0 **** 0.06
32240 H 140.35434864393952 121.75395168379856 4.763819627923624 H 0.0 **** 0.06
32241 C 104.34200639467532 36.7321637034471 83.90811570960484 C 0.0 **** -0.24
32242 H 103.89608381625554 37.51167599237482 84.52486370015548 H 0.0 **** 0.06
32243 H 105.21187535006585 36.31868330820072 84.4184777840888 H 0.0 **** 0.06
32244 H 104.64966631577123 37.157268214254145 82.95203775201779 H 0.0 **** 0.06
32245 H 103.61137656756095 35.94265640964858 83.73645698485666 H 0.0 **** 0.06
32246 C 11.943092905579704 46.69882612946046 126.75656646375347 C 0.0 **** -0.24
32247 H 12.773061519163377 45.99384814979321 126.7280081119832 H 0.0 **** 0.06
32248 H 12.204227739535156 47.54165128632275 127.39774576319013 H 0.0 **** 0.06
32249 H 11.057858851604749 46.201794440316434 127.15236644526428 H 0.0 **** 0.06
32250 H 11.737167638863639 47.05867058976723 125.7488947895107 H 0.0 **** 0.06
32251 C 16.035044812409126 135.38313601919157 128.14856385209512 C 0.0 **** -0.24
32252 H 15.778171466977511 134.34683685121584 128.3698433821989 H 0.0 **** 0.06
32253 H 15.555316429601675 135.68517224061512 127.21825624862682 H 0.0 **** 0.06
32254 H 17.116294426936605 135.47493006829842 128.04810197052674 H 0.0 **** 0.06
32255 H 15.689921611053848 136.02264589408358 128.9608855703175 H 0.0 **** 0.06
32256 C 86.22688533933044 18.817631767705677 35.97458720238748 C 0.0 **** -0.24
32257 H 85.7722956477732 19.24121558836171 35.078873825817055 H 0.0 **** 0.06
32258 H 87.19249903659522 19.29166354950368 36.15009940860878 H 0.0 **** 0.06
32259 H 86.36691363835347 17.74576794130678 35.838578171743166 H 0.0 **** 0.06
32260 H 85.5745893974559 18.993435439746065 36.82978048112312 H 0.0 **** 0.06
32261 C 109.84197377965698 117.33928913728238 22.919405645803693 C 0.0 **** -0.24
32262 H 109.11860248803062 116.78815838053362 23.519483399584082 H 0.0 **** 0.06
32263 H 110.75899913083786 117.47743001510008 23.493323004254933 H 0.0 **** 0.06
32264 H 109.42811988676588 118.31222254272632 22.654994949964774 H 0.0 **** 0.06
32265 H 110.0624365092891 116.77830583895803 22.011181328642714 H 0.0 **** 0.06
32266 C 76.99280434078537 38.040587198691526 36.156957148282636 C 0.0 **** -0.24
32267 H 76.89689015985539 38.20512534523607 35.083268092868074 H 0.0 **** 0.06
32268 H 76.05472709838159 38.299303545229556 36.64883055763522 H 0.0 **** 0.06
32269 H 77.79462910112028 38.66547468718575 36.54938821072111 H 0.0 **** 0.06
32270 H 77.22455261996186 36.991984575846296 36.3439725581678 H 0.0 **** 0.06
32271 C 68.87712146775954 56.50309354167686 112.43985731867562 C 0.0 **** -0.24
32272 H 69.38168541799703 56.614412587358956 113.39966551709941 H 0.0 **** 0.06
32273 H 68.93714850724882 55.46295962821847 112.11665498637436 H 0.0 **** 0.06
32274 H 69.35889869268016 57.14263919629761 111.70065807325105 H 0.0 **** 0.06
32275 H 67.83144949117224 56.791623345773615 112.54444286007228 H 0.0 **** 0.06
32276 C 63.93997272678875 7.880739530434113 99.0294552120383 C 0.0 **** -0.24
32277 H 64.14686402489869 8.519208635344818 98.17024528542989 H 0.0 **** 0.06
32278 H 62.89866580876472 7.998870433928616 99.32792371720664 H 0.0 **** 0.06
32279 H 64.58928546881994 8.165636559939955 99.85765395067705 H 0.0 **** 0.06
32280 H 64.12707340382237 6.840192978033755 98.76232279305485 H 0.0 **** 0.06
32281 C 136.32185841072365 108.03008930489801 91.68663855689205 C 0.0 **** -0.24
32282 H 135.68079883322494 107.7902020616645 92.5350831465993 H 0.0 **** 0.06
32283 H 135.77608702792207 108.66451563896936 90.9878143081783 H 0.0 **** 0.06
32284 H 136.62012875168926 107.10934320213443 91.18453306106174 H 0.0 **** 0.06
32285 H 137.20950607867047 108.5555451163134 92.03834763779058 H 0.0 **** 0.06
32286 C 115.3804805737459 25.08286885780442 115.6619728910286 C 0.0 **** -0.24
32287 H 115.23313663102783 24.224129415717314 116.31548704397784 H 0.0 **** 0.06
32288 H 114.45191182178212 25.65084534308521 115.59421363136784 H 0.0 **** 0.06
32289 H 115.66844808125325 24.738652167741975 114.66848304172294 H 0.0 **** 0.06
32290 H 116.16673795487463 25.718936235506725 116.06747883789569 H 0.0 **** 0.06
32291 C 67.91704987795964 51.404065429049496 25.57573939104114 C 0.0 **** -0.24
32292 H 67.49352724781417 52.08787586665355 26.310809674328127 H 0.0 **** 0.06
32293 H 68.97974178093673 51.26646046727086 25.778538119250385 H 0.0 **** 0.06
32294 H 67.78813891766593 51.81875375207417 24.576543213315887 H 0.0 **** 0.06
32295 H 67.40733008180781 50.44199213780618 25.63914478184894 H 0.0 **** 0.06
32296 C 106.79890701308841 63.98902723226607 140.2921156164333 C 0.0 **** -0.24
32297 H 106.50627817468336 63.0082795933329 139.9156226455135 H 0.0 **** 0.06
32298 H 106.60877828794975 64.74207038812656 139.52770111051922 H 0.0 **** 0.06
32299 H 107.86130522689359 63.980993545650705 140.53756013487686 H 0.0 **** 0.06
32300 H 106.220488958462 64.2221794543712 141.18562445757624 H 0.0 **** 0.06
32301 C 45.542055575821934 6.555800551742152 58.79498881297759 C 0.0 **** -0.24
32302 H 45.49939508407424 7.17161930549554 59.69288401740762 H 0.0 **** 0.06
32303 H 45.883848617759156 7.160959266931911 57.95469305108652 H 0.0 **** 0.06
32304 H 44.5502594918448 6.159605983923996 58.578443541342054 H 0.0 **** 0.06
32305 H 46.235989710306626 5.729912429029525 58.95433981970589 H 0.0 **** 0.06
32306 C 125.19452836690209 81.86634222903899 109.06603798712686 C 0.0 **** -0.24
32307 H 125.92095892952644 82.66506405033734 108.91777957563735 H 0.0 **** 0.06
32308 H 124.27948820810387 82.28166577435087 109.48780371436206 H 0.0 **** 0.06
32309 H 125.60702446596987 81.12422104913942 109.75006549495996 H 0.0 **** 0.06
32310 H 124.9734163862026 81.39466976222425 108.1089919953101 H 0.0 **** 0.06
32311 C 93.37777411779899 76.12867014396585 51.44991177872184 C 0.0 **** -0.24
32312 H 93.68264603441666 76.90026217034148 50.74353559533252 H 0.0 **** 0.06
32313 H 92.33658294756617 75.8612528204091 51.269062634623026 H 0.0 **** 0.06
32314 H 93.48507666215899 76.50296678258655 52.4672271756796 H 0.0 **** 0.06
32315 H 94.0072826656842 75.24795137784452 51.31898064048772 H 0.0 **** 0.06
32316 C 148.7636163234252 121.63126224287824 43.92306238163937 C 0.0 **** -0.24
32317 H 149.2072467616394 121.26486411702358 42.99754527518783 H 0.0 **** 0.06
32318 H 147.8357778237002 121.09327982359319 44.11860044657553 H 0.0 **** 0.06
32319 H 148.55300928496774 122.69628608382236 43.82782918074494 H 0.0 **** 0.06
32320 H 149.4581112985261 121.47041470314495 44.74734950725278 H 0.0 **** 0.06
32321 C 38.99929032716918 129.92001800616 107.24255640523548 C 0.0 **** -0.24
32322 H 38.56473674765925 129.96275734124933 106.2436985426546 H 0.0 **** 0.06
32323 H 39.88332026531762 129.28212029245734 107.22655390274984 H 0.0 **** 0.06
32324 H 38.26815472458637 129.5105217213226 107.93979023778046 H 0.0 **** 0.06
32325 H 39.28074593045537 130.9240855948219 107.55939941349145 H 0.0 **** 0.06
32326 C 46.94324776376749 27.391411988766876 39.16550759415968 C 0.0 **** -0.24
32327 H 47.44964602981571 26.442308027423223 38.98641266211277 H 0.0 **** 0.06
32328 H 46.219383875907454 27.270177109340608 39.97106121802712 H 0.0 **** 0.06
32329 H 46.428662007945434 27.70481507990445 38.25748090666573 H 0.0 **** 0.06
32330 H 47.67685271121837 28.14707736567763 39.446089305403746 H 0.0 **** 0.06
32331 C 103.07261856595812 108.58295840856725 9.852429944414865 C 0.0 **** -0.24
32332 H 102.6608902556199 108.49350535921822 8.846568384755528 H 0.0 **** 0.06
32333 H 104.08864082230798 108.97334976828391 9.795413812957435 H 0.0 **** 0.06
32334 H 103.08575400554713 107.60211507177486 10.327938410250482 H 0.0 **** 0.06
32335 H 102.45422273493023 109.26246179001838 10.438419034067294 H 0.0 **** 0.06
32336 C 50.375412498789586 4.243772842704402 140.40115089449316 C 0.0 **** -0.24
32337 H 49.73023443894178 5.120426258892053 140.4660629514307 H 0.0 **** 0.06
32338 H 50.576838702780606 3.8676077926728567 141.40473490457973 H 0.0 **** 0.06
32339 H 51.312937564368866 4.518403541410692 139.92019546385396 H 0.0 **** 0.06
32340 H 49.87879414686435 3.4702064404611974 139.81547972783133 H 0.0 **** 0.06
32341 C 66.71673617931953 141.11066653139193 146.80975104144113 C 0.0 **** -0.24
32342 H 67.40207750050473 140.8699086702008 145.99599710228313 H 0.0 **** 0.06
32343 H 67.09246523818064 141.97692902499523 147.3553823216095 H 0.0 **** 0.06
32344 H 66.64458064339021 140.25921010809884 147.48601947954046 H 0.0 **** 0.06
32345 H 65.73314013116533 141.33628680138645 146.40082965622997 H 0.0 **** 0.06
32346 C 74.5792635470479 81.32002522352096 97.0695307081782 C 0.0 **** -0.24
32347 H 73.7254762821117 80.94469753742185 97.63252348764678 H 0.0 **** 0.06
32348 H 74.48616623657439 82.39915998848711 96.94441252003497 H 0.0 **** 0.06
32349 H 74.60654789598543 80.84079945722792 96.09041848373528 H 0.0 **** 0.06
32350 H 75.4987352813618 81.09452002639888 97.6097053265695 H 0.0 **** 0.06
32351 C 33.09522559314027 50.37465366793597 67.52784037744671 C 0.0 **** -0.24
32352 H 34.08776942571555 50.2300954347111 67.95318741166578 H 0.0 **** 0.06
32353 H 33.18224845608711 50.5479143081069 66.45542616663339 H 0.0 **** 0.06
32354 H 32.620114312748456 51.23559757619448 67.99830753761596 H 0.0 **** 0.06
32355 H 32.49080276551709 49.48419626008156 67.7050244344251 H 0.0 **** 0.06
32356 C 31.916808171767016 112.72985485825426 135.511326380048 C 0.0 **** -0.24
32357 H 31.785016898333573 113.6695635500176 136.04928658444658 H 0.0 **** 0.06
32358 H 31.039548567617366 112.5390052159925 134.89343199291423 H 0.0 **** 0.06
32359 H 32.04188653009685 111.91677496577263 136.2270819326444 H 0.0 **** 0.06
32360 H 32.80167432264478 112.79551415034324 134.87727489896386 H 0.0 **** 0.06
32361 C 99.50281958404744 92.79662555935306 0.28740534926990335 C 0.0 **** -0.24
32362 H 100.04957390420915 91.92124803871366 0.6387590377508161 H 0.0 **** 0.06
32363 H 98.86391881119496 93.17047909000324 1.0872952242670806 H 0.0 **** 0.06
32364 H 98.88949174281706 92.5214671040529 -0.5695953523606079 H 0.0 **** 0.06
32365 H 100.20997481995735 93.57287931792604 -0.005842119121552969 H 0.0 **** 0.06
32366 C 103.69937494767863 17.200840216130466 88.65432061565919 C 0.0 **** -0.24
32367 H 104.3406281089532 16.326877950273648 88.54129932009451 H 0.0 **** 0.06
32368 H 102.76063928649535 16.904730860064838 89.12248628153777 H 0.0 **** 0.06
32369 H 103.49728473191969 17.63237950319276 87.67382794144501 H 0.0 **** 0.06
32370 H 104.19986211038118 17.939983441845527 89.28055811705444 H 0.0 **** 0.06
32371 C 127.88870449249447 36.139220503555634 42.893006465648014 C 0.0 **** -0.24
32372 H 128.54265666416734 36.289051079683816 43.75200928004503 H 0.0 **** 0.06
32373 H 127.84510868575137 35.07731362668869 42.651234526712855 H 0.0 **** 0.06
32374 H 128.27931884162552 36.69101655028493 42.038566297445655 H 0.0 **** 0.06
32375 H 126.8874898784388 36.49894113025255 43.13183669634691 H 0.0 **** 0.06
32376 C 122.18217884482321 13.41451501554829 71.1935878255843 C 0.0 **** -0.24
32377 H 121.29341491351805 13.646147704376858 71.78080283356584 H 0.0 **** 0.06
32378 H 122.03479610017017 12.472235788392993 70.66700675460584 H 0.0 **** 0.06
32379 H 123.04242137882328 13.329482512827894 71.85787673519114 H 0.0 **** 0.06
32380 H 122.35825268178827 14.21217722884279 70.47183337665298 H 0.0 **** 0.06
32381 C 51.867793981488504 90.22259672903029 16.477885396681586 C 0.0 **** -0.24
32382 H 51.78707582946747 89.26189873185619 16.987372841010057 H 0.0 **** 0.06
32383 H 51.080351562326825 90.30209727527331 15.72754238788309 H 0.0 **** 0.06
32384 H 52.841280443917455 90.2946457096575 15.991780907480631 H 0.0 **** 0.06
32385 H 51.762855290448215 91.02826121024472 17.20353686010563 H 0.0 **** 0.06
32386 C 83.25135513644747 117.0283091057414 138.70509255128562 C 0.0 **** -0.24
32387 H 84.32416998857184 117.14963231528854 138.55374040472142 H 0.0 **** 0.06
32388 H 82.77363180277109 118.00857191525121 138.7173713030568 H 0.0 **** 0.06
32389 H 83.07397941826224 116.52541538510839 139.65608322823616 H 0.0 **** 0.06
32390 H 82.83505804464218 116.43101569652582 137.89460025856621 H 0.0 **** 0.06
32391 C 75.63011246525286 21.887117975970853 139.16350140493986 C 0.0 **** -0.24
32392 H 75.92433923332206 20.989951005805892 138.61929601791246 H 0.0 **** 0.06
32393 H 75.38449061940936 22.678240113051004 138.4541374614646 H 0.0 **** 0.06
32394 H 76.45278474609759 22.212906584115444 139.79971329563 H 0.0 **** 0.06
32395 H 74.7580585192764 21.667995102213126 139.78075306842115 H 0.0 **** 0.06
32396 C 113.6864264551344 91.1215542249307 4.733922415061386 C 0.0 **** -0.24
32397 H 113.52255460388379 92.08123828899373 5.22404178404534 H 0.0 **** 0.06
32398 H 113.749577509031 90.33544186132075 5.486791463692498 H 0.0 **** 0.06
32399 H 114.61718881015376 91.15738531697224 4.167164017519383 H 0.0 **** 0.06
32400 H 112.85722252110669 90.9117725353382 4.058085917835939 H 0.0 **** 0.06
32401 C 48.704099571638594 127.44793694448772 0.9979558906904913 C 0.0 **** -0.24
32402 H 48.3030941715606 127.14269354345379 0.031356373870380594 H 0.0 **** 0.06
32403 H 48.20822257533467 126.88577700871387 1.7898799589823398 H 0.0 **** 0.06
32404 H 48.52918599480367 128.51362911510793 1.14458777867452 H 0.0 **** 0.06
32405 H 49.775578919161134 127.24890826086104 1.026593090032918 H 0.0 **** 0.06
32406 C 101.70311507741886 128.0722118886162 123.84921635449773 C 0.0 **** -0.24
32407 H 101.3376295271311 127.16241360071236 124.32631372611384 H 0.0 **** 0.06
32408 H 102.23549822951904 128.67827401161452 124.5818699868265 H 0.0 **** 0.06
32409 H 100.86031229739885 128.6374186964002 123.45191268643028 H 0.0 **** 0.06
32410 H 102.37858430752496 127.80858017740043 123.03499700685403 H 0.0 **** 0.06
32411 C 44.60035182510474 50.02203806791658 26.9397144127488 C 0.0 **** -0.24
32412 H 43.7555054506782 49.33394343608043 26.980468481960372 H 0.0 **** 0.06
32413 H 45.18214393398006 49.93799280005568 27.85747190169627 H 0.0 **** 0.06
32414 H 44.23284621970858 51.0423617453544 26.833810310280967 H 0.0 **** 0.06
32415 H 45.23036761022426 49.7718922493891 26.086182538556045 H 0.0 **** 0.06
32416 C 46.744615605135934 93.91384916987656 29.726193879222464 C 0.0 **** -0.24
32417 H 47.142860689563406 93.19426085347281 29.0116311099691 H 0.0 **** 0.06
32418 H 47.18974994783504 93.7374067024003 30.705626354293145 H 0.0 **** 0.06
32419 H 45.662551553130456 93.79946504888885 29.79339623849841 H 0.0 **** 0.06
32420 H 46.98245839963991 94.92477220007217 29.394303931869914 H 0.0 **** 0.06
32421 C 19.293390550835596 126.31925103433264 124.26537686246805 C 0.0 **** -0.24
32422 H 18.866854455526124 127.21083246869742 124.72492227526804 H 0.0 **** 0.06
32423 H 19.831496945308402 125.74403917813862 125.01872028147518 H 0.0 **** 0.06
32424 H 19.98122041929085 126.61370912986331 123.47247901257133 H 0.0 **** 0.06
32425 H 18.49336256932773 125.71003710103966 123.84534343746647 H 0.0 **** 0.06
32426 C 62.88897685454168 104.21719731915388 41.05433099693823 C 0.0 **** -0.24
32427 H 62.22154729411943 103.9294021811356 40.24085125230863 H 0.0 **** 0.06
32428 H 63.72216218331954 104.79391995543418 40.65217343039819 H 0.0 **** 0.06
32429 H 63.26883764068458 103.32194449745182 41.54674104668612 H 0.0 **** 0.06
32430 H 62.3408462627462 104.82359314990296 41.77564122648903 H 0.0 **** 0.06
32431 C 32.74977729995712 69.95533749167924 9.64274625159257 C 0.0 **** -0.24
32432 H 33.38363799587469 70.22277830934786 8.797033814245083 H 0.0 **** 0.06
32433 H 31.75389477373639 70.37273964290094 9.495359318097002 H 0.0 **** 0.06
32434 H 33.180318150463364 70.35683270913694 10.560082421646769 H 0.0 **** 0.06
32435 H 32.68309249791818 68.86937931541277 9.717288215685215 H 0.0 **** 0.06
32436 C 107.61403663690395 21.675326413737338 106.16727979386665 C 0.0 **** -0.24
32437 H 107.7130840191631 20.94237300108861 105.3663425863722 H 0.0 **** 0.06
32438 H 106.56098468176289 21.922886986715383 106.30512342463798 H 0.0 **** 0.06
32439 H 108.16898015126482 22.576465464009317 105.90571029313092 H 0.0 **** 0.06
32440 H 108.0130142700721 21.258169511859847 107.09188752211735 H 0.0 **** 0.06
32441 C 126.90047194863035 9.701877561957488 64.10537111186916 C 0.0 **** -0.24
32442 H 126.1559107151528 9.068961489480387 63.62371848177682 H 0.0 **** 0.06
32443 H 126.67929109028483 10.747875572114467 63.89263728487036 H 0.0 **** 0.06
32444 H 127.89011155799047 9.453920182342344 63.720087956956704 H 0.0 **** 0.06
32445 H 126.87704461794489 9.535415194526074 65.18221414353093 H 0.0 **** 0.06
32446 C 87.93035326533382 28.648628585217352 124.51024627792728 C 0.0 **** -0.24
32447 H 87.20159088893345 28.810153587717366 125.30455953892007 H 0.0 **** 0.06
32448 H 87.7319110938 27.691895370476914 124.02546611784297 H 0.0 **** 0.06
32449 H 88.93415232661627 28.640533431536085 124.93505611559047 H 0.0 **** 0.06
32450 H 87.85191010586382 29.451180226250642 123.77691210107795 H 0.0 **** 0.06
32451 C 85.46549376028398 129.2637084822137 49.85084504784207 C 0.0 **** -0.24
32452 H 86.44732034664113 129.66037637870045 50.11163934091056 H 0.0 **** 0.06
32453 H 85.28890219313305 128.3416224389213 50.40536940344384 H 0.0 **** 0.06
32454 H 85.42996392790886 129.0572441721993 48.78089989772579 H 0.0 **** 0.06
32455 H 84.69864075166797 129.99444562245378 50.10621565638225 H 0.0 **** 0.06
32456 C 45.27894346670294 134.2685719938958 105.36346135584554 C 0.0 **** -0.24
32457 H 44.81097558554322 133.31706390464075 105.10932372992957 H 0.0 **** 0.06
32458 H 44.57196111196683 134.8833170456062 105.92009133687824 H 0.0 **** 0.06
32459 H 45.569582610197216 134.78536040763328 104.44895815824472 H 0.0 **** 0.06
32460 H 46.16248771761809 134.0872601489323 105.97460210520907 H 0.0 **** 0.06
32461 C 134.41378653976605 66.10912307615584 133.79421525377353 C 0.0 **** -0.24
32462 H 134.9908176326876 65.7261438644758 134.6349235644537 H 0.0 **** 0.06
32463 H 135.03087435380684 66.79397606986944 133.21188500320608 H 0.0 **** 0.06
32464 H 133.53634224129473 66.63746772165771 134.1662957562317 H 0.0 **** 0.06
32465 H 134.097245563552 65.27890859672382 133.1623487849459 H 0.0 **** 0.06
32466 C 110.96836184709088 99.4398575264276 83.8020490722499 C 0.0 **** -0.24
32467 H 111.58179775070914 100.32736662687893 83.64921764774513 H 0.0 **** 0.06
32468 H 110.01343627200862 99.56599773411301 83.2898993377469 H 0.0 **** 0.06
32469 H 110.7929117060715 99.29929740735139 84.86799913514167 H 0.0 **** 0.06
32470 H 111.48440966260983 98.56837468251138 83.39946022506541 H 0.0 **** 0.06
32471 C 59.654058496393375 86.00286714870015 27.78182884435853 C 0.0 **** -0.24
32472 H 60.164578496593975 86.62818843852585 27.04894609645487 H 0.0 **** 0.06
32473 H 58.579895338521695 86.03690508175407 27.601905566790776 H 0.0 **** 0.06
32474 H 59.86703709617322 86.37320632263905 28.784580305594375 H 0.0 **** 0.06
32475 H 60.007279579209225 84.9758228143109 27.691234836826254 H 0.0 **** 0.06
32476 C 63.519198401965596 82.86784664145944 76.45679402196853 C 0.0 **** -0.24
32477 H 62.657815520298485 82.21335935107658 76.32034464416833 H 0.0 **** 0.06
32478 H 63.568723971582756 83.57922040403093 75.63083871632722 H 0.0 **** 0.06
32479 H 64.42970361659602 82.26988807869228 76.47647277386866 H 0.0 **** 0.06
32480 H 63.41885391034886 83.40880955726595 77.39806742140561 H 0.0 **** 0.06
32481 C 81.05476644772713 105.93978083514203 85.52082154712818 C 0.0 **** -0.24
32482 H 80.89445661700174 106.86841904683145 86.0681644900679 H 0.0 **** 0.06
32483 H 81.88196573581897 105.39057868995012 85.97185466063178 H 0.0 **** 0.06
32484 H 81.29270657064083 106.16767000023499 84.48194835987172 H 0.0 **** 0.06
32485 H 80.14973837802458 105.33328804482862 85.56183605601389 H 0.0 **** 0.06
32486 C 104.65503409370781 11.19418268561546 113.35852223534752 C 0.0 **** -0.24
32487 H 104.61733727464913 11.080125904524486 114.44150305420706 H 0.0 **** 0.06
32488 H 105.45726112185274 11.882240352258322 113.0931754797854 H 0.0 **** 0.06
32489 H 103.70332872168932 11.587513299889693 113.0011745081139 H 0.0 **** 0.06
32490 H 104.841925194045 10.223126546696065 112.89845242751457 H 0.0 **** 0.06
32491 C 30.481314893130303 29.2335576702001 18.53146466218263 C 0.0 **** -0.24
32492 H 29.62628799134447 28.691352037455744 18.128558337198086 H 0.0 **** 0.06
32493 H 30.492337555597658 30.24690375486233 18.127549111776375 H 0.0 **** 0.06
32494 H 31.401847991867896 28.72103334764475 18.251239512706974 H 0.0 **** 0.06
32495 H 30.40590044094685 29.27621478832151 19.61814148823865 H 0.0 **** 0.06
32496 C 24.55489750766145 145.15781455385977 12.001438948485685 C 0.0 **** -0.24
32497 H 25.092768500751248 145.07261537141176 11.056675795190557 H 0.0 **** 0.06
32498 H 24.98138041578281 144.46263161130696 12.725468323660579 H 0.0 **** 0.06
32499 H 23.50357275725085 144.9183098682127 11.843352765024463 H 0.0 **** 0.06
32500 H 24.64353746897487 146.17587365630501 12.378563658792842 H 0.0 **** 0.06
32501 C 20.086576615807957 9.156909897404141 106.55509712050514 C 0.0 **** -0.24
32502 H 19.454372947063945 8.709090661050112 107.32103438415953 H 0.0 **** 0.06
32503 H 21.07736247874857 8.702240840465905 106.58973756288617 H 0.0 **** 0.06
32504 H 20.17210649825111 10.228811524303929 106.73486375680056 H 0.0 **** 0.06
32505 H 19.64340211192649 8.98804310971964 105.57384596061917 H 0.0 **** 0.06
32506 C 1.1225275707166702 134.8326891094757 131.028266893549 C 0.0 **** -0.24
32507 H 1.2273791487036192 133.74917187868624 130.96947017619007 H 0.0 **** 0.06
32508 H 2.0595854026745997 135.3044151977733 130.73002093131893 H 0.0 **** 0.06
32509 H 0.880975308538666 135.11899570539512 132.05123584382235 H 0.0 **** 0.06
32510 H 0.3231420982929194 135.15648905184887 130.36123692964574 H 0.0 **** 0.06
32511 C 102.78718920135572 87.49541187640602 100.80855800303969 C 0.0 **** -0.24
32512 H 102.08417512311308 87.98259326808666 101.48447293354012 H 0.0 **** 0.06
32513 H 102.34127197471639 87.41614835581258 99.81705328354093 H 0.0 **** 0.06
32514 H 103.02032867686756 86.49863448907924 101.18374906127016 H 0.0 **** 0.06
32515 H 103.70223051997283 88.08499524091572 100.74991216590507 H 0.0 **** 0.06
32516 C 14.434699303304626 2.40611498296812 118.73048079191032 C 0.0 **** -0.24
32517 H 14.91501934955312 3.311500700047219 118.3586382688557 H 0.0 **** 0.06
32518 H 14.39884512360959 1.6620085731314589 117.9351458991435 H 0.0 **** 0.06
32519 H 13.421674218523037 2.64002020436439 119.05737373658901 H 0.0 **** 0.06
32520 H 15.005893754805925 2.012433111752415 119.57165853360091 H 0.0 **** 0.06
32521 C 137.52503892088507 73.06649544376343 106.73643119425793 C 0.0 **** -0.24
32522 H 136.8797892521203 72.61026918634896 107.48651913229781 H 0.0 **** 0.06
32523 H 138.33031119445678 73.60991550104818 107.23067676928883 H 0.0 **** 0.06
32524 H 136.94128866643211 73.75730875958385 106.12787462739124 H 0.0 **** 0.06
32525 H 137.9474712438546 72.2891266231607 106.09894694281297 H 0.0 **** 0.06
32526 C 102.58578095636629 32.9983720320933 55.55250625566836 C 0.0 **** -0.24
32527 H 102.8548258018868 32.029378471219786 55.13297460502906 H 0.0 **** 0.06
32528 H 101.58330015237476 33.271790020437265 55.22315791670857 H 0.0 **** 0.06
32529 H 103.29800124866166 33.75081563364432 55.21278373296465 H 0.0 **** 0.06
32530 H 102.60902441996663 32.942353305361735 56.640700226385746 H 0.0 **** 0.06
32531 C 146.0863516443255 64.45117757966446 83.0457792359038 C 0.0 **** -0.24
32532 H 146.97196156556637 64.7618407925956 82.49163493020585 H 0.0 **** 0.06
32533 H 145.74905479214033 63.48178383556507 82.67698371345662 H 0.0 **** 0.06
32534 H 145.29476418239065 65.18836196645255 82.90805128930114 H 0.0 **** 0.06
32535 H 146.32963210038264 64.37291164892694 84.10546482733 H 0.0 **** 0.06
32536 C 19.232568440602392 81.04831451159477 31.489796117242733 C 0.0 **** -0.24
32537 H 18.59268494981609 80.1677058445382 31.429009636293216 H 0.0 **** 0.06
32538 H 20.16990659196074 80.78301877034671 31.980497558548507 H 0.0 **** 0.06
32539 H 18.728208835973817 81.82410263123401 32.065896513777574 H 0.0 **** 0.06
32540 H 19.44011319847192 81.41663547472987 30.485319481940323 H 0.0 **** 0.06
32541 C 136.44638481128842 36.950964049986226 146.14901428972755 C 0.0 **** -0.24
32542 H 135.49481108740653 36.56141902866963 146.5096353902967 H 0.0 **** 0.06
32543 H 136.82271371115624 36.31012775494699 145.35189957367209 H 0.0 **** 0.06
32544 H 137.1643042048544 36.97314562035527 146.96789715449054 H 0.0 **** 0.06
32545 H 136.30215949047468 37.96196697770395 145.76497040498725 H 0.0 **** 0.06
32546 C 107.69391045027949 13.878198818545457 9.15863484502919 C 0.0 **** -0.24
32547 H 108.61135795022314 14.439996933356952 9.33485759312407 H 0.0 **** 0.06
32548 H 106.93217277384296 14.544659022076814 8.754190795836898 H 0.0 **** 0.06
32549 H 107.34280715860517 13.450780892557361 10.097474475823809 H 0.0 **** 0.06
32550 H 107.89215723849794 13.076668359824907 8.446472891121772 H 0.0 **** 0.06
32551 C 21.344604225990366 124.96700951378922 52.47198417710294 C 0.0 **** -0.24
32552 H 20.676624322469564 125.02128411324013 51.61182742781426 H 0.0 **** 0.06
32553 H 22.13123635290779 124.2378996263078 52.27528850260302 H 0.0 **** 0.06
32554 H 20.778721071663483 124.66288790827547 53.35259691360878 H 0.0 **** 0.06
32555 H 21.790834112471458 125.94573123971381 52.64725294760083 H 0.0 **** 0.06
32556 C 142.02232648891288 67.09452969972521 101.11049075818093 C 0.0 **** -0.24
32557 H 141.32710339061236 66.97792121430753 100.27883469582537 H 0.0 **** 0.06
32558 H 141.97827445840323 68.11948970041716 101.47945270485764 H 0.0 **** 0.06
32559 H 143.03384358498957 66.87340650199964 100.77031555667918 H 0.0 **** 0.06
32560 H 141.7498851171942 66.40718310858902 101.91113601775754 H 0.0 **** 0.06
32561 C 121.929837702088 20.58561335634927 127.60918390812168 C 0.0 **** -0.24
32562 H 121.6454709751573 20.892766795461235 128.61511272094867 H 0.0 **** 0.06
32563 H 121.5545360959671 21.311780705771667 126.8880915629218 H 0.0 **** 0.06
32564 H 121.504429868723 19.605748915386933 127.39423668836473 H 0.0 **** 0.06
32565 H 123.01692542894703 20.5331248806299 127.5391641548249 H 0.0 **** 0.06
32566 C 135.87298450115884 6.061697290998467 119.67079836965964 C 0.0 **** -0.24
32567 H 136.00955856109152 6.696648887168351 120.54587120138463 H 0.0 **** 0.06
32568 H 136.5580232534969 5.215180344547264 119.72712318858645 H 0.0 **** 0.06
32569 H 136.07919888893719 6.636815159519614 118.76856141713218 H 0.0 **** 0.06
32570 H 134.8463692348813 5.69765374989683 119.6434515888668 H 0.0 **** 0.06
32571 C 139.84075075851788 125.47429591655194 10.702107361077424 C 0.0 **** -0.24
32572 H 139.00846774172905 124.78945289338664 10.864303211780367 H 0.0 **** 0.06
32573 H 140.7441127125285 125.06224693078165 11.152984655854851 H 0.0 **** 0.06
32574 H 139.61233712221085 126.43792719417223 11.15930700781658 H 0.0 **** 0.06
32575 H 139.9969094409735 125.60942723397827 9.6314909477139 H 0.0 **** 0.06
32576 C 31.472642448930223 145.86555583505395 21.014335692687148 C 0.0 **** -0.24
32577 H 32.47404029030306 146.07442601859782 20.638785336558094 H 0.0 **** 0.06
32578 H 31.30043359809438 146.4369899902464 21.926901653809296 H 0.0 **** 0.06
32579 H 31.380082240261494 144.80074394086483 21.229383922251685 H 0.0 **** 0.06
32580 H 30.736267079420543 146.14936281419494 20.263473959709813 H 0.0 **** 0.06
32581 C 2.727725386228993 146.73320832389368 124.17080086451274 C 0.0 **** -0.24
32582 H 3.6778739921414854 146.29875377693193 124.48190111336017 H 0.0 **** 0.06
32583 H 2.5416650112054384 146.48848317151814 123.12453863183227 H 0.0 **** 0.06
32584 H 2.767545825605623 147.81618852617981 124.28887163837213 H 0.0 **** 0.06
32585 H 1.924650953265946 146.32908014535477 124.7874485506071 H 0.0 **** 0.06
32586 C 120.28735085814705 123.5440151429125 20.01535872477666 C 0.0 **** -0.24
32587 H 120.97122948605752 122.81454346268121 20.450115668871945 H 0.0 **** 0.06
32588 H 119.28902960295775 123.11182641982897 19.950643617359503 H 0.0 **** 0.06
32589 H 120.63245930050189 123.81384993179996 19.017428957002664 H 0.0 **** 0.06
32590 H 120.25894509265882 124.43489654258259 20.643275878419104 H 0.0 **** 0.06
32591 C 113.35014046152939 123.53307393646195 76.38018587418553 C 0.0 **** -0.24
32592 H 112.2695103445072 123.4633603534205 76.5073553497223 H 0.0 **** 0.06
32593 H 113.84556166547672 122.98717840182134 77.184248961059 H 0.0 **** 0.06
32594 H 113.65286046128283 124.57981907096017 76.41061142097924 H 0.0 **** 0.06
32595 H 113.63161076309238 123.10063717062265 75.42003463759264 H 0.0 **** 0.06
32596 C 52.133245891336315 53.53658350314021 0.4975514163109338 C 0.0 **** -0.24
32597 H 52.233582250447824 53.29339903951808 1.5560151466392682 H 0.0 **** 0.06
32598 H 51.11442086295179 53.870348835346306 0.297797086499088 H 0.0 **** 0.06
32599 H 52.35012536919973 52.65202831041938 -0.10012561620636262 H 0.0 **** 0.06
32600 H 52.83415605168332 54.33078570146591 0.2408155729931849 H 0.0 **** 0.06
32601 C 20.36984060835195 60.50975585999656 79.04647174041295 C 0.0 **** -0.24
32602 H 20.171489040053444 59.623921319426074 78.44238951321339 H 0.0 **** 0.06
32603 H 19.437179347032128 61.04697659647417 79.2202024386169 H 0.0 **** 0.06
32604 H 21.070268236683006 61.15850333890528 78.51996499690028 H 0.0 **** 0.06
32605 H 20.80043470083703 60.20958287062322 80.0019163479987 H 0.0 **** 0.06
32606 C 36.94086902322741 11.870220907901938 79.31296796343725 C 0.0 **** -0.24
32607 H 36.57484404330209 12.882338585929546 79.4848283599843 H 0.0 **** 0.06
32608 H 36.53488347916319 11.203189925948976 80.07372213228692 H 0.0 **** 0.06
32609 H 38.0303206589166 11.864659887830811 79.36744509772794 H 0.0 **** 0.06
32610 H 36.62477367587776 11.532408546530974 78.32637990477983 H 0.0 **** 0.06
32611 C 104.41319217334949 121.15254079614137 72.77124163197298 C 0.0 **** -0.24
32612 H 105.15882427886534 121.10268283931582 71.97824705352481 H 0.0 **** 0.06
32613 H 104.5784917123399 122.04977903068614 73.36921250370746 H 0.0 **** 0.06
32614 H 104.4988529201987 120.27196934197885 73.4074268340233 H 0.0 **** 0.06
32615 H 103.41709716335644 121.18768738565002 72.3310440632559 H 0.0 **** 0.06
32616 C 7.850158108900104 96.52512047332696 103.60969707871976 C 0.0 **** -0.24
32617 H 8.867257270405503 96.40795246930095 103.98492830300717 H 0.0 **** 0.06
32618 H 7.608537987073248 97.58664172287918 103.54201474070442 H 0.0 **** 0.06
32619 H 7.153309938835491 96.0359579996268 104.28997361768069 H 0.0 **** 0.06
32620 H 7.773692565924165 96.07200587249262 102.6218369552227 H 0.0 **** 0.06
32621 C 73.41355194434018 78.49501966506186 128.8424552942532 C 0.0 **** -0.24
32622 H 72.97474505429409 78.92877702983262 129.74083079118103 H 0.0 **** 0.06
32623 H 73.86558607914648 77.53331216142931 129.08592462790998 H 0.0 **** 0.06
32624 H 74.17745751311246 79.16758739757822 128.45028891489173 H 0.0 **** 0.06
32625 H 72.63665937496793 78.35265060830821 128.09183525705365 H 0.0 **** 0.06
32626 C 55.60346642324993 50.77513155729089 51.95651902000219 C 0.0 **** -0.24
32627 H 55.00868169398257 50.30713944302008 51.170939579688536 H 0.0 **** 0.06
32628 H 55.08897232676881 50.671315295526185 52.91146114721846 H 0.0 **** 0.06
32629 H 55.73816927091943 51.832172100616916 51.727718001001335 H 0.0 **** 0.06
32630 H 56.57789294392256 50.288415969968426 52.01267442607332 H 0.0 **** 0.06
32631 C 48.71285823083848 80.61504866089456 49.48309501796116 C 0.0 **** -0.24
32632 H 47.85427555241182 81.00264006072109 50.03127488542589 H 0.0 **** 0.06
32633 H 49.21236218118577 81.43322968517367 48.96427992714233 H 0.0 **** 0.06
32634 H 48.37625390068712 79.87515567120423 48.755662245599936 H 0.0 **** 0.06
32635 H 49.40788785415114 80.14764755599504 50.180655419796835 H 0.0 **** 0.06
32636 C 83.84858667773148 124.6262174936952 49.53607307119128 C 0.0 **** -0.24
32637 H 82.99966693379298 124.5975341840017 50.22003949107422 H 0.0 **** 0.06
32638 H 83.49385299884786 124.49508547167603 48.512964105789436 H 0.0 **** 0.06
32639 H 84.54349703063355 123.82434602853941 49.78548485632747 H 0.0 **** 0.06
32640 H 84.35424504324868 125.58726011238481 49.626068405245064 H 0.0 **** 0.06
32641 C 23.122360942019355 73.28075611565626 113.71081291126185 C 0.0 **** -0.24
32642 H 23.807160402105183 72.4612759782049 113.49023520179654 H 0.0 **** 0.06
32643 H 23.11007280687727 73.46551022666263 114.78498440822253 H 0.0 **** 0.06
32644 H 22.119158543107368 73.01457016719802 113.37670888497925 H 0.0 **** 0.06
32645 H 23.45224106430141 74.17982436053845 113.18992914984264 H 0.0 **** 0.06
32646 C 70.48670858071311 140.3045119003198 6.399056838848907 C 0.0 **** -0.24
32647 H 70.49880499373958 141.36493067036733 6.1447042537925824 H 0.0 **** 0.06
32648 H 70.84866384970195 139.72389690914 5.5505763754092925 H 0.0 **** 0.06
32649 H 69.46865311964325 140.00088480336922 6.640457136865223 H 0.0 **** 0.06
32650 H 71.13157582152031 140.13120807243925 7.260527967597596 H 0.0 **** 0.06
32651 C 7.060972170288011 127.07390185965443 87.65774417066321 C 0.0 **** -0.24
32652 H 6.928490595509146 126.59378048098836 88.62750888066016 H 0.0 **** 0.06
32653 H 6.2165633910878455 127.73642253406305 87.46253729288561 H 0.0 **** 0.06
32654 H 7.1147743722760595 126.31301668589822 86.87934096775183 H 0.0 **** 0.06
32655 H 7.984709372753883 127.65357119571922 87.6642688117649 H 0.0 **** 0.06
32656 C 52.22596275800392 42.2527202483608 150.42720309671836 C 0.0 **** -0.24
32657 H 51.39905949523259 42.02379091909319 151.09902659940167 H 0.0 **** 0.06
32658 H 52.98717370821579 42.81670750335395 150.96682034202234 H 0.0 **** 0.06
32659 H 51.858888202008856 42.84664413501842 149.58917789893206 H 0.0 **** 0.06
32660 H 52.6580404467926 41.324190723069705 150.05322141558088 H 0.0 **** 0.06
32661 C 149.47750982221177 53.98878648017188 61.98483067603283 C 0.0 **** -0.24
32662 H 149.28767733277104 53.99332929230923 63.058768532696234 H 0.0 **** 0.06
32663 H 148.5753970544096 54.29373966427096 61.455075478525515 H 0.0 **** 0.06
32664 H 149.76155477716483 52.98463919715641 61.67071578442406 H 0.0 **** 0.06
32665 H 150.286010945222 54.68303171489248 61.7559770787328 H 0.0 **** 0.06
32666 C 0.06569093838899676 87.12892467830017 91.15292578670986 C 0.0 **** -0.24
32667 H -0.8337428725327243 86.51337573096373 91.13677653406896 H 0.0 **** 0.06
32668 H 0.8810557372649157 86.56721283234498 91.61027967831612 H 0.0 **** 0.06
32669 H -0.1228585315601265 88.03288878649039 91.73289777531929 H 0.0 **** 0.06
32670 H 0.338812809569788 87.40127351149124 90.133710882634 H 0.0 **** 0.06
32671 C 21.054128516154464 21.928901907505292 49.038858531434244 C 0.0 **** -0.24
32672 H 20.479708894955564 21.513519626858198 48.210551727566155 H 0.0 **** 0.06
32673 H 21.573521635600315 22.827717470412722 48.7056170626924 H 0.0 **** 0.06
32674 H 21.782612043162374 21.19363711823638 49.38070195512307 H 0.0 **** 0.06
32675 H 20.37999510505375 22.1803064864296 49.85796315439859 H 0.0 **** 0.06
32676 C 105.47769375500623 117.8260028348698 5.937347540788998 C 0.0 **** -0.24
32677 H 105.18894875304754 117.33123861850422 6.865525991033046 H 0.0 **** 0.06
32678 H 104.59405785711608 117.97810511908207 5.317112102873907 H 0.0 **** 0.06
32679 H 106.19409941422326 117.20316357293908 5.401956414406623 H 0.0 **** 0.06
32680 H 105.93200232681754 118.78951524596235 6.1659213768595365 H 0.0 **** 0.06
32681 C 89.06655864151506 120.17244325755124 67.86854851864081 C 0.0 **** -0.24
32682 H 89.59189706108108 119.40221841542925 67.30530553250577 H 0.0 **** 0.06
32683 H 89.01066360876479 121.08439562251274 67.27235879155921 H 0.0 **** 0.06
32684 H 89.60379841076579 120.37644020082362 68.79414136621249 H 0.0 **** 0.06
32685 H 88.05833423848341 119.82801855072947 68.10142124076876 H 0.0 **** 0.06
32686 C 21.85354633111558 112.51090090444221 38.23901837092549 C 0.0 **** -0.24
32687 H 20.87404074140118 112.96149195760755 38.07839149849036 H 0.0 **** 0.06
32688 H 21.729590327545694 111.52587325011844 38.69034636522423 H 0.0 **** 0.06
32689 H 22.439892198055624 113.14512581752847 38.90438953933918 H 0.0 **** 0.06
32690 H 22.368850187543856 112.41146959183827 37.2842069779054 H 0.0 **** 0.06
32691 C 136.88977004823047 103.7782103184489 66.2231888258191 C 0.0 **** -0.24
32692 H 136.98129345597712 104.86433450642339 66.25262056590418 H 0.0 **** 0.06
32693 H 135.8385630045562 103.50575924679397 66.12007862130615 H 0.0 **** 0.06
32694 H 137.28698638214206 103.3557167945422 67.14587884583727 H 0.0 **** 0.06
32695 H 137.45103299107166 103.39009723341273 65.37379457701869 H 0.0 **** 0.06
32696 C 127.50521302317901 68.44525935583411 121.06067329056575 C 0.0 **** -0.24
32697 H 127.959132875437 67.72443086408566 120.37949152820116 H 0.0 **** 0.06
32698 H 127.63370460541616 68.10456950185264 122.08765955644085 H 0.0 **** 0.06
32699 H 126.44198657187222 68.53685553947673 120.8368046519166 H 0.0 **** 0.06
32700 H 127.98687928344344 69.4148559247937 120.93587915645426 H 0.0 **** 0.06
32701 C 133.0198370233696 0.40420639984008844 90.34378898678618 C 0.0 **** -0.24
32702 H 134.09295630116574 0.3123028367159222 90.17340333733948 H 0.0 **** 0.06
32703 H 132.49005807503278 0.2863996512308411 89.39864703455069 H 0.0 **** 0.06
32704 H 132.80130698791314 1.386230709338946 90.76351433740342 H 0.0 **** 0.06
32705 H 132.69576482189882 -0.3697023925759879 91.0409740004625 H 0.0 **** 0.06
32706 C 31.84691450443654 24.862949620560528 46.49600077604396 C 0.0 **** -0.24
32707 H 31.865461906700048 25.897769593722927 46.151888649167006 H 0.0 **** 0.06
32708 H 32.48165463173233 24.761654518549108 47.37578979802794 H 0.0 **** 0.06
32709 H 32.216419788373834 24.211235442278024 45.704343050475416 H 0.0 **** 0.06
32710 H 30.82539513534895 24.58278050026877 46.749817372641985 H 0.0 **** 0.06
32711 C 126.85047952394356 106.1456956656337 113.49505368175171 C 0.0 **** -0.24
32712 H 127.79623433196409 106.66456882465815 113.65246710159296 H 0.0 **** 0.06
32713 H 126.49172621828865 105.74877010124248 114.44479609506008 H 0.0 **** 0.06
32714 H 126.99775797945878 105.32724117829656 112.79075702995947 H 0.0 **** 0.06
32715 H 126.11678044993805 106.84432549083175 113.09258936056018 H 0.0 **** 0.06
32716 C 27.508325227070763 20.168806910541605 34.81522011501278 C 0.0 **** -0.24
32717 H 28.21722635363801 19.79647961739292 35.55496877096431 H 0.0 **** 0.06
32718 H 26.960019614644303 19.331163500695112 34.383966172443536 H 0.0 **** 0.06
32719 H 28.048232495297057 20.693917055120522 34.028037215448705 H 0.0 **** 0.06
32720 H 26.80919066090427 20.853311374380723 35.29564074573449 H 0.0 **** 0.06
32721 C 78.29970491807717 102.91450141075319 30.234211763818394 C 0.0 **** -0.24
32722 H 77.73061501443826 102.01503725682073 30.470773444576622 H 0.0 **** 0.06
32723 H 77.63370037056453 103.66113309616424 29.801823572189136 H 0.0 **** 0.06
32724 H 79.08429106757671 102.66946291491968 29.518403696294172 H 0.0 **** 0.06
32725 H 78.7483229546547 103.31033418949636 31.144718057335837 H 0.0 **** 0.06
32726 C 112.51830394412488 64.96775419025731 134.1332289542584 C 0.0 **** -0.24
32727 H 112.85756980709309 65.43207710445857 135.0596648243544 H 0.0 **** 0.06
32728 H 113.32468301025344 64.99155637815682 133.3989770843329 H 0.0 **** 0.06
32729 H 111.65844809328249 65.51482739246352 133.74676251710008 H 0.0 **** 0.06
32730 H 112.23450840352112 63.9339788527643 134.32754592654248 H 0.0 **** 0.06
32731 C 41.58722826497436 82.55574350523406 22.592599966970198 C 0.0 **** -0.24
32732 H 42.09639374919564 83.51665299287137 22.670342938552523 H 0.0 **** 0.06
32733 H 40.61910741539835 82.6171088482374 23.088859747250382 H 0.0 **** 0.06
32734 H 42.19308203568586 81.78517674586934 23.06973157944664 H 0.0 **** 0.06
32735 H 41.44320132747514 82.30643184793792 21.541354315662716 H 0.0 **** 0.06
32736 C 11.399045482644695 81.55525790833796 97.83502918212872 C 0.0 **** -0.24
32737 H 11.559473699893879 80.61077736103614 98.35615086866217 H 0.0 **** 0.06
32738 H 11.532925639680705 82.38253224549912 98.5318718837329 H 0.0 **** 0.06
32739 H 10.38626067363031 81.57881581657878 97.43214401529498 H 0.0 **** 0.06
32740 H 12.116222934225505 81.64544518473411 97.01937163768528 H 0.0 **** 0.06
32741 C 7.515368971963142 82.94851965079667 99.3557916936176 C 0.0 **** -0.24
32742 H 7.52004334199529 82.19319869165494 98.56928936063389 H 0.0 **** 0.06
32743 H 6.69825066760319 82.74572121212768 100.04845825967 H 0.0 **** 0.06
32744 H 7.379696840442307 83.93494997279839 98.91182458566117 H 0.0 **** 0.06
32745 H 8.463117353130599 82.91884316469299 99.89360560657803 H 0.0 **** 0.06
32746 C 56.765802142367136 140.46350257601708 131.3586887474017 C 0.0 **** -0.24
32747 H 57.16040627959717 139.59967180331 130.8240015081072 H 0.0 **** 0.06
32748 H 57.140221867045454 140.45831509295914 132.38248191658042 H 0.0 **** 0.06
32749 H 55.676797587859994 140.41799898601803 131.36827972877845 H 0.0 **** 0.06
32750 H 57.087207673915316 141.3772078728752 130.8584741850432 H 0.0 **** 0.06
32751 C 108.2666981698519 90.64307743774125 23.31947535630544 C 0.0 **** -0.24
32752 H 108.13341505363297 89.58625036916482 23.086701499461554 H 0.0 **** 0.06
32753 H 109.03669006525706 91.06285479491487 22.67248469154717 H 0.0 **** 0.06
32754 H 108.56818819719103 90.75034767374991 24.360575388640363 H 0.0 **** 0.06
32755 H 107.3268897516441 91.17150245832485 23.15688492645132 H 0.0 **** 0.06
32756 C 73.89596409463924 5.360250987214101 0.3774133103771362 C 0.0 **** -0.24
32757 H 72.96324249804894 5.8488148337403345 0.661603956506184 H 0.0 **** 0.06
32758 H 74.69519968442798 6.099776314436781 0.3352917932593016 H 0.0 **** 0.06
32759 H 73.7785072701879 4.8949933819651505 -0.6015385563274833 H 0.0 **** 0.06
32760 H 74.1449946882426 4.597103317219307 1.1154112207118203 H 0.0 **** 0.06
32761 C 144.95340429639433 64.21711652563647 17.842113969094356 C 0.0 **** -0.24
32762 H 144.97783285779562 63.13233684030479 17.74003678768375 H 0.0 **** 0.06
32763 H 145.08006991503657 64.67738846401733 16.861533479708243 H 0.0 **** 0.06
32764 H 145.7611520023757 64.53789455811841 18.501273012760237 H 0.0 **** 0.06
32765 H 143.99673817759566 64.52096224105156 18.26611535238854 H 0.0 **** 0.06
32766 C 16.540486064598838 126.78048147228569 148.8087826213521 C 0.0 **** -0.24
32767 H 17.051115571578265 127.63679127650275 148.37031775151792 H 0.0 **** 0.06
32768 H 15.475642628140776 126.83611643533462 148.5794820675827 H 0.0 **** 0.06
32769 H 16.679624459111608 126.78809623389199 149.8898071371115 H 0.0 **** 0.06
32770 H 16.95421541974906 125.8605023522941 148.39541482593677 H 0.0 **** 0.06
32771 C 113.22464510223799 128.68057116389718 112.91713316694639 C 0.0 **** -0.24
32772 H 113.20853190027199 129.37658434575889 113.7560840086699 H 0.0 **** 0.06
32773 H 112.79232202818886 127.72792636494711 113.2270270471784 H 0.0 **** 0.06
32774 H 114.25450758665872 128.52493672427818 112.5952889813643 H 0.0 **** 0.06
32775 H 112.64367109610302 129.0923265768999 112.09248528348316 H 0.0 **** 0.06
32776 C 98.82920132107157 58.025216661507145 82.8760224723918 C 0.0 **** -0.24
32777 H 98.72337732547983 59.012719235603825 82.42713225973635 H 0.0 **** 0.06
32778 H 99.59423218789068 58.05884213107419 83.65202092706278 H 0.0 **** 0.06
32779 H 99.12160598030589 57.30750907942439 82.10884591876047 H 0.0 **** 0.06
32780 H 97.87852151748486 57.72133533186752 83.31411096869655 H 0.0 **** 0.06
32781 C 149.22110957264815 63.16502488998083 13.098625862296167 C 0.0 **** -0.24
32782 H 149.7342720706892 62.78568355505797 13.981268383199023 H 0.0 **** 0.06
32783 H 148.28953476684603 62.616508151853225 12.95599246006281 H 0.0 **** 0.06
32784 H 149.85764662353085 63.03292426175926 12.223333045628749 H 0.0 **** 0.06
32785 H 149.00246786136313 64.22448128089138 13.231792814862487 H 0.0 **** 0.06
32786 C 92.19075389999779 127.88206321147265 16.213546412468617 C 0.0 **** -0.24
32787 H 92.13121678264545 127.11185680628967 15.44489766969361 H 0.0 **** 0.06
32788 H 92.46058921801641 128.83292168034708 15.754210423468791 H 0.0 **** 0.06
32789 H 92.94711435913743 127.60416090029982 16.9472327397461 H 0.0 **** 0.06
32790 H 91.22375060623767 127.97737455601023 16.706785540885477 H 0.0 **** 0.06
32791 C 47.62055412848508 90.38724152826035 135.57595294317372 C 0.0 **** -0.24
32792 H 48.383819754143644 91.16209480461106 135.6385662342792 H 0.0 **** 0.06
32793 H 47.95370537559131 89.6041557758241 134.89429579867289 H 0.0 **** 0.06
32794 H 46.69205516632297 90.82157405395742 135.2043208051595 H 0.0 **** 0.06
32795 H 47.453848788962375 89.961097685011 136.56503899751027 H 0.0 **** 0.06
32796 C 65.73136440035512 23.96089443450498 146.55040628565473 C 0.0 **** -0.24
32797 H 65.41934317005187 23.970140520722993 145.50570643764402 H 0.0 **** 0.06
32798 H 66.5552202349432 23.258667719638964 146.6770265083154 H 0.0 **** 0.06
32799 H 64.89357970091015 23.655652091252506 147.1772885637383 H 0.0 **** 0.06
32800 H 66.05729774441116 24.959539560402874 146.84069724337803 H 0.0 **** 0.06
32801 C 95.19955093890943 125.37006060910531 139.461071243131 C 0.0 **** -0.24
32802 H 95.32116677578628 124.33356758114797 139.14701987549535 H 0.0 **** 0.06
32803 H 95.11343467893525 125.41321016638338 140.54726994773267 H 0.0 **** 0.06
32804 H 94.29843550984216 125.78361080994185 139.0088448860428 H 0.0 **** 0.06
32805 H 96.06524589496087 125.95140542083288 139.14191614193595 H 0.0 **** 0.06
32806 C 35.77695977363069 106.83708519111066 28.38143388826174 C 0.0 **** -0.24
32807 H 36.122051293171836 105.81594806782296 28.544539110813133 H 0.0 **** 0.06
32808 H 36.57971021424777 107.42513496222291 27.938183813848866 H 0.0 **** 0.06
32809 H 35.48690294504573 107.27936783327912 29.335338832222533 H 0.0 **** 0.06
32810 H 34.91834443964089 106.82730213972918 27.71049614091541 H 0.0 **** 0.06
32811 C 60.836948765529456 85.40743430537947 136.17570138516305 C 0.0 **** -0.24
32812 H 60.71558549459151 85.56001880493473 137.24742819550752 H 0.0 **** 0.06
32813 H 61.81654996938967 84.97017037595529 135.97881239278692 H 0.0 **** 0.06
32814 H 60.756266647986266 86.3644711671157 135.66041862867516 H 0.0 **** 0.06
32815 H 60.05908854838647 84.73449743418253 135.81489266390804 H 0.0 **** 0.06
32816 C 13.684470679658546 127.75810660205627 132.2573007765223 C 0.0 **** -0.24
32817 H 14.258666926860684 128.6785465396824 132.3618065884774 H 0.0 **** 0.06
32818 H 13.076340644348903 127.60655325010677 133.1489475200171 H 0.0 **** 0.06
32819 H 14.366071953371915 126.9163199622334 132.13440469363707 H 0.0 **** 0.06
32820 H 13.036319925780987 127.8313226100119 131.3832278104988 H 0.0 **** 0.06
32821 C 71.93381290709445 123.89618618574603 70.78657174168092 C 0.0 **** -0.24
32822 H 72.20261981467227 124.04028861090914 71.8331785601153 H 0.0 **** 0.06
32823 H 72.05791721276275 122.8456256067153 70.52143947025746 H 0.0 **** 0.06
32824 H 72.58011244793583 124.50863197587496 70.15857452245723 H 0.0 **** 0.06
32825 H 70.89476951287156 124.18839980649956 70.63441225202934 H 0.0 **** 0.06
32826 C 125.32828782955549 2.4208336600689506 143.53459347599545 C 0.0 **** -0.24
32827 H 125.0853159052789 1.682132928764986 144.29823105251526 H 0.0 **** 0.06
32828 H 124.47389891128039 2.5486562355756917 142.86864489571357 H 0.0 **** 0.06
32829 H 126.18870199469153 2.0785471007753245 142.95975362652854 H 0.0 **** 0.06
32830 H 125.56426330104502 3.3722474913008114 144.01074866474005 H 0.0 **** 0.06
32831 C 58.13680285377362 19.482015480214557 29.05976187024811 C 0.0 **** -0.24
32832 H 57.64958579836426 20.442724285478334 28.89142994474247 H 0.0 **** 0.06
32833 H 58.57234385630258 19.127109177987904 28.125351328701413 H 0.0 **** 0.06
32834 H 57.40179193875157 18.759934300391876 29.41556829695719 H 0.0 **** 0.06
32835 H 58.92232145127301 19.598226622698064 29.80590391882805 H 0.0 **** 0.06
32836 C 61.68234252168139 31.971736498733897 32.258770098123115 C 0.0 **** -0.24
32837 H 61.032230374442975 32.45005977629742 32.99196144764041 H 0.0 **** 0.06
32838 H 62.03187411949092 31.01654520103378 32.65069704677046 H 0.0 **** 0.06
32839 H 62.537606600215 32.61623560024468 32.056887137275766 H 0.0 **** 0.06
32840 H 61.12719776732129 31.805442291833394 31.3355453014916 H 0.0 **** 0.06
32841 C 66.66395624602687 42.587174935303665 149.7897597775673 C 0.0 **** -0.24
32842 H 66.70627179155163 43.22206764426102 148.90494560812598 H 0.0 **** 0.06
32843 H 67.51553728575665 41.90643475815898 149.78954575906704 H 0.0 **** 0.06
32844 H 65.73824185427571 42.01086820028053 149.77956491513712 H 0.0 **** 0.06
32845 H 66.69528948728649 43.20932995492802 150.6841080522735 H 0.0 **** 0.06
32846 C 39.76065335336585 10.779277335027416 113.83008641512711 C 0.0 **** -0.24
32847 H 39.12068014742812 11.654178604702679 113.95091523265725 H 0.0 **** 0.06
32848 H 39.89713571980968 10.293949514369842 114.79719447725651 H 0.0 **** 0.06
32849 H 40.72888769502413 11.08956952157041 113.43788304534931 H 0.0 **** 0.06
32850 H 39.293094959777136 10.081434502457057 113.1353454424681 H 0.0 **** 0.06
32851 C 108.16994671703848 96.08641099508837 137.05041638170138 C 0.0 **** -0.24
32852 H 107.46862176077364 96.24654324335962 137.868914047023 H 0.0 **** 0.06
32853 H 108.62738084931529 95.10217075189402 137.15034954354923 H 0.0 **** 0.06
32854 H 108.94560449546115 96.85278087781269 137.0815895200336 H 0.0 **** 0.06
32855 H 107.63935453383401 96.1462882979203 136.10060266493042 H 0.0 **** 0.06
32856 C 14.255195628413986 98.38010941235154 139.6032208802868 C 0.0 **** -0.24
32857 H 14.534401189960306 99.27979849789716 139.05454128343723 H 0.0 **** 0.06
32858 H 13.682605159686972 98.65901246999297 140.4889983928708 H 0.0 **** 0.06
32859 H 15.155398863865514 97.84502103861945 139.9056908018842 H 0.0 **** 0.06
32860 H 13.648481572014845 97.73954049680242 138.96426630418395 H 0.0 **** 0.06
32861 C 40.159843179486046 146.31531235317507 110.90427734559181 C 0.0 **** -0.24
32862 H 39.1116766044957 146.27667165511602 110.60850345581996 H 0.0 **** 0.06
32863 H 40.56431479149383 145.30435310226608 110.94393285029402 H 0.0 **** 0.06
32864 H 40.24290657390088 146.7800414180676 111.8863307164063 H 0.0 **** 0.06
32865 H 40.72008083828952 146.90245187919732 110.17641923004847 H 0.0 **** 0.06
32866 C 23.769222805320275 50.691293679844236 117.2802670707858 C 0.0 **** -0.24
32867 H 24.238499544672756 51.50792678721339 117.83006907220017 H 0.0 **** 0.06
32868 H 22.81657344322594 50.43970576682149 117.74597962678665 H 0.0 **** 0.06
32869 H 24.42389923337567 49.819239589422494 117.29582233474115 H 0.0 **** 0.06
32870 H 23.599280691452535 50.99900539667156 116.24838981570367 H 0.0 **** 0.06
32871 C 81.94436995273374 52.437413128674905 63.53921334818669 C 0.0 **** -0.24
32872 H 82.18320377370006 52.1361398937259 62.51810590324304 H 0.0 **** 0.06
32873 H 82.84745933105046 52.80120978759538 64.03023176221244 H 0.0 **** 0.06
32874 H 81.55276013609368 51.580811537142665 64.08745137447846 H 0.0 **** 0.06
32875 H 81.19695459757062 53.22933670240596 63.51824301788608 H 0.0 **** 0.06
32876 C 108.08964578076181 146.59750363638284 109.1244368816658 C 0.0 **** -0.24
32877 H 108.73206834855098 146.87562322986017 109.960051761493 H 0.0 **** 0.06
32878 H 107.22233760919225 146.05409065971247 109.49878476762298 H 0.0 **** 0.06
32879 H 108.64647088612698 145.96308462296653 108.43425514468753 H 0.0 **** 0.06
32880 H 107.75970118557596 147.49733411396218 108.60473679572137 H 0.0 **** 0.06
32881 C 41.90783563210378 86.67997869263745 36.432071378394824 C 0.0 **** -0.24
32882 H 41.11756988932281 86.1446389120265 35.90562207936537 H 0.0 **** 0.06
32883 H 42.84371672816876 86.12789711830075 36.337577740086175 H 0.0 **** 0.06
32884 H 41.64440705987407 86.77229076621198 37.485887474597575 H 0.0 **** 0.06
32885 H 42.02572171403672 87.67297313439651 35.998475497318765 H 0.0 **** 0.06
32886 C 41.52881514559522 71.72763464432086 119.56255011988888 C 0.0 **** -0.24
32887 H 42.03018635841903 71.1804005986496 118.7633890967381 H 0.0 **** 0.06
32888 H 41.357783365591956 71.0605992617702 120.40727042809597 H 0.0 **** 0.06
32889 H 40.57416665850229 72.1066015170444 119.19864926359416 H 0.0 **** 0.06
32890 H 42.154300852551046 72.56235557795819 119.87819400065631 H 0.0 **** 0.06
32891 C 138.09241788286016 132.21433282037793 7.626852031495076 C 0.0 **** -0.24
32892 H 137.2560068040725 132.6260953919475 7.063156607485723 H 0.0 **** 0.06
32893 H 138.5870658794017 133.0138984078714 8.178968632011788 H 0.0 **** 0.06
32894 H 138.80237626968716 131.75337816926648 6.939572313691286 H 0.0 **** 0.06
32895 H 137.72458596963926 131.46420911458148 8.326608115104278 H 0.0 **** 0.06
32896 C 1.3434349667497187 131.4387628753559 133.105273399291 C 0.0 **** -0.24
32897 H 2.161666784794285 131.0942952611923 132.47230004712074 H 0.0 **** 0.06
32898 H 0.4034691249366773 131.3612515955587 132.55730189989046 H 0.0 **** 0.06
32899 H 1.5151406092148214 132.47757648142013 133.38825037625023 H 0.0 **** 0.06
32900 H 1.2935718175746729 130.82078851073172 134.0010757148298 H 0.0 **** 0.06
32901 C 145.1485781383669 106.3027023907511 78.17417454245954 C 0.0 **** -0.24
32902 H 144.59043923325746 105.43561771777932 77.8195357775692 H 0.0 **** 0.06
32903 H 145.243584990479 106.25553088005533 79.25835717426992 H 0.0 **** 0.06
32904 H 144.61904910026303 107.21413310872533 77.89405745687944 H 0.0 **** 0.06
32905 H 146.13996022274264 106.30533108353866 77.72153437327685 H 0.0 **** 0.06
32906 C 54.910407059159326 78.12825418323202 97.86362185218684 C 0.0 **** -0.24
32907 H 54.76561948138428 77.22132529525321 97.27654601842104 H 0.0 **** 0.06
32908 H 55.955109503147156 78.43608279729932 97.80271293390248 H 0.0 **** 0.06
32909 H 54.64879051841544 77.93448056165394 98.9032068667928 H 0.0 **** 0.06
32910 H 54.27442618312355 78.92157729398924 97.47017011368624 H 0.0 **** 0.06
32911 C 2.6701751386848116 110.35924832603163 3.9755936730867916 C 0.0 **** -0.24
32912 H 3.2077403754327634 111.29944485477361 4.096455441982528 H 0.0 **** 0.06
32913 H 1.8416895539853044 110.32190258203562 4.682913554317679 H 0.0 **** 0.06
32914 H 3.3467988041796843 109.52616359156426 4.1642512994623075 H 0.0 **** 0.06
32915 H 2.283327725429274 110.29029193233677 2.958943008403992 H 0.0 **** 0.06
32916 C 137.50941081360858 31.80962668115575 62.52044764667815 C 0.0 **** -0.24
32917 H 137.4746584739774 32.89198566113146 62.64443472778008 H 0.0 **** 0.06
32918 H 138.19975555379062 31.381610621812356 63.247237762527774 H 0.0 **** 0.06
32919 H 137.84798329339523 31.569638054830506 61.51249198175775 H 0.0 **** 0.06
32920 H 136.5132396292594 31.39442643700022 62.67711690342435 H 0.0 **** 0.06
32921 C 129.26625782063914 20.401806249903814 125.53291606710448 C 0.0 **** -0.24
32922 H 128.42302261205415 20.173602756953073 126.1847603963809 H 0.0 **** 0.06
32923 H 129.39750129993055 21.48294574692835 125.47461451081475 H 0.0 **** 0.06
32924 H 129.07245512153187 20.003554923305103 124.53731632221586 H 0.0 **** 0.06
32925 H 130.17075944897798 19.94638148310804 125.9366407076786 H 0.0 **** 0.06
32926 C 46.17546262837055 109.5492975606928 113.03775609016837 C 0.0 **** -0.24
32927 H 47.08160534633208 109.02520231284832 112.73374616786485 H 0.0 **** 0.06
32928 H 46.186185902264526 110.55978017260598 112.62871403748814 H 0.0 **** 0.06
32929 H 46.13216732746639 109.598077019175 114.12605503118893 H 0.0 **** 0.06
32930 H 45.30354044762373 109.01463656590225 112.66267240972279 H 0.0 **** 0.06
32931 C 40.68846070573932 55.27875287665995 141.60625170148785 C 0.0 **** -0.24
32932 H 40.80010668357892 56.3274119229134 141.88347885940593 H 0.0 **** 0.06
32933 H 40.30375308682858 55.211968960189424 140.58737657158684 H 0.0 **** 0.06
32934 H 39.99121514768524 54.79455379396559 142.29010575713298 H 0.0 **** 0.06
32935 H 41.65729271275109 54.7831092730807 141.6618791958409 H 0.0 **** 0.06
32936 C 118.55764509338488 82.36102317601683 45.52123777552919 C 0.0 **** -0.24
32937 H 118.05016198714227 81.6363115590464 44.88367641057228 H 0.0 **** 0.06
32938 H 117.82219852788373 82.8846751471561 46.13209901288626 H 0.0 **** 0.06
32939 H 119.09252212667579 83.0788113839362 44.90042533929889 H 0.0 **** 0.06
32940 H 119.2650467396223 81.84138583197428 46.16841044807754 H 0.0 **** 0.06
32941 C 81.47545570645478 110.0278940145123 31.393860840709607 C 0.0 **** -0.24
32942 H 80.65822438507618 110.34531288377633 32.04299548147722 H 0.0 **** 0.06
32943 H 81.6055924496227 108.94840517261679 31.4754070270441 H 0.0 **** 0.06
32944 H 82.39472342660983 110.5289088254026 31.697024982830186 H 0.0 **** 0.06
32945 H 81.24192665774585 110.28960445628007 30.361668840916963 H 0.0 **** 0.06
32946 C 124.49604201208527 6.083875126054295 108.48400888427096 C 0.0 **** -0.24
32947 H 123.75254138280016 5.320314569646172 108.70898780229828 H 0.0 **** 0.06
32948 H 125.48840838602345 5.633310083279895 108.47590967907445 H 0.0 **** 0.06
32949 H 124.45740604825616 6.863786784996051 109.24414869421196 H 0.0 **** 0.06
32950 H 124.28608560564172 6.519450614587697 107.50672191824071 H 0.0 **** 0.06
32951 C 133.1321346035746 111.01208313608254 26.53567383921932 C 0.0 **** -0.24
32952 H 133.88418862148694 110.22388311286869 26.543915057908002 H 0.0 **** 0.06
32953 H 133.23546169857596 111.62305065801422 27.432816363363912 H 0.0 **** 0.06
32954 H 132.13725702228126 110.56549357627352 26.51374427843063 H 0.0 **** 0.06
32955 H 133.2693819025076 111.6366746195236 25.652810796457324 H 0.0 **** 0.06
32956 C 76.57628233186588 96.93932715733177 44.13987710037674 C 0.0 **** -0.24
32957 H 76.8805106640782 96.44228658249529 43.21861422755086 H 0.0 **** 0.06
32958 H 75.67428183840664 96.46698169957654 44.527328149651964 H 0.0 **** 0.06
32959 H 76.37764591545351 97.99142033875353 43.93638758466835 H 0.0 **** 0.06
32960 H 77.37506375325154 96.85722324839625 44.877101407921145 H 0.0 **** 0.06
32961 C 10.683486684790068 136.91834031108212 97.02704059646702 C 0.0 **** -0.24
32962 H 10.536665200877735 137.07766649914132 98.09473627310342 H 0.0 **** 0.06
32963 H 11.749040029121375 136.82573431251797 96.81701278234625 H 0.0 **** 0.06
32964 H 10.276821595522165 137.76622879114146 96.47429275417139 H 0.0 **** 0.06
32965 H 10.170486601981167 136.0067518792763 96.72203420901707 H 0.0 **** 0.06
32966 C 18.663777736464567 45.49764709778465 114.88970022696311 C 0.0 **** -0.24
32967 H 19.6411786785049 45.94159585091704 115.0758462674526 H 0.0 **** 0.06
32968 H 18.791770457141496 44.518786742005446 114.42719859018347 H 0.0 **** 0.06
32969 H 18.09360773406803 46.14382141072157 114.22160634011614 H 0.0 **** 0.06
32970 H 18.128497373666022 45.38757683597227 115.83225893394759 H 0.0 **** 0.06
32971 C 90.52376335973767 56.88094058908814 22.150977963760283 C 0.0 **** -0.24
32972 H 89.77238833012855 57.54025502208768 22.584328270764217 H 0.0 **** 0.06
32973 H 91.50479494940465 57.35121997119863 22.221708610004157 H 0.0 **** 0.06
32974 H 90.2841846458237 56.69618271400381 21.103505733031454 H 0.0 **** 0.06
32975 H 90.53420343435073 55.93565229534778 22.693643175950285 H 0.0 **** 0.06
32976 C 81.77025058057352 115.65529839613896 114.51447195280888 C 0.0 **** -0.24
32977 H 81.6955918638577 116.30977426451847 113.64623184509291 H 0.0 **** 0.06
32978 H 82.22512229907113 116.20111284082435 115.34196506393435 H 0.0 **** 0.06
32979 H 82.38648020571986 114.79058200152622 114.26615536567705 H 0.0 **** 0.06
32980 H 80.77391217109464 115.32058803416106 114.80402893853751 H 0.0 **** 0.06
32981 C 73.85477495753075 81.82616626122847 70.67663858464361 C 0.0 **** -0.24
32982 H 74.87135003992111 81.84718728582925 70.28383111991016 H 0.0 **** 0.06
32983 H 73.87416349394132 82.03222078835908 71.74715767713664 H 0.0 **** 0.06
32984 H 73.41934455756082 80.84121925306454 70.50391830599936 H 0.0 **** 0.06
32985 H 73.2540373231094 82.5819881235025 70.17077685569471 H 0.0 **** 0.06
32986 C 23.493327027434745 90.87052366453744 69.98781866478657 C 0.0 **** -0.24
32987 H 22.973594621995687 90.34271904548962 69.18755993690883 H 0.0 **** 0.06
32988 H 22.875871749752065 91.69836721308052 70.3362401310728 H 0.0 **** 0.06
32989 H 24.44089901306348 91.25506916846467 69.61308075451709 H 0.0 **** 0.06
32990 H 23.680517798584106 90.18328112060462 70.81336685410136 H 0.0 **** 0.06
32991 C 30.502811222632516 55.08435751053224 115.5173969470128 C 0.0 **** -0.24
32992 H 29.860614554991997 55.6982896292144 116.14938294415441 H 0.0 **** 0.06
32993 H 30.37210528381459 55.376058805993864 114.4750918991906 H 0.0 **** 0.06
32994 H 30.233485117753816 54.03513842023352 115.63816626879935 H 0.0 **** 0.06
32995 H 31.543316057351035 55.22816499311557 115.8086727323705 H 0.0 **** 0.06
32996 C 118.98112019717395 102.09268641108753 39.82434143476604 C 0.0 **** -0.24
32997 H 119.68734384234499 101.33586192338572 39.48127237053545 H 0.0 **** 0.06
32998 H 118.3206579890866 101.65782203228173 40.57510115579635 H 0.0 **** 0.06
32999 H 118.38928326136501 102.44702606484606 38.981334391019274 H 0.0 **** 0.06
33000 H 119.52806762562538 102.92769249350835 40.262441702318895 H 0.0 **** 0.06
33001 C 41.565060528313836 39.14444388665734 97.67660865784137 C 0.0 **** -0.24
33002 H 41.88457414525294 39.66946510503763 96.77675520895347 H 0.0 **** 0.06
33003 H 41.73115089412687 39.78058751570785 98.54688207096348 H 0.0 **** 0.06
33004 H 42.14004405783038 38.22420538511901 97.7833258144718 H 0.0 **** 0.06
33005 H 40.50565442099952 38.9031422047091 97.59879074451212 H 0.0 **** 0.06
33006 C 61.59975929125358 112.7739522341588 118.52874914580497 C 0.0 **** -0.24
33007 H 61.576318487839956 113.36437062658985 117.61211116893321 H 0.0 **** 0.06
33008 H 60.90593487605457 113.20080770567546 119.2533804951479 H 0.0 **** 0.06
33009 H 62.60805668210037 112.78259243690309 118.94148412746716 H 0.0 **** 0.06
33010 H 61.30677642472244 111.74750477792912 118.30580480052396 H 0.0 **** 0.06
33011 C 18.99384380008712 16.45523346638518 36.749322048885205 C 0.0 **** -0.24
33012 H 18.34818597022729 16.722058772439794 37.58606914963812 H 0.0 **** 0.06
33013 H 18.453331208050997 16.597553497735532 35.81374275447523 H 0.0 **** 0.06
33014 H 19.294760534617694 15.41124019793503 36.84171626515452 H 0.0 **** 0.06
33015 H 19.879479923934525 17.091531770644906 36.758358196644835 H 0.0 **** 0.06
33016 C 138.04342536502574 62.94791203728835 118.10048667891039 C 0.0 **** -0.24
33017 H 137.64490091920953 63.87113682372345 117.68089793834412 H 0.0 **** 0.06
33018 H 138.27621970792035 63.09907930548643 119.15452260439844 H 0.0 **** 0.06
33019 H 138.9503420010889 62.66663414984893 117.5644769038704 H 0.0 **** 0.06
33020 H 137.30199891303823 62.15417655596826 118.00130331708363 H 0.0 **** 0.06
33021 C 61.39031476887098 98.936597825717 141.8452903700692 C 0.0 **** -0.24
33022 H 60.68402431344819 98.91340125165044 141.01545593367862 H 0.0 **** 0.06
33023 H 62.31575165557618 98.4409727186769 141.54950014138862 H 0.0 **** 0.06
33024 H 60.959333095216465 98.41897729230806 142.702765906007 H 0.0 **** 0.06
33025 H 61.60185241846008 99.97123924977251 142.11473131004672 H 0.0 **** 0.06
33026 C 52.271197729508515 39.08554483616999 27.799674549065777 C 0.0 **** -0.24
33027 H 52.14724036667616 39.61876803204035 26.857260059799366 H 0.0 **** 0.06
33028 H 52.116320748876944 39.776279707506035 28.62941607260594 H 0.0 **** 0.06
33029 H 53.278285212562196 38.672603433106104 27.85356022643323 H 0.0 **** 0.06
33030 H 51.542739829387926 38.27791636711993 27.85915368014306 H 0.0 **** 0.06
33031 C 148.23213887799758 147.33914619013788 119.20659928178696 C 0.0 **** -0.24
33032 H 147.5401020054967 146.78661560917473 119.84207422650718 H 0.0 **** 0.06
33033 H 148.7341561704671 148.1059140698343 119.79669600507555 H 0.0 **** 0.06
33034 H 147.67960885798294 147.81129463323774 118.39296976821112 H 0.0 **** 0.06
33035 H 148.97216321735561 146.65508206108214 118.7935464301051 H 0.0 **** 0.06
33036 C 20.585935570342407 56.37746104718971 132.69620893168207 C 0.0 **** -0.24
33037 H 20.017021051313343 55.52059147264758 133.05851173926982 H 0.0 **** 0.06
33038 H 20.081464456470464 57.29863805567341 132.99030305090974 H 0.0 **** 0.06
33039 H 20.656638929169148 56.332332516238594 131.60998064470337 H 0.0 **** 0.06
33040 H 21.58649732396229 56.35753463764574 133.12701232402534 H 0.0 **** 0.06
33041 C 146.8151718310047 59.17063086793809 95.57120000381256 C 0.0 **** -0.24
33042 H 146.3267672196979 58.197077879759604 95.56630765367954 H 0.0 **** 0.06
33043 H 147.70482397068727 59.12760445094767 96.20029881791855 H 0.0 **** 0.06
33044 H 146.1273753812472 59.91991811752956 95.96438339751242 H 0.0 **** 0.06
33045 H 147.10169985830416 59.439015776101314 94.55470765849364 H 0.0 **** 0.06
33046 C 22.321023207663984 98.87790730413144 19.02041709792207 C 0.0 **** -0.24
33047 H 21.859079090306977 99.52366852693474 18.27373004609648 H 0.0 **** 0.06
33048 H 22.062783528801816 97.8398607477797 18.811113260438226 H 0.0 **** 0.06
33049 H 21.95795845845393 99.15152778527383 20.011304235764626 H 0.0 **** 0.06
33050 H 23.4038093752894 98.99817126845313 18.98402778848859 H 0.0 **** 0.06
33051 C 141.3166683252767 64.02372709982592 81.082535130201 C 0.0 **** -0.24
33052 H 140.87872186424582 64.15787194339327 82.07189682400167 H 0.0 **** 0.06
33053 H 140.72196310509955 63.30704625423624 80.51593495450393 H 0.0 **** 0.06
33054 H 142.33599423671686 63.65187297060521 81.18337487124224 H 0.0 **** 0.06
33055 H 141.3284678708749 64.97969313220251 80.55936672022705 H 0.0 **** 0.06
33056 C 97.32896024994848 133.85405304818178 12.501507988316689 C 0.0 **** -0.24
33057 H 96.72551734513819 133.04280588696187 12.90847503842113 H 0.0 **** 0.06
33058 H 96.91254783732059 134.17159426110535 11.544798619467656 H 0.0 **** 0.06
33059 H 98.35196626183118 133.50752501385426 12.355386463258867 H 0.0 **** 0.06
33060 H 97.32618758997222 134.69352936649983 13.196839787626885 H 0.0 **** 0.06
33061 C 23.493477447757357 118.03778964086557 109.05207829867673 C 0.0 **** -0.24
33062 H 24.17177039254136 118.42060713392623 108.28872583948247 H 0.0 **** 0.06
33063 H 24.073665206934322 117.60773069402482 109.86974205885072 H 0.0 **** 0.06
33064 H 22.853554056302073 117.27084185637644 108.61689259596456 H 0.0 **** 0.06
33065 H 22.87859938245282 118.85263357212936 109.43276553864943 H 0.0 **** 0.06
33066 C 51.89395436322039 21.829875439552374 150.25122813008045 C 0.0 **** -0.24
33067 H 51.29769381985025 21.41640795925605 149.43662481403388 H 0.0 **** 0.06
33068 H 51.93738329732906 22.914854313817642 150.1541134134127 H 0.0 **** 0.06
33069 H 52.902491975718874 21.41925265864456 150.2070660956611 H 0.0 **** 0.06
33070 H 51.43635182880831 21.567903481317188 151.20505153434885 H 0.0 **** 0.06
33071 C 95.55132858755773 55.93777691235066 116.9798971214716 C 0.0 **** -0.24
33072 H 96.46321787052419 56.491807118951954 116.75634855233449 H 0.0 **** 0.06
33073 H 95.5085436645387 55.727028951824266 118.04828058073917 H 0.0 **** 0.06
33074 H 95.55054729172318 55.00096777967907 116.42419444868597 H 0.0 **** 0.06
33075 H 94.68537332661523 56.53281232743937 116.6911086231097 H 0.0 **** 0.06
33076 C 121.79761552326111 26.418118705028263 51.185390477557036 C 0.0 **** -0.24
33077 H 121.61140771620354 26.091658617252534 50.16223460126534 H 0.0 **** 0.06
33078 H 120.89431395107319 26.28127776789836 51.7800040634248 H 0.0 **** 0.06
33079 H 122.07610220483961 27.471995283694696 51.184044059811384 H 0.0 **** 0.06
33080 H 122.60823397105521 25.828640680797122 51.61234109502371 H 0.0 **** 0.06
33081 C 100.46945785674625 47.38697249778917 103.82132989273957 C 0.0 **** -0.24
33082 H 100.21118156977144 46.454059719055735 103.31990432133561 H 0.0 **** 0.06
33083 H 101.55366830859855 47.50876438448864 103.8265259685926 H 0.0 **** 0.06
33084 H 100.10230622338683 47.361702678458855 104.84726000402902 H 0.0 **** 0.06
33085 H 100.0126580901987 48.22306110019554 103.29261799144483 H 0.0 **** 0.06
33086 C 101.05049254127242 130.49378660531855 145.60994858754955 C 0.0 **** -0.24
33087 H 101.26565627779586 129.54419313952215 145.11856854092397 H 0.0 **** 0.06
33088 H 99.99193761711702 130.72848652078943 145.4977794757088 H 0.0 **** 0.06
33089 H 101.64926339699869 131.2821331493311 145.1535981971783 H 0.0 **** 0.06
33090 H 101.29578602774284 130.4177429821392 146.6689339183759 H 0.0 **** 0.06
33091 C 25.010717189798186 150.14087913255756 64.54763093306227 C 0.0 **** -0.24
33092 H 24.296648559396033 150.57376162276242 65.2473967384494 H 0.0 **** 0.06
33093 H 24.8963403728647 150.61416711196247 63.57199527004211 H 0.0 **** 0.06
33094 H 24.8272012741038 149.07020215211907 64.45707045298894 H 0.0 **** 0.06
33095 H 26.02422149026023 150.3047127347449 64.91553324938394 H 0.0 **** 0.06
33096 C 112.08575186503684 71.98194685670074 129.7361782589923 C 0.0 **** -0.24
33097 H 111.50119690548077 72.89540245516898 129.6266892081739 H 0.0 **** 0.06
33098 H 113.13288153850222 72.19239511288681 129.5189400097147 H 0.0 **** 0.06
33099 H 111.71420517413166 71.2275791312255 129.0427073714315 H 0.0 **** 0.06
33100 H 111.9940127636573 71.61190512417058 130.75787272289256 H 0.0 **** 0.06
33101 C 74.31882420660588 38.11095422405168 64.94774708759778 C 0.0 **** -0.24
33102 H 74.83025846518598 37.16819721128948 65.14612237968817 H 0.0 **** 0.06
33103 H 75.04964368051219 38.86789154285444 64.66528429479226 H 0.0 **** 0.06
33104 H 73.78805952951825 38.43165828669336 65.84428389898088 H 0.0 **** 0.06
33105 H 73.60573616520037 37.971281884946805 64.13457698944447 H 0.0 **** 0.06
33106 C 32.30981788059779 145.16961777754275 41.23335458595736 C 0.0 **** -0.24
33107 H 31.496210410864364 144.68077761892764 40.69763482578293 H 0.0 **** 0.06
33108 H 32.84457684747383 145.8334104957867 40.55322107163971 H 0.0 **** 0.06
33109 H 32.99476582162117 144.41601363469456 41.61952233186025 H 0.0 **** 0.06
33110 H 31.902872647264815 145.7500696030805 42.06161043705373 H 0.0 **** 0.06
33111 C 131.27306352734357 33.94395494940173 42.91449888276003 C 0.0 **** -0.24
33112 H 130.51526054863336 34.59973718964292 42.486586791647255 H 0.0 **** 0.06
33113 H 132.21060757415103 34.49040328518228 43.01650798323158 H 0.0 **** 0.06
33114 H 131.42258318771144 33.08580779710786 42.25922731941131 H 0.0 **** 0.06
33115 H 130.94493000946812 33.59948929712604 43.89490964959026 H 0.0 **** 0.06
33116 C 133.6191420543203 90.91709659979294 138.83898506352708 C 0.0 **** -0.24
33117 H 133.3358251733545 91.09972752676997 139.87628445542484 H 0.0 **** 0.06
33118 H 133.20221382180247 89.9646616288356 138.5112077464493 H 0.0 **** 0.06
33119 H 134.70574619048693 90.88622166806474 138.75878111563938 H 0.0 **** 0.06
33120 H 133.23101054577705 91.71926560226807 138.21046589448696 H 0.0 **** 0.06
33121 C 83.55744860905286 139.6068087859212 5.971064134663209 C 0.0 **** -0.24
33122 H 83.67571431038334 138.60816508248826 5.55220567346106 H 0.0 **** 0.06
33123 H 83.55171300340864 140.34021559435948 5.1649208296267375 H 0.0 **** 0.06
33124 H 84.38493961011044 139.8164447717539 6.648509234036055 H 0.0 **** 0.06
33125 H 82.61663888661718 139.66093059256764 6.519057190196634 H 0.0 **** 0.06
33126 C 46.429787863679906 41.92450134428549 86.80973236461381 C 0.0 **** -0.24
33127 H 47.418788139335675 42.028346972221115 87.25648401629374 H 0.0 **** 0.06
33128 H 46.53071981085088 41.77176052492085 85.73558133282108 H 0.0 **** 0.06
33129 H 45.851886626178526 42.830300064987696 86.99607709855616 H 0.0 **** 0.06
33130 H 45.91850175885742 41.06971488224575 87.25378095329813 H 0.0 **** 0.06
33131 C 118.78979409752515 29.21062517747916 70.69295030276206 C 0.0 **** -0.24
33132 H 118.88150150546016 30.282035169153744 70.87582710807885 H 0.0 **** 0.06
33133 H 118.38817769556834 28.724067743757985 71.58118876892198 H 0.0 **** 0.06
33134 H 119.77197284217243 28.79683304121798 70.46375502097536 H 0.0 **** 0.06
33135 H 118.11878128799589 29.042466299490258 69.85106916180189 H 0.0 **** 0.06
33136 C 22.50286389661656 89.64173359631658 141.49606050629376 C 0.0 **** -0.24
33137 H 21.736321422093198 88.88627824558776 141.67080992231772 H 0.0 **** 0.06
33138 H 22.255543011327063 90.5453087545011 142.05416966539104 H 0.0 **** 0.06
33139 H 22.548935929351018 89.87216488833863 140.43171504108082 H 0.0 **** 0.06
33140 H 23.46861226178558 89.26154902763261 141.8286236759924 H 0.0 **** 0.06
33141 C 34.36228145703927 108.04175723113474 104.2277312797283 C 0.0 **** -0.24
33142 H 34.41880002277776 108.02105402720821 105.31652765614344 H 0.0 **** 0.06
33143 H 35.13331141258061 108.70572653443298 103.83670434865282 H 0.0 **** 0.06
33144 H 33.38093236957002 108.40335224943703 103.92232260725801 H 0.0 **** 0.06
33145 H 34.516751206443644 107.03547917970303 103.83725324745568 H 0.0 **** 0.06
33146 C 121.16008322546217 27.724417109000058 134.71044475706933 C 0.0 **** -0.24
33147 H 121.76547456763818 28.159158207778077 133.91472998155737 H 0.0 **** 0.06
33148 H 120.60787759338935 26.869170147997494 134.32086670196793 H 0.0 **** 0.06
33149 H 120.45917473594083 28.47103634655079 135.08282018665284 H 0.0 **** 0.06
33150 H 121.81004173211353 27.39827621930955 135.52333134088732 H 0.0 **** 0.06
33151 C 35.234032682701645 76.59157389087653 94.34114651737913 C 0.0 **** -0.24
33152 H 36.013795502286285 76.22350171804166 95.00752650279485 H 0.0 **** 0.06
33153 H 34.55558410768961 77.23796849357525 94.89905249424692 H 0.0 **** 0.06
33154 H 34.678660452106726 75.74870337440652 93.93138022649296 H 0.0 **** 0.06
33155 H 35.689108292084164 77.15779440092084 93.52809914423437 H 0.0 **** 0.06
33156 C 9.893384057005164 91.48191526324187 144.28251392644913 C 0.0 **** -0.24
33157 H 10.699545898251671 91.82603803413129 144.93089661474093 H 0.0 **** 0.06
33158 H 9.539214129173303 92.31179946773237 143.67115695569177 H 0.0 **** 0.06
33159 H 9.072411734080191 91.10425247813943 144.89316014241788 H 0.0 **** 0.06
33160 H 10.261170107880048 90.68516599648109 143.63668850411457 H 0.0 **** 0.06
33161 C 120.94255390009057 137.25069177345867 41.434089608287735 C 0.0 **** -0.24
33162 H 120.36910647996847 138.1273609541204 41.1293228660291 H 0.0 **** 0.06
33163 H 121.43629657177352 137.45362782513175 42.384884880033084 H 0.0 **** 0.06
33164 H 121.69169813126636 137.02529116039685 40.6749512968163 H 0.0 **** 0.06
33165 H 120.27117897505671 136.39917356041 41.54700525805008 H 0.0 **** 0.06
33166 C 51.109525783417226 25.12731081988545 129.77882931430372 C 0.0 **** -0.24
33167 H 51.236477237982925 24.38747483414062 130.56894798487932 H 0.0 **** 0.06
33168 H 50.24202709410184 24.864567715108535 129.17336455786256 H 0.0 **** 0.06
33169 H 52.000311918979776 25.143502990127956 129.15041672804057 H 0.0 **** 0.06
33170 H 50.95922397727777 26.110706340624517 130.22280684967168 H 0.0 **** 0.06
33171 C 17.730742276162516 2.423624506312052 51.073867617213736 C 0.0 **** -0.24
33172 H 17.520902329743677 3.4705840342982412 51.29307626497908 H 0.0 **** 0.06
33173 H 18.34669746347739 2.356116977685957 50.17755327698917 H 0.0 **** 0.06
33174 H 16.792907437643194 1.8915801344504644 50.91269347756611 H 0.0 **** 0.06
33175 H 18.261506529342476 1.9759807906215485 51.914390616493094 H 0.0 **** 0.06
33176 C 88.3179111487197 109.86914665313242 87.0486742984661 C 0.0 **** -0.24
33177 H 88.64542478234023 110.90899189877103 87.03917755987237 H 0.0 **** 0.06
33178 H 89.10527137217684 109.23758453881192 86.638828462108 H 0.0 **** 0.06
33179 H 87.417508470999 109.7669483197464 86.44339999600658 H 0.0 **** 0.06
33180 H 88.10368971343689 109.56548504311911 88.07354809573201 H 0.0 **** 0.06
33181 C 23.09846718978784 4.525494837219107 24.716282811018118 C 0.0 **** -0.24
33182 H 23.176162142251037 3.969644234240132 23.782135569838402 H 0.0 **** 0.06
33183 H 23.051260639230662 3.8265403447061743 25.552100786780585 H 0.0 **** 0.06
33184 H 22.196587013589145 5.1370956204703475 24.701926738451988 H 0.0 **** 0.06
33185 H 23.97157231213837 5.168885004299057 24.82914137201783 H 0.0 **** 0.06
33186 C 59.79765353404113 116.69973058924155 8.981369687799116 C 0.0 **** -0.24
33187 H 60.075126343314594 115.70213021586481 9.3229935280078 H 0.0 **** 0.06
33188 H 60.643100684394526 117.37512130185895 9.110101824857765 H 0.0 **** 0.06
33189 H 58.951519195369755 117.06016688195685 9.566569526606287 H 0.0 **** 0.06
33190 H 59.519927851701 116.65872121875809 7.928875457864308 H 0.0 **** 0.06
33191 C 104.25274087477024 138.6265280156146 42.96977676616609 C 0.0 **** -0.24
33192 H 105.33424321933714 138.76597556762863 42.99793005880201 H 0.0 **** 0.06
33193 H 104.00990821475935 137.81587585320398 42.28232940331938 H 0.0 **** 0.06
33194 H 103.77668344857906 139.54639469551415 42.631435117747316 H 0.0 **** 0.06
33195 H 103.8928406988367 138.37662460578412 43.96773499445939 H 0.0 **** 0.06
33196 C 92.18378700022892 116.82243864710037 149.34586922578646 C 0.0 **** -0.24
33197 H 92.83124564918944 116.9506528371804 148.47883527204195 H 0.0 **** 0.06
33198 H 91.37145200600831 117.54890977056326 149.30199324747903 H 0.0 **** 0.06
33199 H 92.76170905791322 116.97766260435705 150.25650256263293 H 0.0 **** 0.06
33200 H 91.7701623146299 115.81436970618867 149.343848364709 H 0.0 **** 0.06
33201 C 138.16408834202966 118.5112665507759 142.64904062892356 C 0.0 **** -0.24
33202 H 138.1506774687225 119.29837276304139 143.40305418866473 H 0.0 **** 0.06
33203 H 137.30769236322726 117.85266994870446 142.79670903670592 H 0.0 **** 0.06
33204 H 139.08512509817047 117.93488241724665 142.74122057192892 H 0.0 **** 0.06
33205 H 138.11316105597112 118.95742276071425 141.65657729067954 H 0.0 **** 0.06
33206 C 60.82936212962893 139.58644319534505 84.95055867058976 C 0.0 **** -0.24
33207 H 61.276429207873264 139.14621586542145 85.84194826803211 H 0.0 **** 0.06
33208 H 61.19863615431244 140.6038022921213 84.82338702841685 H 0.0 **** 0.06
33209 H 59.7444827541177 139.60429533110383 85.0599916080719 H 0.0 **** 0.06
33210 H 61.09670951416402 138.99031261661753 84.07742452665876 H 0.0 **** 0.06
33211 C 126.25623590739961 65.05727649100348 93.44609356074051 C 0.0 **** -0.24
33212 H 126.61834367783153 64.71325930445184 92.47692863908838 H 0.0 **** 0.06
33213 H 126.93399396863668 65.81633918289893 93.83765881897304 H 0.0 **** 0.06
33214 H 126.21392870857039 64.21514876888617 94.13780775975951 H 0.0 **** 0.06
33215 H 125.2594142692266 65.48400600332198 93.3314024186644 H 0.0 **** 0.06
33216 C 93.8893413218949 115.1918839198227 34.20347409913221 C 0.0 **** -0.24
33217 H 92.89628672732496 114.84036548350569 34.482713834848106 H 0.0 **** 0.06
33218 H 93.88494376613772 115.50027651559758 33.157054859126276 H 0.0 **** 0.06
33219 H 94.61127392706432 114.38643832727838 34.3417210850137 H 0.0 **** 0.06
33220 H 94.16486487243468 116.03926437683687 34.83079984862323 H 0.0 **** 0.06
33221 C 44.5381826813076 73.63362465282306 63.69551861142021 C 0.0 **** -0.24
33222 H 45.04249786563537 74.591746194977 63.82142251103497 H 0.0 **** 0.06
33223 H 43.77081797620991 73.72657215095394 62.927529922648574 H 0.0 **** 0.06
33224 H 44.07758400925792 73.33908437639857 64.63764828105393 H 0.0 **** 0.06
33225 H 45.26427638599603 72.87886130547064 63.394094173455485 H 0.0 **** 0.06
33226 C 63.96763275730888 69.98226888677782 59.82137120617875 C 0.0 **** -0.24
33227 H 63.10652091658153 69.32812833012206 59.960162540922454 H 0.0 **** 0.06
33228 H 64.84173096454367 69.53585123053597 60.29625657281866 H 0.0 **** 0.06
33229 H 63.76296967964794 70.95260528076247 60.2736264285478 H 0.0 **** 0.06
33230 H 64.15822158093209 70.10989009741492 58.75567086421063 H 0.0 **** 0.06
33231 C 27.249349353887283 42.148309903888446 149.59371398320863 C 0.0 **** -0.24
33232 H 27.85452265859891 42.27604463173742 150.49188414339156 H 0.0 **** 0.06
33233 H 27.126315730641295 43.11240906073323 149.09966535281305 H 0.0 **** 0.06
33234 H 26.271694259389392 41.75349942485292 149.8685442091879 H 0.0 **** 0.06
33235 H 27.745808392206413 41.45352016940825 148.91743070269834 H 0.0 **** 0.06
33236 C 7.456886358675568 3.2528374135709726 106.11385370992971 C 0.0 **** -0.24
33237 H 6.842148670384113 3.5530197587206374 106.9632638990872 H 0.0 **** 0.06
33238 H 6.930043386298131 2.495163440938967 105.53416750041842 H 0.0 **** 0.06
33239 H 8.400451288976868 2.8432972050160004 106.47625482755782 H 0.0 **** 0.06
33240 H 7.65510147872758 4.120728754707784 105.48441595103034 H 0.0 **** 0.06
33241 C 91.11030617561785 114.7366653999663 26.144466870266996 C 0.0 **** -0.24
33242 H 90.5742055255572 114.58414704673889 27.0807075957496 H 0.0 **** 0.06
33243 H 90.4316510465874 114.57442094608648 25.30732087204717 H 0.0 **** 0.06
33244 H 91.94041364393482 114.03320684711251 26.08202386236482 H 0.0 **** 0.06
33245 H 91.49485738835098 115.75718157626959 26.108666390901163 H 0.0 **** 0.06
33246 C 110.59429955395542 7.275478967822096 2.106818190715046 C 0.0 **** -0.24
33247 H 111.39446962874455 6.718349527195016 2.5942472901556073 H 0.0 **** 0.06
33248 H 110.37927668168867 6.827395039193618 1.1357757054644253 H 0.0 **** 0.06
33249 H 110.90545588931768 8.31148360222869 1.9678301870856387 H 0.0 **** 0.06
33250 H 109.69977234484573 7.2449253784524785 2.727749734080618 H 0.0 **** 0.06
33251 C 99.74588374248589 65.60453678563411 81.96450279246378 C 0.0 **** -0.24
33252 H 100.13960780517789 66.0709481418481 81.06196899410142 H 0.0 **** 0.06
33253 H 99.95698888712997 64.53510831120346 81.94287267623389 H 0.0 **** 0.06
33254 H 98.66886447197449 65.76282417864527 82.0148123926418 H 0.0 **** 0.06
33255 H 100.22008649120343 66.05005381393713 82.83951013347982 H 0.0 **** 0.06
33256 C 47.883105634049684 57.53074342378878 49.82648689130224 C 0.0 **** -0.24
33257 H 47.93552858767325 56.476314389797324 49.55377136067146 H 0.0 **** 0.06
33258 H 48.72523329493856 58.06170327354607 49.382708656156126 H 0.0 **** 0.06
33259 H 47.92407532816546 57.626639720060666 50.9110945793453 H 0.0 **** 0.06
33260 H 46.9494794508075 57.95600004875632 49.4581549227854 H 0.0 **** 0.06
33261 C 129.71326520380728 66.68662324659908 3.0616961509552603 C 0.0 **** -0.24
33262 H 129.20967245165235 66.22078590859856 2.2149031524542657 H 0.0 **** 0.06
33263 H 129.12070259861738 67.52932441642304 3.418735091116716 H 0.0 **** 0.06
33264 H 130.69659136342887 67.0395922190767 2.749196405091798 H 0.0 **** 0.06
33265 H 129.82673528889845 65.95580543812532 3.8620475321860788 H 0.0 **** 0.06
33266 C 11.355293255835079 72.1662824943946 65.14033518515603 C 0.0 **** -0.24
33267 H 11.849814413665186 72.02741697916238 64.17917460502406 H 0.0 **** 0.06
33268 H 10.433019052410053 71.58610642578722 65.16248222798848 H 0.0 **** 0.06
33269 H 11.123472957895757 73.22228615811548 65.27966250647094 H 0.0 **** 0.06
33270 H 12.015661611031028 71.83085889516742 65.9400552173407 H 0.0 **** 0.06
33271 C 59.37359102031431 51.58681495824894 57.003547266965285 C 0.0 **** -0.24
33272 H 59.46112439666672 51.62388413773351 55.917662249765755 H 0.0 **** 0.06
33273 H 58.57944401446747 52.26163691599501 57.32657888517005 H 0.0 **** 0.06
33274 H 60.31766319511016 51.89397174620538 57.45451062734014 H 0.0 **** 0.06
33275 H 59.13555989748829 50.56986586830999 57.314920364019315 H 0.0 **** 0.06
33276 C 149.21905996772637 52.50854418428342 112.80087633589714 C 0.0 **** -0.24
33277 H 150.15248020862035 52.71389759548889 113.3251025463497 H 0.0 **** 0.06
33278 H 148.4643407438977 52.183497791983186 113.51632527460445 H 0.0 **** 0.06
33279 H 149.38266453657906 51.72322834684472 112.06220854767206 H 0.0 **** 0.06
33280 H 148.87725481795843 53.41382335776818 112.29823294878237 H 0.0 **** 0.06
33281 C 120.39306960073947 103.47266044239494 80.9742420729585 C 0.0 **** -0.24
33282 H 119.33666213459537 103.58378067745873 80.73426923477112 H 0.0 **** 0.06
33283 H 120.5123327284154 102.71003028391718 81.74483086573912 H 0.0 **** 0.06
33284 H 120.78573092128727 104.42188956284822 81.33911144263206 H 0.0 **** 0.06
33285 H 120.93974099473388 103.17415580699195 80.07952766784359 H 0.0 **** 0.06
33286 C 80.23751299244829 113.44501817310214 86.45572174724964 C 0.0 **** -0.24
33287 H 79.4989018219103 114.17509417392296 86.12382556197284 H 0.0 **** 0.06
33288 H 79.82832519200952 112.44062975430188 86.34850832436544 H 0.0 **** 0.06
33289 H 80.48303403394596 113.62798089366828 87.502005436334 H 0.0 **** 0.06
33290 H 81.13836253650618 113.53741404148741 85.84947792854118 H 0.0 **** 0.06
33291 C 139.64438345044525 50.27892910307857 1.8308574108465905 C 0.0 **** -0.24
33292 H 139.26046415451395 51.02421911059237 2.527361005740346 H 0.0 **** 0.06
33293 H 139.38208853625392 49.28164237353337 2.18625873166593 H 0.0 **** 0.06
33294 H 140.72886346119552 50.3675503218975 1.7658122538981615 H 0.0 **** 0.06
33295 H 139.20607274885987 50.44166700641043 0.8463623232853763 H 0.0 **** 0.06
33296 C 144.89838027527105 32.46433594378463 129.68786433617424 C 0.0 **** -0.24
33297 H 144.69247547508579 32.18868948308212 128.65417643297388 H 0.0 **** 0.06
33298 H 144.80370962463405 33.54441456736594 129.8019701421345 H 0.0 **** 0.06
33299 H 145.91177292397498 32.15770463646889 129.94954183691993 H 0.0 **** 0.06
33300 H 144.18724747291833 31.964284076824292 130.34545900977986 H 0.0 **** 0.06
33301 C 28.648664586124255 60.63146863093013 28.569372033665502 C 0.0 **** -0.24
33302 H 29.504559146244105 60.94853116434399 29.164072198575283 H 0.0 **** 0.06
33303 H 28.61091762019987 61.21387050862468 27.648050834292178 H 0.0 **** 0.06
33304 H 27.732427588489372 60.79017042887013 29.136823295918106 H 0.0 **** 0.06
33305 H 28.74771129048338 59.57382498835676 28.325747019903645 H 0.0 **** 0.06
33306 C 66.75237600859674 80.05157725628165 117.92849336522623 C 0.0 **** -0.24
33307 H 65.68714247019756 80.25980439165053 117.83158397765162 H 0.0 **** 0.06
33308 H 67.28327345562255 80.97502409598391 118.16098280367801 H 0.0 **** 0.06
33309 H 67.12987741364995 79.64183737866925 116.99156038442605 H 0.0 **** 0.06
33310 H 66.91018182129403 79.32946420066787 118.73000416895665 H 0.0 **** 0.06
33311 C 61.595898106128416 58.79982758760612 65.01104834613338 C 0.0 **** -0.24
33312 H 61.686437548043 58.29620152123671 65.97337410765434 H 0.0 **** 0.06
33313 H 60.6457460208735 58.53189901321679 64.5482548701694 H 0.0 **** 0.06
33314 H 62.41596739581637 58.49174296290259 64.36187676995957 H 0.0 **** 0.06
33315 H 61.63699850175644 59.87866147140592 65.15972476237278 H 0.0 **** 0.06
33316 C 91.78341472111839 73.3120183376491 142.89908579094197 C 0.0 **** -0.24
33317 H 92.58382170141557 72.9001430084962 142.28424607947392 H 0.0 **** 0.06
33318 H 91.55141653928699 72.61765738242221 143.7068340207171 H 0.0 **** 0.06
33319 H 90.89595186388969 73.46425496685876 142.28440279319236 H 0.0 **** 0.06
33320 H 92.10253069178931 74.26521435967223 143.31969819728766 H 0.0 **** 0.06
33321 C 47.88701679925751 75.9202751745608 126.15754794108477 C 0.0 **** -0.24
33322 H 48.01692067869945 76.62627715304865 126.97733550210009 H 0.0 **** 0.06
33323 H 46.93491928790846 76.1121193592275 125.66087330907195 H 0.0 **** 0.06
33324 H 47.89400234157725 74.9034997214298 126.54850230343317 H 0.0 **** 0.06
33325 H 48.700505867325916 76.04091445920471 125.44202422395114 H 0.0 **** 0.06
33326 C 47.68761699076347 8.425009000094292 139.90109968378198 C 0.0 **** -0.24
33327 H 48.110714194638916 7.53996194241148 139.4250009777155 H 0.0 **** 0.06
33328 H 46.90331749958406 8.123574906903741 140.59534839600553 H 0.0 **** 0.06
33329 H 47.26698354302144 9.080108902484938 139.13799607634832 H 0.0 **** 0.06
33330 H 48.470548799912905 8.954780529391542 140.44301883263512 H 0.0 **** 0.06
33331 C 2.658692995732764 144.74977877552556 1.1989918113855254 C 0.0 **** -0.24
33332 H 3.536514559073055 144.4534798045712 1.7724660259262919 H 0.0 **** 0.06
33333 H 2.9093748129201913 144.77096004293077 0.13776821819021734 H 0.0 **** 0.06
33334 H 2.3347017689472125 145.7407593064708 1.515282370074658 H 0.0 **** 0.06
33335 H 1.855445506623255 144.03310295637075 1.368516752510203 H 0.0 **** 0.06
33336 C 85.21208683355573 41.58746142907512 116.49450260648428 C 0.0 **** -0.24
33337 H 84.95795910155013 41.416951810684424 115.44773849937695 H 0.0 **** 0.06
33338 H 85.07380494665472 40.66286837563612 117.05638635578185 H 0.0 **** 0.06
33339 H 84.56397610117838 42.36222753023239 116.90408709051684 H 0.0 **** 0.06
33340 H 86.25202594048747 41.90558117476624 116.56893357471222 H 0.0 **** 0.06
33341 C 19.368241798886572 2.615426822478298 116.11568222716792 C 0.0 **** -0.24
33342 H 18.407178502752508 2.263147351930911 115.74134014986478 H 0.0 **** 0.06
33343 H 20.172800476036628 2.1505649577903228 115.54744794488934 H 0.0 **** 0.06
33344 H 19.466357850077856 2.35087335843113 117.16925198971737 H 0.0 **** 0.06
33345 H 19.42431180850945 3.6993179251707886 116.00765551170596 H 0.0 **** 0.06
33346 C 148.28042007242252 64.43343571279686 63.4435600467601 C 0.0 **** -0.24
33347 H 148.4134630153132 63.35683652505668 63.55004125670135 H 0.0 **** 0.06
33348 H 147.29327403153323 64.71489005436602 63.813060666781524 H 0.0 **** 0.06
33349 H 148.36789476048776 64.7090174150869 62.393361813165285 H 0.0 **** 0.06
33350 H 149.04549004473083 64.95255638284067 64.02099762484896 H 0.0 **** 0.06
33351 C 108.94651783680236 147.14922871170583 13.224264804394807 C 0.0 **** -0.24
33352 H 108.89534587473726 148.1441456065012 12.781813347701586 H 0.0 **** 0.06
33353 H 109.34750062057326 147.22205437544335 14.234910979539137 H 0.0 **** 0.06
33354 H 109.59599136364967 146.51587213728766 12.620068588041903 H 0.0 **** 0.06
33355 H 107.94659476272999 146.71574392112086 13.259383152742572 H 0.0 **** 0.06
33356 C 34.50200925149679 124.56676742106427 148.26256469335783 C 0.0 **** -0.24
33357 H 35.56474827043803 124.55391026131471 148.50419447154215 H 0.0 **** 0.06
33358 H 34.07867088152342 125.53235791455839 148.53973452954543 H 0.0 **** 0.06
33359 H 33.99518599031761 123.77491142391622 148.81377312218092 H 0.0 **** 0.06
33360 H 34.37141528340064 124.40603087844156 147.1927719866046 H 0.0 **** 0.06
33361 C 72.05269496868425 9.614603446670202 30.54131682667571 C 0.0 **** -0.24
33362 H 72.28487807871359 9.385756917762592 29.500958344008026 H 0.0 **** 0.06
33363 H 72.6923801601431 9.019528254160974 31.194028784769642 H 0.0 **** 0.06
33364 H 71.00829844372313 9.376192466108165 30.741408230237766 H 0.0 **** 0.06
33365 H 72.22628908557009 10.674131957950152 30.7288452051676 H 0.0 **** 0.06
33366 C 117.18747144539707 91.02365362426015 48.805206056497255 C 0.0 **** -0.24
33367 H 116.53580370152314 90.49419068632263 48.10996966367942 H 0.0 **** 0.06
33368 H 117.22536039302504 90.4838257241676 49.750611628804336 H 0.0 **** 0.06
33369 H 116.79886171977041 92.02838349883173 48.97405177644707 H 0.0 **** 0.06
33370 H 118.19066984386716 91.08895526675025 48.38306131727377 H 0.0 **** 0.06
33371 C 107.58844696151105 63.482340646832114 98.98694497758362 C 0.0 **** -0.24
33372 H 107.1029362849198 63.87485772566001 99.88037611988497 H 0.0 **** 0.06
33373 H 108.67030975543027 63.51619935696675 99.11679865971351 H 0.0 **** 0.06
33374 H 107.30549470539144 64.08653663385417 98.1248952580697 H 0.0 **** 0.06
33375 H 107.27406059588613 62.45046915661979 98.82753682958054 H 0.0 **** 0.06
33376 C 20.88935738670179 53.36477042126043 31.500288504998203 C 0.0 **** -0.24
33377 H 20.36447232884035 53.5235176115238 32.44177958461753 H 0.0 **** 0.06
33378 H 21.69111961551141 52.64033399368421 31.64993390217009 H 0.0 **** 0.06
33379 H 21.31149914112757 54.30851467731978 31.155719813646442 H 0.0 **** 0.06
33380 H 20.190604976469842 52.98447061413998 30.75466417832243 H 0.0 **** 0.06
33381 C 78.4680482559619 20.12137382027199 141.01950610841251 C 0.0 **** -0.24
33382 H 79.39001353798454 19.731547398006335 141.45088513182904 H 0.0 **** 0.06
33383 H 78.45658271256126 19.923447084046416 139.94758165194807 H 0.0 **** 0.06
33384 H 78.41273856352908 21.19565140250775 141.19180222238475 H 0.0 **** 0.06
33385 H 77.61311044321226 19.63322937555818 141.48831401512982 H 0.0 **** 0.06
33386 C 122.95258983145824 29.102068150521134 83.092845549313 C 0.0 **** -0.24
33387 H 123.99533523941524 28.844795037838004 82.91031610897022 H 0.0 **** 0.06
33388 H 122.35774527144814 28.189518334703493 83.14844522964235 H 0.0 **** 0.06
33389 H 122.58474033501845 29.726335122799526 82.27895492106232 H 0.0 **** 0.06
33390 H 122.87220918784102 29.64668260842933 84.03359393597135 H 0.0 **** 0.06
33391 C 77.27518368760587 21.926172187399118 36.50821665973198 C 0.0 **** -0.24
33392 H 78.28929337767516 21.87450522284601 36.112093520698366 H 0.0 **** 0.06
33393 H 76.75420537153758 20.992113240648962 36.29638185171904 H 0.0 **** 0.06
33394 H 76.7441531791812 22.754718136499775 36.03921057692682 H 0.0 **** 0.06
33395 H 77.31500148196506 22.08414625412479 37.58601034316242 H 0.0 **** 0.06
33396 C 142.63287254089684 79.29224437523123 108.5575409379587 C 0.0 **** -0.24
33397 H 143.7198512266723 79.22961192555971 108.59418719994166 H 0.0 **** 0.06
33398 H 142.25272846970816 78.5778767693202 107.8263734186563 H 0.0 **** 0.06
33399 H 142.33656954268022 80.30008060823117 108.26934813993394 H 0.0 **** 0.06
33400 H 142.22281662337411 79.0597765793776 109.53992086505467 H 0.0 **** 0.06
33401 C 16.59718390573198 85.73430455452288 148.52689480696066 C 0.0 **** -0.24
33402 H 15.631615097684971 86.09132086667634 148.16835649390185 H 0.0 **** 0.06
33403 H 17.393006630143645 86.32598644344714 148.07491228192427 H 0.0 **** 0.06
33404 H 16.722193981211177 84.68666320734988 148.2507976859096 H 0.0 **** 0.06
33405 H 16.640861220319408 85.83225059720269 149.61108681361128 H 0.0 **** 0.06
33406 C 11.733377348427922 55.875117120418935 42.71707062042648 C 0.0 **** -0.24
33407 H 10.646220431885162 55.94903117166925 42.71606618583206 H 0.0 **** 0.06
33408 H 12.162357029115263 56.84273915314776 42.45431490702461 H 0.0 **** 0.06
33409 H 12.047559143329934 55.1279067774083 41.98854198323093 H 0.0 **** 0.06
33410 H 12.077365849476635 55.58321101697965 43.709740883885715 H 0.0 **** 0.06
33411 C 113.05288280279522 45.950462897655626 79.10523023342326 C 0.0 **** -0.24
33412 H 111.97893184753961 46.03073765103261 78.94067401470457 H 0.0 **** 0.06
33413 H 113.46461771822781 46.93935520265626 79.3063740738239 H 0.0 **** 0.06
33414 H 113.52569637267449 45.53364884008231 78.21521961498607 H 0.0 **** 0.06
33415 H 113.24211786001901 45.296983318953465 79.95672891777538 H 0.0 **** 0.06
33416 C 57.33407974573299 70.67639981027462 19.13049562261145 C 0.0 **** -0.24
33417 H 57.734096849089156 71.13404718764829 18.225490819957372 H 0.0 **** 0.06
33418 H 56.57660206952795 71.32993917611904 19.564538701251195 H 0.0 **** 0.06
33419 H 58.141012091796995 70.52807939240311 19.84936890257225 H 0.0 **** 0.06
33420 H 56.886089372356025 69.71455234965704 18.883460146333448 H 0.0 **** 0.06
33421 C 97.7643471037471 0.30841722491669543 45.87799910915531 C 0.0 **** -0.24
33422 H 96.70221432427664 0.08004031857285554 45.78954894677041 H 0.0 **** 0.06
33423 H 98.1121426046154 0.7782636836167853 44.95829912608416 H 0.0 **** 0.06
33424 H 98.32069710403533 -0.6137169566940202 46.047880639788374 H 0.0 **** 0.06
33425 H 97.92106176060781 0.9880331511273539 46.71573785006407 H 0.0 **** 0.06
33426 C 15.106746435002378 146.40468860925972 5.300282084080266 C 0.0 **** -0.24
33427 H 14.898216297971686 147.0638066033007 6.143714463934089 H 0.0 **** 0.06
33428 H 14.808206601718751 145.38606374771473 5.552305736259598 H 0.0 **** 0.06
33429 H 16.173354008797048 146.42591848939085 5.078095144232748 H 0.0 **** 0.06
33430 H 14.54725244087598 146.74310642716904 4.4284195259988905 H 0.0 **** 0.06
33431 C 104.00785672300061 59.98393190479018 94.969597540508 C 0.0 **** -0.24
33432 H 103.08210014655246 59.97378392768479 95.54539636325654 H 0.0 **** 0.06
33433 H 104.82421030932393 60.33214467108519 95.60255976953704 H 0.0 **** 0.06
33434 H 103.8978799034086 60.653690336521905 94.11708701158604 H 0.0 **** 0.06
33435 H 104.22601762969872 58.97661197618221 94.61584926965446 H 0.0 **** 0.06
33436 C 88.108982818452 36.41823914591146 113.16989424785481 C 0.0 **** -0.24
33437 H 87.98269668165347 35.506143394270055 113.75303627905987 H 0.0 **** 0.06
33438 H 87.29547716068468 36.50295412916995 112.44876843873016 H 0.0 **** 0.06
33439 H 89.06154244680222 36.382940024065704 112.64157938285064 H 0.0 **** 0.06
33440 H 88.09432159836518 37.28048154784864 113.8366660067341 H 0.0 **** 0.06
33441 C 59.089625931392334 150.21605720296952 136.78289972398684 C 0.0 **** -0.24
33442 H 58.89958134916748 150.3301587894749 137.85061382745192 H 0.0 **** 0.06
33443 H 59.36951179590727 149.18319596028135 136.57301623326998 H 0.0 **** 0.06
33444 H 59.90107493864883 150.88062688520745 136.48632742568705 H 0.0 **** 0.06
33445 H 58.18906514167787 150.4702330206541 136.2247184203609 H 0.0 **** 0.06
33446 C 30.258499011594836 102.49992915073605 76.79978050546839 C 0.0 **** -0.24
33447 H 30.16609408522207 103.58465002781936 76.85829930298354 H 0.0 **** 0.06
33448 H 30.10155983376802 102.17770280509087 75.76984176858973 H 0.0 **** 0.06
33449 H 29.512118492413215 102.03606257351774 77.44420612743657 H 0.0 **** 0.06
33450 H 31.255318765773943 102.20306469418291 77.12594359033424 H 0.0 **** 0.06
33451 C 95.44743611562174 23.314685671969336 69.52603889652343 C 0.0 **** -0.24
33452 H 95.58476807902295 22.2543925396915 69.73916773998823 H 0.0 **** 0.06
33453 H 96.25475916597837 23.88499908458676 69.98648175030013 H 0.0 **** 0.06
33454 H 94.4909114559449 23.645783680387723 69.92997225020957 H 0.0 **** 0.06
33455 H 95.46100101818169 23.47213321177999 68.44678183245875 H 0.0 **** 0.06
33456 C 44.09762905230836 105.86761623863416 42.66620440392208 C 0.0 **** -0.24
33457 H 43.688175966624954 105.08523761885684 42.027028874543916 H 0.0 **** 0.06
33458 H 45.153682056083724 105.6713458409624 42.850797086510866 H 0.0 **** 0.06
33459 H 43.55889276428459 105.88077883552691 43.613663342974505 H 0.0 **** 0.06
33460 H 43.98821858790825 106.83388180906351 42.17334671888537 H 0.0 **** 0.06
33461 C 126.45517186933701 100.00872024953944 13.147392166739849 C 0.0 **** -0.24
33462 H 127.2029998202741 100.77839364037803 13.337299240080654 H 0.0 **** 0.06
33463 H 125.4921643717974 100.47985119744564 12.946512272802295 H 0.0 **** 0.06
33464 H 126.36925791267765 99.3619822040433 14.02069519766792 H 0.0 **** 0.06
33465 H 126.75688518273553 99.41516056004494 12.283896082816625 H 0.0 **** 0.06
33466 C 38.13363481974966 34.080401573099614 38.478326062960356 C 0.0 **** -0.24
33467 H 37.42980512772647 34.410971363872754 37.71564605338821 H 0.0 **** 0.06
33468 H 39.046692072826716 33.72499402343992 38.00137597461492 H 0.0 **** 0.06
33469 H 37.687751006309384 33.27207385979362 39.058388505796 H 0.0 **** 0.06
33470 H 38.37008576813133 34.91368850116939 39.14011706725921 H 0.0 **** 0.06
33471 C 101.82734361235254 96.3144761549429 113.47013330763917 C 0.0 **** -0.24
33472 H 102.74564043080498 96.07079738481679 112.93448776494012 H 0.0 **** 0.06
33473 H 102.01650021560167 96.29067132833273 114.54382303560897 H 0.0 **** 0.06
33474 H 101.05736264543678 95.5848882927175 113.21991273743737 H 0.0 **** 0.06
33475 H 101.4914491527411 97.30977135764272 113.18171381966005 H 0.0 **** 0.06
33476 C 8.297819979542027 65.29012692511824 63.22557721499621 C 0.0 **** -0.24
33477 H 8.460708295493504 66.10949860042368 62.52540156588368 H 0.0 **** 0.06
33478 H 8.631656849730689 65.59105846552367 64.21908698905024 H 0.0 **** 0.06
33479 H 8.863693914889268 64.41744991615539 62.90071573353467 H 0.0 **** 0.06
33480 H 7.236671459333735 65.04512570617825 63.25717889743028 H 0.0 **** 0.06
33481 C 128.61039156990162 118.92871332186503 90.87536859000743 C 0.0 **** -0.24
33482 H 129.39065073017613 118.57805202745887 90.20014657607378 H 0.0 **** 0.06
33483 H 129.0114435135704 119.71080376430554 91.51959241846632 H 0.0 **** 0.06
33484 H 128.25937043285592 118.09736601443502 91.48664209349499 H 0.0 **** 0.06
33485 H 127.77932645720989 119.32872816091991 90.2929980428797 H 0.0 **** 0.06
33486 C 141.9555631311407 70.78117385687341 101.01546684904827 C 0.0 **** -0.24
33487 H 141.31344047054068 71.2839813397647 101.73949423343132 H 0.0 **** 0.06
33488 H 142.81849570424703 70.35677164213433 101.52860583345822 H 0.0 **** 0.06
33489 H 142.2938776739965 71.50185066387951 100.27010871984436 H 0.0 **** 0.06
33490 H 141.3957484643894 69.98562607478186 100.52467492297589 H 0.0 **** 0.06
33491 C 0.6787638076319489 125.62955237709308 135.65277742580585 C 0.0 **** -0.24
33492 H 0.576315557362836 126.03193384398955 136.66035172920695 H 0.0 **** 0.06
33493 H 0.8202831200971055 126.44822187764515 134.94683193555514 H 0.0 **** 0.06
33494 H -0.2229186442204103 125.07515282500403 135.3904809978024 H 0.0 **** 0.06
33495 H 1.5394040401854632 124.9628597082348 135.61378117192447 H 0.0 **** 0.06
33496 C 12.42277564108224 92.4043777057208 101.92007217891751 C 0.0 **** -0.24
33497 H 11.337420401470013 92.41468931997639 102.01670619943383 H 0.0 **** 0.06
33498 H 12.846674969902807 91.72234387034379 102.65769791140656 H 0.0 **** 0.06
33499 H 12.812362838732469 93.40876399001624 102.08731304424015 H 0.0 **** 0.06
33500 H 12.694644354223641 92.07171364254683 100.91857156058938 H 0.0 **** 0.06
33501 C 94.8266765130186 38.23962405959979 88.65950633457015 C 0.0 **** -0.24
33502 H 95.86350357620869 38.56366439336017 88.75034681429102 H 0.0 **** 0.06
33503 H 94.69921190951648 37.280785547617484 89.16221795676375 H 0.0 **** 0.06
33504 H 94.5711651334402 38.13356589863555 87.60509508038055 H 0.0 **** 0.06
33505 H 94.17255721528362 38.98176062652513 89.11855185533801 H 0.0 **** 0.06
33506 C 31.429196476810944 88.06556394590643 149.12538370036796 C 0.0 **** -0.24
33507 H 30.373039038417573 87.91800364295563 149.34704525057353 H 0.0 **** 0.06
33508 H 31.6222915557629 89.12668216886584 148.96268167017166 H 0.0 **** 0.06
33509 H 31.694030498405596 87.50617910201436 148.2275596313166 H 0.0 **** 0.06
33510 H 32.02964551751535 87.71173246996182 149.96327254056774 H 0.0 **** 0.06
33511 C 92.16031569913403 78.24560995735746 80.89128804785526 C 0.0 **** -0.24
33512 H 92.91604628964046 79.02912484123638 80.8302699471493 H 0.0 **** 0.06
33513 H 92.0921011844801 77.73221435598427 79.93140197371329 H 0.0 **** 0.06
33514 H 91.19486196059353 78.68977907477316 81.13503050005238 H 0.0 **** 0.06
33515 H 92.4388513354616 77.53196828513771 81.66639444722011 H 0.0 **** 0.06
33516 C 143.88211626859666 133.03840768973527 100.34060875613412 C 0.0 **** -0.24
33517 H 142.80512146195056 132.8754636120512 100.37390858321291 H 0.0 **** 0.06
33518 H 144.3910928392495 132.081008804684 100.23088321335288 H 0.0 **** 0.06
33519 H 144.20568270639498 133.51818396732307 101.2642948318854 H 0.0 **** 0.06
33520 H 144.12656806679144 133.67897437488298 99.49334839608545 H 0.0 **** 0.06
33521 C 102.01918665172045 29.465577619429638 65.64064133118177 C 0.0 **** -0.24
33522 H 101.38634594790092 28.807262252452517 66.2352596798267 H 0.0 **** 0.06
33523 H 102.337005498634 28.945251721583418 64.73690816362489 H 0.0 **** 0.06
33524 H 102.8943584377508 29.752065670923514 66.22282032616101 H 0.0 **** 0.06
33525 H 101.45725644236227 30.359047234256934 65.3672643094834 H 0.0 **** 0.06
33526 C 35.666863774978076 44.2245155471509 1.5190998129285802 C 0.0 **** -0.24
33527 H 34.89365541497361 43.5537985640883 1.8942518582618284 H 0.0 **** 0.06
33528 H 36.05686991411599 43.837524388325505 0.5772630074425145 H 0.0 **** 0.06
33529 H 36.47490728415705 44.291684660522975 2.247292415766946 H 0.0 **** 0.06
33530 H 35.240410751196244 45.21411486798564 1.3563593140645729 H 0.0 **** 0.06
33531 C 108.78804638890165 104.94485744961912 73.45477740209955 C 0.0 **** -0.24
33532 H 109.30134162806587 105.78674892233488 72.99078472024249 H 0.0 **** 0.06
33533 H 108.27333454147526 105.2833097140267 74.35396495727483 H 0.0 **** 0.06
33534 H 109.51552728614917 104.17766968252977 73.72036160074995 H 0.0 **** 0.06
33535 H 108.06232928849136 104.53078036719245 72.75417453641361 H 0.0 **** 0.06
33536 C 138.6679573644775 6.905780688407106 62.59863651342977 C 0.0 **** -0.24
33537 H 138.63747649072846 6.347614882077039 63.53431772415155 H 0.0 **** 0.06
33538 H 137.7645899116822 6.698290757706047 62.02315346571052 H 0.0 **** 0.06
33539 H 139.5423320706207 6.603472467675942 62.02260171997585 H 0.0 **** 0.06
33540 H 138.72483655577315 7.971995936733322 62.81401344949177 H 0.0 **** 0.06
33541 C 37.52450377054052 80.76113167663797 26.469394505250364 C 0.0 **** -0.24
33542 H 37.41601231369856 80.26162408584138 27.43179942638531 H 0.0 **** 0.06
33543 H 38.229322479693224 80.20694645109752 25.849223705104123 H 0.0 **** 0.06
33544 H 37.89634333792216 81.77394773862557 26.626035695617333 H 0.0 **** 0.06
33545 H 36.55644097248544 80.80346026069553 25.96958032233809 H 0.0 **** 0.06
33546 C 80.12255834704374 28.114198744128146 76.58000730155172 C 0.0 **** -0.24
33547 H 80.39693604448503 27.202808972922853 77.11249870760673 H 0.0 **** 0.06
33548 H 79.09332970324466 28.379664872963104 76.8217708672774 H 0.0 **** 0.06
33549 H 80.21290583381328 27.9474334917017 75.50697228843464 H 0.0 **** 0.06
33550 H 80.78756986980858 28.923258832657552 76.87954506928438 H 0.0 **** 0.06
33551 C 110.33782058563354 141.36895257103828 76.77956542752334 C 0.0 **** -0.24
33552 H 111.33233117390539 141.33630272890383 76.33490808572263 H 0.0 **** 0.06
33553 H 110.4136308497746 141.70945944782747 77.81232937024866 H 0.0 **** 0.06
33554 H 109.8979250872875 140.3721749517688 76.75750206165186 H 0.0 **** 0.06
33555 H 109.70959472126411 142.0562179346647 76.21471501180159 H 0.0 **** 0.06
33556 C 5.150678253015556 82.8213848288394 76.01517269158687 C 0.0 **** -0.24
33557 H 5.011277773880487 83.51064735381944 76.84819740569996 H 0.0 **** 0.06
33558 H 5.900752317648163 83.22318989659148 75.33370436379651 H 0.0 **** 0.06
33559 H 4.207091428858913 82.69678514675576 75.48428918822489 H 0.0 **** 0.06
33560 H 5.484779821869903 81.85566665478025 76.39466055561607 H 0.0 **** 0.06
33561 C 110.38678681013438 39.52862181584176 111.88329332353025 C 0.0 **** -0.24
33562 H 109.5832925579174 39.828204670078904 111.21067710943838 H 0.0 **** 0.06
33563 H 110.87596242913948 40.41640141447539 112.28300453079349 H 0.0 **** 0.06
33564 H 111.11272629820833 38.927842732174426 111.33606319854097 H 0.0 **** 0.06
33565 H 109.973234219595 38.94099825702287 112.70299649951686 H 0.0 **** 0.06
33566 C 146.67145849288588 6.577908806068848 148.8972798973353 C 0.0 **** -0.24
33567 H 147.63681332159504 6.166220100959578 149.19283356783637 H 0.0 **** 0.06
33568 H 146.81215299491393 7.580847300901354 148.4958463788264 H 0.0 **** 0.06
33569 H 146.01462285443225 6.62171936771432 149.76610788177038 H 0.0 **** 0.06
33570 H 146.22316123803373 5.939912988820026 148.13506901833028 H 0.0 **** 0.06
33571 C 77.28274001381715 61.440083834019006 115.84971986776891 C 0.0 **** -0.24
33572 H 77.5194427008953 62.1129022926867 115.0253967226039 H 0.0 **** 0.06
33573 H 76.4977602165958 60.74972947895493 115.54028476660916 H 0.0 **** 0.06
33574 H 76.93994627845859 62.02196430057731 116.70597047571248 H 0.0 **** 0.06
33575 H 78.17382096591155 60.87733459133915 116.12602128291805 H 0.0 **** 0.06
33576 C 10.11095537716352 81.85661121816564 42.601760696025565 C 0.0 **** -0.24
33577 H 9.28996790391335 81.23601946371213 42.242813732087654 H 0.0 **** 0.06
33578 H 9.914138729121419 82.15926069886068 43.63073641001853 H 0.0 **** 0.06
33579 H 10.19884705640979 82.7410209205275 41.97225299582084 H 0.0 **** 0.06
33580 H 11.040151988278808 81.28782189423974 42.561550464115555 H 0.0 **** 0.06
33581 C 81.99439874710723 90.17353634828497 145.14494238473677 C 0.0 **** -0.24
33582 H 82.01398252866811 89.6921148628126 144.1669815832871 H 0.0 **** 0.06
33583 H 81.02398847973348 90.00412776082317 145.61389996085316 H 0.0 **** 0.06
33584 H 82.15776137428436 91.24500457268003 145.02511744588156 H 0.0 **** 0.06
33585 H 82.78016893047801 89.75437112844004 145.7727896533373 H 0.0 **** 0.06
33586 C 51.1064624368902 59.55450088680561 34.97443964564875 C 0.0 **** -0.24
33587 H 51.914167324768286 59.36402434086507 35.68210343078568 H 0.0 **** 0.06
33588 H 51.05782857865712 60.62288244373575 34.76017546455072 H 0.0 **** 0.06
33589 H 50.160804712263115 59.22655683394785 35.40535219796571 H 0.0 **** 0.06
33590 H 51.29565078170697 59.00670297599841 34.05172534936779 H 0.0 **** 0.06
33591 C 137.3856482153733 116.53968649809268 82.9644406799651 C 0.0 **** -0.24
33592 H 137.4688980001853 116.72572583037429 81.89444476280337 H 0.0 **** 0.06
33593 H 137.68786822541955 115.51501588653191 83.1796398169078 H 0.0 **** 0.06
33594 H 136.35318653354108 116.68907403203032 83.28012995518922 H 0.0 **** 0.06
33595 H 138.0332203468195 117.23120328480668 83.50425303875684 H 0.0 **** 0.06
33596 C 136.55276429085177 36.704185571098265 95.6422823048928 C 0.0 **** -0.24
33597 H 135.53928788651325 37.046129497688185 95.4316821530484 H 0.0 **** 0.06
33598 H 137.25390641580893 37.22187146421129 94.986181251475 H 0.0 **** 0.06
33599 H 136.61667571469417 35.630058262771286 95.46762164013636 H 0.0 **** 0.06
33600 H 136.80001034976647 36.91949618944773 96.68100707439002 H 0.0 **** 0.06
33601 C 149.0739749813442 67.92783474450431 117.67202743938857 C 0.0 **** -0.24
33602 H 150.0426714285334 67.43233853863705 117.61426798328701 H 0.0 **** 0.06
33603 H 148.35705951965897 67.39924396994422 117.04360679654819 H 0.0 **** 0.06
33604 H 149.17172638890034 68.95712190226871 117.3252968041793 H 0.0 **** 0.06
33605 H 148.72550832319425 67.92396880854346 118.70464814103592 H 0.0 **** 0.06
33606 C 28.7828059600277 114.86053450937253 143.51985941861423 C 0.0 **** -0.24
33607 H 28.71823307654293 115.51769441322652 144.38786214716535 H 0.0 **** 0.06
33608 H 28.894036612677382 115.46263574672123 142.61686251603257 H 0.0 **** 0.06
33609 H 27.875256369901564 114.26286461981066 143.44868464471145 H 0.0 **** 0.06
33610 H 29.645294435481986 114.20229183990703 143.6265164282788 H 0.0 **** 0.06
33611 C 17.69407162020721 91.86707103716881 109.48569202229277 C 0.0 **** -0.24
33612 H 18.47328911838966 92.60269892813312 109.28716704400182 H 0.0 **** 0.06
33613 H 17.898023683084233 90.9596435157244 108.91664777112669 H 0.0 **** 0.06
33614 H 16.72718027240353 92.27321842193794 109.18957399552067 H 0.0 **** 0.06
33615 H 17.679356849707148 91.6319824137276 110.55079594455594 H 0.0 **** 0.06
33616 C 148.79346758809643 138.20951881599663 67.60984147868012 C 0.0 **** -0.24
33617 H 147.80884594670277 138.4487694239326 67.20603469937767 H 0.0 **** 0.06
33618 H 148.67926303616213 137.69608300744542 68.56486739330398 H 0.0 **** 0.06
33619 H 149.3588573781466 139.12975747343293 67.75603543931125 H 0.0 **** 0.06
33620 H 149.32446017238422 137.5635860893082 66.91100941627822 H 0.0 **** 0.06
33621 C 6.586269428791866 130.83071673272246 29.71046993503402 C 0.0 **** -0.24
33622 H 6.484749691135107 131.8594586443133 29.365370976021154 H 0.0 **** 0.06
33623 H 6.332271453876643 130.77633430661587 30.76913091430496 H 0.0 **** 0.06
33624 H 7.614629704201093 130.49867812080197 29.565122017764317 H 0.0 **** 0.06
33625 H 5.913602450834304 130.18832125158931 29.140854519496102 H 0.0 **** 0.06
33626 C 31.421018790902806 137.40050805006103 16.839764191848424 C 0.0 **** -0.24
33627 H 32.39211886080039 137.31953476065584 16.350248609715955 H 0.0 **** 0.06
33628 H 31.30622951317239 136.58542151473446 17.554119030800372 H 0.0 **** 0.06
33629 H 30.63155412489254 137.3416069885375 16.090189841004054 H 0.0 **** 0.06
33630 H 31.35639648204446 138.35511010774152 17.36151157921347 H 0.0 **** 0.06
33631 C 61.7422363891466 68.95475503965194 44.50955980621396 C 0.0 **** -0.24
33632 H 61.52751344211973 68.1030923696791 45.15488393259545 H 0.0 **** 0.06
33633 H 62.08108580732247 68.59720441253313 43.53726196003302 H 0.0 **** 0.06
33634 H 62.520982094633865 69.56793815564068 44.96453466828538 H 0.0 **** 0.06
33635 H 60.83855614971222 69.55107558629969 44.38207126414167 H 0.0 **** 0.06
33636 C 53.06119227166201 56.826442451798954 79.78003291924315 C 0.0 **** -0.24
33637 H 54.0261781499531 56.987744036723015 80.26079226235295 H 0.0 **** 0.06
33638 H 52.4551217629365 56.16152895422944 80.39611578328129 H 0.0 **** 0.06
33639 H 53.21525236665323 56.375361395013144 78.799065589316 H 0.0 **** 0.06
33640 H 52.54942053565537 57.782164188547625 79.66345605542308 H 0.0 **** 0.06
33641 C 140.02033140414403 29.540447843495713 76.66504085021201 C 0.0 **** -0.24
33642 H 140.87757296421123 30.08234696935733 77.06382237981583 H 0.0 **** 0.06
33643 H 140.30398837354664 29.047311894799066 75.73510044587442 H 0.0 **** 0.06
33644 H 139.206547000203 30.23936817529831 76.47143609408116 H 0.0 **** 0.06
33645 H 139.69390936169512 28.794041371847896 77.38886092053473 H 0.0 **** 0.06
33646 C 115.59847078435388 16.525396148271142 19.606522209883217 C 0.0 **** -0.24
33647 H 116.6636125862185 16.71291522109459 19.472332016059774 H 0.0 **** 0.06
33648 H 115.06990564499603 16.752462881603236 18.680180420680188 H 0.0 **** 0.06
33649 H 115.21534527668376 17.157387454781684 20.40833911814942 H 0.0 **** 0.06
33650 H 115.44411640363592 15.476785428912734 19.865458214116032 H 0.0 **** 0.06
33651 C 101.87771674613313 10.352913407506037 94.20686475068368 C 0.0 **** -0.24
33652 H 101.1460220163159 10.415190191946294 93.40216551471417 H 0.0 **** 0.06
33653 H 101.41986870913584 9.8876965294441 95.07966822534317 H 0.0 **** 0.06
33654 H 102.21835017522717 11.355169439917631 94.46614680598796 H 0.0 **** 0.06
33655 H 102.72795937072165 9.75364487517885 93.87900923184318 H 0.0 **** 0.06
33656 C 72.86295826775233 115.5421372030834 23.123199106181858 C 0.0 **** -0.24
33657 H 73.28754774561776 115.89745087155822 24.062123201076247 H 0.0 **** 0.06
33658 H 72.77851107492654 114.45518800487892 23.152175724479406 H 0.0 **** 0.06
33659 H 73.51181993761531 115.83447627829125 22.297939231050265 H 0.0 **** 0.06
33660 H 71.87533867646471 115.98008729308029 22.982854170853244 H 0.0 **** 0.06
33661 C 106.14956780294035 2.200863014349739 0.6345344118215905 C 0.0 **** -0.24
33662 H 105.1623208441493 2.372672021096591 0.20568876294964866 H 0.0 **** 0.06
33663 H 106.12892893017074 1.293281876212827 1.2391004166643143 H 0.0 **** 0.06
33664 H 106.42652783400773 3.0486930283792937 1.260539097624985 H 0.0 **** 0.06
33665 H 106.87866715138237 2.087495658706075 -0.16816509029536064 H 0.0 **** 0.06
33666 C 78.27793509731987 105.0211563908879 17.627927884556534 C 0.0 **** -0.24
33667 H 77.31108276059601 104.51740222505394 17.64684383916557 H 0.0 **** 0.06
33668 H 78.59113818112571 105.16723061026998 16.593728838277876 H 0.0 **** 0.06
33669 H 79.01577649669963 104.4103451729108 18.1485200706298 H 0.0 **** 0.06
33670 H 78.192461489869 105.9885527100029 18.123017890734552 H 0.0 **** 0.06
33671 C 37.24706104350133 141.6718413292944 137.90091432727957 C 0.0 **** -0.24
33672 H 36.84658713758131 140.863220896166 138.51133801960228 H 0.0 **** 0.06
33673 H 38.25209017241531 141.92059021599917 138.2430355896667 H 0.0 **** 0.06
33674 H 36.60450451195905 142.54791939871646 137.99250487569034 H 0.0 **** 0.06
33675 H 37.28420362837454 141.35622735653732 136.8587566160751 H 0.0 **** 0.06
33676 C 103.87282701977676 63.38933022885624 89.8585209547925 C 0.0 **** -0.24
33677 H 102.99823040379522 63.66911598002997 90.44470363034863 H 0.0 **** 0.06
33678 H 104.21181933627565 62.39818717140548 90.16365242854415 H 0.0 **** 0.06
33679 H 104.66952206841063 64.11420414903375 90.0259822545042 H 0.0 **** 0.06
33680 H 103.61157209328042 63.374451252109395 88.80008768478355 H 0.0 **** 0.06
33681 C 89.91589247031192 45.90347756034788 34.784373302477434 C 0.0 **** -0.24
33682 H 90.0227416381387 45.76140341869876 35.859817248108016 H 0.0 **** 0.06
33683 H 90.69904035592425 46.57351856850599 34.4274363639864 H 0.0 **** 0.06
33684 H 88.93944443620846 46.337785817553296 34.57115267159895 H 0.0 **** 0.06
33685 H 90.00403495834979 44.94112885309811 34.280547601153074 H 0.0 **** 0.06
33686 C 10.534595371125455 61.519118134428055 66.42849242042287 C 0.0 **** -0.24
33687 H 10.97737311622057 62.08825837964807 65.61050417533747 H 0.0 **** 0.06
33688 H 10.46803384126656 60.468381894239 66.14533094652087 H 0.0 **** 0.06
33689 H 9.536841606792535 61.903838284882426 66.6388499808013 H 0.0 **** 0.06
33690 H 11.157847619572252 61.61804659274034 67.31792556757384 H 0.0 **** 0.06
33691 C 105.61376523529982 55.10642960884144 128.95425467178288 C 0.0 **** -0.24
33692 H 105.44597344764959 54.573451522571915 129.89034268745272 H 0.0 **** 0.06
33693 H 105.77579247463318 54.387609031478064 128.1511173045267 H 0.0 **** 0.06
33694 H 106.49222440750053 55.745632506985814 129.05327837461274 H 0.0 **** 0.06
33695 H 104.74297677532415 55.71935514045563 128.72378298918548 H 0.0 **** 0.06
33696 C 99.88494053920921 12.064969877206522 124.09226192233939 C 0.0 **** -0.24
33697 H 100.423895696558 11.411231947529188 124.7788495593577 H 0.0 **** 0.06
33698 H 99.23032782189249 12.726841381250608 124.65978003383117 H 0.0 **** 0.06
33699 H 99.2878504305076 11.459631445870116 123.41048977788012 H 0.0 **** 0.06
33700 H 100.59828727790486 12.659477085261017 123.52146590452736 H 0.0 **** 0.06
33701 C 117.29338742313948 19.619455225858005 53.12120911051369 C 0.0 **** -0.24
33702 H 117.9844885254785 18.86935761166759 53.503766641968724 H 0.0 **** 0.06
33703 H 116.98016033267172 19.344269839978153 52.11376119521836 H 0.0 **** 0.06
33704 H 117.78821785951007 20.59026856127607 53.09635382424594 H 0.0 **** 0.06
33705 H 116.41989366351683 19.673314191276624 53.77101858180086 H 0.0 **** 0.06
33706 C 39.217627226631436 89.19919516753632 95.60062643753736 C 0.0 **** -0.24
33707 H 38.212954020046666 88.80086382420572 95.45767754438562 H 0.0 **** 0.06
33708 H 39.17489877915747 90.28780547390679 95.63477849373692 H 0.0 **** 0.06
33709 H 39.853200204499444 88.88624357665046 94.77267852301436 H 0.0 **** 0.06
33710 H 39.62739664385518 88.82055393393776 96.537554055672 H 0.0 **** 0.06
33711 C 149.0289513119296 141.80061256271958 58.70416649169013 C 0.0 **** -0.24
33712 H 148.0072073302159 142.04968408820093 58.99240446705291 H 0.0 **** 0.06
33713 H 149.48525192231992 142.65610052317794 58.206658132763465 H 0.0 **** 0.06
33714 H 149.01687185015197 140.94774279135407 58.025484147105445 H 0.0 **** 0.06
33715 H 149.60533816840712 141.54730903171276 59.59478484476345 H 0.0 **** 0.06
33716 C 95.86858848996464 124.00083666528772 116.05062162784905 C 0.0 **** -0.24
33717 H 96.09380499747063 123.92357247462425 117.1140426325773 H 0.0 **** 0.06
33718 H 95.93814365897335 123.0151779387356 115.59221091862447 H 0.0 **** 0.06
33719 H 96.58292411823649 124.67403390950145 115.57659149495338 H 0.0 **** 0.06
33720 H 94.85981378605086 124.39281497054512 115.92054437397609 H 0.0 **** 0.06
33721 C 137.21268273013015 12.416794295774068 3.583208600262065 C 0.0 **** -0.24
33722 H 136.96380096600583 13.47655161761746 3.5418961335150314 H 0.0 **** 0.06
33723 H 137.59473008597087 12.095963730454649 2.613823192814781 H 0.0 **** 0.06
33724 H 136.31881419096052 11.842663593304614 3.8296441918292565 H 0.0 **** 0.06
33725 H 137.97224111245842 12.25226305057722 4.346683532811451 H 0.0 **** 0.06
33726 C 13.725797291387629 8.876038773769189 130.00312493306123 C 0.0 **** -0.24
33727 H 13.097233422515323 8.844381438760138 130.89350450812478 H 0.0 **** 0.06
33728 H 13.177564941500506 9.347495982023858 129.18824835999175 H 0.0 **** 0.06
33729 H 14.001594989621438 7.860824499089972 129.71688183669772 H 0.0 **** 0.06
33730 H 14.627115192358886 9.450487855806621 130.2158565940492 H 0.0 **** 0.06
33731 C 92.67777352324569 61.195864478385715 63.163734943444695 C 0.0 **** -0.24
33732 H 91.96880437534591 61.58324570359372 62.43113473526165 H 0.0 **** 0.06
33733 H 93.51496057133195 61.887369525657675 63.25807525639155 H 0.0 **** 0.06
33734 H 93.0447319544982 60.22326200505415 62.8361461525397 H 0.0 **** 0.06
33735 H 92.18099194495367 61.09212866684112 64.12861858672676 H 0.0 **** 0.06
33736 C 125.28090058430098 4.882276429305932 127.1826661035499 C 0.0 **** -0.24
33737 H 124.97236044198912 4.162374226343957 126.4249087109927 H 0.0 **** 0.06
33738 H 126.35055581886637 4.7777679121993515 127.36863435360507 H 0.0 **** 0.06
33739 H 124.7312721102147 4.695754773918111 128.10642785511155 H 0.0 **** 0.06
33740 H 125.0700031485003 5.89208083390605 126.83253217034249 H 0.0 **** 0.06
33741 C 46.87391990748273 32.10222243789241 91.35395648624431 C 0.0 **** -0.24
33742 H 46.21422708784442 32.64161396665776 90.67582997229866 H 0.0 **** 0.06
33743 H 47.86792888258856 32.02976243808018 90.91282137963621 H 0.0 **** 0.06
33744 H 46.47791143966812 31.10159741001121 91.52602134380565 H 0.0 **** 0.06
33745 H 46.93526356110924 32.636725779424125 92.30225899118422 H 0.0 **** 0.06
33746 C 115.30756207518682 130.40667079212892 19.23126975262042 C 0.0 **** -0.24
33747 H 115.91982340552839 130.45554843880555 20.130961072625638 H 0.0 **** 0.06
33748 H 114.48009884406811 129.7154734463073 19.39217756063377 H 0.0 **** 0.06
33749 H 115.91623570752459 130.05817102744146 18.3958932693821 H 0.0 **** 0.06
33750 H 114.91457032088162 131.39835050451492 19.005032382527133 H 0.0 **** 0.06
33751 C 93.21242512533877 142.74956728121626 9.30242795971003 C 0.0 **** -0.24
33752 H 93.49957146124768 142.84228433455016 10.350106839254522 H 0.0 **** 0.06
33753 H 93.89946784406098 142.0708675812914 8.797271059110642 H 0.0 **** 0.06
33754 H 93.25368226055652 143.72971441004896 8.827107071986006 H 0.0 **** 0.06
33755 H 92.19840472313923 142.35636020894492 9.236251876844506 H 0.0 **** 0.06
33756 C 13.056992774650993 30.453662438871817 70.81918166782003 C 0.0 **** -0.24
33757 H 13.848156346434969 29.739785534874272 71.04641815070315 H 0.0 **** 0.06
33758 H 13.233822051618667 31.379151053025765 71.3681541212155 H 0.0 **** 0.06
33759 H 12.09421291283914 30.034764436059305 71.11280200781127 H 0.0 **** 0.06
33760 H 13.051147687831552 30.661388527048047 69.74871437411818 H 0.0 **** 0.06
33761 C 114.95877074684275 129.05671097184623 92.00854928674903 C 0.0 **** -0.24
33762 H 114.9652102012606 129.92678026960186 91.35156644399659 H 0.0 **** 0.06
33763 H 114.61271675492411 128.1844548945777 91.4530094641273 H 0.0 **** 0.06
33764 H 114.28955151284065 129.24149189392836 92.84911048466206 H 0.0 **** 0.06
33765 H 115.96762398551643 128.87492461347455 92.37992156636209 H 0.0 **** 0.06
33766 C 55.044066379234664 6.373004863045416 93.02317027185259 C 0.0 **** -0.24
33767 H 54.66885581599041 5.382234863857722 92.76752146340287 H 0.0 **** 0.06
33768 H 56.13134327660663 6.381770553141472 92.94027496417866 H 0.0 **** 0.06
33769 H 54.75530493986986 6.618703210806181 94.04523761142411 H 0.0 **** 0.06
33770 H 54.620937924818605 7.108815485105808 92.33879643426657 H 0.0 **** 0.06
33771 C 28.2218279584145 28.440900203661243 111.75400819265961 C 0.0 **** -0.24
33772 H 28.067941076705615 27.47690111325764 111.26709019459149 H 0.0 **** 0.06
33773 H 27.55398905403588 29.18128840201601 111.31266815507173 H 0.0 **** 0.06
33774 H 29.25621036923591 28.75578321269677 111.61622865234743 H 0.0 **** 0.06
33775 H 28.00859249213326 28.347114688576852 112.81851341688225 H 0.0 **** 0.06
33776 C 124.3548759579652 43.140999283983376 6.33239504051264 C 0.0 **** -0.24
33777 H 125.16689866888267 42.43928536669807 6.1447220836208665 H 0.0 **** 0.06
33778 H 123.91632605632985 43.45122037345158 5.383385355289718 H 0.0 **** 0.06
33779 H 124.74268335519442 44.013217147021976 6.856836491982527 H 0.0 **** 0.06
33780 H 123.59265947899571 42.65802157401271 6.944414713749481 H 0.0 **** 0.06
33781 C 27.986885556498237 95.12244454745102 117.34045441135028 C 0.0 **** -0.24
33782 H 28.682575177196384 95.41993891452442 116.5556037563647 H 0.0 **** 0.06
33783 H 27.002208652717968 94.94776551435051 116.90647500333098 H 0.0 **** 0.06
33784 H 27.92027016068384 95.91533598787262 118.08585300239751 H 0.0 **** 0.06
33785 H 28.343740338152145 94.2079316055358 117.81397021893663 H 0.0 **** 0.06
33786 C 41.42933707112903 60.06713931236638 109.14175363960162 C 0.0 **** -0.24
33787 H 40.94376533169927 59.42989243921659 109.88064807197502 H 0.0 **** 0.06
33788 H 41.040049856156 59.83422605108065 108.14968689298918 H 0.0 **** 0.06
33789 H 42.50435348724923 59.890816686253544 109.1614128595673 H 0.0 **** 0.06
33790 H 41.227293832617676 61.11243654848006 109.37507036508622 H 0.0 **** 0.06
33791 C 96.26562817865697 105.81968040350934 79.08578140321936 C 0.0 **** -0.24
33792 H 96.92738246109424 105.09537414305625 78.6121104725965 H 0.0 **** 0.06
33793 H 96.43312055096341 105.81552368859086 80.16298079172755 H 0.0 **** 0.06
33794 H 95.22910120749096 105.55408545853466 78.87740756621857 H 0.0 **** 0.06
33795 H 96.47247488300448 106.81372009501477 78.68972584677766 H 0.0 **** 0.06
33796 C 101.35685380756976 29.581285711953626 117.55462874572532 C 0.0 **** -0.24
33797 H 100.29796689771004 29.809685687034687 117.44030732285262 H 0.0 **** 0.06
33798 H 101.47548698787583 28.531353380935627 117.82516304681474 H 0.0 **** 0.06
33799 H 101.78141357994 30.208263027005728 118.33786171382417 H 0.0 **** 0.06
33800 H 101.87382299609047 29.774061461439658 116.61408375121363 H 0.0 **** 0.06
33801 C 119.6244137398045 98.01154565285108 136.42465528012752 C 0.0 **** -0.24
33802 H 119.74129071058955 98.94600448298652 135.87602430793706 H 0.0 **** 0.06
33803 H 120.48367547682047 97.36820124843169 136.2345139160746 H 0.0 **** 0.06
33804 H 118.7145510923797 97.50988413872497 136.09592871827107 H 0.0 **** 0.06
33805 H 119.55784275818273 98.22407091412018 137.49215415125184 H 0.0 **** 0.06
33806 C 73.25551729523906 108.99741039989881 53.69779804894836 C 0.0 **** -0.24
33807 H 72.24802956024254 108.9227313092229 53.28852432472132 H 0.0 **** 0.06
33808 H 73.8713827668366 108.19321118553476 53.29637832612519 H 0.0 **** 0.06
33809 H 73.212339282991 108.91492378813767 54.78405590090455 H 0.0 **** 0.06
33810 H 73.68875158843528 109.95960147469451 53.42359942035438 H 0.0 **** 0.06
33811 C 82.33400794489074 139.21137764977362 128.99211175280885 C 0.0 **** -0.24
33812 H 81.6531144447058 138.38585620325517 129.2015106483115 H 0.0 **** 0.06
33813 H 83.09614630651005 138.88235991834586 128.2862981061841 H 0.0 **** 0.06
33814 H 82.81025152606651 139.53236986062507 129.91848075705667 H 0.0 **** 0.06
33815 H 81.77580462314195 140.04348526205217 128.56400612758878 H 0.0 **** 0.06
33816 C 78.53331959386892 59.66207854262949 147.40648976681945 C 0.0 **** -0.24
33817 H 78.03118943128774 60.472466007107045 147.93356745429514 H 0.0 **** 0.06
33818 H 78.69964070671574 58.830239478228535 148.0918769483505 H 0.0 **** 0.06
33819 H 79.49060268297609 60.01581697042214 147.02438680353566 H 0.0 **** 0.06
33820 H 77.91060154070229 59.32931787839682 146.57565038650762 H 0.0 **** 0.06
33821 C 55.39122776301994 145.71974033637517 50.80092756238008 C 0.0 **** -0.24
33822 H 55.27475369801144 144.70281210398255 51.175227222161354 H 0.0 **** 0.06
33823 H 54.756020772286405 146.39386450889987 51.37696942121924 H 0.0 **** 0.06
33824 H 55.10123842457497 145.75583410627726 49.7504805461609 H 0.0 **** 0.06
33825 H 56.43203970417031 146.026914613358 50.90125171731944 H 0.0 **** 0.06
33826 C 74.69884422422794 72.46915345967113 52.73771936548073 C 0.0 **** -0.24
33827 H 73.9983489003457 73.17022812100977 52.284826359141704 H 0.0 **** 0.06
33828 H 74.60367951507746 72.5104023187784 53.82321958602631 H 0.0 **** 0.06
33829 H 75.71602489303753 72.73660827811602 52.45187695580091 H 0.0 **** 0.06
33830 H 74.47806433324769 71.460018187519 52.390760141518996 H 0.0 **** 0.06
33831 C 29.761877935298912 84.47220764625058 139.91473799075393 C 0.0 **** -0.24
33832 H 29.14584710831764 83.61269715957377 140.1791471991111 H 0.0 **** 0.06
33833 H 30.810416796350353 84.23579809972603 140.09251657186306 H 0.0 **** 0.06
33834 H 29.472295650832905 85.32823637335395 140.52420448058265 H 0.0 **** 0.06
33835 H 29.61678683091992 84.71203269297882 138.8612651567581 H 0.0 **** 0.06
33836 C 112.3472972509407 118.9904387377482 6.6988634035271275 C 0.0 **** -0.24
33837 H 112.907293414695 119.82980104073641 7.111832803498714 H 0.0 **** 0.06
33838 H 112.46193000833432 118.12287435485433 7.348365397380348 H 0.0 **** 0.06
33839 H 112.72825291047138 118.75343632197786 5.705220035316017 H 0.0 **** 0.06
33840 H 111.29196443852567 119.25696992909144 6.629615182066573 H 0.0 **** 0.06
33841 C 78.18083451328633 119.304358703235 110.98315735715155 C 0.0 **** -0.24
33842 H 78.66883322522418 118.50363281044535 111.53791833943646 H 0.0 **** 0.06
33843 H 78.00743253549129 118.98195980268095 109.95648692063779 H 0.0 **** 0.06
33844 H 78.81950793885196 120.18809135631186 110.98432604177421 H 0.0 **** 0.06
33845 H 77.22775442555837 119.54468599167917 111.45494189096965 H 0.0 **** 0.06
33846 C 106.95557275173535 24.346975263319784 130.37028648758087 C 0.0 **** -0.24
33847 H 106.36759833776487 23.63414816324039 129.79226824244586 H 0.0 **** 0.06
33848 H 106.47372758763204 24.51868169003037 131.33285317505948 H 0.0 **** 0.06
33849 H 107.0251149668028 25.287398504790758 129.82426957943647 H 0.0 **** 0.06
33850 H 107.95608615802097 23.94528826799157 130.53124602315205 H 0.0 **** 0.06
33851 C 77.07877881060917 33.3843562574844 38.936010563252864 C 0.0 **** -0.24
33852 H 77.17008345565607 32.431588262670914 39.45628457322472 H 0.0 **** 0.06
33853 H 76.76668738010903 33.20704965498578 37.90648551960628 H 0.0 **** 0.06
33854 H 78.04203676852046 33.89490092729835 38.940673875335534 H 0.0 **** 0.06
33855 H 76.33762777628301 34.00407338103031 39.43949270682677 H 0.0 **** 0.06
33856 C 140.26200739700005 12.286971712209237 19.06973777310037 C 0.0 **** -0.24
33857 H 139.5552878656846 11.502199781741012 19.341246592634256 H 0.0 **** 0.06
33858 H 139.7146692505412 13.187940675578119 18.793264715300367 H 0.0 **** 0.06
33859 H 140.8659096611824 11.955254768587139 18.224729824708753 H 0.0 **** 0.06
33860 H 140.91002709283498 12.501432910157206 19.919145994750252 H 0.0 **** 0.06
33861 C 133.16754730380063 20.108193746680563 112.08141639846106 C 0.0 **** -0.24
33862 H 133.97571381951929 20.73423982384344 111.70476983615113 H 0.0 **** 0.06
33863 H 133.35005820599463 19.86998909316629 113.1292598002019 H 0.0 **** 0.06
33864 H 133.12182377944654 19.185599679210284 111.50179577169989 H 0.0 **** 0.06
33865 H 132.22115024920967 20.640892756610988 111.98819695620266 H 0.0 **** 0.06
33866 C 130.65253356306619 54.88654898487435 77.66947758897062 C 0.0 **** -0.24
33867 H 130.0279134216402 54.58857140136223 78.5116299056576 H 0.0 **** 0.06
33868 H 130.6202780977413 54.11454658427482 76.90143441389351 H 0.0 **** 0.06
33869 H 131.67925163811873 55.01962455718949 78.00922358267749 H 0.0 **** 0.06
33870 H 130.28183521639312 55.82538866495966 77.25685632093554 H 0.0 **** 0.06
33871 C 61.85227702518097 8.663795219789336 84.86171058774494 C 0.0 **** -0.24
33872 H 62.659965707336596 8.503204441585694 84.14727717915254 H 0.0 **** 0.06
33873 H 61.11656209994675 9.342185633528175 84.43015124591317 H 0.0 **** 0.06
33874 H 62.257317508289816 9.100406952860396 85.77497172694652 H 0.0 **** 0.06
33875 H 61.37738010765983 7.710831894599664 85.09288642100736 H 0.0 **** 0.06
33876 C 110.24158590417376 69.81475762990203 109.3988859078626 C 0.0 **** -0.24
33877 H 109.59490684730191 69.7940794555663 110.27574340607372 H 0.0 **** 0.06
33878 H 111.27508381391873 69.65451366597583 109.70593057101944 H 0.0 **** 0.06
33879 H 110.15447701071203 70.78464878622663 108.90686481894762 H 0.0 **** 0.06
33880 H 109.94070005017393 69.02854506819824 108.70714465552176 H 0.0 **** 0.06
33881 C 45.93832969921213 91.70165655525042 129.1392928019103 C 0.0 **** -0.24
33882 H 46.62729967577623 90.89028698135004 128.90092893634957 H 0.0 **** 0.06
33883 H 45.04035790310104 91.29085878795635 129.6027552032541 H 0.0 **** 0.06
33884 H 45.66709578889787 92.2277707252972 128.22459640936304 H 0.0 **** 0.06
33885 H 46.4188723105603 92.39558141128802 129.82950407659584 H 0.0 **** 0.06
33886 C 148.70256787776705 90.54586534652788 12.527883828458982 C 0.0 **** -0.24
33887 H 147.80137152296794 90.08517527616613 12.9318742422235 H 0.0 **** 0.06
33888 H 148.74160623418578 91.59320106402679 12.830405650966838 H 0.0 **** 0.06
33889 H 148.68677259739124 90.48275932564324 11.440436094389156 H 0.0 **** 0.06
33890 H 149.5798986535803 90.0239791701616 12.910190010962253 H 0.0 **** 0.06
33891 C 60.68094500462186 79.26678357030764 56.659953516777534 C 0.0 **** -0.24
33892 H 61.17332383366072 80.04884050932216 57.23707437113285 H 0.0 **** 0.06
33893 H 60.750449373536114 78.32043661309442 57.19714816971094 H 0.0 **** 0.06
33894 H 61.16649858972072 79.17095012187175 55.689656609453436 H 0.0 **** 0.06
33895 H 59.631151243015296 79.52695134980362 56.51779045389668 H 0.0 **** 0.06
33896 C 132.35363827079675 28.766292975730494 60.29220503764414 C 0.0 **** -0.24
33897 H 132.1006131026811 29.81543424401272 60.13715223611007 H 0.0 **** 0.06
33898 H 133.398164358772 28.60225327049912 60.029683295842176 H 0.0 **** 0.06
33899 H 131.71716331383035 28.14274821408469 59.66399403827745 H 0.0 **** 0.06
33900 H 132.19766242054823 28.506278731230253 61.33963935316626 H 0.0 **** 0.06
33901 C 16.669729927337528 123.98768218423619 1.8498103198346882 C 0.0 **** -0.24
33902 H 16.242856635198677 123.00092120680479 2.0288394926035345 H 0.0 **** 0.06
33903 H 16.28567567620297 124.38406895877237 0.9101144518887345 H 0.0 **** 0.06
33904 H 17.75549005595073 123.9082181320541 1.794358564705444 H 0.0 **** 0.06
33905 H 16.395235102143403 124.65532667361411 2.6661998663290944 H 0.0 **** 0.06
33906 C 40.152729019613034 125.48221566159904 125.52521885038391 C 0.0 **** -0.24
33907 H 40.29384812217542 125.66266435926335 124.45977615678957 H 0.0 **** 0.06
33908 H 40.89049785631427 126.05170146258055 126.09066430191774 H 0.0 **** 0.06
33909 H 40.27812597732742 124.41877678407448 125.7330406567281 H 0.0 **** 0.06
33910 H 39.15074037019785 125.79356008412341 125.81714488344568 H 0.0 **** 0.06
33911 C 94.25449385449531 7.858991170213542 8.269674951591519 C 0.0 **** -0.24
33912 H 93.20753349138526 8.147542274738278 8.173770001121902 H 0.0 **** 0.06
33913 H 94.47947319940079 7.649464938267641 9.315856852375546 H 0.0 **** 0.06
33914 H 94.88849316157363 8.671888250645303 7.916008881397708 H 0.0 **** 0.06
33915 H 94.44131267011375 6.966452239372167 7.672547268224541 H 0.0 **** 0.06
33916 C 24.371540499412134 123.69662287216566 106.67151471508623 C 0.0 **** -0.24
33917 H 24.425745731674084 123.54035979664702 107.74873201672227 H 0.0 **** 0.06
33918 H 24.771333837399283 124.68028158976203 106.42533328801346 H 0.0 **** 0.06
33919 H 23.333056625022806 123.63436394597456 106.34628317854276 H 0.0 **** 0.06
33920 H 24.957072415844564 122.92907590429935 106.16426275228412 H 0.0 **** 0.06
33921 C 64.69754702390574 11.237773877280006 108.55980678262445 C 0.0 **** -0.24
33922 H 65.6017986293341 10.896023567512657 109.06242513333466 H 0.0 **** 0.06
33923 H 64.76540303436528 11.010008224739977 107.49580590362162 H 0.0 **** 0.06
33924 H 64.59146937745848 12.313928404472563 108.69441891985961 H 0.0 **** 0.06
33925 H 63.83130969151327 10.73198416531045 108.98609087548705 H 0.0 **** 0.06
33926 C 2.0306342652693843 58.9300054881719 16.27103594764901 C 0.0 **** -0.24
33927 H 2.308767295233622 59.48663541993888 15.37519573881547 H 0.0 **** 0.06
33928 H 2.575359886673965 59.32565472919693 17.127939757231857 H 0.0 **** 0.06
33929 H 2.2786861494170125 57.87778900989852 16.135938994376367 H 0.0 **** 0.06
33930 H 0.9582433810598161 59.031515565871885 16.44218218550477 H 0.0 **** 0.06
33931 C 120.88469643675514 44.842216940802416 7.451171595159565 C 0.0 **** -0.24
33932 H 121.04659847386073 44.51242995708188 6.424415149048798 H 0.0 **** 0.06
33933 H 120.7944295410996 45.92837100588204 7.473414078639223 H 0.0 **** 0.06
33934 H 121.72895591638603 44.53488009107606 8.067889890746557 H 0.0 **** 0.06
33935 H 119.97026883621909 44.39195364979065 7.836659071419604 H 0.0 **** 0.06
33936 C 150.36153695486465 17.64580644094491 10.984352074710273 C 0.0 **** -0.24
33937 H 151.21685499671784 18.048126960883735 10.441975165222317 H 0.0 **** 0.06
33938 H 149.66950227748478 17.183699180832946 10.279697264352961 H 0.0 **** 0.06
33939 H 149.85583929409364 18.453292273055922 11.514150152494864 H 0.0 **** 0.06
33940 H 150.70409201749715 16.89931897967847 11.70087002887962 H 0.0 **** 0.06
33941 C 1.5906451382239197 127.82196390261325 35.501481332372094 C 0.0 **** -0.24
33942 H 1.1537010849702938 126.93212748469486 35.04922090204323 H 0.0 **** 0.06
33943 H 1.3323167239213944 127.85499052981626 36.56062825861335 H 0.0 **** 0.06
33944 H 1.202037439538202 128.71047725753087 35.00448179959241 H 0.0 **** 0.06
33945 H 2.674952518611917 127.78954060927934 35.39366793164564 H 0.0 **** 0.06
33946 C 12.414721331735905 99.7565728685525 21.42553393447679 C 0.0 **** -0.24
33947 H 12.629481581905395 98.74081420057763 21.760533816030318 H 0.0 **** 0.06
33948 H 11.594311663096988 99.7354435607586 20.707834115417143 H 0.0 **** 0.06
33949 H 13.301491078579318 100.17695753490199 20.951647222694476 H 0.0 **** 0.06
33950 H 12.134126913849315 100.3693835512911 22.28182319720753 H 0.0 **** 0.06
33951 C 147.18562729907322 40.818070316790454 43.617409316525254 C 0.0 **** -0.24
33952 H 147.75619105629812 41.659487773980686 44.01014094626669 H 0.0 **** 0.06
33953 H 147.8312889698999 39.94281405773975 43.54718137669789 H 0.0 **** 0.06
33954 H 146.8048077865242 41.06913119501337 42.62644085581559 H 0.0 **** 0.06
33955 H 146.35055911840362 40.60238077244125 44.283520882353685 H 0.0 **** 0.06
33956 C 135.7346134966332 105.02121026260306 62.03055987571915 C 0.0 **** -0.24
33957 H 136.50704242206194 105.67519135059138 62.43522736277225 H 0.0 **** 0.06
33958 H 135.61272696349408 104.1573312196142 62.68382410121566 H 0.0 **** 0.06
33959 H 136.0272443768992 104.68650586121288 61.03543746670161 H 0.0 **** 0.06
33960 H 134.7928741963034 105.56571370909768 61.96871703495921 H 0.0 **** 0.06
33961 C 127.70167056838092 64.12055065297656 64.18197722454534 C 0.0 **** -0.24
33962 H 127.010616408067 64.70757572775184 63.57727136003038 H 0.0 **** 0.06
33963 H 128.21271082364106 63.39470984890809 63.54804463087976 H 0.0 **** 0.06
33964 H 127.14804776011356 63.59653780186218 64.96094628272428 H 0.0 **** 0.06
33965 H 128.4363507095064 64.78257507617931 64.64113217065318 H 0.0 **** 0.06
33966 C 24.095213525914517 8.426981897146248 72.88903167239874 C 0.0 **** -0.24
33967 H 23.78553926342957 9.430375847697093 73.17962396354221 H 0.0 **** 0.06
33968 H 24.63464407855261 7.959846513668481 73.71390242066371 H 0.0 **** 0.06
33969 H 24.745958727433248 8.485744041064265 72.01631740455065 H 0.0 **** 0.06
33970 H 23.21502721593893 7.831246676553491 72.64690753923594 H 0.0 **** 0.06
33971 C 43.252763303994456 55.97350183947823 121.68345427576837 C 0.0 **** -0.24
33972 H 43.47308289059316 57.00571406233615 121.41203085243264 H 0.0 **** 0.06
33973 H 43.1970852983913 55.88712386242345 122.76928959627348 H 0.0 **** 0.06
33974 H 44.043196777305624 55.3227168794504 121.30729020771413 H 0.0 **** 0.06
33975 H 42.29973822952542 55.677747394869016 121.24575464067634 H 0.0 **** 0.06
33976 C 48.10307268396909 113.21550979852502 84.39632242055688 C 0.0 **** -0.24
33977 H 49.10531598550725 113.64493187966436 84.38157245743278 H 0.0 **** 0.06
33978 H 47.63039183074338 113.36350146684175 83.42534777544239 H 0.0 **** 0.06
33979 H 47.50985668910633 113.7047480107449 85.16855633629062 H 0.0 **** 0.06
33980 H 48.169641947624456 112.14820031276484 84.61007115423585 H 0.0 **** 0.06
33981 C 70.35102307324377 8.009866777922639 76.22653355994478 C 0.0 **** -0.24
33982 H 69.52589684089502 7.407380568726637 76.60782556421263 H 0.0 **** 0.06
33983 H 70.28795252158189 9.015813105834354 76.64312283486443 H 0.0 **** 0.06
33984 H 70.29034369761503 8.061463390525546 75.13954677131515 H 0.0 **** 0.06
33985 H 71.2974854426736 7.553858902583613 76.5171454794513 H 0.0 **** 0.06
33986 C 143.34088270416692 93.50667338878606 54.014646898622146 C 0.0 **** -0.24
33987 H 144.3031879075251 93.69655662181148 54.49028809229014 H 0.0 **** 0.06
33988 H 143.31807961721083 93.98877411107381 53.036393116076795 H 0.0 **** 0.06
33989 H 142.5418109234746 93.90911734829822 54.6366473852176 H 0.0 **** 0.06
33990 H 143.2019798813431 92.43272426553355 53.89272172038764 H 0.0 **** 0.06
33991 C 6.325595428618158 32.50591236316774 136.32599670086955 C 0.0 **** -0.24
33992 H 5.70993580172933 33.36984243671071 136.5760737489518 H 0.0 **** 0.06
33993 H 7.033352398329924 32.31894433417813 137.1339766101705 H 0.0 **** 0.06
33994 H 6.870941411779 32.704295814407374 135.40262770910357 H 0.0 **** 0.06
33995 H 5.688968488376361 31.632271199827358 136.19065382181242 H 0.0 **** 0.06
33996 C 87.91140505463547 115.7269301657255 113.88843137533551 C 0.0 **** -0.24
33997 H 88.5299643267136 115.12705459861202 113.21953057537512 H 0.0 **** 0.06
33998 H 86.91143020674396 115.29712108994251 113.94062256508566 H 0.0 **** 0.06
33999 H 87.84969790406474 116.745870857669 113.50729157321773 H 0.0 **** 0.06
34000 H 88.35627184482901 115.73687323757586 114.88236702610929 H 0.0 **** 0.06
34001 C 109.9814578874823 111.1870255779642 105.75202417280191 C 0.0 **** -0.24
34002 H 110.34822426081418 111.73078826553247 106.62263088796517 H 0.0 **** 0.06
34003 H 110.31085873772592 111.69212901785126 104.84391950627223 H 0.0 **** 0.06
34004 H 108.89167747283604 111.15563334846148 105.77534150176693 H 0.0 **** 0.06
34005 H 110.37419627363222 110.17038740065003 105.76547242878839 H 0.0 **** 0.06
34006 C 137.01626492796882 93.91997464756223 71.38550122740051 C 0.0 **** -0.24
34007 H 136.33276104919582 94.50002857464311 70.76534932852014 H 0.0 **** 0.06
34008 H 136.58985677788652 92.93375310577109 71.57079199589121 H 0.0 **** 0.06
34009 H 137.17059051715577 94.43337262702863 72.33413634250765 H 0.0 **** 0.06
34010 H 137.97116142882294 93.8124386286277 70.8705311519017 H 0.0 **** 0.06
34011 C 10.609150303492896 55.6590634940312 6.743578858614342 C 0.0 **** -0.24
34012 H 10.666163252793694 54.86830193302872 5.996668489350867 H 0.0 **** 0.06
34013 H 11.13861733955099 56.54013984537646 6.381394383849965 H 0.0 **** 0.06
34014 H 11.065809559092855 55.31570742013851 7.671270820274543 H 0.0 **** 0.06
34015 H 9.563885754045572 55.91164705657897 6.9255049410541005 H 0.0 **** 0.06
34016 C 84.03511031667642 47.235543342224304 130.28108500562416 C 0.0 **** -0.24
34017 H 83.88692920842979 48.10875024650505 130.91614762644048 H 0.0 **** 0.06
34018 H 84.72032190582055 46.54263925648087 130.7697305835693 H 0.0 **** 0.06
34019 H 84.45451371087822 47.54906285150017 129.3247033759203 H 0.0 **** 0.06
34020 H 83.07752955036952 46.741713588903664 130.11293099555854 H 0.0 **** 0.06
34021 C 77.9616479302808 38.488042551546 30.988041958110898 C 0.0 **** -0.24
34022 H 77.75089557743377 39.33666458938622 30.33626852103552 H 0.0 **** 0.06
34023 H 78.8806711202244 38.000486391005694 30.662679309623712 H 0.0 **** 0.06
34024 H 77.13618251874007 37.77861983930691 30.938780241442743 H 0.0 **** 0.06
34025 H 78.07985778672341 38.83814618548598 32.01305479993874 H 0.0 **** 0.06
34026 C 4.020266306018357 47.35778400729623 144.6841444931689 C 0.0 **** -0.24
34027 H 3.511139480661541 46.53010076402559 145.17877146203196 H 0.0 **** 0.06
34028 H 3.3460008662274277 48.21307853827827 144.62349855941451 H 0.0 **** 0.06
34029 H 4.315659874386711 47.05530147220914 143.6798594681017 H 0.0 **** 0.06
34030 H 4.906255747799776 47.63305938266895 145.25579004733348 H 0.0 **** 0.06
34031 C 98.95184417580377 43.216436461221235 89.65656520793478 C 0.0 **** -0.24
34032 H 99.15940710095852 44.11823771435961 89.07983334080737 H 0.0 **** 0.06
34033 H 98.32256970450081 42.54657888037727 89.070414245365 H 0.0 **** 0.06
34034 H 98.43745356917906 43.485623451306466 90.57812208999692 H 0.0 **** 0.06
34035 H 99.89076515421591 42.715546693256684 89.8968928964346 H 0.0 **** 0.06
34036 C 125.86719098233837 18.838162179797166 146.36454782118844 C 0.0 **** -0.24
34037 H 126.18597075612806 18.820813960541443 147.40642399142112 H 0.0 **** 0.06
34038 H 126.53050369700506 18.209545793830046 145.77032886278505 H 0.0 **** 0.06
34039 H 125.9036557921979 19.861393458710722 145.9912429377016 H 0.0 **** 0.06
34040 H 124.8463714601634 18.46145171219257 146.29095259099293 H 0.0 **** 0.06
34041 C 18.262902376637953 146.7582575682677 137.56174682614363 C 0.0 **** -0.24
34042 H 19.03287704394313 146.7665399230017 136.79138857506007 H 0.0 **** 0.06
34043 H 17.448621936884933 147.42145292269225 137.2691946353154 H 0.0 **** 0.06
34044 H 18.68935689109287 147.09932235473815 138.50504361845321 H 0.0 **** 0.06
34045 H 17.88050770607481 145.74428867556497 137.68231180131298 H 0.0 **** 0.06
34046 C 91.21105293033457 79.83438741773696 71.7879710065786 C 0.0 **** -0.24
34047 H 91.22858557783391 78.80588020292586 72.15135382832412 H 0.0 **** 0.06
34048 H 90.17760453407931 80.15019656012478 71.64603977682509 H 0.0 **** 0.06
34049 H 91.7430390959475 79.89253085190674 70.83903607774974 H 0.0 **** 0.06
34050 H 91.69411621798628 80.48460371390797 72.51701290856019 H 0.0 **** 0.06
34051 C 128.34998811441434 26.60010329466121 37.859814061926784 C 0.0 **** -0.24
34052 H 129.28569956399355 27.10151145349535 38.10757086630093 H 0.0 **** 0.06
34053 H 128.5653005187167 25.671475688867318 37.329986853842854 H 0.0 **** 0.06
34054 H 127.74786019385594 27.249072291763127 37.22464348853805 H 0.0 **** 0.06
34055 H 127.80309158815264 26.37791856706187 38.77570848357226 H 0.0 **** 0.06
34056 C 140.0124316392318 38.58072582899227 42.00586896576576 C 0.0 **** -0.24
34057 H 140.33464548087463 37.556594728593964 42.18938503808724 H 0.0 **** 0.06
34058 H 140.83979190160835 39.15265782956169 41.58409613749474 H 0.0 **** 0.06
34059 H 139.69807810256225 39.035996464872554 42.94604504288206 H 0.0 **** 0.06
34060 H 139.17705877620602 38.5789635630655 41.306014308583954 H 0.0 **** 0.06
34061 C 42.04405163062506 103.61215915668127 69.00295086384415 C 0.0 **** -0.24
34062 H 42.44687880013447 103.36490554343429 68.02075464804145 H 0.0 **** 0.06
34063 H 41.92502336986314 104.69231498369054 69.08515871083337 H 0.0 **** 0.06
34064 H 42.72766239412823 103.26111431432714 69.77508639394968 H 0.0 **** 0.06
34065 H 41.07508189925426 103.12948774186204 69.12942394464952 H 0.0 **** 0.06
34066 C 112.79531992335427 63.92794634296706 7.142609291055862 C 0.0 **** -0.24
34067 H 112.95032630521166 62.877520195982754 7.3896850454397836 H 0.0 **** 0.06
34068 H 113.06003207768015 64.09757235592704 6.098634196658782 H 0.0 **** 0.06
34069 H 113.42310498010181 64.5481222971203 7.78200367026205 H 0.0 **** 0.06
34070 H 111.74862298655978 64.18684931645588 7.298936568768227 H 0.0 **** 0.06
34071 C 106.65519320744365 98.11378161889087 117.68626330443708 C 0.0 **** -0.24
34072 H 106.60632732805892 99.15999785362476 117.38668168188083 H 0.0 **** 0.06
34073 H 105.65684650286961 97.76490662950908 117.95236408201241 H 0.0 **** 0.06
34074 H 107.31652998899578 98.01213821975671 118.54722311503961 H 0.0 **** 0.06
34075 H 107.04025314397923 97.51711693928644 116.85941653283966 H 0.0 **** 0.06
34076 C 117.4694204027419 116.38491516608873 146.42723570164074 C 0.0 **** -0.24
34077 H 118.2019042575585 117.06163603007558 146.86734223546645 H 0.0 **** 0.06
34078 H 117.60905570145319 116.3528953513143 145.3467255463481 H 0.0 **** 0.06
34079 H 116.46479496988967 116.74143116542747 146.65356189801446 H 0.0 **** 0.06
34080 H 117.60316782053708 115.38632709368171 146.8420536597415 H 0.0 **** 0.06
34081 C 28.601018544833437 91.30313130207256 149.80250755810584 C 0.0 **** -0.24
34082 H 28.290626228062045 90.25945569165033 149.7590645937023 H 0.0 **** 0.06
34083 H 29.532269593275046 91.3817880935403 150.3641205067202 H 0.0 **** 0.06
34084 H 27.827663112423394 91.89110735189286 150.29650655982618 H 0.0 **** 0.06
34085 H 28.752617563326808 91.67898065208006 148.79121608409687 H 0.0 **** 0.06
34086 C 140.91836772437227 55.57912283440277 133.64472057090057 C 0.0 **** -0.24
34087 H 141.73784637217113 56.03394908069748 133.08867534186822 H 0.0 **** 0.06
34088 H 140.16279284254847 55.21723443771339 132.9464026480992 H 0.0 **** 0.06
34089 H 140.47380890235814 56.32180415569087 134.30863055075838 H 0.0 **** 0.06
34090 H 141.29802538135118 54.74523572905983 134.23524647832954 H 0.0 **** 0.06
34091 C 11.056129276457341 17.312403324273248 62.78682575314163 C 0.0 **** -0.24
34092 H 11.777269626710776 17.410417793571526 61.97610989717862 H 0.0 **** 0.06
34093 H 10.367060231697202 16.496665411319157 62.56385476709241 H 0.0 **** 0.06
34094 H 10.496507256433588 18.242683575408705 62.88973528862397 H 0.0 **** 0.06
34095 H 11.581253195073486 17.099532232772845 63.71771309033781 H 0.0 **** 0.06
34096 C 50.230482018362906 39.88803522186066 146.41170917413393 C 0.0 **** -0.24
34097 H 50.7268058965941 38.93820474038205 146.2113740347676 H 0.0 **** 0.06
34098 H 50.851461742946924 40.706326009044005 146.04634651179748 H 0.0 **** 0.06
34099 H 50.07760381265574 39.99868847991415 147.48562240330327 H 0.0 **** 0.06
34100 H 49.26589542225233 39.907582781455176 145.90306772154375 H 0.0 **** 0.06
34101 C 84.55008084314042 135.2254801388879 92.78473064001534 C 0.0 **** -0.24
34102 H 83.70986004035879 135.8705954835192 92.52989021685701 H 0.0 **** 0.06
34103 H 85.47417985120089 135.80236436698354 92.74981517569306 H 0.0 **** 0.06
34104 H 84.60748228165701 134.403603066652 92.07066855788034 H 0.0 **** 0.06
34105 H 84.40965781058182 134.8248832574844 93.78834559106224 H 0.0 **** 0.06
34106 C 92.01529263005223 106.3702742685371 57.93745540890467 C 0.0 **** -0.24
34107 H 91.87312388239644 105.34286245338852 58.274165271694244 H 0.0 **** 0.06
34108 H 92.89739948268354 106.79074857517277 58.419623756984265 H 0.0 **** 0.06
34109 H 91.1383977532477 106.9620167193866 58.200274231165906 H 0.0 **** 0.06
34110 H 92.15124558032325 106.38251486618326 56.85627206273466 H 0.0 **** 0.06
34111 C 115.87148581061031 95.87215833571155 42.34964704191887 C 0.0 **** -0.24
34112 H 116.79818773634402 95.67214062344777 41.813754458407004 H 0.0 **** 0.06
34113 H 115.44369894110265 94.93161907522449 42.69872271779067 H 0.0 **** 0.06
34114 H 115.16571772617108 96.3681854325612 41.68335055095494 H 0.0 **** 0.06
34115 H 116.07714392642079 96.51677517472179 43.20401133283215 H 0.0 **** 0.06
34116 C 30.317930925622818 83.41571939228274 52.88823455104105 C 0.0 **** -0.24
34117 H 29.52570665956597 84.09249533399858 52.56731004237969 H 0.0 **** 0.06
34118 H 31.205275550100964 83.99239416344616 53.147828813100745 H 0.0 **** 0.06
34119 H 30.555897012549167 82.72508622548797 52.079658377582206 H 0.0 **** 0.06
34120 H 29.9824885827058 82.85197598281492 53.76028408244858 H 0.0 **** 0.06
34121 C 149.52346981814333 50.84709170753047 150.15119066163206 C 0.0 **** -0.24
34122 H 150.0784399260889 50.94733483419378 151.0842120952709 H 0.0 **** 0.06
34123 H 150.2227427538935 50.69597879546012 149.32808630777845 H 0.0 **** 0.06
34124 H 148.94465042834602 51.754011603999345 149.97443963972327 H 0.0 **** 0.06
34125 H 148.84995799381753 49.99290722455419 150.2193901325676 H 0.0 **** 0.06
34126 C 48.68608006747024 108.76461038161332 141.8555765959302 C 0.0 **** -0.24
34127 H 48.103787697082424 109.68561436348645 141.81546706550836 H 0.0 **** 0.06
34128 H 49.68460689712634 108.98249848785653 142.23637769879 H 0.0 **** 0.06
34129 H 48.763162318504456 108.33931207222983 140.85575606291312 H 0.0 **** 0.06
34130 H 48.19214281181978 108.05159282174102 142.5167751164378 H 0.0 **** 0.06
34131 C 62.03164011577877 1.7366195838763474 146.83180457996312 C 0.0 **** -0.24
34132 H 61.825300254542114 0.961850695924511 146.0928373646037 H 0.0 **** 0.06
34133 H 62.901296044465184 2.3146063302944526 146.51854528646615 H 0.0 **** 0.06
34134 H 62.23147271552372 1.2731766379404235 147.7977367920129 H 0.0 **** 0.06
34135 H 61.16761792230206 2.396138665761953 146.91616530728473 H 0.0 **** 0.06
34136 C 55.17296435380666 91.52734565992606 13.828249509306893 C 0.0 **** -0.24
34137 H 54.41762556638453 90.74782010372502 13.92343709363886 H 0.0 **** 0.06
34138 H 54.73804751805784 92.39497059467791 13.329757897465825 H 0.0 **** 0.06
34139 H 56.01063532351856 91.15227600259527 13.240278777464574 H 0.0 **** 0.06
34140 H 55.52388016141643 91.81563278894859 14.818830696763122 H 0.0 **** 0.06
34141 C 111.14975062428336 30.970267213726196 7.028621546159712 C 0.0 **** -0.24
34142 H 111.01597502679708 29.899464362990187 6.872180309608666 H 0.0 **** 0.06
34143 H 110.40208521260895 31.516448033291823 6.453414252158751 H 0.0 **** 0.06
34144 H 112.14638535094177 31.262942241590892 6.700650549137663 H 0.0 **** 0.06
34145 H 111.03322442091739 31.199058611289665 8.087724282656296 H 0.0 **** 0.06
34146 C 53.471630527232605 78.03011099055334 13.39668578696574 C 0.0 **** -0.24
34147 H 52.498114425911695 77.96107682360878 13.881154707818531 H 0.0 **** 0.06
34148 H 54.25744445342059 77.98936807260048 14.151277722346244 H 0.0 **** 0.06
34149 H 53.5395351376345 78.97226497688274 12.852747081968296 H 0.0 **** 0.06
34150 H 53.59083625995822 77.19988593755471 12.701424114403999 H 0.0 **** 0.06
34151 C 8.434934530783778 135.57795234142029 46.990556791212754 C 0.0 **** -0.24
34152 H 9.397052918205361 135.49890319033298 47.496819498097835 H 0.0 **** 0.06
34153 H 7.843613565489534 134.6841453252214 47.19482156307302 H 0.0 **** 0.06
34154 H 8.595938560270326 135.6700558837006 45.91696651397288 H 0.0 **** 0.06
34155 H 7.903180748261434 136.45585831258182 47.35604751103145 H 0.0 **** 0.06
34156 C 149.77889273228553 112.13599712919154 1.7063786515396373 C 0.0 **** -0.24
34157 H 149.32454342884944 111.16120923572879 1.5300813369815955 H 0.0 **** 0.06
34158 H 150.7973299884229 112.13788452038364 1.3166870908860346 H 0.0 **** 0.06
34159 H 149.797631166464 112.33943609496873 2.77643374017606 H 0.0 **** 0.06
34160 H 149.1940389512022 112.90480641562266 1.199974787883093 H 0.0 **** 0.06
34161 C 91.16112327800984 40.16731320793674 71.33113874812358 C 0.0 **** -0.24
34162 H 92.16430953519995 40.10788992881467 70.909130824751 H 0.0 **** 0.06
34163 H 90.90384024527383 41.211780450598894 71.50860458143158 H 0.0 **** 0.06
34164 H 91.12966068187971 39.6198482229114 72.27281260636828 H 0.0 **** 0.06
34165 H 90.4470358333194 39.730399345739016 70.6324471750176 H 0.0 **** 0.06
34166 C 96.00247641603727 111.40628480959687 103.62913201591915 C 0.0 **** -0.24
34167 H 94.94358448680936 111.25014881495362 103.83645527990414 H 0.0 **** 0.06
34168 H 96.11819890542421 111.83597012532825 102.63351996239707 H 0.0 **** 0.06
34169 H 96.52512890401067 110.45080584917436 103.67637421421456 H 0.0 **** 0.06
34170 H 96.42138597145123 112.08666462588486 104.37005815730068 H 0.0 **** 0.06
34171 C 64.68101385510526 125.98332691129622 56.75676157348593 C 0.0 **** -0.24
34172 H 63.75328206551511 125.43955872153646 56.577567879629925 H 0.0 **** 0.06
34173 H 64.58267505898564 126.58115906530244 57.662002217247476 H 0.0 **** 0.06
34174 H 64.88725294589631 126.63713327266282 55.90877855569468 H 0.0 **** 0.06
34175 H 65.50042528380348 125.27418327286568 56.87520440057733 H 0.0 **** 0.06
34176 C 147.18976065294572 142.48302013420766 132.5384061367324 C 0.0 **** -0.24
34177 H 146.17023157930606 142.24644106419825 132.84387023910702 H 0.0 **** 0.06
34178 H 147.56385945097185 141.69581667078793 131.88316472143285 H 0.0 **** 0.06
34179 H 147.82575281289428 142.55459808236506 133.4197301345114 H 0.0 **** 0.06
34180 H 147.1976252744152 143.43378670163742 132.006183875306 H 0.0 **** 0.06
34181 C 52.50143381520877 4.036461347156401 11.692116291868949 C 0.0 **** -0.24
34182 H 52.06337593280031 3.0380146455000947 11.710419208218319 H 0.0 **** 0.06
34183 H 51.75659807550929 4.765219167215097 12.01142058881944 H 0.0 **** 0.06
34184 H 52.82922142226167 4.270171231587199 10.679181220763745 H 0.0 **** 0.06
34185 H 53.355786647621954 4.069568600366026 12.367875579804618 H 0.0 **** 0.06
34186 C 87.89892125257091 50.33699841620137 115.0977582015118 C 0.0 **** -0.24
34187 H 87.35107814650709 49.68762319277215 115.78144546625458 H 0.0 **** 0.06
34188 H 88.89872177080179 49.93406133053742 114.93748313863125 H 0.0 **** 0.06
34189 H 87.97268690297378 51.33553598217054 115.52742994424744 H 0.0 **** 0.06
34190 H 87.37072613326103 50.388774817039405 114.14562081181924 H 0.0 **** 0.06
34191 C 42.57190631855042 35.89279511149144 10.396423538569735 C 0.0 **** -0.24
34192 H 42.415501947152876 35.300034207792784 11.29853368886873 H 0.0 **** 0.06
34193 H 43.6116510763258 36.21765204723902 10.352012831449684 H 0.0 **** 0.06
34194 H 41.91830217957161 36.7639957908592 10.415825425503812 H 0.0 **** 0.06
34195 H 42.342797920647186 35.28658766115244 9.51968790415222 H 0.0 **** 0.06
34196 C 78.1621053532175 129.8080087894826 29.488338048841115 C 0.0 **** -0.24
34197 H 77.59814994558351 130.469557826973 28.831129075149377 H 0.0 **** 0.06
34198 H 79.22788364142833 130.00878887211522 29.378914628397396 H 0.0 **** 0.06
34199 H 77.958531983012 128.77072939860423 29.221104335420563 H 0.0 **** 0.06
34200 H 77.86364991616495 129.98124273000266 30.522313310082637 H 0.0 **** 0.06
34201 C 79.68600304813292 114.20648905004484 20.021687363222895 C 0.0 **** -0.24
34202 H 80.6395403106134 113.68745509945259 20.12114059939711 H 0.0 **** 0.06
34203 H 79.45307177474302 114.72016324248344 20.95438202237628 H 0.0 **** 0.06
34204 H 78.90094436204842 113.48404000814801 19.799157111862996 H 0.0 **** 0.06
34205 H 79.75141967908912 114.93404318690366 19.21214727294995 H 0.0 **** 0.06
34206 C 113.18328910733506 131.0389968489447 82.37122444073273 C 0.0 **** -0.24
34207 H 113.30501326228863 132.12211045053567 82.34176826845821 H 0.0 **** 0.06
34208 H 113.70931761540733 130.63896922495522 83.23832501755827 H 0.0 **** 0.06
34209 H 113.59595131800079 130.60197707606906 81.46198899409919 H 0.0 **** 0.06
34210 H 112.1240307078359 130.79448670870556 82.44431263022267 H 0.0 **** 0.06
34211 C 143.20281833599586 76.61505586503817 42.720206808377014 C 0.0 **** -0.24
34212 H 144.12574032341809 77.1425638962647 42.95995614590382 H 0.0 **** 0.06
34213 H 143.41190063142255 75.83278138355405 41.988821954701365 H 0.0 **** 0.06
34214 H 142.4795897657496 77.31698245157541 42.3052405679702 H 0.0 **** 0.06
34215 H 142.7952539953753 76.16519395731028 43.62632551382981 H 0.0 **** 0.06
34216 C 7.979733316109815 76.85935079812639 111.77748116295447 C 0.0 **** -0.24
34217 H 7.907721700561666 76.03153409351225 112.48347149096838 H 0.0 **** 0.06
34218 H 8.057897128888243 76.4666797011679 110.76358554784412 H 0.0 **** 0.06
34219 H 8.862849818975178 77.45591974481289 112.00671079986324 H 0.0 **** 0.06
34220 H 7.088977259447603 77.48358770716709 111.85779595773664 H 0.0 **** 0.06
34221 C 48.63514542828169 70.48155707870214 111.03128874245198 C 0.0 **** -0.24
34222 H 48.62489532959576 70.01364148719318 110.04727888988248 H 0.0 **** 0.06
34223 H 47.794808822268394 71.17101004504642 111.1140564231344 H 0.0 **** 0.06
34224 H 49.56884997622484 71.0289582779912 111.16238125727062 H 0.0 **** 0.06
34225 H 48.553661760589165 69.71325115937938 111.80004937066087 H 0.0 **** 0.06
34226 C 145.31500210905602 74.95963345093178 25.445942495769685 C 0.0 **** -0.24
34227 H 144.66440777309322 75.81629684007504 25.623504744873223 H 0.0 **** 0.06
34228 H 146.34107692634947 75.22344866580985 25.70529465706099 H 0.0 **** 0.06
34229 H 145.26684478420327 74.6795900669729 24.39385265084146 H 0.0 **** 0.06
34230 H 144.98875716423225 74.12115027173981 26.06128279106717 H 0.0 **** 0.06
34231 C 102.80986538933193 126.04352277831626 3.294274158854659 C 0.0 **** -0.24
34232 H 103.15718429845184 126.24673928157918 4.306819011143613 H 0.0 **** 0.06
34233 H 103.60594968148833 126.27114793759884 2.5848193687933474 H 0.0 **** 0.06
34234 H 101.940538317829 126.66333656002132 3.077779924224224 H 0.0 **** 0.06
34235 H 102.53702239228551 124.99204180611764 3.2085716380844325 H 0.0 **** 0.06
34236 C 137.60012951572756 107.43217871902709 84.81897733083402 C 0.0 **** -0.24
34237 H 138.00353658488172 108.43151433866956 84.65953927712243 H 0.0 **** 0.06
34238 H 137.8371837935295 106.80366813329238 83.96083737768313 H 0.0 **** 0.06
34239 H 136.51863156757267 107.49148051634842 84.93863494908916 H 0.0 **** 0.06
34240 H 138.04140087504075 107.00145036854298 85.71815594693055 H 0.0 **** 0.06
34241 C 103.17314416349772 103.1190814564751 91.31298511557296 C 0.0 **** -0.24
34242 H 103.1415060420483 104.20086547648299 91.44300761075073 H 0.0 **** 0.06
34243 H 102.58121293707175 102.84199909205643 90.44000727386646 H 0.0 **** 0.06
34244 H 102.76333307111888 102.63438566724119 92.1993548802161 H 0.0 **** 0.06
34245 H 104.20560509211391 102.80032773580359 91.16880470833578 H 0.0 **** 0.06
34246 C 148.50632769725308 142.89946418405893 76.73117886770007 C 0.0 **** -0.24
34247 H 148.95040412417723 142.55550996569306 75.7976891447679 H 0.0 **** 0.06
34248 H 147.71013798904568 143.61209726219911 76.51394268425443 H 0.0 **** 0.06
34249 H 149.27027097341886 143.382429259603 77.34181210470939 H 0.0 **** 0.06
34250 H 148.0945509408008 142.04765917365364 77.27371519009012 H 0.0 **** 0.06
34251 C 33.658162555306234 142.6195420392818 29.128535946591796 C 0.0 **** -0.24
34252 H 33.30068017037564 143.64733337449442 29.182348219316644 H 0.0 **** 0.06
34253 H 33.80787545458733 142.34058446995869 28.086011525349583 H 0.0 **** 0.06
34254 H 32.92153622129564 141.95476303637662 29.581679489412636 H 0.0 **** 0.06
34255 H 34.6026096309364 142.5351662439316 29.66725013284701 H 0.0 **** 0.06
34256 C 59.09396447763686 70.58219826444436 51.667430364729086 C 0.0 **** -0.24
34257 H 59.936610167351716 70.7913007761677 51.00789045747163 H 0.0 **** 0.06
34258 H 58.22275645359025 70.31233787126071 51.069250218561706 H 0.0 **** 0.06
34259 H 58.867613444120025 71.46873923006241 52.25984897628712 H 0.0 **** 0.06
34260 H 59.349403681001775 69.75685614387756 52.332004424494386 H 0.0 **** 0.06
34261 C 111.16861241305685 29.948986302388974 131.5778894691304 C 0.0 **** -0.24
34262 H 111.34637247578996 29.286489748902063 130.7309974177762 H 0.0 **** 0.06
34263 H 111.43865305099644 30.96880044428773 131.30366391415373 H 0.0 **** 0.06
34264 H 111.77501550467787 29.62645556806151 132.42414397699264 H 0.0 **** 0.06
34265 H 110.11407099906563 29.912877097016164 131.85238179562043 H 0.0 **** 0.06
34266 C 137.57037785570594 105.08364424214061 74.16509842561943 C 0.0 **** -0.24
34267 H 138.2827689561066 105.89132201539037 74.33486308310536 H 0.0 **** 0.06
34268 H 137.7312032221168 104.29705278756875 74.9036467584218 H 0.0 **** 0.06
34269 H 137.71433031267387 104.67750001059802 73.16392859294194 H 0.0 **** 0.06
34270 H 136.55523360122174 105.46893295515626 74.25887593545012 H 0.0 **** 0.06
34271 C 8.026205825802492 7.996631677295511 31.81524154926918 C 0.0 **** -0.24
34272 H 8.229538836026506 7.295266952160489 31.005910529697182 H 0.0 **** 0.06
34273 H 6.949729636546408 8.060816821575997 31.97726563412823 H 0.0 **** 0.06
34274 H 8.412826041026676 8.981089861522946 31.54911671784341 H 0.0 **** 0.06
34275 H 8.51128182429926 7.649706131222388 32.72700543503627 H 0.0 **** 0.06
34276 C 74.2405838713099 129.98535052241198 134.3153523899868 C 0.0 **** -0.24
34277 H 73.36768319433472 129.85264378808793 134.95431232985686 H 0.0 **** 0.06
34278 H 73.92258910758756 130.3433757626473 133.33605787388268 H 0.0 **** 0.06
34279 H 74.75823912334772 129.03212767415766 134.20410600898754 H 0.0 **** 0.06
34280 H 74.91463278012984 130.7134151672268 134.76808241119647 H 0.0 **** 0.06
34281 C 65.44322647651694 56.663684909789055 54.47234673282756 C 0.0 **** -0.24
34282 H 64.40696008393621 56.33432622485313 54.395931379478895 H 0.0 **** 0.06
34283 H 65.47311941343554 57.748751928314874 54.573467826015644 H 0.0 **** 0.06
34284 H 65.98510616342065 56.36751204583314 53.5741616056082 H 0.0 **** 0.06
34285 H 65.9077246532189 56.204217370871476 55.34441352005575 H 0.0 **** 0.06
34286 C 93.54137898881638 134.47920454665214 145.49930522578418 C 0.0 **** -0.24
34287 H 93.89070515839758 133.87545892170942 144.66161558330253 H 0.0 **** 0.06
34288 H 93.71407205304037 135.53329232217087 145.28350548418476 H 0.0 **** 0.06
34289 H 94.08635902050789 134.19816771129348 146.40043370874935 H 0.0 **** 0.06
34290 H 92.47579877488646 134.30743347804085 145.65028528699008 H 0.0 **** 0.06
34291 C 24.337683118917447 40.2555819893949 54.88178424397057 C 0.0 **** -0.24
34292 H 25.11890290188621 40.81909359025531 54.370496797794885 H 0.0 **** 0.06
34293 H 24.418918483447158 40.417130479321145 55.95698488035072 H 0.0 **** 0.06
34294 H 24.454933684420745 39.194576007515764 54.66400212493636 H 0.0 **** 0.06
34295 H 23.36093373681281 40.592610902536535 54.53535730649048 H 0.0 **** 0.06
34296 C 8.334013662912326 103.93384436412767 117.10706510559176 C 0.0 **** -0.24
34297 H 9.130501905551995 103.92385906969479 116.36255501027178 H 0.0 **** 0.06
34298 H 8.625510227961058 104.57450438174128 117.94024097706641 H 0.0 **** 0.06
34299 H 8.16438341608287 102.91979336924634 117.46983729840635 H 0.0 **** 0.06
34300 H 7.419396055741316 104.31739743244763 116.65569371362791 H 0.0 **** 0.06
34301 C 145.71914976911214 103.11648996449712 61.332722929167545 C 0.0 **** -0.24
34302 H 144.75481637655028 103.03532485014576 60.83057271549879 H 0.0 **** 0.06
34303 H 145.80085185443693 104.09650576163635 61.80446687124734 H 0.0 **** 0.06
34304 H 146.5189621968477 102.99596904275394 60.60324146395433 H 0.0 **** 0.06
34305 H 145.79873334635258 102.33974607874113 62.09247540822537 H 0.0 **** 0.06
34306 C 131.1675849575231 26.693528967707167 150.01306639608734 C 0.0 **** -0.24
34307 H 130.70203066008935 27.637345554987064 150.29948214795775 H 0.0 **** 0.06
34308 H 132.25053498796183 26.815077241983303 149.99071174267328 H 0.0 **** 0.06
34309 H 130.81406675172042 26.40085735634058 149.02419951731972 H 0.0 **** 0.06
34310 H 130.90230718536856 25.923816894419616 150.73679870652913 H 0.0 **** 0.06
34311 C 29.360707306932625 42.83424841901257 118.24685386843984 C 0.0 **** -0.24
34312 H 29.23762422114291 41.759269569122324 118.109505535556 H 0.0 **** 0.06
34313 H 30.265890887635436 43.16403030826493 117.73616795310298 H 0.0 **** 0.06
34314 H 29.440281815728667 43.05798252344687 119.30992318570216 H 0.0 **** 0.06
34315 H 28.497914018686174 43.35396763313943 117.82964866543719 H 0.0 **** 0.06
34316 C 19.941366941985628 60.72031034159926 32.01355270337854 C 0.0 **** -0.24
34317 H 20.399123989829114 61.40677251870201 31.300456152207516 H 0.0 **** 0.06
34318 H 18.859132421487637 60.851745024085574 32.00067359482949 H 0.0 **** 0.06
34319 H 20.321988306873436 60.929153848549475 33.01309721498018 H 0.0 **** 0.06
34320 H 20.18626568765923 59.69541490686473 31.737432472372063 H 0.0 **** 0.06
34321 C 101.46133533644753 0.8698641502293754 139.90550577334216 C 0.0 **** -0.24
34322 H 100.89868200989274 -0.0022103357401022095 139.57462550374981 H 0.0 **** 0.06
34323 H 102.45416550737009 0.8537320321061657 139.45603109508505 H 0.0 **** 0.06
34324 H 101.55317196372972 0.852140320100375 140.99150825268964 H 0.0 **** 0.06
34325 H 100.93842999183414 1.7771518012745275 139.60046043360245 H 0.0 **** 0.06
34326 C 125.99944795753046 10.740256890334223 0.8957872259965143 C 0.0 **** -0.24
34327 H 126.87830261822307 11.365425196313737 0.7342211311731148 H 0.0 **** 0.06
34328 H 126.2809852143316 9.690435288434117 0.8143878544457266 H 0.0 **** 0.06
34329 H 125.2456972696484 10.973773077652112 0.14492471227060832 H 0.0 **** 0.06
34330 H 125.59637618623802 10.931902989808606 1.8896344780582126 H 0.0 **** 0.06
34331 C 108.48051528598036 124.20139167927853 25.889887381906483 C 0.0 **** -0.24
34332 H 108.59784939916547 125.12971475191772 25.33069290074451 H 0.0 **** 0.06
34333 H 109.24903888702765 124.14180241104667 26.66033210092715 H 0.0 **** 0.06
34334 H 108.5766506725533 123.35417347489555 25.211647935964855 H 0.0 **** 0.06
34335 H 107.49578369077697 124.1823899517505 26.357302742441114 H 0.0 **** 0.06
34336 C 133.07070653691446 65.72404062590904 52.35996237876944 C 0.0 **** -0.24
34337 H 132.4086323686652 66.56017976175377 52.5826473283376 H 0.0 **** 0.06
34338 H 132.51399387492296 64.78986725510575 52.435564079004706 H 0.0 **** 0.06
34339 H 133.8956202302486 65.7145681710344 53.07341820034463 H 0.0 **** 0.06
34340 H 133.4660974976182 65.83280111953383 51.34967744180807 H 0.0 **** 0.06
34341 C 92.79977518984322 21.7682919286313 3.6751248281870232 C 0.0 **** -0.24
34342 H 93.82978455884478 21.943207280494846 3.98370180897993 H 0.0 **** 0.06
34343 H 92.39996649997215 20.908726245264916 4.212940154697691 H 0.0 **** 0.06
34344 H 92.76968887759682 21.57217803855798 2.6032140814367324 H 0.0 **** 0.06
34345 H 92.19904732154751 22.649423984790587 3.899423272986809 H 0.0 **** 0.06
34346 C 32.36718032160109 81.41503277762885 15.717685399924619 C 0.0 **** -0.24
34347 H 31.506229034181253 80.84797767387974 16.070536422381252 H 0.0 **** 0.06
34348 H 32.15675900797155 81.81632988145118 14.725713105104916 H 0.0 **** 0.06
34349 H 33.23729305624664 80.76151475715518 15.667971653513348 H 0.0 **** 0.06
34350 H 32.5676224886974 82.23638913139229 16.406581769698164 H 0.0 **** 0.06
34351 C 76.71950869370987 30.824400644068092 73.15336409566692 C 0.0 **** -0.24
34352 H 76.23482399924531 31.75192114894623 72.84914060653296 H 0.0 **** 0.06
34353 H 77.69889460327532 30.754605105698907 72.68002562563697 H 0.0 **** 0.06
34354 H 76.10603659341028 29.976827260968776 72.84521334676732 H 0.0 **** 0.06
34355 H 76.83630419176805 30.813481036009712 74.23695352485325 H 0.0 **** 0.06
34356 C 113.4612933493523 85.10247065247277 106.52366224815974 C 0.0 **** -0.24
34357 H 113.30460414584266 85.34233823453219 107.57560737091201 H 0.0 **** 0.06
34358 H 112.57396099968113 84.60752715367464 106.12795055048885 H 0.0 **** 0.06
34359 H 114.32141256016578 84.4399690587217 106.42603504725069 H 0.0 **** 0.06
34360 H 113.64437701794165 86.02108653521185 105.96555765085871 H 0.0 **** 0.06
34361 C 84.94046636310983 89.20431452612434 17.355350822975574 C 0.0 **** -0.24
34362 H 84.11177369464741 89.02398808713754 16.67044766990957 H 0.0 **** 0.06
34363 H 85.87017086296146 89.27225279242772 16.78977903661942 H 0.0 **** 0.06
34364 H 85.00739421922037 88.38339498021519 18.06897343205364 H 0.0 **** 0.06
34365 H 84.77123909031745 90.13876671946707 17.890777500955394 H 0.0 **** 0.06
34366 C 19.910168590354886 139.35340837146165 134.85586856414363 C 0.0 **** -0.24
34367 H 20.24118784823571 139.08759859236125 133.8512870871658 H 0.0 **** 0.06
34368 H 19.813699814647464 138.44911700008154 135.4572473106295 H 0.0 **** 0.06
34369 H 18.94501652477726 139.85703841182732 134.79815573437062 H 0.0 **** 0.06
34370 H 20.6400547327043 140.01938626666768 135.3147237685769 H 0.0 **** 0.06
34371 C 54.10615567063992 62.583408508992136 138.7066145130407 C 0.0 **** -0.24
34372 H 54.8847209023197 63.17782934249078 139.18480750632997 H 0.0 **** 0.06
34373 H 53.25771337432718 63.22377779445003 138.46306498312066 H 0.0 **** 0.06
34374 H 53.782567947832675 61.79502951001086 139.38604222434535 H 0.0 **** 0.06
34375 H 54.49991835889034 62.13678398306871 137.79347379503375 H 0.0 **** 0.06
34376 C 40.142764902661284 14.484046960380965 39.06237357599289 C 0.0 **** -0.24
34377 H 40.55559546398112 13.475427083179056 39.095013742758084 H 0.0 **** 0.06
34378 H 39.20064394446044 14.47219690143379 38.51304015169987 H 0.0 **** 0.06
34379 H 40.84714525639245 15.149873190899143 38.56361087011442 H 0.0 **** 0.06
34380 H 39.96604504182119 14.837307076539275 40.078484731094846 H 0.0 **** 0.06
34381 C 83.13951213770405 134.72664961438812 16.234374629476065 C 0.0 **** -0.24
34382 H 82.22400596091458 135.28230408181963 16.029853090671907 H 0.0 **** 0.06
34383 H 83.11293707703979 134.34627252443863 17.255533050730094 H 0.0 **** 0.06
34384 H 83.99854588781857 135.38770764738945 16.11448792863564 H 0.0 **** 0.06
34385 H 83.22216313976767 133.89360705877743 15.537642021177817 H 0.0 **** 0.06
34386 C 89.08600976662777 111.30133836276762 24.558070335253348 C 0.0 **** -0.24
34387 H 88.8567389899529 111.16145436386147 23.500944080688186 H 0.0 **** 0.06
34388 H 90.14655149118147 111.5270044489106 24.67219120764861 H 0.0 **** 0.06
34389 H 88.84681879816455 110.3899967725953 25.104730755524344 H 0.0 **** 0.06
34390 H 88.49460533702828 112.12753159844878 24.95123058086031 H 0.0 **** 0.06
34391 C 115.6509444008855 60.27913213471905 104.77178576748211 C 0.0 **** -0.24
34392 H 114.57234876121593 60.43365439054898 104.78924377507691 H 0.0 **** 0.06
34393 H 116.10612280066549 60.97427895633015 104.06633838930766 H 0.0 **** 0.06
34394 H 115.86666619196812 59.25579415125233 104.46410902832908 H 0.0 **** 0.06
34395 H 116.05844542965635 60.45242249851705 105.7683568320383 H 0.0 **** 0.06
34396 C 110.36502545550543 142.5237899729993 34.97616338483768 C 0.0 **** -0.24
34397 H 110.29774074890979 143.43568860406265 34.38373271338499 H 0.0 **** 0.06
34398 H 110.5036177589488 141.6692681253234 34.31311202654477 H 0.0 **** 0.06
34399 H 109.44840222032606 142.39393924931733 35.5502348643849 H 0.0 **** 0.06
34400 H 111.21332131044197 142.59595125900378 35.65742941622138 H 0.0 **** 0.06
34401 C 22.004453367938865 141.2105557025771 130.79208506880948 C 0.0 **** -0.24
34402 H 21.829520356422798 140.7643997959699 131.77128721672653 H 0.0 **** 0.06
34403 H 21.050021243974413 141.49019347472338 130.34580429595417 H 0.0 **** 0.06
34404 H 22.5104123978654 140.48962686447985 130.1502225133141 H 0.0 **** 0.06
34405 H 22.627388048357886 142.09847874860947 130.90315962576696 H 0.0 **** 0.06
34406 C 93.75730839459685 75.14257413171168 35.829952892763416 C 0.0 **** -0.24
34407 H 93.04440052660289 74.78797881621531 35.08534626568196 H 0.0 **** 0.06
34408 H 94.31450988378569 74.29524715206543 36.231056393474475 H 0.0 **** 0.06
34409 H 93.22143538792139 75.64078523157875 36.63681548461045 H 0.0 **** 0.06
34410 H 94.44896626925794 75.84511484210421 35.363832243846275 H 0.0 **** 0.06
34411 C 31.101209907111638 134.82204275270522 107.88958843545338 C 0.0 **** -0.24
34412 H 30.0112217960625 134.80897907736943 107.85269945522502 H 0.0 **** 0.06
34413 H 31.447130330399546 135.84548487273997 108.02907217852085 H 0.0 **** 0.06
34414 H 31.500350950265897 134.42690521302342 106.95549998611223 H 0.0 **** 0.06
34415 H 31.44397859790513 134.20534919851048 108.7199715642078 H 0.0 **** 0.06
34416 C 40.37239223453332 106.35265361488125 130.82005745517722 C 0.0 **** -0.24
34417 H 39.44230329500414 106.1085671305513 131.33347915481636 H 0.0 **** 0.06
34418 H 40.48842130953386 107.43650186610769 130.77613958241207 H 0.0 **** 0.06
34419 H 40.345172233131564 105.94878056745837 129.80846708223262 H 0.0 **** 0.06
34420 H 41.21186991014741 105.91864835222678 131.36324172310628 H 0.0 **** 0.06
34421 C 101.12129333392056 114.31034901531366 64.01183939447205 C 0.0 **** -0.24
34422 H 100.29604052754502 114.35352420515225 64.72314468759492 H 0.0 **** 0.06
34423 H 101.65699057207286 113.36949274190927 64.13460500223948 H 0.0 **** 0.06
34424 H 101.7999639579229 115.14298153956175 64.192622940955 H 0.0 **** 0.06
34425 H 100.72810791137528 114.37604572949091 62.99687255546036 H 0.0 **** 0.06
34426 C 33.206758758147515 116.07907134545125 14.404612658037223 C 0.0 **** -0.24
34427 H 32.51891119520427 115.29752923452669 14.728165067933759 H 0.0 **** 0.06
34428 H 32.77495609014679 116.61471547175664 13.558695794311035 H 0.0 **** 0.06
34429 H 34.1532044394244 115.62926896860056 14.104399597393098 H 0.0 **** 0.06
34430 H 33.37826133201028 116.77439260871064 15.225790263260137 H 0.0 **** 0.06
34431 C 51.38569518582892 30.34772183625268 84.82491983944814 C 0.0 **** -0.24
34432 H 51.99590150636449 31.2507382898861 84.863482224537 H 0.0 **** 0.06
34433 H 51.77364398713229 29.61640531689322 85.53362947060054 H 0.0 **** 0.06
34434 H 51.41701639270285 29.931437263035967 83.81836750853378 H 0.0 **** 0.06
34435 H 50.35620942853734 30.595263631409487 85.08470559218165 H 0.0 **** 0.06
34436 C 83.42576853594454 57.575356445480935 99.86884567667545 C 0.0 **** -0.24
34437 H 83.62887575705022 58.61177608361933 99.60083589548194 H 0.0 **** 0.06
34438 H 83.13418652956213 57.52093549390159 100.91783413545193 H 0.0 **** 0.06
34439 H 84.32200444216613 56.97708179762466 99.70895171223407 H 0.0 **** 0.06
34440 H 82.61689400955652 57.19146525537178 99.24690512363722 H 0.0 **** 0.06
34441 C 62.59644212429623 51.33964295570473 137.12769795851568 C 0.0 **** -0.24
34442 H 63.33582237382731 51.96360698837512 137.62965633489534 H 0.0 **** 0.06
34443 H 61.8652848051301 51.97442339095032 136.62739480265674 H 0.0 **** 0.06
34444 H 62.091293619757664 50.713160459239575 137.86307348554647 H 0.0 **** 0.06
34445 H 63.093404173226034 50.70768993819408 136.39237112611957 H 0.0 **** 0.06
34446 C 140.76269904044472 96.00004193180288 101.4284833732145 C 0.0 **** -0.24
34447 H 140.77349450338457 95.5423699698638 100.43954894793984 H 0.0 **** 0.06
34448 H 141.69518057393387 95.76916756487445 101.94434743550408 H 0.0 **** 0.06
34449 H 139.9227907005667 95.60741729278396 102.00077466362572 H 0.0 **** 0.06
34450 H 140.66126043003902 97.08026232380062 101.32809131515506 H 0.0 **** 0.06
34451 C 28.393931702967024 116.64232147067108 18.435726329602552 C 0.0 **** -0.24
34452 H 28.522105140980784 115.82846608017817 17.72136753091393 H 0.0 **** 0.06
34453 H 29.338821077700743 116.82831690910697 18.947639701156582 H 0.0 **** 0.06
34454 H 27.633280699650044 116.36815448683106 19.165750951274653 H 0.0 **** 0.06
34455 H 28.08268007244058 117.5437787070139 17.90699407950236 H 0.0 **** 0.06
34456 C 120.86151765993758 109.40081043282035 119.76381069522924 C 0.0 **** -0.24
34457 H 121.32479030417066 108.43141838555758 119.94329591176316 H 0.0 **** 0.06
34458 H 121.63526181472189 110.14099730295894 119.5566418892823 H 0.0 **** 0.06
34459 H 120.29669826382089 109.70233761506157 120.64600562588598 H 0.0 **** 0.06
34460 H 120.18851325034889 109.32958179601829 118.90890774303747 H 0.0 **** 0.06
34461 C 47.917797083609685 133.58912322456672 126.32209838918783 C 0.0 **** -0.24
34462 H 47.63112531282462 134.53169399125179 126.78785058610367 H 0.0 **** 0.06
34463 H 48.21951311729154 133.77028006608606 125.28994183247727 H 0.0 **** 0.06
34464 H 47.070379951281325 132.90291183769264 126.33741705618783 H 0.0 **** 0.06
34465 H 48.7506316956289 133.15074438554058 126.8721629269036 H 0.0 **** 0.06
34466 C 104.23239663128949 140.70741049375792 116.86298116214327 C 0.0 **** -0.24
34467 H 104.0525427296865 139.80479634206264 116.2782814260852 H 0.0 **** 0.06
34468 H 104.51570998460043 141.5223064980005 116.1955528204558 H 0.0 **** 0.06
34469 H 105.03706626924627 140.52471068729983 117.57571958975909 H 0.0 **** 0.06
34470 H 103.32426754162474 140.97782844766851 117.40237081227313 H 0.0 **** 0.06
34471 C 34.37811289477179 125.41953854086772 40.68163411883205 C 0.0 **** -0.24
34472 H 35.46590118681412 125.34497348157521 40.71145402794387 H 0.0 **** 0.06
34473 H 34.05762745163688 126.27688042426217 41.2748823952674 H 0.0 **** 0.06
34474 H 33.94010034914835 124.51031680345419 41.09116709457227 H 0.0 **** 0.06
34475 H 34.05166996817508 125.54834950806637 39.64957586399379 H 0.0 **** 0.06
34476 C 46.001287912502875 12.368435987804247 124.3169444141643 C 0.0 **** -0.24
34477 H 46.69181722417383 13.005395593145892 124.87061782979806 H 0.0 **** 0.06
34478 H 44.976742699785746 12.681725275930887 124.52139604447773 H 0.0 **** 0.06
34479 H 46.134314112027624 11.332474762206743 124.62907877892683 H 0.0 **** 0.06
34480 H 46.20310529182706 12.455563851933277 123.24989618616813 H 0.0 **** 0.06
34481 C 137.9864984707304 91.48162146882822 80.71712172009006 C 0.0 **** -0.24
34482 H 138.32967328068014 90.46074372694443 80.5457589049935 H 0.0 **** 0.06
34483 H 138.66737109430403 91.98213422287722 81.40533093512057 H 0.0 **** 0.06
34484 H 136.98416151046746 91.46057737769752 81.14660897501699 H 0.0 **** 0.06
34485 H 137.9639228997774 92.02077687178416 79.77037240908409 H 0.0 **** 0.06
34486 C 67.81052394443027 61.18607248767495 80.78057244635866 C 0.0 **** -0.24
34487 H 67.67189557641566 62.062144125848945 81.41324384877456 H 0.0 **** 0.06
34488 H 68.76904722510113 61.25762749210213 80.26605373507714 H 0.0 **** 0.06
34489 H 67.00647276831785 61.136660954170196 80.04666736376437 H 0.0 **** 0.06
34490 H 67.79495542951453 60.286179033818755 81.39665274287343 H 0.0 **** 0.06
34491 C 141.2474309451021 149.45772447098884 38.01089782902943 C 0.0 **** -0.24
34492 H 140.73038351786536 149.40782510153727 38.96958626862768 H 0.0 **** 0.06
34493 H 140.71524734404844 150.13840293684243 37.34654933822846 H 0.0 **** 0.06
34494 H 141.27880107547193 148.46435993651016 37.563667141156024 H 0.0 **** 0.06
34495 H 142.2643574807969 149.8195274870471 38.164506102924754 H 0.0 **** 0.06
34496 C 106.58193302554503 136.9340595862017 126.89427998532005 C 0.0 **** -0.24
34497 H 105.92240710386761 137.39755782093326 127.62793005634644 H 0.0 **** 0.06
34498 H 107.47060546121207 136.5513483562365 127.39583246289048 H 0.0 **** 0.06
34499 H 106.87365060723369 137.67429656234324 126.14965018858308 H 0.0 **** 0.06
34500 H 106.05823523769874 136.11209944395713 126.40401402337817 H 0.0 **** 0.06
34501 C 113.21435181682172 56.59391309064213 118.90561227584837 C 0.0 **** -0.24
34502 H 113.63081882264872 57.297026857074016 118.18384723636908 H 0.0 **** 0.06
34503 H 114.01606299676753 55.97937959921387 119.3181063302275 H 0.0 **** 0.06
34504 H 112.48510162013814 55.95377311945718 118.40894593163185 H 0.0 **** 0.06
34505 H 112.72750831117311 57.14506284821307 119.71033013859105 H 0.0 **** 0.06
34506 C 119.2984558943765 36.953267405659986 104.38756475582265 C 0.0 **** -0.24
34507 H 118.8567331434096 37.08981638126836 105.37484176156461 H 0.0 **** 0.06
34508 H 120.3688420536314 36.77425858031248 104.49041320364854 H 0.0 **** 0.06
34509 H 119.13453948124823 37.84927666289071 103.7898589234073 H 0.0 **** 0.06
34510 H 118.83188344438912 36.09888223274273 103.89737438123133 H 0.0 **** 0.06
34511 C 47.12133681220634 97.13955042601054 73.12253352566032 C 0.0 **** -0.24
34512 H 47.224459162321025 96.12174833192643 73.49733496999843 H 0.0 **** 0.06
34513 H 48.01408480898992 97.71252035782402 73.3737684088178 H 0.0 **** 0.06
34514 H 46.249102171370126 97.6074713679813 73.57871462746101 H 0.0 **** 0.06
34515 H 46.99669092262202 97.11689653295912 72.0394270091603 H 0.0 **** 0.06
34516 C 9.724595012638702 128.20460932800717 96.62575002344656 C 0.0 **** -0.24
34517 H 9.316442238426362 128.2314439780908 95.61592594977955 H 0.0 **** 0.06
34518 H 8.906600280991029 128.19429239069157 97.34743952388912 H 0.0 **** 0.06
34519 H 10.343846505138515 129.08601764804757 96.79052084651236 H 0.0 **** 0.06
34520 H 10.330323969328504 127.30605058089495 96.74960134363988 H 0.0 **** 0.06
34521 C 41.51476033683417 20.679786155690692 115.55140053169889 C 0.0 **** -0.24
34522 H 42.29216974328759 20.81263192938391 114.79903885181209 H 0.0 **** 0.06
34523 H 41.96937663378779 20.644460280240253 116.54220406627975 H 0.0 **** 0.06
34524 H 40.98274077119282 19.747312757104055 115.36287460227011 H 0.0 **** 0.06
34525 H 40.81510326241823 21.514138167793618 115.50271604456667 H 0.0 **** 0.06
34526 C 93.3674938139073 50.87523273786688 36.538259245222946 C 0.0 **** -0.24
34527 H 93.51711608654142 51.74447898680167 37.17953427081995 H 0.0 **** 0.06
34528 H 92.29865186770114 50.692673387299266 36.41964422035869 H 0.0 **** 0.06
34529 H 93.83686859936222 50.00337261782332 36.993330344122256 H 0.0 **** 0.06
34530 H 93.81542549786087 51.06240524074536 35.56235651292547 H 0.0 **** 0.06
34531 C 62.40020105030912 58.39679892421876 70.93695608432182 C 0.0 **** -0.24
34532 H 62.60433885112518 58.71039250201133 71.96051081875606 H 0.0 **** 0.06
34533 H 61.540975453026874 57.72579482819478 70.92708803217545 H 0.0 **** 0.06
34534 H 63.271340133929186 57.878455783035605 70.53534607927014 H 0.0 **** 0.06
34535 H 62.185371198357444 59.27325560734957 70.32476139478905 H 0.0 **** 0.06
34536 C 74.49428974745074 46.1346440723006 138.3857234260126 C 0.0 **** -0.24
34537 H 74.90797578579753 45.14260276959237 138.20312710031178 H 0.0 **** 0.06
34538 H 75.01903955066697 46.865625929662485 137.7714501866346 H 0.0 **** 0.06
34539 H 74.61708750748785 46.3899119650485 139.43859166148988 H 0.0 **** 0.06
34540 H 73.4343299403821 46.138440422217855 138.13204790355562 H 0.0 **** 0.06
34541 C 94.30319160879355 144.15172721799001 4.154625477646107 C 0.0 **** -0.24
34542 H 94.36499257831167 144.50467888705592 5.183908350685215 H 0.0 **** 0.06
34543 H 94.81141359034115 144.85875692020633 3.497515159765669 H 0.0 **** 0.06
34544 H 93.25665868192652 144.07084112075418 3.8608385560670513 H 0.0 **** 0.06
34545 H 94.77920079250316 143.17413384115923 4.075537261802907 H 0.0 **** 0.06
34546 C 85.17246787021071 40.15973798537611 94.988256157052 C 0.0 **** -0.24
34547 H 85.55835390203414 39.83236996881726 95.95344609692019 H 0.0 **** 0.06
34548 H 85.80796818771148 40.95356582859098 94.59385884558937 H 0.0 **** 0.06
34549 H 84.15632682281806 40.534580749038184 95.11154347759653 H 0.0 **** 0.06
34550 H 85.16863324303792 39.31942823708705 94.29433232098408 H 0.0 **** 0.06
34551 C 57.56450982765362 51.059168844193636 63.49679548180154 C 0.0 **** -0.24
34552 H 58.15336037464104 50.194470214239516 63.19027173484005 H 0.0 **** 0.06
34553 H 58.22501215842178 51.913241982282926 63.64711260240995 H 0.0 **** 0.06
34554 H 57.044521791530386 50.832449890044614 64.42694460975542 H 0.0 **** 0.06
34555 H 56.83654902440561 51.2951901693456 62.720555512724445 H 0.0 **** 0.06
34556 C 144.2637523614861 9.287210570597551 149.56663407489046 C 0.0 **** -0.24
34557 H 143.72121537233662 10.201641862361498 149.80579614982955 H 0.0 **** 0.06
34558 H 145.26807839329604 9.341378452211103 149.98569196304263 H 0.0 **** 0.06
34559 H 144.32769990501177 9.175650991662593 148.48375333601624 H 0.0 **** 0.06
34560 H 143.7385002921921 8.431499770649339 149.98988074495773 H 0.0 **** 0.06
34561 C 11.149027470018865 113.3298184749895 106.97800593781837 C 0.0 **** -0.24
34562 H 11.732014301295038 112.6781644533282 106.32661826444537 H 0.0 **** 0.06
34563 H 10.365953111551278 112.74870107365 107.46540681167856 H 0.0 **** 0.06
34564 H 10.697959173229435 114.12561673364702 106.38559139329105 H 0.0 **** 0.06
34565 H 11.802915118524254 113.76503882238337 107.7337252480494 H 0.0 **** 0.06
34566 C 30.90087097281326 42.23169576794345 100.56368384491476 C 0.0 **** -0.24
34567 H 30.916534538372893 42.89885918648429 101.42534334764433 H 0.0 **** 0.06
34568 H 31.904039746577553 41.84321372081456 100.38797216207296 H 0.0 **** 0.06
34569 H 30.564935861400407 42.781287969653874 99.68405635761307 H 0.0 **** 0.06
34570 H 30.2191921299271 41.40329439466069 100.75665691608548 H 0.0 **** 0.06
34571 C 32.799953906414004 58.78514504501294 43.8362199763817 C 0.0 **** -0.24
34572 H 31.824930496892932 59.02199052083836 43.41047468592981 H 0.0 **** 0.06
34573 H 33.38065429171783 59.70156802431241 43.94587627838685 H 0.0 **** 0.06
34574 H 33.32782644696482 58.09836496627362 43.175152536803495 H 0.0 **** 0.06
34575 H 32.66676001536655 58.32001228604625 44.81318691754389 H 0.0 **** 0.06
34576 C 107.28383899687047 59.504086391686684 82.14569395726016 C 0.0 **** -0.24
34577 H 106.42678907163214 58.92577614231206 81.7992604175701 H 0.0 **** 0.06
34578 H 107.6556324731287 59.07915786454626 83.07817712036288 H 0.0 **** 0.06
34579 H 106.98115788066458 60.53748451527758 82.31217492405595 H 0.0 **** 0.06
34580 H 108.071258510144 59.47339641906163 81.3919591528085 H 0.0 **** 0.06
34581 C 35.78174578807713 3.555660433378904 47.911733392199324 C 0.0 **** -0.24
34582 H 35.27313294640123 4.408114595121816 48.36132469656246 H 0.0 **** 0.06
34583 H 35.63784191693017 2.675547383386629 48.5378469205281 H 0.0 **** 0.06
34584 H 36.84675110534856 3.771967456227685 47.827196818646655 H 0.0 **** 0.06
34585 H 35.36940513308693 3.369001681272806 46.920421555014514 H 0.0 **** 0.06
34586 C 40.961195371963825 6.600370661921431 94.75908165850483 C 0.0 **** -0.24
34587 H 39.986845250635255 6.2206584170384644 94.45035530190357 H 0.0 **** 0.06
34588 H 41.027944149254566 7.662721806907456 94.52052098063035 H 0.0 **** 0.06
34589 H 41.745186408678975 6.058977408322505 94.23141811746272 H 0.0 **** 0.06
34590 H 41.0812158593414 6.459930856207649 95.83335081947062 H 0.0 **** 0.06
34591 C 97.17213180325793 89.32299498143195 19.97781725899921 C 0.0 **** -0.24
34592 H 97.02656949994154 88.98280378040042 21.002949463032564 H 0.0 **** 0.06
34593 H 97.3411506972714 90.40009593629199 19.972654551342657 H 0.0 **** 0.06
34594 H 96.28516651900387 89.09044183109566 19.388287693205626 H 0.0 **** 0.06
34595 H 98.03687303852297 88.81677716199354 19.547507325118886 H 0.0 **** 0.06
34596 C 98.87596970979455 75.84051624385515 72.7141639552396 C 0.0 **** -0.24
34597 H 97.79998139606317 75.99244419842617 72.80270518794367 H 0.0 **** 0.06
34598 H 99.10771650369165 74.78584312211086 72.86743354079744 H 0.0 **** 0.06
34599 H 99.38911969348811 76.43865894643542 73.46745533411803 H 0.0 **** 0.06
34600 H 99.20589841903734 76.14568760013711 71.72088504602351 H 0.0 **** 0.06
34601 C 118.20646419809978 27.283164847582228 137.3187774296064 C 0.0 **** -0.24
34602 H 117.87895462212842 26.931171445941764 138.29717183784427 H 0.0 **** 0.06
34603 H 119.22014339472312 26.93184197814042 137.12765393697288 H 0.0 **** 0.06
34604 H 118.18860016626897 28.372911612184602 137.30141795052356 H 0.0 **** 0.06
34605 H 117.53615494107711 26.89701210440647 136.5510815060934 H 0.0 **** 0.06
34606 C 108.98969431298814 81.06126400107391 125.72694888007511 C 0.0 **** -0.24
34607 H 109.45552348796444 80.86196212877294 124.76116760229714 H 0.0 **** 0.06
34608 H 108.3232315472785 81.92011612052613 125.63736112649286 H 0.0 **** 0.06
34609 H 109.76174092998271 81.27480822298307 126.46581243372938 H 0.0 **** 0.06
34610 H 108.41746212982245 80.18880157654749 126.04063836220614 H 0.0 **** 0.06
34611 C 55.46494463174918 127.6364562796351 7.673045782664012 C 0.0 **** -0.24
34612 H 55.0685314324344 126.78957355176587 8.233875286990845 H 0.0 **** 0.06
34613 H 56.53417902495045 127.49495797637806 7.510600149523633 H 0.0 **** 0.06
34614 H 55.30077312758333 128.55446488236927 8.236588483654714 H 0.0 **** 0.06
34615 H 54.95676242820838 127.7045352672258 6.711841571592391 H 0.0 **** 0.06
34616 C 101.8843580920491 54.01534349196223 2.777018716531625 C 0.0 **** -0.24
34617 H 101.66028861177227 54.92557573573063 2.22106224011079 H 0.0 **** 0.06
34618 H 102.7269248483777 54.19491887274644 3.444233374333674 H 0.0 **** 0.06
34619 H 102.13526623524191 53.216495972955116 2.0791202773702757 H 0.0 **** 0.06
34620 H 101.01219509489309 53.724297679687126 3.3624805228600714 H 0.0 **** 0.06
34621 C 53.92840765882231 97.97938411778995 104.51941410535935 C 0.0 **** -0.24
34622 H 55.013793526406005 98.00813105883554 104.42828462465971 H 0.0 **** 0.06
34623 H 53.53833574772675 98.99701282516962 104.55341749135087 H 0.0 **** 0.06
34624 H 53.65459065749147 97.45413499122282 105.43481571933407 H 0.0 **** 0.06
34625 H 53.50589463900711 97.45686431661925 103.66097581272166 H 0.0 **** 0.06
34626 C 25.640207019430136 87.02383344114891 107.90060613090183 C 0.0 **** -0.24
34627 H 24.79683490715314 87.66224322924374 107.63534032664516 H 0.0 **** 0.06
34628 H 26.46700593863588 87.21199970106646 107.21559701083633 H 0.0 **** 0.06
34629 H 25.340657620266967 85.97800715038444 107.83119418706748 H 0.0 **** 0.06
34630 H 25.955054123100666 87.24473535863252 108.92109629384045 H 0.0 **** 0.06
34631 C 84.87848256674846 111.12248406686665 136.72586240130263 C 0.0 **** -0.24
34632 H 85.57597420354249 111.95061964608807 136.60297490325928 H 0.0 **** 0.06
34633 H 84.80930372709585 110.85929903180256 137.78085120255182 H 0.0 **** 0.06
34634 H 85.23353163629899 110.26221455273462 136.15848509942168 H 0.0 **** 0.06
34635 H 83.89586145073342 111.41893123465034 136.3593555255735 H 0.0 **** 0.06
34636 C 137.13209605835652 42.89043818230908 138.75054446322972 C 0.0 **** -0.24
34637 H 137.28282337817308 43.169554951516375 139.7936286438796 H 0.0 **** 0.06
34638 H 137.76873153924205 42.039455211753136 138.50633191419175 H 0.0 **** 0.06
34639 H 137.3884313921581 43.73292420553753 138.1087446851063 H 0.0 **** 0.06
34640 H 136.08809432463588 42.61954331372783 138.5943848670668 H 0.0 **** 0.06
34641 C 37.51905450124602 121.46438539101264 27.311799987132673 C 0.0 **** -0.24
34642 H 38.3599281304854 121.46179335653018 26.617864598428305 H 0.0 **** 0.06
34643 H 36.6277795341725 121.82732747962463 26.799886460311853 H 0.0 **** 0.06
34644 H 37.74629554318893 122.11838127677312 28.154393256892824 H 0.0 **** 0.06
34645 H 37.34381128552758 120.45159235030546 27.674855853144585 H 0.0 **** 0.06
34646 C 55.74958103102799 23.70118167222266 100.53344985083376 C 0.0 **** -0.24
34647 H 54.893116199040975 24.015312900616777 101.13032090884955 H 0.0 **** 0.06
34648 H 56.66839356000693 23.897745459176804 101.08635374353112 H 0.0 **** 0.06
34649 H 55.76357154832999 24.25860555992375 99.59657185511986 H 0.0 **** 0.06
34650 H 55.67348841268918 22.63507191704028 100.32150325917478 H 0.0 **** 0.06
34651 C 32.30223682206969 93.8803193664578 133.9765326848996 C 0.0 **** -0.24
34652 H 31.23643396570651 94.06443117578344 133.84506192512376 H 0.0 **** 0.06
34653 H 32.79556543900995 93.88849439812147 133.00435135119346 H 0.0 **** 0.06
34654 H 32.44720211083764 92.90823318174174 134.44902187933278 H 0.0 **** 0.06
34655 H 32.72950063055629 94.65881377982627 134.60818254932494 H 0.0 **** 0.06
34656 C 67.98051435673966 12.903373067365465 41.109952604259604 C 0.0 **** -0.24
34657 H 67.38754139328725 12.016217156822734 40.887835664585225 H 0.0 **** 0.06
34658 H 69.01642992537487 12.730310529508586 40.816823265803066 H 0.0 **** 0.06
34659 H 67.93593562123928 13.110991242153716 42.17945573366154 H 0.0 **** 0.06
34660 H 67.58290349548852 13.754495888803206 40.5571958517786 H 0.0 **** 0.06
34661 C 40.91865790600286 48.680596605136515 84.56673353754489 C 0.0 **** -0.24
34662 H 41.09596427818269 47.625126810482556 84.3595658360747 H 0.0 **** 0.06
34663 H 40.46667828574314 49.1508332922854 83.69333479160096 H 0.0 **** 0.06
34664 H 41.86584143159294 49.16965388998614 84.79486252454036 H 0.0 **** 0.06
34665 H 40.2450900134061 48.774563925685214 85.41923571563576 H 0.0 **** 0.06
34666 C 6.359714026970863 19.058778899229594 138.07099003208072 C 0.0 **** -0.24
34667 H 6.406261599250712 19.767973367334662 138.89698094446274 H 0.0 **** 0.06
34668 H 6.6225351685661735 18.063794950120553 138.43179540092024 H 0.0 **** 0.06
34669 H 7.061372562085097 19.36025205117238 137.29273316481925 H 0.0 **** 0.06
34670 H 5.349527624987132 19.041586174765655 137.66232474686103 H 0.0 **** 0.06
34671 C 111.55604310336302 98.94690354800971 132.59261857059784 C 0.0 **** -0.24
34672 H 110.46936003612198 98.93751162110439 132.50411878347577 H 0.0 **** 0.06
34673 H 111.85257922172373 99.68236954202729 133.34102996639373 H 0.0 **** 0.06
34674 H 111.99605255197001 99.20942074640712 131.63078705074872 H 0.0 **** 0.06
34675 H 111.90416680901312 97.95966907629847 132.8948609122438 H 0.0 **** 0.06
34676 C 133.6755573446739 62.37850680237504 69.83824907007946 C 0.0 **** -0.24
34677 H 133.4702362795359 61.56731753340814 70.53641287325573 H 0.0 **** 0.06
34678 H 134.34997378804238 62.0247749134782 69.0577615731963 H 0.0 **** 0.06
34679 H 134.13971633727326 63.2079657495305 70.37141954388491 H 0.0 **** 0.06
34680 H 132.7415175238232 62.71368560159391 69.38685203295569 H 0.0 **** 0.06
34681 C 146.92032445675602 26.384789510675205 31.489882682735782 C 0.0 **** -0.24
34682 H 146.22686029704818 25.562570988410982 31.308715066660994 H 0.0 **** 0.06
34683 H 146.54271964883486 27.004937548652833 32.30312773781196 H 0.0 **** 0.06
34684 H 147.01301031479272 26.98702216102589 30.58591494971435 H 0.0 **** 0.06
34685 H 147.8964471055745 25.98275708232029 31.760592806404247 H 0.0 **** 0.06
34686 C 133.30166561159947 0.06935452678644083 115.62970022528447 C 0.0 **** -0.24
34687 H 132.35267425912286 -0.05328963011359633 116.15277990274689 H 0.0 **** 0.06
34688 H 133.30827898684834 -0.5563195527646769 114.73719997772469 H 0.0 **** 0.06
34689 H 134.1191226124834 -0.22794743610702994 116.28740845739975 H 0.0 **** 0.06
34690 H 133.42602752164848 1.1138890039572118 115.34415281538003 H 0.0 **** 0.06
34691 C 85.91694485855075 82.48147860242162 73.2735242443461 C 0.0 **** -0.24
34692 H 86.47792153927124 81.55252653239656 73.17077356206224 H 0.0 **** 0.06
34693 H 86.55136571638891 83.32204079200766 72.99307665742748 H 0.0 **** 0.06
34694 H 85.59630168402795 82.5988301994179 74.30858416279767 H 0.0 **** 0.06
34695 H 85.04257060499933 82.45242406266739 72.6240806768734 H 0.0 **** 0.06
34696 C 142.4733068687273 137.42572054490165 104.49726462816437 C 0.0 **** -0.24
34697 H 143.40662398447253 137.37580625074057 105.0595743908566 H 0.0 **** 0.06
34698 H 141.80466213426345 136.63220165280703 104.83193983627274 H 0.0 **** 0.06
34699 H 142.68295073664322 137.30028279612608 103.43514397027354 H 0.0 **** 0.06
34700 H 142.001310943049 138.39320575914073 104.66370270001272 H 0.0 **** 0.06
34701 C 125.94880918450824 49.287594940274474 26.258675532765153 C 0.0 **** -0.24
34702 H 126.42828793110536 48.3626511479835 25.937875587609994 H 0.0 **** 0.06
34703 H 126.55582795915277 49.76111079681071 27.031834967152008 H 0.0 **** 0.06
34704 H 124.95961282355395 49.06490372769787 26.657275113818685 H 0.0 **** 0.06
34705 H 125.8552099644157 49.96183330905137 25.407185484431864 H 0.0 **** 0.06
34706 C 81.04274053052671 42.58982190205319 56.30685431847655 C 0.0 **** -0.24
34707 H 80.41299703883902 43.47194591025243 56.42568562554524 H 0.0 **** 0.06
34708 H 81.04199927239057 42.28128754762122 55.26079383495292 H 0.0 **** 0.06
34709 H 80.65486603035282 41.78124551224931 56.92496354162543 H 0.0 **** 0.06
34710 H 82.06115401660469 42.82603559173509 56.61475289837463 H 0.0 **** 0.06
34711 C 89.13734026305212 37.53652231826055 125.09148463690224 C 0.0 **** -0.24
34712 H 89.96113946658949 36.917743922944965 124.73631335721257 H 0.0 **** 0.06
34713 H 88.51490924873079 36.95668835901131 125.77340084538162 H 0.0 **** 0.06
34714 H 88.53860774406456 37.86558179636421 124.24282706567317 H 0.0 **** 0.06
34715 H 89.53595862759505 38.406263798240445 125.61402329747733 H 0.0 **** 0.06
34716 C 76.3919359732491 91.00841287400962 78.37433892340944 C 0.0 **** -0.24
34717 H 76.06344964582973 90.63040606053153 79.34196903284293 H 0.0 **** 0.06
34718 H 76.74128921495557 90.17880800501004 77.75955232376867 H 0.0 **** 0.06
34719 H 77.20403623568629 91.7209896653805 78.51984829216777 H 0.0 **** 0.06
34720 H 75.55865778747935 91.50501642660171 77.87665139012219 H 0.0 **** 0.06
34721 C 128.72871254314614 109.84690013024807 123.54142925168323 C 0.0 **** -0.24
34722 H 128.31409442857446 110.61809361401235 122.8922567690068 H 0.0 **** 0.06
34723 H 127.92189220784601 109.21662955433139 123.9171864586997 H 0.0 **** 0.06
34724 H 129.2434856825101 110.31718514028402 124.37992740290177 H 0.0 **** 0.06
34725 H 129.4340586496061 109.23671924341694 122.97783133097239 H 0.0 **** 0.06
34726 C 28.216508781117 8.493553605365406 47.82982961173337 C 0.0 **** -0.24
34727 H 28.875959683899055 9.260452015018444 48.23497129666276 H 0.0 **** 0.06
34728 H 27.212286563152134 8.901332836833433 47.71590285796816 H 0.0 **** 0.06
34729 H 28.189214611022294 7.642010060284548 48.5097943955505 H 0.0 **** 0.06
34730 H 28.59041075655108 8.170650641533143 46.85739527935635 H 0.0 **** 0.06
34731 C 84.52173092721986 105.42489769725465 125.54945308214678 C 0.0 **** -0.24
34732 H 84.28334863010541 106.47247065182312 125.7325029545755 H 0.0 **** 0.06
34733 H 85.14151980137048 105.3438373227067 124.65579962827707 H 0.0 **** 0.06
34734 H 83.59906584379898 104.86216054297857 125.40432707744498 H 0.0 **** 0.06
34735 H 85.06270898900898 105.02017064788716 126.40530836598117 H 0.0 **** 0.06
34736 C 16.10264316527889 5.432327855518707 124.8291228938402 C 0.0 **** -0.24
34737 H 15.147711274436091 5.638925125870685 125.3124759110759 H 0.0 **** 0.06
34738 H 16.810861987063817 6.223687672982948 125.0719050484644 H 0.0 **** 0.06
34739 H 15.960614764183873 5.389229534830662 123.7491215217079 H 0.0 **** 0.06
34740 H 16.488842711165745 4.47623323959769 125.18309675836471 H 0.0 **** 0.06
34741 C 128.8010456106251 123.10142832203937 57.861173725158125 C 0.0 **** -0.24
34742 H 128.24524221216902 123.03608206863143 56.92641766544048 H 0.0 **** 0.06
34743 H 129.8338649949641 123.38027868282907 57.65136406469318 H 0.0 **** 0.06
34744 H 128.78081036040564 122.13401624396121 58.36372413753506 H 0.0 **** 0.06
34745 H 128.34464804252897 123.8536502627164 58.50329196590653 H 0.0 **** 0.06
34746 C 39.45041171181404 60.62101590431445 39.517549181286995 C 0.0 **** -0.24
34747 H 39.05924392460594 60.09600948950258 40.38928797677123 H 0.0 **** 0.06
34748 H 40.48920428080555 60.900415222301845 39.697833845876886 H 0.0 **** 0.06
34749 H 38.857827681721886 61.51826290577871 39.33784530280985 H 0.0 **** 0.06
34750 H 39.39538251285026 59.96834615583154 38.646198806269865 H 0.0 **** 0.06
34751 C 112.807767931481 21.338546316665038 147.22829491825655 C 0.0 **** -0.24
34752 H 112.7141084015707 21.500186964857456 146.15438864690975 H 0.0 **** 0.06
34753 H 112.26351959898678 22.11772246932 147.76133031620682 H 0.0 **** 0.06
34754 H 113.85986311272175 21.371279503981384 147.50990585850252 H 0.0 **** 0.06
34755 H 112.39293557459992 20.3634803632399 147.48604291283397 H 0.0 **** 0.06
34756 C 30.735971538574844 86.54800998822401 103.59527413544289 C 0.0 **** -0.24
34757 H 30.58020231607898 85.4698200789584 103.55827476446593 H 0.0 **** 0.06
34758 H 29.77553860319871 87.05003988005845 103.70710886477183 H 0.0 **** 0.06
34759 H 31.21397098850366 86.87725260403757 102.67233408784837 H 0.0 **** 0.06
34760 H 31.37583219230804 86.79244525590035 104.44307789901127 H 0.0 **** 0.06
34761 C 87.13217446349772 108.0767747169191 95.37290646253703 C 0.0 **** -0.24
34762 H 87.75726690173033 108.02127469869696 96.26493377585788 H 0.0 **** 0.06
34763 H 86.15781313250342 107.63541855860849 95.58551001017887 H 0.0 **** 0.06
34764 H 87.6100235813802 107.53017216431353 94.56044949708999 H 0.0 **** 0.06
34765 H 87.00423227395977 109.11958651265148 95.08392236174367 H 0.0 **** 0.06
34766 C 150.15361079473533 19.844294547661015 86.96853644386417 C 0.0 **** -0.24
34767 H 149.9243090637379 20.173634894647023 85.95510803744688 H 0.0 **** 0.06
34768 H 151.22822843332895 19.91879574643243 87.13978784868843 H 0.0 **** 0.06
34769 H 149.83659384709455 18.808731915262996 87.09484875577547 H 0.0 **** 0.06
34770 H 149.62679946023434 20.475053070881188 87.68347345441416 H 0.0 **** 0.06
34771 C 5.552026224766507 65.92866637987746 52.725639246945036 C 0.0 **** -0.24
34772 H 5.722585859835931 66.74979329514812 53.42175811392946 H 0.0 **** 0.06
34773 H 6.00453564349894 66.16847831589268 51.76301576143135 H 0.0 **** 0.06
34774 H 4.4797493787686165 65.77949759681081 52.59730944586232 H 0.0 **** 0.06
34775 H 6.000757763101831 65.01775255648556 53.12248369393467 H 0.0 **** 0.06
34776 C 25.780543544731216 25.53043102772017 39.10976243528141 C 0.0 **** -0.24
34777 H 26.642197019572087 25.4561019923799 39.77390248248537 H 0.0 **** 0.06
34778 H 24.975163407107907 26.062256511344287 39.617215886215064 H 0.0 **** 0.06
34779 H 25.442600181514194 24.53057481977993 38.839417673529994 H 0.0 **** 0.06
34780 H 26.06371371758609 26.074427734778453 38.20824884871404 H 0.0 **** 0.06
34781 C 140.6218702350156 89.50176950626702 24.370775159447817 C 0.0 **** -0.24
34782 H 140.93930871641172 88.5536622160209 24.806066899401102 H 0.0 **** 0.06
34783 H 139.53629308682088 89.58561872023854 24.435498468268563 H 0.0 **** 0.06
34784 H 140.9277028104892 89.54139637570577 23.3250879941652 H 0.0 **** 0.06
34785 H 141.08407060184135 90.32431690000743 24.915643081752336 H 0.0 **** 0.06
34786 C 112.57206668675578 147.1691214960457 94.86465133104434 C 0.0 **** -0.24
34787 H 113.63384902559669 147.05412027191767 94.6458786625873 H 0.0 **** 0.06
34788 H 112.25569706460173 146.3829928227002 95.55004570343316 H 0.0 **** 0.06
34789 H 112.00111764698305 147.09603431773223 93.93907856856787 H 0.0 **** 0.06
34790 H 112.39980111667735 148.14319176578215 95.32253141156615 H 0.0 **** 0.06
34791 C 63.32411307845925 89.27144292359188 40.69530843958529 C 0.0 **** -0.24
34792 H 62.75372983675942 89.67108657759829 39.8572509444777 H 0.0 **** 0.06
34793 H 64.29154313961791 88.91590200073935 40.33881964501239 H 0.0 **** 0.06
34794 H 62.77641287965352 88.44260653693269 41.144686063336565 H 0.0 **** 0.06
34795 H 63.4749250128537 90.05399776527733 41.43842090512493 H 0.0 **** 0.06
34796 C 138.0565523342763 116.38832435255316 45.48371382429045 C 0.0 **** -0.24
34797 H 137.43939382189998 116.50696499657457 46.3739633567217 H 0.0 **** 0.06
34798 H 137.9507549825981 117.26882504538108 44.84908796989518 H 0.0 **** 0.06
34799 H 137.73477625301624 115.50300380967789 44.93466628665486 H 0.0 **** 0.06
34800 H 139.09995289239973 116.27496069062707 45.777273741374486 H 0.0 **** 0.06
34801 C 35.244339870062696 25.404255901899973 83.94348075478631 C 0.0 **** -0.24
34802 H 35.435047938543214 25.71861370202214 82.91682252021045 H 0.0 **** 0.06
34803 H 34.39554514956557 25.96138113547741 84.34094711379122 H 0.0 **** 0.06
34804 H 36.12571757635667 25.600647091376544 84.55309397952992 H 0.0 **** 0.06
34805 H 35.019120769612 24.338201253628398 83.96165508566217 H 0.0 **** 0.06
34806 C 86.73466125547736 137.6974145026952 51.44961970115881 C 0.0 **** -0.24
34807 H 87.48749534660234 137.3430939830744 50.746618117838665 H 0.0 **** 0.06
34808 H 86.82329543225381 137.1456827859443 52.385875331886695 H 0.0 **** 0.06
34809 H 85.74185462990349 137.54014892763905 51.028175726806325 H 0.0 **** 0.06
34810 H 86.88473980845552 138.7606318749038 51.63844435426242 H 0.0 **** 0.06
34811 C 146.57124466665258 34.91524496538068 26.948407749093974 C 0.0 **** -0.24
34812 H 147.31741507376492 34.57474391885705 26.23017640643434 H 0.0 **** 0.06
34813 H 146.43658196304463 35.99301233859137 26.84819802000868 H 0.0 **** 0.06
34814 H 146.90831102725073 34.68293484309686 27.95938738112966 H 0.0 **** 0.06
34815 H 145.6246098474111 34.41054215129395 26.75628784035024 H 0.0 **** 0.06
34816 C 137.95613089771166 47.852648673358175 128.45569742540286 C 0.0 **** -0.24
34817 H 138.7724298849725 48.40505730427813 128.91962101947834 H 0.0 **** 0.06
34818 H 137.00716657977813 48.321168031258566 128.71524663632582 H 0.0 **** 0.06
34819 H 137.96426644086378 46.82325615727453 128.8148552830069 H 0.0 **** 0.06
34820 H 138.0816346784525 47.8604846240776 127.3722566381575 H 0.0 **** 0.06
34821 C 71.10071502129679 29.558943513199985 22.62128763135877 C 0.0 **** -0.24
34822 H 71.31127483309037 30.614532850424666 22.451646321132984 H 0.0 **** 0.06
34823 H 70.4959546355868 29.44958846738193 23.521800736411535 H 0.0 **** 0.06
34824 H 72.037300241213 29.016306648150284 22.74362236755863 H 0.0 **** 0.06
34825 H 70.55622512671253 29.15534078945179 21.767327387297286 H 0.0 **** 0.06
34826 C 117.68556692692871 139.9774274411106 62.80056637975524 C 0.0 **** -0.24
34827 H 117.34392734650575 139.0348287885235 62.370614367456085 H 0.0 **** 0.06
34828 H 118.52854614270669 139.78829559045968 63.46504712577554 H 0.0 **** 0.06
34829 H 116.87241727418674 140.43405928217993 63.36495498117033 H 0.0 **** 0.06
34830 H 117.99503700894823 140.64986368037964 62.00098822498548 H 0.0 **** 0.06
34831 C 144.09615477648535 122.26136691883316 7.564132800132029 C 0.0 **** -0.24
34832 H 144.98912476651864 122.80855902265806 7.261227040715596 H 0.0 **** 0.06
34833 H 143.3445047726081 122.9644763331852 7.9247779921208235 H 0.0 **** 0.06
34834 H 144.35086780345412 121.56187902573431 8.359476999157835 H 0.0 **** 0.06
34835 H 143.6998362993851 121.71179090957251 6.709871489796058 H 0.0 **** 0.06
34836 C 123.00646121862975 101.72535193751396 40.91273154678535 C 0.0 **** -0.24
34837 H 122.98031933486884 101.41964261690686 41.95810270309501 H 0.0 **** 0.06
34838 H 122.70172380740975 102.76904311131845 40.83172321286182 H 0.0 **** 0.06
34839 H 122.32386145798519 101.10163677319576 40.33508938792224 H 0.0 **** 0.06
34840 H 124.01873334335393 101.61160437394803 40.52488219530265 H 0.0 **** 0.06
34841 C 1.2716380242015362 2.249970853336009 46.21983821935652 C 0.0 **** -0.24
34842 H 2.2968354330741363 2.196238191467387 46.584827975587615 H 0.0 **** 0.06
34843 H 0.5887139245107278 1.9254840589372009 47.006630170105325 H 0.0 **** 0.06
34844 H 1.1603577820548594 1.599539999007476 45.35218742499379 H 0.0 **** 0.06
34845 H 1.0395606790986562 3.2771002466435277 45.93805496111756 H 0.0 **** 0.06
34846 C 44.67012677948915 115.33618443956166 145.80313478305027 C 0.0 **** -0.24
34847 H 44.00284639235795 115.72304912554878 146.5724988304828 H 0.0 **** 0.06
34848 H 45.680795448450425 115.25628236862585 146.2056245937145 H 0.0 **** 0.06
34849 H 44.671562035237486 116.01468425168136 144.94930313928086 H 0.0 **** 0.06
34850 H 44.32700382060082 114.35214002747963 145.4854247358715 H 0.0 **** 0.06
34851 C 38.14676672852873 8.830785289724957 48.20837572946776 C 0.0 **** -0.24
34852 H 37.45558539042165 8.552064549061015 47.413286067033226 H 0.0 **** 0.06
34853 H 39.1602523436366 8.542357523236348 47.92678227890573 H 0.0 **** 0.06
34854 H 37.866239878450585 8.32070846039744 49.12911768284819 H 0.0 **** 0.06
34855 H 38.105674090558246 9.909553018038906 48.363926759204006 H 0.0 **** 0.06
34856 C 7.6966407018458085 12.007937087530934 59.20541745886143 C 0.0 **** -0.24
34857 H 6.68086956643009 12.303965207326058 58.94471492656906 H 0.0 **** 0.06
34858 H 8.018332615743134 12.556255500772295 60.09116558071922 H 0.0 **** 0.06
34859 H 8.364744018270528 12.23529135388489 58.37517866655564 H 0.0 **** 0.06
34860 H 7.722830677532329 10.93846211859855 59.41060469872322 H 0.0 **** 0.06
34861 C 119.06459454507065 23.03093962480142 125.38283546751242 C 0.0 **** -0.24
34862 H 118.76795255457007 22.034315029346317 125.70753128978251 H 0.0 **** 0.06
34863 H 118.33060670826431 23.414721640514557 124.67292647835464 H 0.0 **** 0.06
34864 H 120.04183564940915 22.98116575732095 124.90370518143081 H 0.0 **** 0.06
34865 H 119.11677832435866 23.693855686396546 126.24650185685417 H 0.0 **** 0.06
34866 C 113.67822049841647 135.80885332893902 117.03579439016141 C 0.0 **** -0.24
34867 H 114.20198212707203 134.97589267278937 117.50463208070875 H 0.0 **** 0.06
34868 H 113.9309390649695 136.73497676726788 117.55226432585658 H 0.0 **** 0.06
34869 H 112.60237718266211 135.64149930229112 117.09535365489887 H 0.0 **** 0.06
34870 H 113.97669386877163 135.88257798225482 115.98993215477088 H 0.0 **** 0.06
34871 C 82.45008061823853 148.69513160520643 127.72353196521894 C 0.0 **** -0.24
34872 H 81.78167601668792 148.68866846268384 128.58398240911387 H 0.0 **** 0.06
34873 H 82.59140152156209 149.72024972948145 127.38166400388613 H 0.0 **** 0.06
34874 H 82.01438564806938 148.10042891795604 126.92020194744836 H 0.0 **** 0.06
34875 H 83.41295193094544 148.26986159764203 128.0077744038841 H 0.0 **** 0.06
34876 C 122.95415851104944 67.47532659014311 26.046068849068803 C 0.0 **** -0.24
34877 H 123.77303305276793 67.67256063382865 26.73844282862538 H 0.0 **** 0.06
34878 H 122.01093954140258 67.77367157073326 26.505487820585444 H 0.0 **** 0.06
34879 H 122.92432336974561 66.41241442104672 25.81122637972024 H 0.0 **** 0.06
34880 H 123.1084356828705 68.04623798243634 25.130207922835268 H 0.0 **** 0.06
34881 C 5.671948002862507 11.664989970552767 119.86112100783534 C 0.0 **** -0.24
34882 H 5.585021304769782 10.73148846079556 119.30651023602503 H 0.0 **** 0.06
34883 H 4.725032572778389 11.885128018865885 120.35376477451727 H 0.0 **** 0.06
34884 H 5.921120229945416 12.474232135996488 119.17364965820518 H 0.0 **** 0.06
34885 H 6.4587585703063155 11.569757344096388 120.61057709363176 H 0.0 **** 0.06
34886 C 18.02266250309748 19.394701230164003 10.64163899745381 C 0.0 **** -0.24
34887 H 18.515260765280402 18.815053254305695 11.421984203676743 H 0.0 **** 0.06
34888 H 16.942077874959722 19.27267829645453 10.726195530822878 H 0.0 **** 0.06
34889 H 18.352569195798623 19.042376337428124 9.663984021208051 H 0.0 **** 0.06
34890 H 18.279793543488296 20.447733905865476 10.75330937093895 H 0.0 **** 0.06
34891 C 72.44055021805718 77.93697122043358 86.91706053912986 C 0.0 **** -0.24
34892 H 72.22488005257702 78.68364241126389 86.15369827465491 H 0.0 **** 0.06
34893 H 73.37856887576915 77.43502180414981 86.67860449160668 H 0.0 **** 0.06
34894 H 71.63385702398325 77.20514859529902 86.94764139252942 H 0.0 **** 0.06
34895 H 72.52576230116134 78.42431536086877 87.88786383601024 H 0.0 **** 0.06
34896 C 56.14121950652205 56.75098545020914 67.59497528518239 C 0.0 **** -0.24
34897 H 55.83321015868583 56.69651566427936 66.55134617129579 H 0.0 **** 0.06
34898 H 56.58128946606213 57.72813032608373 67.7947522014573 H 0.0 **** 0.06
34899 H 56.87756114420837 55.972980171084615 67.79719860805642 H 0.0 **** 0.06
34900 H 55.27326250621907 56.60470919714896 68.23809455570068 H 0.0 **** 0.06
34901 C 73.75921283740558 25.594068109553362 101.93963424898956 C 0.0 **** -0.24
34902 H 73.18286645644697 24.777091099006007 101.50526239847952 H 0.0 **** 0.06
34903 H 73.10176426518508 26.44276089596977 102.12839445280972 H 0.0 **** 0.06
34904 H 74.5465027778439 25.890950285845015 101.24656642093746 H 0.0 **** 0.06
34905 H 74.20588459672216 25.26342996532987 102.87696834960886 H 0.0 **** 0.06
34906 C 89.94223744217777 36.945708871527756 24.678923087751173 C 0.0 **** -0.24
34907 H 90.20328231599723 37.507465892526795 25.575988369272864 H 0.0 **** 0.06
34908 H 89.72890747728718 37.639729869952134 23.865636740837942 H 0.0 **** 0.06
34909 H 89.06161058083552 36.33458263402014 24.87583302603565 H 0.0 **** 0.06
34910 H 90.77670433065174 36.30207295975572 24.398976055879587 H 0.0 **** 0.06
34911 C 137.93378554771624 76.17707796751279 135.004772812081 C 0.0 **** -0.24
34912 H 138.56238886710594 77.00424974845308 135.33531360234392 H 0.0 **** 0.06
34913 H 137.1414817448644 76.55710356891203 134.36115130207517 H 0.0 **** 0.06
34914 H 137.49285668891937 75.68715970250477 135.87316922800056 H 0.0 **** 0.06
34915 H 138.540682490105 75.45961006955366 134.45242744651483 H 0.0 **** 0.06
34916 C 101.19210160742261 73.13169210600881 123.84945775368071 C 0.0 **** -0.24
34917 H 102.01547877556386 72.41817858875629 123.81699264187723 H 0.0 **** 0.06
34918 H 101.15178428429283 73.68247955532169 122.90911992927725 H 0.0 **** 0.06
34919 H 101.34710223626715 73.82934223999538 124.67279401449291 H 0.0 **** 0.06
34920 H 100.25380251384465 72.59702582848638 123.99798813729096 H 0.0 **** 0.06
34921 C 117.77894046397533 112.23393075631178 98.26491807369129 C 0.0 **** -0.24
34922 H 118.59667274228984 111.53443573304524 98.43651379714001 H 0.0 **** 0.06
34923 H 118.02847563165979 113.20024899960636 98.70448806679963 H 0.0 **** 0.06
34924 H 116.86830686343028 111.84941973141456 98.72458231162469 H 0.0 **** 0.06
34925 H 117.62175889418488 112.35335572038109 97.1924502866184 H 0.0 **** 0.06
34926 C 108.52185602072296 20.077274439604537 149.10080512346468 C 0.0 **** -0.24
34927 H 109.50265886836337 19.981585793325024 149.56693380940175 H 0.0 **** 0.06
34928 H 108.02255181566102 20.96666157736027 149.48803682768389 H 0.0 **** 0.06
34929 H 107.9236642800268 19.195758553705787 149.32894943286092 H 0.0 **** 0.06
34930 H 108.64059491269336 20.16721711279834 148.02160225580553 H 0.0 **** 0.06
34931 C 133.75275620868143 15.563259091620864 96.52906927988357 C 0.0 **** -0.24
34932 H 133.26936259659215 15.876531503710197 97.45428735450643 H 0.0 **** 0.06
34933 H 133.94070987592414 16.43617793257596 95.90342511323112 H 0.0 **** 0.06
34934 H 133.1034883888757 14.867766059691945 95.99718750128116 H 0.0 **** 0.06
34935 H 134.69794496903285 15.071717790274676 96.7624057087606 H 0.0 **** 0.06
34936 C 61.11677147906346 75.96294355945338 47.609228662935266 C 0.0 **** -0.24
34937 H 60.48708939426507 76.72269523111106 48.07155682563183 H 0.0 **** 0.06
34938 H 61.20315354000917 76.16411911802777 46.540914542891585 H 0.0 **** 0.06
34939 H 60.66998503817746 74.97965074895615 47.7596336011261 H 0.0 **** 0.06
34940 H 62.10637340775469 75.9860473943653 48.06434038315115 H 0.0 **** 0.06
34941 C 104.62560252210665 130.07548903382306 142.5092092467686 C 0.0 **** -0.24
34942 H 104.97787953587994 129.3605129178243 141.7656081792805 H 0.0 **** 0.06
34943 H 105.47022619515974 130.42760234426711 143.10246601750026 H 0.0 **** 0.06
34944 H 103.89873695452098 129.59199916384475 143.162114665793 H 0.0 **** 0.06
34945 H 104.15697145299947 130.92013271777435 142.00631922634182 H 0.0 **** 0.06
34946 C 1.308810596012961 17.929558194167015 62.54382213210255 C 0.0 **** -0.24
34947 H 1.4730513013199378 18.75551746194168 63.23543238408679 H 0.0 **** 0.06
34948 H 0.3007836037426763 17.994369663943417 62.13259763341709 H 0.0 **** 0.06
34949 H 1.4261839258328486 16.98435178951982 63.07219489287394 H 0.0 **** 0.06
34950 H 2.0353299573510277 17.98537959035977 61.73304652789513 H 0.0 **** 0.06
34951 C 132.49270367107266 106.76531090862028 7.050075289911149 C 0.0 **** -0.24
34952 H 131.77212609434292 106.84418421309641 7.863630090138997 H 0.0 **** 0.06
34953 H 132.46463199759032 105.75747846166206 6.636381916292294 H 0.0 **** 0.06
34954 H 133.49325040721308 106.97468098023973 7.429826423673603 H 0.0 **** 0.06
34955 H 132.24140422520685 107.48519335703838 6.27120859433586 H 0.0 **** 0.06
34956 C 62.15931349359033 63.9622236602424 81.06062466845387 C 0.0 **** -0.24
34957 H 62.63413696415762 63.027819979625846 80.76320093397314 H 0.0 **** 0.06
34958 H 62.87969153262094 64.77704695238626 80.97939033094255 H 0.0 **** 0.06
34959 H 61.81557197204705 63.882868047672744 82.0916154109004 H 0.0 **** 0.06
34960 H 61.309027706874645 64.16237664455538 80.40866658141644 H 0.0 **** 0.06
34961 C 129.28261406573904 60.809453361353405 148.51575804412934 C 0.0 **** -0.24
34962 H 129.86150402747165 59.93465317007397 148.81271517645405 H 0.0 **** 0.06
34963 H 128.21850634112295 60.57437523158919 148.5667735652773 H 0.0 **** 0.06
34964 H 129.54539576409746 61.08900635270996 147.49505464841639 H 0.0 **** 0.06
34965 H 129.50412360299723 61.637519541773116 149.18829382120816 H 0.0 **** 0.06
34966 C 67.50810328670651 88.06168865646896 93.853080214845 C 0.0 **** -0.24
34967 H 67.9104724183679 88.6830501692863 93.05235649576967 H 0.0 **** 0.06
34968 H 68.23670638502567 87.99469345867027 94.66179567700165 H 0.0 **** 0.06
34969 H 67.3000150928472 87.06302863592603 93.46824002281117 H 0.0 **** 0.06
34970 H 66.58634055096012 88.50583565509834 94.2290794077949 H 0.0 **** 0.06
34971 C 82.032378063393 130.88066785844072 51.461454205546275 C 0.0 **** -0.24
34972 H 82.89861176075502 130.45264707068552 50.95614449882811 H 0.0 **** 0.06
34973 H 81.72963576991475 131.79537937045504 50.95103529368464 H 0.0 **** 0.06
34974 H 82.29164434395867 131.1103610578754 52.49457350393817 H 0.0 **** 0.06
34975 H 81.21092008454661 130.16455636224978 51.44357708786326 H 0.0 **** 0.06
34976 C 121.37852627928474 140.8003593217236 94.54035516409921 C 0.0 **** -0.24
34977 H 121.19809572347593 140.50041731341483 93.50862455531524 H 0.0 **** 0.06
34978 H 120.4256874420944 140.9086123666789 95.0590235859966 H 0.0 **** 0.06
34979 H 121.91010189457266 141.75244697624876 94.5542831419302 H 0.0 **** 0.06
34980 H 121.98073035447611 140.04127113670248 95.03963851507405 H 0.0 **** 0.06
34981 C 142.33252866122197 72.44505581765509 109.80956435534715 C 0.0 **** -0.24
34982 H 141.65947238342793 73.28948238260297 109.95691935193643 H 0.0 **** 0.06
34983 H 143.08050966314332 72.43457744365787 110.6020793975646 H 0.0 **** 0.06
34984 H 142.82734329811075 72.53957846236172 108.84309686045746 H 0.0 **** 0.06
34985 H 141.76153694309176 71.51711957127169 109.83577985702341 H 0.0 **** 0.06
34986 C 80.67481530731425 23.40262166247794 102.44713755220528 C 0.0 **** -0.24
34987 H 79.96862648008336 23.06561137201828 103.20642795360577 H 0.0 **** 0.06
34988 H 80.2188765012904 24.19369399355145 101.85263791438067 H 0.0 **** 0.06
34989 H 80.93844293142804 22.566169946352147 101.80000118325984 H 0.0 **** 0.06
34990 H 81.57410514175145 23.78356359440056 102.93236076371669 H 0.0 **** 0.06
34991 C 17.535242444948608 2.0009597927928446 145.34942508318977 C 0.0 **** -0.24
34992 H 18.604201995667523 1.7924980448528558 145.39712910180532 H 0.0 **** 0.06
34993 H 17.039865665897167 1.5543408926955138 146.21218920492728 H 0.0 **** 0.06
34994 H 17.122772397013676 1.5791346731754956 144.43356676095993 H 0.0 **** 0.06
34995 H 17.37604170932204 3.07998813049786 145.35617149656233 H 0.0 **** 0.06
34996 C 149.3530131491067 80.98498237666217 52.4550091617771 C 0.0 **** -0.24
34997 H 149.62632844440137 81.26823812437236 51.43871520678789 H 0.0 **** 0.06
34998 H 149.64485522089618 81.7783399168933 53.14386149638571 H 0.0 **** 0.06
34999 H 149.86363228032053 80.06123150348006 52.725386446362364 H 0.0 **** 0.06
35000 H 148.27485972724674 80.83394928066237 52.512137969763586 H 0.0 **** 0.06
35001 C 62.28528579468875 11.864286104102995 78.15950089070785 C 0.0 **** -0.24
35002 H 62.77426066139047 11.549260745716772 79.08025602358215 H 0.0 **** 0.06
35003 H 61.682935574738565 12.751692669890197 78.35357118393858 H 0.0 **** 0.06
35004 H 61.64301067554089 11.061083549701621 77.79657134108048 H 0.0 **** 0.06
35005 H 63.03992069205013 12.094373042093068 77.40640945555039 H 0.0 **** 0.06
35006 C 7.882459170151094 75.5122286391791 107.31724977279377 C 0.0 **** -0.24
35007 H 8.096288227874197 76.577726409832 107.39635152919287 H 0.0 **** 0.06
35008 H 8.678524882023112 74.94515752409836 107.7995341377525 H 0.0 **** 0.06
35009 H 7.820457079384482 75.23125155489197 106.26618360852187 H 0.0 **** 0.06
35010 H 6.9330995160956945 75.29555564433856 107.80804563787633 H 0.0 **** 0.06
35011 C 26.787250571508253 112.10154149276211 149.51518537067255 C 0.0 **** -0.24
35012 H 27.400290522397142 111.2284345885429 149.73890581925315 H 0.0 **** 0.06
35013 H 25.853957591881226 112.04185264217581 150.0759865612639 H 0.0 **** 0.06
35014 H 26.569815665830504 112.1284438980053 148.44794042867477 H 0.0 **** 0.06
35015 H 27.32580115021159 113.00541338275325 149.79968907762128 H 0.0 **** 0.06
35016 C 96.42456390628828 119.58466864194737 129.8186451962288 C 0.0 **** -0.24
35017 H 96.05319882633259 118.93553921294505 129.02541669210166 H 0.0 **** 0.06
35018 H 95.86279786086595 119.39630594919792 130.73412481301636 H 0.0 **** 0.06
35019 H 96.2995357926504 120.62612626912947 129.52263935619345 H 0.0 **** 0.06
35020 H 97.48047089598728 119.38010329630474 129.99051103659315 H 0.0 **** 0.06
35021 C 110.37530414849313 95.84183112083038 124.61180157021477 C 0.0 **** -0.24
35022 H 111.39982131757854 95.96197372068883 124.96454768879278 H 0.0 **** 0.06
35023 H 109.89446412453232 96.81870619009221 124.55395279284767 H 0.0 **** 0.06
35024 H 109.82554835507524 95.20543619119746 125.30432774155065 H 0.0 **** 0.06
35025 H 110.3838034831354 95.38100931895782 123.62406045513364 H 0.0 **** 0.06
35026 C 104.5525545271416 63.141596849978896 145.2665272842273 C 0.0 **** -0.24
35027 H 105.01891480431216 64.09016621111299 145.53503387471355 H 0.0 **** 0.06
35028 H 105.29739404032473 62.347099355053984 145.30459683100108 H 0.0 **** 0.06
35029 H 104.14482795885208 63.210440866364394 144.25726216281788 H 0.0 **** 0.06
35030 H 103.74850110429365 62.921446612546276 145.96909433932896 H 0.0 **** 0.06
35031 C 130.68856587778058 45.4877185791793 37.32221182286289 C 0.0 **** -0.24
35032 H 130.42186723238015 44.4325192417584 37.26773564451053 H 0.0 **** 0.06
35033 H 131.67469524823517 45.63666322354416 36.88320975669023 H 0.0 **** 0.06
35034 H 130.70143755220542 45.80552464396092 38.36468345411276 H 0.0 **** 0.06
35035 H 129.9529960731006 46.07646420412033 36.771419445131784 H 0.0 **** 0.06
35036 C 33.48927847153644 14.450804084025606 70.14641428631212 C 0.0 **** -0.24
35037 H 33.327136588295815 15.016480272931062 71.06389667900673 H 0.0 **** 0.06
35038 H 34.31016941849725 14.896005999720103 69.58487999084684 H 0.0 **** 0.06
35039 H 32.58160015186175 14.469885098195562 69.5426622754106 H 0.0 **** 0.06
35040 H 33.73701055191441 13.41893297961451 70.39592447497738 H 0.0 **** 0.06
35041 C 118.10701693307966 37.73520854689741 19.713974059204133 C 0.0 **** -0.24
35042 H 117.40144844107486 37.395659500322154 18.956375224595263 H 0.0 **** 0.06
35043 H 117.72459056191447 38.63954468474134 20.18746609735865 H 0.0 **** 0.06
35044 H 119.0675018290908 37.94938863709979 19.245151981330253 H 0.0 **** 0.06
35045 H 118.23513664673048 36.956394409000325 20.466125229552347 H 0.0 **** 0.06
35046 C 123.4187976319419 111.08586405492433 146.35970840871983 C 0.0 **** -0.24
35047 H 123.56280908080454 110.00817314726113 146.44240983888227 H 0.0 **** 0.06
35048 H 124.06704651617277 111.4795696844965 145.57695574100936 H 0.0 **** 0.06
35049 H 123.6667560118088 111.55807755548132 147.31086379788889 H 0.0 **** 0.06
35050 H 122.37853534979924 111.29542591286913 146.11063272611293 H 0.0 **** 0.06
35051 C 145.7299885412356 83.35829161798013 19.337223141760973 C 0.0 **** -0.24
35052 H 146.51892333013706 83.75617677079426 19.976270733644043 H 0.0 **** 0.06
35053 H 145.0168415645343 82.80138557419771 19.944820478992796 H 0.0 **** 0.06
35054 H 146.1674028207206 82.69540423178195 18.59061712280507 H 0.0 **** 0.06
35055 H 145.21800030109108 84.18064475306602 18.837757589317192 H 0.0 **** 0.06
35056 C 111.85008871857625 97.22831590736692 112.28374601136709 C 0.0 **** -0.24
35057 H 112.1079806270931 96.6072988419192 113.1412855330306 H 0.0 **** 0.06
35058 H 112.19828825801088 96.74817363245637 111.36917837344323 H 0.0 **** 0.06
35059 H 112.32383373765165 98.20457974288968 112.38611329353544 H 0.0 **** 0.06
35060 H 110.76741614066421 97.35326629039 112.23938346863987 H 0.0 **** 0.06
35061 C 135.00719806855017 103.99696609878998 82.87959157619196 C 0.0 **** -0.24
35062 H 134.73781888016228 104.33210762318862 81.87741567503076 H 0.0 **** 0.06
35063 H 134.53408240953573 104.6433960638762 83.61859113449447 H 0.0 **** 0.06
35064 H 136.0898286013515 104.04099929416714 82.99757752962503 H 0.0 **** 0.06
35065 H 134.66752820145453 102.971437085064 83.02311541319116 H 0.0 **** 0.06
35066 C 24.136059845612692 117.78244387350264 86.70425041809322 C 0.0 **** -0.24
35067 H 25.16681025894097 117.43647445321778 86.78430193716152 H 0.0 **** 0.06
35068 H 23.543824615167523 117.3477534288404 87.50987697915636 H 0.0 **** 0.06
35069 H 23.723736169457027 117.47349901725283 85.74361742270418 H 0.0 **** 0.06
35070 H 24.109963145524404 118.86877211757741 86.77770327304015 H 0.0 **** 0.06
35071 C 64.28344821485399 30.883121525081748 92.59602558001941 C 0.0 **** -0.24
35072 H 63.72747414073032 31.260292401325273 91.73723080147217 H 0.0 **** 0.06
35073 H 63.65351287019163 30.197647805164905 93.16302886711692 H 0.0 **** 0.06
35074 H 64.57677144907231 31.718075444214264 93.23245776151565 H 0.0 **** 0.06
35075 H 65.17374601468052 30.358281799378517 92.25069016935151 H 0.0 **** 0.06
35076 C 91.41070231297962 58.53965874594847 78.04241472959673 C 0.0 **** -0.24
35077 H 91.61176635873973 57.7179431264085 78.72986885803311 H 0.0 **** 0.06
35078 H 92.34558995749562 59.046433842736064 77.79994074544713 H 0.0 **** 0.06
35079 H 90.72467159046764 59.24526941780135 78.51065387699003 H 0.0 **** 0.06
35080 H 90.96249674251656 58.14724135830485 77.12912623403452 H 0.0 **** 0.06
35081 C 87.86303015130169 63.117318886061014 103.24216318255546 C 0.0 **** -0.24
35082 H 88.03014836040562 63.56463690102527 104.22174807590923 H 0.0 **** 0.06
35083 H 87.63593022784187 63.90098159545522 102.51899523023619 H 0.0 **** 0.06
35084 H 87.02552519940822 62.42137668038856 103.29868235124061 H 0.0 **** 0.06
35085 H 88.75966190264302 62.58267389487111 102.92888900004678 H 0.0 **** 0.06
35086 C 74.95842262568236 45.668056357347695 65.93251750539383 C 0.0 **** -0.24
35087 H 75.41440932082597 44.726345248371615 65.62483284090803 H 0.0 **** 0.06
35088 H 74.0430967573734 45.83103081491896 65.36342579926543 H 0.0 **** 0.06
35089 H 75.65392966652836 46.48603869230382 65.74516133890444 H 0.0 **** 0.06
35090 H 74.72267174318695 45.62678626843825 66.99579676100568 H 0.0 **** 0.06
35091 C 81.0757358688161 22.22744879589601 17.83109578034086 C 0.0 **** -0.24
35092 H 81.78791588234851 22.382798611391678 17.021532628708407 H 0.0 **** 0.06
35093 H 80.0630530230754 22.38475081265645 17.459780530543163 H 0.0 **** 0.06
35094 H 81.28215722854091 22.934151157122272 18.635306886873693 H 0.0 **** 0.06
35095 H 81.17034195637879 21.209093037680816 18.20861629223129 H 0.0 **** 0.06
35096 C 4.818149254118168 137.0006508880404 37.06438519716272 C 0.0 **** -0.24
35097 H 4.399413895916894 136.0495102962053 36.73302463757136 H 0.0 **** 0.06
35098 H 5.221544282523212 136.88766523738576 38.070956207364816 H 0.0 **** 0.06
35099 H 4.0350088662384564 137.75894012209437 37.06968262643383 H 0.0 **** 0.06
35100 H 5.613594124674876 137.303697942318 36.3838975724949 H 0.0 **** 0.06
35101 C 61.11573858207076 25.293564889427984 7.66063077558357 C 0.0 **** -0.24
35102 H 62.046710552566225 25.857201312805927 7.610405157459326 H 0.0 **** 0.06
35103 H 60.33532215136472 25.918273326121295 8.095291623317934 H 0.0 **** 0.06
35104 H 61.25980755459956 24.40758456977707 8.279954221839432 H 0.0 **** 0.06
35105 H 60.8213860764792 24.989935221549644 6.655720763685906 H 0.0 **** 0.06
35106 C 107.86599677844085 6.962963576696744 64.89497061469903 C 0.0 **** -0.24
35107 H 106.78473156912735 7.099305010825091 64.8609401478617 H 0.0 **** 0.06
35108 H 108.19789001226484 6.471144230726715 63.980774746925036 H 0.0 **** 0.06
35109 H 108.12688856807092 6.3450959627288555 65.75482677054846 H 0.0 **** 0.06
35110 H 108.35222419101832 7.933539137882072 64.98384357007967 H 0.0 **** 0.06
35111 C 84.30961278339088 123.17674344096443 144.55299254209734 C 0.0 **** -0.24
35112 H 84.15951337891566 123.97447645780161 145.28014704437072 H 0.0 **** 0.06
35113 H 85.32270696191787 123.23289438353228 144.15541522675954 H 0.0 **** 0.06
35114 H 83.59263819788274 123.28895368547242 143.7386941644378 H 0.0 **** 0.06
35115 H 84.16115145250055 122.21191764589278 145.03651694860525 H 0.0 **** 0.06
35116 C 56.3093895817334 5.266406818719336 86.94582291884367 C 0.0 **** -0.24
35117 H 55.942119934670075 4.435436097956092 86.34386433347434 H 0.0 **** 0.06
35118 H 56.703430825720844 4.884595672019696 87.88850064111736 H 0.0 **** 0.06
35119 H 55.49220316167512 5.958551931139208 87.1469545996014 H 0.0 **** 0.06
35120 H 57.1002416094929 5.784910659444606 86.40448172028664 H 0.0 **** 0.06
35121 C 66.71890844271871 72.01011423666256 66.2049750758042 C 0.0 **** -0.24
35122 H 66.48426034809182 73.03932341145156 65.93283863867038 H 0.0 **** 0.06
35123 H 67.67483625335873 71.9823537803282 66.72910378583755 H 0.0 **** 0.06
35124 H 66.78115395113902 71.40121062378773 65.3034328718587 H 0.0 **** 0.06
35125 H 65.93621864188658 71.61870728897594 66.85460708740342 H 0.0 **** 0.06
35126 C 120.61656737157404 76.58769062389334 14.492813270891254 C 0.0 **** -0.24
35127 H 121.58748288152009 76.8163100403508 14.054271724497717 H 0.0 **** 0.06
35128 H 120.5734193358893 75.52962208108144 14.749526455287608 H 0.0 **** 0.06
35129 H 119.83018859519746 76.8200817243852 13.774387007490141 H 0.0 **** 0.06
35130 H 120.47536511224126 77.18683940937032 15.392297086388282 H 0.0 **** 0.06
35131 C 6.597563079755304 138.22346527015262 65.02261763341603 C 0.0 **** -0.24
35132 H 6.1421812135962455 139.2059384774549 64.90658676285304 H 0.0 **** 0.06
35133 H 5.823773769828392 137.48725177910686 65.24347354948051 H 0.0 **** 0.06
35134 H 7.318022514257564 138.25080727257134 65.83946159836535 H 0.0 **** 0.06
35135 H 7.106917883901787 137.94846880623194 64.09800897012029 H 0.0 **** 0.06
35136 C 85.47038226646276 127.59652347658329 86.28769584549146 C 0.0 **** -0.24
35137 H 84.60615742038618 127.03945957961523 85.92472512363844 H 0.0 **** 0.06
35138 H 85.60540659099351 127.4040781721283 87.35252952177764 H 0.0 **** 0.06
35139 H 85.30919616921821 128.6619737918683 86.12811170591445 H 0.0 **** 0.06
35140 H 86.36089013498696 127.27750141726013 85.74419495200709 H 0.0 **** 0.06
35141 C 53.342498570914955 66.9909380848991 128.15652909050195 C 0.0 **** -0.24
35142 H 52.539970770489134 66.26204596954814 128.0496326530743 H 0.0 **** 0.06
35143 H 53.466433062545065 67.53426926841483 127.21955472337045 H 0.0 **** 0.06
35144 H 54.27142773619968 66.47642226801763 128.40439114734278 H 0.0 **** 0.06
35145 H 53.09252617208793 67.6926566948042 128.95212274766607 H 0.0 **** 0.06
35146 C 87.8901030731687 49.360763948432236 136.88617149851032 C 0.0 **** -0.24
35147 H 87.62683137393472 49.07127458765842 137.90310924287607 H 0.0 **** 0.06
35148 H 88.93466021633161 49.110326609938625 136.69657967737223 H 0.0 **** 0.06
35149 H 87.74598131573627 50.43435761463934 136.76459006660573 H 0.0 **** 0.06
35150 H 87.25429894100466 48.82602927973005 136.18029868006363 H 0.0 **** 0.06
35151 C 145.87085570564201 119.43937985577888 130.45506299290136 C 0.0 **** -0.24
35152 H 144.85929916981888 119.29023689962033 130.0778240420159 H 0.0 **** 0.06
35153 H 146.53177253915499 119.69995621694615 129.62752541967424 H 0.0 **** 0.06
35154 H 146.22206000684207 118.52080258751731 130.92520214978097 H 0.0 **** 0.06
35155 H 145.86996054082584 120.24603612614764 131.1873227144604 H 0.0 **** 0.06
35156 C 137.27779140847332 147.70241359589087 90.59644461765868 C 0.0 **** -0.24
35157 H 136.69360255714946 148.4246122675445 90.02709682574583 H 0.0 **** 0.06
35158 H 137.29868593219024 146.75223231128558 90.06161055570136 H 0.0 **** 0.06
35159 H 136.82298078784228 147.55791390533233 91.5764015659508 H 0.0 **** 0.06
35160 H 138.29523599564428 148.07299767896035 90.71844219034139 H 0.0 **** 0.06
35161 C 33.627754107005444 150.40322835547283 67.54328934024974 C 0.0 **** -0.24
35162 H 32.566993633220285 150.62027604115966 67.666463935167 H 0.0 **** 0.06
35163 H 33.78558642685654 149.88853680838463 66.59459860182196 H 0.0 **** 0.06
35164 H 33.9658767800964 149.76823468375406 68.36284630551918 H 0.0 **** 0.06
35165 H 34.19255958784856 151.33586588859293 67.54924851849066 H 0.0 **** 0.06
35166 C 64.23372221603331 75.22451029252123 87.51200898032911 C 0.0 **** -0.24
35167 H 64.51016168505625 75.26629928777909 88.56554558795554 H 0.0 **** 0.06
35168 H 64.8137352221214 75.96021149933982 86.955111216 H 0.0 **** 0.06
35169 H 63.17150000795918 75.44288667717905 87.40590437040342 H 0.0 **** 0.06
35170 H 64.44029778585312 74.22817117121035 87.12183164278937 H 0.0 **** 0.06
35171 C 92.448950947086 122.41580938216862 126.20664775063483 C 0.0 **** -0.24
35172 H 92.99653419370833 122.69369425352966 127.10715264532932 H 0.0 **** 0.06
35173 H 92.90535621243109 122.89877716139489 125.34172989430445 H 0.0 **** 0.06
35174 H 91.41283728555989 122.73894787644235 126.2976774672884 H 0.0 **** 0.06
35175 H 92.48300974609114 121.33420103942262 126.07926704541926 H 0.0 **** 0.06
35176 C 121.29996690740049 78.91264312466967 44.36080664340527 C 0.0 **** -0.24
35177 H 121.81505370577977 79.8471447735435 44.58374104986582 H 0.0 **** 0.06
35178 H 121.7399890995475 78.10508068223044 44.94691746875644 H 0.0 **** 0.06
35179 H 121.39929629119857 78.68752343888337 43.29868692130229 H 0.0 **** 0.06
35180 H 120.24375407623981 79.01166508823076 44.61281183941301 H 0.0 **** 0.06
35181 C 139.55594432858163 25.140310197177712 79.80446972290447 C 0.0 **** -0.24
35182 H 139.5856646134631 24.676773912495577 80.7908587554212 H 0.0 **** 0.06
35183 H 138.59165959412326 25.628319834613592 79.66219170829744 H 0.0 **** 0.06
35184 H 139.69343949438243 24.37573772809688 79.04012327794563 H 0.0 **** 0.06
35185 H 140.35390971816332 25.879415371355236 79.72675680611233 H 0.0 **** 0.06
35186 C 68.499574637477 105.5983359668182 32.50573883578208 C 0.0 **** -0.24
35187 H 68.07030970120512 106.1074707440546 33.369877108482655 H 0.0 **** 0.06
35188 H 69.44744748372797 105.13978674084704 32.78777635939625 H 0.0 **** 0.06
35189 H 68.6670749376972 106.31954920202652 31.70571845640363 H 0.0 **** 0.06
35190 H 67.81015236730654 104.82745740629345 32.16066539228363 H 0.0 **** 0.06
35191 C 39.57700979610783 24.87282580831235 83.49258175734403 C 0.0 **** -0.24
35192 H 39.418892742551435 25.064346590994845 82.43165186343288 H 0.0 **** 0.06
35193 H 40.205598384290596 25.65766693819311 83.91398689796111 H 0.0 **** 0.06
35194 H 40.06715494407146 23.907192198002157 83.61786926147454 H 0.0 **** 0.06
35195 H 38.61639311351786 24.862097506059193 84.00681900650756 H 0.0 **** 0.06
35196 C 26.435100509011136 99.33986767876726 127.65586768075606 C 0.0 **** -0.24
35197 H 26.795122046821703 100.21214288342696 128.20024704913035 H 0.0 **** 0.06
35198 H 25.64158736226679 98.85705605170389 128.22756634051126 H 0.0 **** 0.06
35199 H 27.25695036577244 98.637710750824 127.5107573882145 H 0.0 **** 0.06
35200 H 26.048041222880272 99.65070046146357 126.68582255349901 H 0.0 **** 0.06
35201 C 31.28209080571284 11.626979786679044 139.55008524058937 C 0.0 **** -0.24
35202 H 31.34081995313079 11.77764923518157 140.6277535879424 H 0.0 **** 0.06
35203 H 32.25465294574744 11.827416198462686 139.10182128746672 H 0.0 **** 0.06
35204 H 30.54005101550348 12.305818258361853 139.12862966974532 H 0.0 **** 0.06
35205 H 30.991786513059054 10.59694711139798 139.34307657170328 H 0.0 **** 0.06
35206 C 65.2741602817207 38.455835203246664 104.30779169998965 C 0.0 **** -0.24
35207 H 64.20951213598792 38.243060686314806 104.40283275783332 H 0.0 **** 0.06
35208 H 65.8351492597276 37.521481792756475 104.34048083953166 H 0.0 **** 0.06
35209 H 65.58993341206687 39.099009446176865 105.12954088763064 H 0.0 **** 0.06
35210 H 65.46027717602504 38.95997896965379 103.3599958295153 H 0.0 **** 0.06
35211 C 53.079452399292876 43.803506972819605 135.98691612892495 C 0.0 **** -0.24
35212 H 52.819826011910465 44.84400907939903 135.79272556181607 H 0.0 **** 0.06
35213 H 52.1679252413563 43.21554419987558 136.09178977939914 H 0.0 **** 0.06
35214 H 53.66097194359537 43.73992292731759 136.90692134157015 H 0.0 **** 0.06
35215 H 53.66975864902341 43.4157437192232 135.15587116986643 H 0.0 **** 0.06
35216 C 78.3243309821446 59.704941775870836 107.39029380735666 C 0.0 **** -0.24
35217 H 79.35603778115996 59.69079498938359 107.74296712042094 H 0.0 **** 0.06
35218 H 78.31088521037856 59.85261825275772 106.3105515495903 H 0.0 **** 0.06
35219 H 77.78654329543724 60.51873725983516 107.87555121940083 H 0.0 **** 0.06
35220 H 77.84533536301382 58.75603841777594 107.63392906377301 H 0.0 **** 0.06
35221 C 15.626680537011282 29.50013154733186 126.32707664223481 C 0.0 **** -0.24
35222 H 15.066441536328881 28.569322302609564 126.41155072336599 H 0.0 **** 0.06
35223 H 15.685140661072268 29.794277728201656 125.27855579504279 H 0.0 **** 0.06
35224 H 16.63209541515647 29.357121118393373 126.7216908646256 H 0.0 **** 0.06
35225 H 15.120871175289011 30.280304105351775 126.89634298618014 H 0.0 **** 0.06
35226 C 11.896930854772705 45.90838062472167 13.137112074928268 C 0.0 **** -0.24
35227 H 12.950356032255186 45.62967141167856 13.094661004946943 H 0.0 **** 0.06
35228 H 11.743379606193912 46.832005570896584 12.578867985220313 H 0.0 **** 0.06
35229 H 11.602525268046442 46.057020580225426 14.17529314892846 H 0.0 **** 0.06
35230 H 11.293883854078906 45.11331850787249 12.698694437020094 H 0.0 **** 0.06
35231 C 40.71255988512519 53.059158887699255 128.8729686081145 C 0.0 **** -0.24
35232 H 40.07991706267728 52.40240510615324 128.27578269346645 H 0.0 **** 0.06
35233 H 41.3997195608103 52.45790750390202 129.4691815533343 H 0.0 **** 0.06
35234 H 40.08847339521179 53.661826595094254 129.53352004809727 H 0.0 **** 0.06
35235 H 41.281554209377646 53.71388994359164 128.21284120335417 H 0.0 **** 0.06
35236 C 140.95161916663213 109.03082605776221 14.395749518595977 C 0.0 **** -0.24
35237 H 140.53851033345072 109.60688019649892 15.224837734714953 H 0.0 **** 0.06
35238 H 141.87246946818422 108.5419984534402 14.716359621147518 H 0.0 **** 0.06
35239 H 141.16474569027778 109.69706406964217 13.561254227166245 H 0.0 **** 0.06
35240 H 140.22917378301904 108.27586585687142 14.083592039825817 H 0.0 **** 0.06
35241 C 68.52178415964957 62.96891378162246 50.54119362516161 C 0.0 **** -0.24
35242 H 69.27186733764319 63.69604175245753 50.229005141393486 H 0.0 **** 0.06
35243 H 69.01589211191504 62.101923905602106 50.979608231572826 H 0.0 **** 0.06
35244 H 67.93765774242686 62.656425681244926 49.67546733584746 H 0.0 **** 0.06
35245 H 67.86127518348027 63.42418286952132 51.28016283233242 H 0.0 **** 0.06
35246 C 138.78035184863336 26.710168909426386 29.748763106076687 C 0.0 **** -0.24
35247 H 137.79470262830037 26.43961617037479 29.370411015521107 H 0.0 **** 0.06
35248 H 138.7705659661454 27.749391653560053 30.077251772476004 H 0.0 **** 0.06
35249 H 139.51943906368382 26.585041923910126 28.957828350791395 H 0.0 **** 0.06
35250 H 139.03611189490377 26.064470974660708 30.589456567534278 H 0.0 **** 0.06
35251 C 132.86505573689922 79.49200158120334 127.8077965738753 C 0.0 **** -0.24
35252 H 132.90229483289457 80.1931501297002 126.97370756888233 H 0.0 **** 0.06
35253 H 133.577787549923 79.79906034548941 128.57304800548667 H 0.0 **** 0.06
35254 H 133.12027855844028 78.49254304007115 127.4531975304236 H 0.0 **** 0.06
35255 H 131.85956419282863 79.48159726360859 128.2297598754866 H 0.0 **** 0.06
35256 C 51.89719680590309 150.01324491920516 86.54650634570157 C 0.0 **** -0.24
35257 H 51.122642405526506 150.11728309878217 87.30627869216264 H 0.0 **** 0.06
35258 H 52.696844302669945 150.72765062973968 86.74365823262812 H 0.0 **** 0.06
35259 H 51.46970633444482 150.20861263581716 85.56254604562886 H 0.0 **** 0.06
35260 H 52.29927840990098 149.0005571890731 86.57274412469405 H 0.0 **** 0.06
35261 C 65.94979177243276 46.448859101417455 112.54097755807378 C 0.0 **** -0.24
35262 H 65.94736640352929 47.33020324981801 111.90012338580262 H 0.0 **** 0.06
35263 H 66.34941466722398 45.59811706963225 111.9871616168361 H 0.0 **** 0.06
35264 H 64.93025465060573 46.22823514237858 112.8592677692689 H 0.0 **** 0.06
35265 H 66.57076229241375 46.63715293219889 113.41698357566229 H 0.0 **** 0.06
35266 C 26.435521261586985 45.34560737454528 102.91959003156525 C 0.0 **** -0.24
35267 H 26.472914435755968 44.25754669199992 102.97938311359677 H 0.0 **** 0.06
35268 H 27.105636793601377 45.773411808614355 103.66651512281207 H 0.0 **** 0.06
35269 H 25.416826714043452 45.68450749228552 103.10885340372296 H 0.0 **** 0.06
35270 H 26.74670834655825 45.666020768252864 101.92563615186896 H 0.0 **** 0.06
35271 C 92.86117576001371 112.0254979294 126.22495462216418 C 0.0 **** -0.24
35272 H 92.22116917945115 112.51642940497258 125.49168294372691 H 0.0 **** 0.06
35273 H 92.60645639861237 112.37888585853248 127.22453480018198 H 0.0 **** 0.06
35274 H 93.90443885733244 112.26114289421442 126.011930942602 H 0.0 **** 0.06
35275 H 92.71446624116474 110.94713332768411 126.17198714640881 H 0.0 **** 0.06
35276 C 132.06785628567164 121.51415505479142 64.62298919704347 C 0.0 **** -0.24
35277 H 131.20387379443105 121.93870288117134 65.13443214415872 H 0.0 **** 0.06
35278 H 132.96652059982236 122.05805973006088 64.91545230571722 H 0.0 **** 0.06
35279 H 131.92809160338223 121.59519964994078 63.544403484095426 H 0.0 **** 0.06
35280 H 132.17295964362495 120.46448426181584 64.8966842496896 H 0.0 **** 0.06
35281 C 49.79506483966145 49.10965404086612 34.41226675702907 C 0.0 **** -0.24
35282 H 50.6887324033989 48.56821567519199 34.103166065500545 H 0.0 **** 0.06
35283 H 50.06513214860095 50.1290741921821 34.69023030779809 H 0.0 **** 0.06
35284 H 49.344555334702974 48.60692876080344 35.26821592090056 H 0.0 **** 0.06
35285 H 49.08198130091051 49.13431945524158 33.58844155945957 H 0.0 **** 0.06
35286 C 144.22659405713205 128.0710015072702 10.323210265450626 C 0.0 **** -0.24
35287 H 144.97321877458006 128.1500939718235 9.532435688891667 H 0.0 **** 0.06
35288 H 143.2382264198895 128.27785381310485 9.91199858669799 H 0.0 **** 0.06
35289 H 144.45240533955155 128.79161036871184 11.109738488863428 H 0.0 **** 0.06
35290 H 144.24334308210092 127.06293220839132 10.738854685973052 H 0.0 **** 0.06
35291 C 73.7952496171544 39.83916787588214 45.971627263735 C 0.0 **** -0.24
35292 H 72.83733589628805 39.63587735697841 46.450341950853954 H 0.0 **** 0.06
35293 H 73.81874367811973 39.36378659383496 44.99080150644619 H 0.0 **** 0.06
35294 H 74.60085443139202 39.441852180790676 46.58830754611006 H 0.0 **** 0.06
35295 H 73.92304277095788 40.91599392126723 45.85756109620439 H 0.0 **** 0.06
35296 C 33.68209324895031 73.2007223258317 72.30571127260345 C 0.0 **** -0.24
35297 H 33.99685697678012 73.53438269050044 71.31633668073985 H 0.0 **** 0.06
35298 H 34.479717260795724 73.39259619684667 73.02407042516555 H 0.0 **** 0.06
35299 H 33.467543884844076 72.13237822357966 72.27662625682521 H 0.0 **** 0.06
35300 H 32.7850242547309 73.74368181688253 72.60371748608841 H 0.0 **** 0.06
35301 C 145.34549682516288 13.063247696184959 106.41261775098945 C 0.0 **** -0.24
35302 H 145.4456133248663 13.79454961278634 107.2150089880231 H 0.0 **** 0.06
35303 H 145.9288867999117 13.38872289063633 105.55053447848121 H 0.0 **** 0.06
35304 H 144.29648301195758 12.976562717138876 106.12990905066255 H 0.0 **** 0.06
35305 H 145.7100478456918 12.095161968347185 106.75526339650548 H 0.0 **** 0.06
35306 C 105.2863898678437 41.85617634403903 115.16405546283036 C 0.0 **** -0.24
35307 H 104.51579681408066 42.472357230801634 115.62565798434034 H 0.0 **** 0.06
35308 H 104.87010859560075 40.879715351689924 114.91332378854113 H 0.0 **** 0.06
35309 H 106.11563671523646 41.730078558186335 115.8593212075912 H 0.0 **** 0.06
35310 H 105.64443718999183 42.3423320795479 114.25573379392748 H 0.0 **** 0.06
35311 C 122.13182880215422 8.847678392179347 63.840557037023046 C 0.0 **** -0.24
35312 H 122.24401810827825 9.092343182682612 62.78454275412949 H 0.0 **** 0.06
35313 H 121.26506581904474 9.371327632747722 64.24377643953112 H 0.0 **** 0.06
35314 H 123.02717754344891 9.154551366339774 64.38067190671505 H 0.0 **** 0.06
35315 H 121.99125552820445 7.772174092763322 63.950816546806664 H 0.0 **** 0.06
35316 C 78.86442759891943 106.3179670721849 67.79722969176568 C 0.0 **** -0.24
35317 H 78.95116621651124 107.23258751973066 68.38346370562722 H 0.0 **** 0.06
35318 H 79.16556570709714 106.51674369005184 66.76843758534041 H 0.0 **** 0.06
35319 H 77.82951661243904 105.97384702994992 67.81317300546634 H 0.0 **** 0.06
35320 H 79.50871311389864 105.54989201667433 68.22384465777625 H 0.0 **** 0.06
35321 C 37.4521859127337 94.24636183027015 27.903592583883807 C 0.0 **** -0.24
35322 H 36.53528347563143 94.78356260860153 28.146173971628997 H 0.0 **** 0.06
35323 H 37.44727389636449 93.9785937793502 26.84734043562159 H 0.0 **** 0.06
35324 H 37.51261329591554 93.34093479112344 28.507718318616668 H 0.0 **** 0.06
35325 H 38.3116275233605 94.88246251396541 28.114622227905414 H 0.0 **** 0.06
35326 C 3.5761241216834314 66.9702099277709 103.29533529877612 C 0.0 **** -0.24
35327 H 3.501086878508879 67.10799910580877 102.21708115109604 H 0.0 **** 0.06
35328 H 2.6964373682944043 66.43636499310874 103.65546069495055 H 0.0 **** 0.06
35329 H 3.635606879942376 67.94303677169532 103.78309979877712 H 0.0 **** 0.06
35330 H 4.471983789184094 66.39281685412803 103.52617987820973 H 0.0 **** 0.06
35331 C 6.928387922445097 101.70785634984394 148.01835669729374 C 0.0 **** -0.24
35332 H 6.580324110043307 101.6545189195224 146.98735517313912 H 0.0 **** 0.06
35333 H 7.5712701234203905 102.58072867884727 148.1404629224716 H 0.0 **** 0.06
35334 H 7.491091716244 100.80507941953044 148.25887860712055 H 0.0 **** 0.06
35335 H 6.071588501653196 101.79041824150683 148.687737607422 H 0.0 **** 0.06
35336 C 120.09158964936049 59.2482457893901 90.01434886288503 C 0.0 **** -0.24
35337 H 119.52179513990151 60.17512214153808 90.08463364489725 H 0.0 **** 0.06
35338 H 119.87138228896416 58.619454588552315 90.87734124234802 H 0.0 **** 0.06
35339 H 121.15710794363528 59.477855564122066 89.99455967356897 H 0.0 **** 0.06
35340 H 119.81672587882159 58.721641123500845 89.10024004540489 H 0.0 **** 0.06
35341 C 86.84893822587588 20.57165289318607 10.826322304847167 C 0.0 **** -0.24
35342 H 87.46006543112622 20.023546002712408 11.543737719289766 H 0.0 **** 0.06
35343 H 85.798687433471 20.489864338150994 11.107305239721711 H 0.0 **** 0.06
35344 H 86.99329862925305 20.152798928967457 9.830712495294677 H 0.0 **** 0.06
35345 H 87.14407134699302 21.621849467681102 10.82593567126412 H 0.0 **** 0.06
35346 C 2.5589707016497982 113.16815122582797 107.98522454972806 C 0.0 **** -0.24
35347 H 3.2496628364345383 112.52978610033217 108.53560787313216 H 0.0 **** 0.06
35348 H 1.607483925480949 113.21540504010726 108.51570782688918 H 0.0 **** 0.06
35349 H 2.3994738287011046 112.75695702547084 106.98783365095977 H 0.0 **** 0.06
35350 H 2.9794180472399034 114.17039768622065 107.90273488351784 H 0.0 **** 0.06
35351 C 59.98345288257789 134.34105217243845 78.10541281506634 C 0.0 **** -0.24
35352 H 60.63972017494561 135.13694082589296 77.75316435204923 H 0.0 **** 0.06
35353 H 60.40828468156013 133.3741356160853 77.83531874115772 H 0.0 **** 0.06
35354 H 59.00208001042449 134.44965083176072 77.64340079202324 H 0.0 **** 0.06
35355 H 59.88415259442061 134.40541913005657 79.18873585671483 H 0.0 **** 0.06
35356 C 138.0513639435065 129.80364586183128 113.53271775537894 C 0.0 **** -0.24
35357 H 138.21533737660357 129.3369142170028 112.56100236499736 H 0.0 **** 0.06
35358 H 138.9465262811742 130.35272347109023 113.8262866301032 H 0.0 **** 0.06
35359 H 137.83657150354628 129.03384403301578 114.27399357455863 H 0.0 **** 0.06
35360 H 137.20873420418664 130.49182194057556 113.46799311016787 H 0.0 **** 0.06
35361 C 110.07729392856035 142.49365940077078 62.03365883682241 C 0.0 **** -0.24
35362 H 109.36844357427387 141.6702765763542 62.11851380737855 H 0.0 **** 0.06
35363 H 110.7194112613964 142.33254480194344 61.16719941229343 H 0.0 **** 0.06
35364 H 110.68876692771241 142.54185694869298 62.93511891848206 H 0.0 **** 0.06
35365 H 109.5330786614721 143.43067163389813 61.913337095705316 H 0.0 **** 0.06
35366 C 83.03570624229158 18.942628452077784 100.20057269482986 C 0.0 **** -0.24
35367 H 83.38700429287454 18.079807782067 99.63486725286775 H 0.0 **** 0.06
35368 H 83.88148473391888 19.58761413774856 100.44146632019022 H 0.0 **** 0.06
35369 H 82.56212051467517 18.604829776114492 101.12170300688658 H 0.0 **** 0.06
35370 H 82.31394174592194 19.498650228977127 99.60288694888592 H 0.0 **** 0.06
35371 C 146.17778165738383 122.96806579952488 72.81937542365205 C 0.0 **** -0.24
35372 H 146.0630253391809 124.01177480188778 73.11212103504448 H 0.0 **** 0.06
35373 H 146.0642259355377 122.33047777994392 73.69650433287364 H 0.0 **** 0.06
35374 H 147.16719979037723 122.81865498518215 72.38762823512678 H 0.0 **** 0.06
35375 H 145.41734235799515 122.71265155667709 72.08218407928598 H 0.0 **** 0.06
35376 C 72.57357343895187 99.82586038019033 109.26146769817933 C 0.0 **** -0.24
35377 H 72.25933746705213 98.80025993817614 109.06970757646735 H 0.0 **** 0.06
35378 H 72.02187696622391 100.2223421873114 110.11468204109832 H 0.0 **** 0.06
35379 H 72.37187682186476 100.43792361297312 108.38202777417467 H 0.0 **** 0.06
35380 H 73.64166104472882 99.84451933268932 109.4789859897067 H 0.0 **** 0.06
35381 C 138.32706431476223 67.20873105452992 119.5476309419012 C 0.0 **** -0.24
35382 H 138.13755343127573 66.52766145116661 120.37800877629071 H 0.0 **** 0.06
35383 H 138.96954871800412 66.71814090547946 118.81623050968345 H 0.0 **** 0.06
35384 H 138.8200480858903 68.10643479729575 119.92046128962586 H 0.0 **** 0.06
35385 H 137.38256286691112 67.48144212446576 119.07790428282057 H 0.0 **** 0.06
35386 C 70.94554659775541 25.41796946535061 123.9593024979371 C 0.0 **** -0.24
35387 H 70.25126836313889 26.212043404558017 124.23569502207269 H 0.0 **** 0.06
35388 H 71.68413099538662 25.291050428023595 124.75159863880648 H 0.0 **** 0.06
35389 H 71.45140329012659 25.684310927640638 123.03120567150407 H 0.0 **** 0.06
35390 H 70.39648409224723 24.487218516991504 123.8207727936909 H 0.0 **** 0.06
35391 C 39.12658853138288 5.229320743494895 80.2634631637064 C 0.0 **** -0.24
35392 H 38.800297073712045 5.0476319257557805 81.28768167380088 H 0.0 **** 0.06
35393 H 38.83978351356643 6.238274532154037 79.96523396084778 H 0.0 **** 0.06
35394 H 38.65551896414877 4.506083255044217 79.59860344759531 H 0.0 **** 0.06
35395 H 40.210016029869564 5.126585173091172 80.20427926917468 H 0.0 **** 0.06
35396 C 26.911153560600496 89.92630540688928 103.90050840551176 C 0.0 **** -0.24
35397 H 26.7447759461964 90.71242237853808 104.63683514707476 H 0.0 **** 0.06
35398 H 27.89652611146016 89.48727598256431 104.05494792226348 H 0.0 **** 0.06
35399 H 26.85428756484356 90.34997442133485 102.897946537334 H 0.0 **** 0.06
35400 H 26.148015909823016 89.1563067729074 104.01294286014955 H 0.0 **** 0.06
35401 C 119.01599400151419 1.5712308993488477 9.174092505902365 C 0.0 **** -0.24
35402 H 119.61211674898784 2.3730796764774595 9.611076184427503 H 0.0 **** 0.06
35403 H 118.85008919051056 1.7761893508820208 8.117205069387069 H 0.0 **** 0.06
35404 H 118.05593283292013 1.5118198651205148 9.68851104180743 H 0.0 **** 0.06
35405 H 119.54591292491791 0.6250179657262436 9.282145695566811 H 0.0 **** 0.06
35406 C 147.87843061763496 96.74148699547504 14.44613968946144 C 0.0 **** -0.24
35407 H 148.95027622157454 96.64744397892056 14.62004883284721 H 0.0 **** 0.06
35408 H 147.33955385673497 96.08977680093821 15.134334549534145 H 0.0 **** 0.06
35409 H 147.64975087701455 96.45428055411281 13.419017700268661 H 0.0 **** 0.06
35410 H 147.57364036534648 97.77476451095421 14.61035278482678 H 0.0 **** 0.06
35411 C 123.00803380520115 96.72638937352303 25.153460601418544 C 0.0 **** -0.24
35412 H 123.16882392287333 96.85461124595636 26.22312134827976 H 0.0 **** 0.06
35413 H 123.4278802158352 97.57837973847523 24.61868037096636 H 0.0 **** 0.06
35414 H 121.93857714206096 96.66233855974937 24.951608080368786 H 0.0 **** 0.06
35415 H 123.49633973750805 95.81082479101303 24.819816640913032 H 0.0 **** 0.06
35416 C 139.51071083536706 1.7445805312462994 6.478255802644512 C 0.0 **** -0.24
35417 H 139.48030061819932 0.7686831862733925 6.961858987519548 H 0.0 **** 0.06
35418 H 140.00084913857552 1.6546001471974705 5.508043189684891 H 0.0 **** 0.06
35419 H 140.06702302949947 2.4427814441975215 7.102971481852016 H 0.0 **** 0.06
35420 H 138.49418269151545 2.1131662670686637 6.3387581623892935 H 0.0 **** 0.06
35421 C 55.35194368861818 132.2097274163731 103.76695058007938 C 0.0 **** -0.24
35422 H 55.837401468140996 131.24162071102643 103.64271433920037 H 0.0 **** 0.06
35423 H 54.27051838363789 132.08331025941123 103.71215542412448 H 0.0 **** 0.06
35424 H 55.679900258074895 132.88470942421702 102.97660113169003 H 0.0 **** 0.06
35425 H 55.620051642768885 132.62846657971335 104.73749174918807 H 0.0 **** 0.06
35426 C 81.02609549258908 126.97625573567461 75.10026444288684 C 0.0 **** -0.24
35427 H 80.49497525766671 126.34652679219519 74.38607240988539 H 0.0 **** 0.06
35428 H 81.73490484250732 127.61100154891722 74.56719447372525 H 0.0 **** 0.06
35429 H 81.56256623833661 126.34639047499256 75.80977862184552 H 0.0 **** 0.06
35430 H 80.31096419315597 127.60020382247691 75.63689608099389 H 0.0 **** 0.06
35431 C 4.272012373792343 110.99726538387579 129.70429810850297 C 0.0 **** -0.24
35432 H 5.174072155285284 111.44154508704459 129.28564178617071 H 0.0 **** 0.06
35433 H 3.6414107304525665 111.78139364824152 130.1234733947032 H 0.0 **** 0.06
35434 H 4.545174890337744 110.29158492535684 130.48915403921595 H 0.0 **** 0.06
35435 H 3.7258237417474014 110.47329687722582 128.91896217948513 H 0.0 **** 0.06
35436 C 30.440803622313354 55.792229208771715 98.68034907090373 C 0.0 **** -0.24
35437 H 30.57965114917522 56.469401473823154 97.83840517700435 H 0.0 **** 0.06
35438 H 31.414416866714987 55.48783700668102 99.06643219343965 H 0.0 **** 0.06
35439 H 29.888982862464957 54.911947654821034 98.35134648473672 H 0.0 **** 0.06
35440 H 29.88032623925875 56.298734731643634 99.46620322242163 H 0.0 **** 0.06
35441 C 106.70335111089827 73.80147745592288 85.80679225071759 C 0.0 **** -0.24
35442 H 106.1789371912559 74.28498513800204 84.98311342116492 H 0.0 **** 0.06
35443 H 106.8898517819108 74.53030217731356 86.59599218393399 H 0.0 **** 0.06
35444 H 107.65240824553723 73.40327590535972 85.44837970837588 H 0.0 **** 0.06
35445 H 106.09333972221356 72.98812545202273 86.19935064700135 H 0.0 **** 0.06
35446 C 14.573661642510586 129.45212546288937 47.78403438517125 C 0.0 **** -0.24
35447 H 14.677459290860924 129.10786621514458 46.75472193175651 H 0.0 **** 0.06
35448 H 13.84505936355768 130.26078348929812 47.8256197329184 H 0.0 **** 0.06
35449 H 15.536881718730143 129.8116822262463 48.14580571750011 H 0.0 **** 0.06
35450 H 14.236929628310264 128.6255561716267 48.410568725335224 H 0.0 **** 0.06
35451 C 59.279760861249116 116.48052760376288 132.62919980601785 C 0.0 **** -0.24
35452 H 58.917874883871946 115.6801824220363 133.27472565164004 H 0.0 **** 0.06
35453 H 59.97051125405355 117.11272220840931 133.18850867988635 H 0.0 **** 0.06
35454 H 58.4363852503038 117.0790417269834 132.2850967694718 H 0.0 **** 0.06
35455 H 59.794677111474726 116.05036454681044 131.77087560191487 H 0.0 **** 0.06
35456 C 38.95903859485293 96.82382138120664 23.82494261572478 C 0.0 **** -0.24
35457 H 39.96195636849126 96.93106042008048 24.23805423260839 H 0.0 **** 0.06
35458 H 38.45892865352374 97.79259901805369 23.82874272427972 H 0.0 **** 0.06
35459 H 38.38937345149225 96.11892589383632 24.431846660471663 H 0.0 **** 0.06
35460 H 39.025566599252954 96.45137228060963 22.802895570842395 H 0.0 **** 0.06
35461 C 59.53459139600011 38.68842331336098 63.22579556144825 C 0.0 **** -0.24
35462 H 60.56469387950183 38.39493371466464 63.02333515155351 H 0.0 **** 0.06
35463 H 59.52788712060912 39.57574025599884 63.858028226531914 H 0.0 **** 0.06
35464 H 59.018962097157 37.87373416423601 63.7357186492459 H 0.0 **** 0.06
35465 H 59.0280606619519 38.90639357263427 62.285774257756174 H 0.0 **** 0.06
35466 C 148.72515176786266 14.803374772078165 98.01575347850772 C 0.0 **** -0.24
35467 H 149.74532719167073 14.834536424255262 98.3974425072216 H 0.0 **** 0.06
35468 H 148.56693213211418 13.868965929471585 97.4782033792446 H 0.0 **** 0.06
35469 H 148.5657538124798 15.644213044716388 97.34010800604207 H 0.0 **** 0.06
35470 H 148.02442723243425 14.867908100168066 98.84761526072032 H 0.0 **** 0.06
35471 C 80.88520538371444 113.9262347764899 46.622213027900045 C 0.0 **** -0.24
35472 H 81.40348946400506 113.02667919538024 46.9553884752703 H 0.0 **** 0.06
35473 H 80.63843702706016 114.54372112172675 47.48622604704599 H 0.0 **** 0.06
35474 H 79.96923235876073 113.64591658949237 46.101385184443245 H 0.0 **** 0.06
35475 H 81.52984274453694 114.48724512400153 45.94611945395968 H 0.0 **** 0.06
35476 C 120.89603608242493 109.30545616608582 97.47335298358358 C 0.0 **** -0.24
35477 H 120.74382472494136 110.3753462694191 97.6168777731258 H 0.0 **** 0.06
35478 H 121.90596530811331 109.12907968722463 97.10232764307453 H 0.0 **** 0.06
35479 H 120.17233688391298 108.93010084423396 96.75064329523717 H 0.0 **** 0.06
35480 H 120.76234431281881 108.78949206675723 98.42384392068809 H 0.0 **** 0.06
35481 C 149.7119169623767 83.684162569784 132.39984451650503 C 0.0 **** -0.24
35482 H 149.34078243763756 82.72481734470286 132.03824610077947 H 0.0 **** 0.06
35483 H 150.77340045862977 83.77357982554419 132.16897047473887 H 0.0 **** 0.06
35484 H 149.56747106991688 83.74610191266247 133.47828986634056 H 0.0 **** 0.06
35485 H 149.16385880576874 84.49126321351426 131.9131183997303 H 0.0 **** 0.06
35486 C 37.45395518605035 40.507413704200275 37.07620750052 C 0.0 **** -0.24
35487 H 37.3185239875652 39.860692655622415 36.209303376719376 H 0.0 **** 0.06
35488 H 38.11033862139173 40.01751348438829 37.79545366568695 H 0.0 **** 0.06
35489 H 36.486403792627826 40.702126804725765 37.53927726621785 H 0.0 **** 0.06
35490 H 37.90229358154444 41.44975352583276 36.75912568070747 H 0.0 **** 0.06
35491 C 116.0755393506408 113.4918421154066 66.57856880273843 C 0.0 **** -0.24
35492 H 115.8410129527379 112.42956240555094 66.65916494119283 H 0.0 **** 0.06
35493 H 116.71689084940435 113.78614395301082 67.40878512047837 H 0.0 **** 0.06
35494 H 115.15144502077233 114.0706365617367 66.61000460085776 H 0.0 **** 0.06
35495 H 116.58986989081099 113.67965813825629 65.63561718552901 H 0.0 **** 0.06
35496 C 28.547709305807444 104.51732066979818 109.18266462291383 C 0.0 **** -0.24
35497 H 29.599605810690058 104.57166803336199 108.90231200851001 H 0.0 **** 0.06
35498 H 27.937980079018445 104.96234680415293 108.39534349933807 H 0.0 **** 0.06
35499 H 28.391125160947745 105.06071098580136 110.11481583142167 H 0.0 **** 0.06
35500 H 28.260972691757274 103.47419613761488 109.31745268826477 H 0.0 **** 0.06
35501 C 86.96328675974453 74.33351135374133 35.12934343684355 C 0.0 **** -0.24
35502 H 86.57469497489069 73.38225577874542 34.766270819861056 H 0.0 **** 0.06
35503 H 87.03357153627675 75.0369419529247 34.29920672850837 H 0.0 **** 0.06
35504 H 87.95252815374593 74.1801054868566 35.56001915033964 H 0.0 **** 0.06
35505 H 86.29337272015428 74.73335276398674 35.89013676394044 H 0.0 **** 0.06
35506 C 95.21064590208107 40.666843332350226 6.4442420077078 C 0.0 **** -0.24
35507 H 95.18200214935604 41.52829374410433 5.777217872050528 H 0.0 **** 0.06
35508 H 95.03707509237648 39.756799200924405 5.869825484278351 H 0.0 **** 0.06
35509 H 94.4349227576281 40.76993401137733 7.203848119678895 H 0.0 **** 0.06
35510 H 96.18639523669165 40.61274987202344 6.925856558604494 H 0.0 **** 0.06
35511 C 72.8685406220377 117.42523714994813 28.559954900486503 C 0.0 **** -0.24
35512 H 71.92407084099736 117.10678693602232 29.00137735620922 H 0.0 **** 0.06
35513 H 73.21776804209088 116.66382879586068 27.86236833280475 H 0.0 **** 0.06
35514 H 73.60875258999198 117.56355969591182 29.347889917880593 H 0.0 **** 0.06
35515 H 72.72255972465598 118.3658616031327 28.029254716165383 H 0.0 **** 0.06
35516 C 39.20126654979498 102.04234668254199 38.63536239533434 C 0.0 **** -0.24
35517 H 39.037480161649285 102.45363507669556 39.63139620917033 H 0.0 **** 0.06
35518 H 39.90034398475916 101.20761695619657 38.69718109449522 H 0.0 **** 0.06
35519 H 39.61463891581748 102.81544036702714 37.98647258894843 H 0.0 **** 0.06
35520 H 38.25260313695398 101.6926943302487 38.226399688723376 H 0.0 **** 0.06
35521 C 88.60208529828152 109.80183479488569 60.40439812413854 C 0.0 **** -0.24
35522 H 89.18993430675152 110.09440048562901 61.27472413362375 H 0.0 **** 0.06
35523 H 88.11171553752125 110.68061113899954 59.98623655375752 H 0.0 **** 0.06
35524 H 87.84888696104082 109.07203741500017 60.70366653704434 H 0.0 **** 0.06
35525 H 89.25851396265621 109.35980555557639 59.655029700515 H 0.0 **** 0.06
35526 C 99.71251925910187 126.74490200860441 5.330498789724203 C 0.0 **** -0.24
35527 H 99.66507639650965 127.82916299261437 5.432227750162667 H 0.0 **** 0.06
35528 H 98.9166883320188 126.28901296585863 5.92038677758012 H 0.0 **** 0.06
35529 H 100.67919579537667 126.38909787307443 5.686916206133162 H 0.0 **** 0.06
35530 H 99.58838372854603 126.47328617272201 4.281718198328775 H 0.0 **** 0.06
35531 C 108.89493037529935 85.73292279468477 127.69478066262027 C 0.0 **** -0.24
35532 H 108.95896163711897 85.15968267246853 126.77038182494643 H 0.0 **** 0.06
35533 H 109.76990007086958 85.52547534680707 128.31160973767885 H 0.0 **** 0.06
35534 H 107.99230684358032 85.44917039582731 128.23620455398827 H 0.0 **** 0.06
35535 H 108.85937161540214 86.79633988842907 127.46039400606244 H 0.0 **** 0.06
35536 C 105.08321374506546 99.29583970222828 43.569979220247106 C 0.0 **** -0.24
35537 H 104.466867995269 100.19439602066748 43.52761203024028 H 0.0 **** 0.06
35538 H 106.09736123561903 99.56535691069791 43.86736428920396 H 0.0 **** 0.06
35539 H 105.10522117623277 98.82487175925318 42.587191676726746 H 0.0 **** 0.06
35540 H 104.66226695770455 98.60165446274328 44.29732723872931 H 0.0 **** 0.06
35541 C 86.46651495010089 6.217045135484785 149.71701514791388 C 0.0 **** -0.24
35542 H 86.42581242234921 6.95685812772728 148.9172223344799 H 0.0 **** 0.06
35543 H 87.06428345941784 5.364271796343687 149.39336260449855 H 0.0 **** 0.06
35544 H 85.45716854082717 5.8837875899831005 149.955243321971 H 0.0 **** 0.06
35545 H 86.92011010994727 6.663734284426457 150.60200991245117 H 0.0 **** 0.06
35546 C 61.33514728373774 116.25790547737243 30.464056955653916 C 0.0 **** -0.24
35547 H 62.20038529076521 116.89705124192754 30.28450915324123 H 0.0 **** 0.06
35548 H 60.45978459717804 116.87933780783719 30.657444061714386 H 0.0 **** 0.06
35549 H 61.5274364466581 115.6208854808895 31.326260420426024 H 0.0 **** 0.06
35550 H 61.15316487821548 115.63820512683547 29.5859929689301 H 0.0 **** 0.06
35551 C 31.32898873283569 114.75476902790749 8.479712978434776 C 0.0 **** -0.24
35552 H 32.11010838501887 115.16660871556061 9.117651528720614 H 0.0 **** 0.06
35553 H 30.650689060195063 114.14748085075067 9.080186256164751 H 0.0 **** 0.06
35554 H 31.781835696695644 114.13573545035948 7.705070125410771 H 0.0 **** 0.06
35555 H 30.772631834110825 115.5691942777635 8.014710793541752 H 0.0 **** 0.06
35556 C 21.837602042851586 10.33528995096465 59.43321221790012 C 0.0 **** -0.24
35557 H 22.16015232900662 10.988802215988677 60.24263945348149 H 0.0 **** 0.06
35558 H 22.570236772008798 9.539095618388274 59.29504752242346 H 0.0 **** 0.06
35559 H 21.74998943091981 10.913293685961996 58.51340561567744 H 0.0 **** 0.06
35560 H 20.869943842561383 9.899018548758725 59.68280065350294 H 0.0 **** 0.06
35561 C 96.01132266192809 91.34153427845673 150.0652265275292 C 0.0 **** -0.24
35562 H 94.95197358027491 91.52360704747417 149.88238906084678 H 0.0 **** 0.06
35563 H 96.49602092336363 91.0493571216149 149.13266786649987 H 0.0 **** 0.06
35564 H 96.12059869796138 90.54155558388022 150.79737768294385 H 0.0 **** 0.06
35565 H 96.47570279650648 92.24971922559925 150.44728491889578 H 0.0 **** 0.06
35566 C 35.001075618752424 126.22724630830197 82.7466309749228 C 0.0 **** -0.24
35567 H 35.7645147779198 126.11621259610939 83.51722339691692 H 0.0 **** 0.06
35568 H 35.28059750873305 127.03776468086647 82.07380116555622 H 0.0 **** 0.06
35569 H 34.04327970163715 126.45545677168172 83.21446904243783 H 0.0 **** 0.06
35570 H 34.91830913874327 125.29855438322133 82.1830926376675 H 0.0 **** 0.06
35571 C 96.003409758076 29.440807392726157 59.03564599276356 C 0.0 **** -0.24
35572 H 95.41644072388074 29.120047787811075 58.175668625981245 H 0.0 **** 0.06
35573 H 96.94573111354597 28.892984137315437 59.05644605420045 H 0.0 **** 0.06
35574 H 95.44633395029243 29.241087118670833 59.950523475270415 H 0.0 **** 0.06
35575 H 96.20658683935267 30.50937534217573 58.9579920615659 H 0.0 **** 0.06
35576 C 53.40648260051408 138.20942238769624 54.311664653011874 C 0.0 **** -0.24
35577 H 53.77718476382641 137.2467493467911 53.957167728823165 H 0.0 **** 0.06
35578 H 54.20688690611385 138.73996391288568 54.82707139432003 H 0.0 **** 0.06
35579 H 52.57591043577179 138.04672227307233 54.998543853712206 H 0.0 **** 0.06
35580 H 53.06527765468955 138.80148206243518 53.46218244160424 H 0.0 **** 0.06
35581 C 124.00462722662023 49.10876423312513 84.31366152413725 C 0.0 **** -0.24
35582 H 123.36013833402536 48.273304589648276 84.03986097026899 H 0.0 **** 0.06
35583 H 123.91867986056819 49.89471379461838 83.56188968382855 H 0.0 **** 0.06
35584 H 125.03856986366999 48.76884163985025 84.36710039889806 H 0.0 **** 0.06
35585 H 123.69895850942176 49.49964628536311 85.28430375997578 H 0.0 **** 0.06
35586 C 80.80530468234312 131.85718440985045 19.454675322192372 C 0.0 **** -0.24
35587 H 81.14852490346348 132.71849765683817 20.027124295325052 H 0.0 **** 0.06
35588 H 81.57791264864659 131.5608194662314 18.745420626664043 H 0.0 **** 0.06
35589 H 79.89613633995373 132.11925557007012 18.913930372913683 H 0.0 **** 0.06
35590 H 80.59799821495207 131.02949516340712 20.13425908350007 H 0.0 **** 0.06
35591 C 86.79596365685184 133.77915555019766 119.5267669815642 C 0.0 **** -0.24
35592 H 87.87883715961375 133.7546607843117 119.64975672056768 H 0.0 **** 0.06
35593 H 86.43300099949731 134.79273468049198 119.6991269680591 H 0.0 **** 0.06
35594 H 86.33527843282714 133.10045163244442 120.24410900332511 H 0.0 **** 0.06
35595 H 86.53853751183847 133.46745016065742 118.51399402992642 H 0.0 **** 0.06
35596 C 95.81513020543915 43.2111286091629 2.431082893750471 C 0.0 **** -0.24
35597 H 95.93722324596467 43.876359203095305 3.2852550025594667 H 0.0 **** 0.06
35598 H 96.33416601538582 42.27262808776776 2.6248741980726606 H 0.0 **** 0.06
35599 H 96.23310276167578 43.68139480587523 1.5406188827647895 H 0.0 **** 0.06
35600 H 94.75426464606457 43.013750096401324 2.2744447706955953 H 0.0 **** 0.06
35601 C 132.33196018414884 93.16972884742748 76.15071125362087 C 0.0 **** -0.24
35602 H 132.4828169152674 92.52891258955091 75.28233044341303 H 0.0 **** 0.06
35603 H 131.89056732136947 92.58752912478965 76.95952167768218 H 0.0 **** 0.06
35604 H 131.66399628747283 93.98887680668741 75.88570689177638 H 0.0 **** 0.06
35605 H 133.29164191456277 93.57304171612029 76.47474244017567 H 0.0 **** 0.06
35606 C 76.57638468890546 116.35676063908858 75.23829092440077 C 0.0 **** -0.24
35607 H 77.16817621269402 116.85884180115028 76.00361881497804 H 0.0 **** 0.06
35608 H 75.53481699530843 116.66800502109686 75.32103254381965 H 0.0 **** 0.06
35609 H 76.64531599370599 115.2778691564809 75.37528401382104 H 0.0 **** 0.06
35610 H 76.95781142152791 116.62272339405598 74.25200193189816 H 0.0 **** 0.06
35611 C 48.51943599826747 93.11380090147544 144.42800082560834 C 0.0 **** -0.24
35612 H 49.57142395001935 93.39469338649964 144.38183557274755 H 0.0 **** 0.06
35613 H 47.96077229229293 93.67425624585532 143.67885923044273 H 0.0 **** 0.06
35614 H 48.126602201032725 93.33915941277576 145.42001477352892 H 0.0 **** 0.06
35615 H 48.419902160826354 92.04551355088361 144.2329016817271 H 0.0 **** 0.06
35616 C 39.048354248581006 68.00592660805091 75.55520760310046 C 0.0 **** -0.24
35617 H 38.086619968118725 68.5187961627611 75.53590770572335 H 0.0 **** 0.06
35618 H 38.89201344412385 66.95109960485755 75.78086226616004 H 0.0 **** 0.06
35619 H 39.68219650768083 68.45245756544088 76.32126215343098 H 0.0 **** 0.06
35620 H 39.53057236968516 68.10347601402432 74.58213910067506 H 0.0 **** 0.06
35621 C 36.59444962701814 120.1095416862512 96.35843483935292 C 0.0 **** -0.24
35622 H 35.560277765034414 119.89688157604435 96.62928114405713 H 0.0 **** 0.06
35623 H 37.100619788578 120.5839641790531 97.1994179340015 H 0.0 **** 0.06
35624 H 36.61436120110267 120.77742951167941 95.49745060419855 H 0.0 **** 0.06
35625 H 37.10258141348893 119.17757018704704 96.1068085917459 H 0.0 **** 0.06
35626 C 109.70156016475651 55.70122649773671 126.38321558933461 C 0.0 **** -0.24
35627 H 110.63195141267882 56.042407405375485 126.83717285384543 H 0.0 **** 0.06
35628 H 109.83237294044663 55.619573674970724 125.30439340709694 H 0.0 **** 0.06
35629 H 108.90812946102018 56.415370294844365 126.60183811978942 H 0.0 **** 0.06
35630 H 109.43504643299723 54.726396381084356 126.79247001402837 H 0.0 **** 0.06
35631 C 113.57809031891706 6.946569688905953 132.6504003449673 C 0.0 **** -0.24
35632 H 114.37735404289784 6.892063055473642 133.38934756933327 H 0.0 **** 0.06
35633 H 113.19444591917484 5.944758319677078 132.45580214412956 H 0.0 **** 0.06
35634 H 113.9654259870229 7.373432417319691 131.72554805604142 H 0.0 **** 0.06
35635 H 112.77314780096732 7.576717202803394 133.03165907660377 H 0.0 **** 0.06
35636 C 43.63057435047696 11.967570338523991 37.05898246517348 C 0.0 **** -0.24
35637 H 44.02050155431753 11.031623929501393 36.65860940484523 H 0.0 **** 0.06
35638 H 42.81212632438603 11.755037634750003 37.74750421372762 H 0.0 **** 0.06
35639 H 43.2658478631364 12.588331401768755 36.24124917293405 H 0.0 **** 0.06
35640 H 44.42459530984698 12.494215179989673 37.589066832755094 H 0.0 **** 0.06
35641 C 139.75527375068495 131.9680213010073 73.40056915684318 C 0.0 **** -0.24
35642 H 139.5342622369611 132.40705416669303 74.37287389095879 H 0.0 **** 0.06
35643 H 140.78638493813574 131.61290573106996 73.38823286502729 H 0.0 **** 0.06
35644 H 139.6196493612296 132.71971206134344 72.62299503963877 H 0.0 **** 0.06
35645 H 139.08036635746853 131.13163553010864 73.21863142580018 H 0.0 **** 0.06
35646 C 22.73410615120511 99.59677001468596 148.85567749328175 C 0.0 **** -0.24
35647 H 21.905082942081577 98.90309886062514 148.99812873478405 H 0.0 **** 0.06
35648 H 22.58764332976358 100.15036214505594 147.92781871861698 H 0.0 **** 0.06
35649 H 23.668707252433848 99.03957863530924 148.803687314788 H 0.0 **** 0.06
35650 H 22.771413616494755 100.2935911045198 149.69309376354326 H 0.0 **** 0.06
35651 C 50.67134393739818 145.38569372071274 148.57741808630806 C 0.0 **** -0.24
35652 H 50.228948096337845 145.12843720480717 147.6143632930055 H 0.0 **** 0.06
35653 H 51.75063786487095 145.48849016439056 148.46493256401897 H 0.0 **** 0.06
35654 H 50.453009399782985 144.59861563148397 149.2985294233884 H 0.0 **** 0.06
35655 H 50.251672284289754 146.32841570675075 148.9286266393811 H 0.0 **** 0.06
35656 C 10.611961121788426 58.604722457015725 60.05590799493825 C 0.0 **** -0.24
35657 H 11.339842636960896 58.59617809263614 60.867100925545174 H 0.0 **** 0.06
35658 H 10.337911661335227 59.63442045975188 59.82404717877614 H 0.0 **** 0.06
35659 H 9.723328359971362 58.051331403611925 60.35956510564131 H 0.0 **** 0.06
35660 H 11.047598739874559 58.136969812486484 59.17346605197224 H 0.0 **** 0.06
35661 C 27.042033575664703 87.37978712244245 142.33822493921969 C 0.0 **** -0.24
35662 H 27.706176698684224 86.54264017847873 142.1219556373053 H 0.0 **** 0.06
35663 H 27.093336978452975 87.61888649839466 143.40069185753754 H 0.0 **** 0.06
35664 H 26.01997748102363 87.10854180697498 142.07585351927017 H 0.0 **** 0.06
35665 H 27.349271587782162 88.24727614997374 141.755561216749 H 0.0 **** 0.06
35666 C 35.20065184013925 80.4432821749173 146.21951413316265 C 0.0 **** -0.24
35667 H 36.15006603687294 79.91124216883257 146.1606533488942 H 0.0 **** 0.06
35668 H 35.27015417467728 81.22515082511195 146.97596924283448 H 0.0 **** 0.06
35669 H 34.4084940099439 79.74444125752977 146.48981185621145 H 0.0 **** 0.06
35670 H 34.97464290450576 80.89175703706974 145.25200819047822 H 0.0 **** 0.06
35671 C 69.70334074921179 145.68722275271233 144.00524969933105 C 0.0 **** -0.24
35672 H 70.01879715483106 145.4476371605473 145.02134198343077 H 0.0 **** 0.06
35673 H 68.71314811425434 146.14406474515428 144.03079352145988 H 0.0 **** 0.06
35674 H 69.66697182468464 144.77494687505262 143.41110203048774 H 0.0 **** 0.06
35675 H 70.4127926996407 146.384592735285 143.55941729526594 H 0.0 **** 0.06
35676 C 58.90338262576398 101.7788004472831 145.39821294224822 C 0.0 **** -0.24
35677 H 59.35044747098564 101.34029832445987 146.28970963476502 H 0.0 **** 0.06
35678 H 57.82096490729353 101.82822393582659 145.52136620755925 H 0.0 **** 0.06
35679 H 59.14287352863735 101.16335201017888 144.53088957541848 H 0.0 **** 0.06
35680 H 59.29760951520515 102.78389879265966 145.25087003667358 H 0.0 **** 0.06
35681 C 34.19483722260625 138.81785767627116 58.449309606254076 C 0.0 **** -0.24
35682 H 33.8798516316691 138.4802741633161 57.46151055629588 H 0.0 **** 0.06
35683 H 34.61731977652657 139.82001106403084 58.3724813250148 H 0.0 **** 0.06
35684 H 34.94773998940758 138.13479096091703 58.842916998948624 H 0.0 **** 0.06
35685 H 33.33388032569121 138.83515265210437 59.1176378138274 H 0.0 **** 0.06
35686 C 146.53324299045616 78.27825752911508 21.15380089054328 C 0.0 **** -0.24
35687 H 147.45516783365784 77.79487269838171 21.4764557499876 H 0.0 **** 0.06
35688 H 145.72141128130627 77.99506080090066 21.824022783826635 H 0.0 **** 0.06
35689 H 146.2937119011595 77.96100651264919 20.13828812501562 H 0.0 **** 0.06
35690 H 146.66352306180954 79.35967687421663 21.174866078934002 H 0.0 **** 0.06
35691 C 61.687524885019286 87.7944021915896 115.59971502592101 C 0.0 **** -0.24
35692 H 61.252839930410744 88.79226303530316 115.65048095422337 H 0.0 **** 0.06
35693 H 62.71401283964565 87.82616382285939 115.96381134610188 H 0.0 **** 0.06
35694 H 61.677826661564865 87.44620800030233 114.56642742473623 H 0.0 **** 0.06
35695 H 61.10309536506128 87.11251595961689 116.21751903239961 H 0.0 **** 0.06
35696 C 98.28035144903717 80.34672678546998 54.05915868838285 C 0.0 **** -0.24
35697 H 98.01339808341933 81.32036054392383 54.471728364497864 H 0.0 **** 0.06
35698 H 98.39443540973403 79.62718276644611 54.87110869209545 H 0.0 **** 0.06
35699 H 99.21860558440358 80.42951433143007 53.51165084293345 H 0.0 **** 0.06
35700 H 97.49370091685017 80.01054709976226 53.383853102415 H 0.0 **** 0.06
35701 C 134.43374041634803 105.18351040700861 95.27009338155806 C 0.0 **** -0.24
35702 H 135.09212784589653 105.42548346851174 96.1041991909046 H 0.0 **** 0.06
35703 H 133.70267543403835 104.440739069296 95.58860114798189 H 0.0 **** 0.06
35704 H 135.02439048835888 104.78201254013715 94.4456926915664 H 0.0 **** 0.06
35705 H 133.91804883454284 106.0851366647978 94.94128990482602 H 0.0 **** 0.06
35706 C 137.36300034252085 132.81983736518745 40.39708593218674 C 0.0 **** -0.24
35707 H 137.0215170658773 132.44507403095372 39.431933552421754 H 0.0 **** 0.06
35708 H 138.24624007970544 132.26362576529056 40.71008063276804 H 0.0 **** 0.06
35709 H 136.5716800441606 132.6923107912075 41.136249424283704 H 0.0 **** 0.06
35710 H 137.61066112652804 133.8775713560249 40.30919158878615 H 0.0 **** 0.06
35711 C 92.63389313686105 117.47689718657169 41.905893202202094 C 0.0 **** -0.24
35712 H 91.91322185284182 117.11840155970334 41.17100051333787 H 0.0 **** 0.06
35713 H 92.65929448684545 116.79048796596051 42.75355865439883 H 0.0 **** 0.06
35714 H 92.33855450409865 118.46812125185902 42.2502918629564 H 0.0 **** 0.06
35715 H 93.6223463541973 117.52937831159112 41.450938914551415 H 0.0 **** 0.06
35716 C 104.50647938919997 42.33312764057055 142.41660743343104 C 0.0 **** -0.24
35717 H 105.03918961597077 41.522806898445424 141.91937954224227 H 0.0 **** 0.06
35718 H 104.00065006538114 42.94627124580768 141.6712732332258 H 0.0 **** 0.06
35719 H 105.21557553177689 42.94703525779396 142.972833662444 H 0.0 **** 0.06
35720 H 103.7704346504899 41.915543536366016 143.1040688255205 H 0.0 **** 0.06
35721 C 140.7824827465093 106.85747437012299 65.30630317657754 C 0.0 **** -0.24
35722 H 140.75899193631838 105.89690664283563 64.79146794666298 H 0.0 **** 0.06
35723 H 141.70477789801262 107.3815282191128 65.05554492256204 H 0.0 **** 0.06
35724 H 140.73782119630005 106.6928317640328 66.38240661268978 H 0.0 **** 0.06
35725 H 139.9278160292561 107.45657872600066 64.99456257839809 H 0.0 **** 0.06
35726 C 119.91434343816873 52.522891933933835 132.80427681090194 C 0.0 **** -0.24
35727 H 120.01619387150375 53.603075002649774 132.9114986910774 H 0.0 **** 0.06
35728 H 120.03667732817159 52.24961201697232 131.75535019019694 H 0.0 **** 0.06
35729 H 118.9269898887214 52.21537035633898 133.14742968939876 H 0.0 **** 0.06
35730 H 120.6779429072851 52.02542932603424 133.40136830344287 H 0.0 **** 0.06
35731 C 145.2920868234582 57.54340713929487 14.802787569379092 C 0.0 **** -0.24
35732 H 146.22395145160021 57.02427732289388 14.581715222885528 H 0.0 **** 0.06
35733 H 145.49115534911783 58.37769656392652 15.474766236840985 H 0.0 **** 0.06
35734 H 144.5955298346118 56.8521869309826 15.277332057341177 H 0.0 **** 0.06
35735 H 144.8567127692996 57.91812864990952 13.875849736729805 H 0.0 **** 0.06
35736 C 113.66573848380781 100.94806764278425 73.7126792298283 C 0.0 **** -0.24
35737 H 113.99607553839692 99.93621314048261 73.94572933236338 H 0.0 **** 0.06
35738 H 114.3190364227901 101.37706630923216 72.95257762561009 H 0.0 **** 0.06
35739 H 113.70533754048788 101.55991316835076 74.61412111178566 H 0.0 **** 0.06
35740 H 112.6415926372654 100.91883117793284 73.3379605719949 H 0.0 **** 0.06
35741 C 3.7496089775229393 132.6094884574286 122.97976081917882 C 0.0 **** -0.24
35742 H 2.9444207765461954 132.5385580172516 123.71118021037104 H 0.0 **** 0.06
35743 H 3.5640828043584634 131.90779193755088 122.16598471318623 H 0.0 **** 0.06
35744 H 4.697943054477037 132.3671648156135 123.45909703157402 H 0.0 **** 0.06
35745 H 3.7922075543128244 133.62346814799366 122.58268272212386 H 0.0 **** 0.06
35746 C 86.68318302445755 104.93327159581773 20.39684757500305 C 0.0 **** -0.24
35747 H 86.45410314599033 105.45300399737536 21.32696859396279 H 0.0 **** 0.06
35748 H 87.74184732927557 104.67162353011648 20.378552312714532 H 0.0 **** 0.06
35749 H 86.45510685265825 105.58363476667333 19.552100567116497 H 0.0 **** 0.06
35750 H 86.08310470195973 104.0262224487137 20.329763246605182 H 0.0 **** 0.06
35751 C 145.56799011226974 16.462495696307734 26.512957779212982 C 0.0 **** -0.24
35752 H 145.2914048374243 15.436414119777595 26.755664748865073 H 0.0 **** 0.06
35753 H 144.67546806301436 17.021589231179 26.229985454213825 H 0.0 **** 0.06
35754 H 146.27543434464778 16.461343879731174 25.683452606389984 H 0.0 **** 0.06
35755 H 146.02916910119376 16.929263152143378 27.383667597506005 H 0.0 **** 0.06
35756 C 120.91988725465153 8.650170086101582 87.36159081687103 C 0.0 **** -0.24
35757 H 120.24824304826593 9.490598599271777 87.53860347748895 H 0.0 **** 0.06
35758 H 120.33477987662242 7.747454255923799 87.18769157217427 H 0.0 **** 0.06
35759 H 121.55922976619136 8.50725817203329 88.2333447152448 H 0.0 **** 0.06
35760 H 121.5384222875107 8.857691010034216 86.4878820573643 H 0.0 **** 0.06
35761 C 57.16717452998326 82.99820372732194 102.13933395702065 C 0.0 **** -0.24
35762 H 57.4864184341847 82.00343638646586 101.83115593947494 H 0.0 **** 0.06
35763 H 56.77800219490355 82.95595517358609 103.1572556065905 H 0.0 **** 0.06
35764 H 56.38824978994643 83.35499671923122 101.46625709979816 H 0.0 **** 0.06
35765 H 58.018448626338696 83.67946106302114 102.10491873891496 H 0.0 **** 0.06
35766 C 102.28334260977141 63.740097559486856 2.8312496399771305 C 0.0 **** -0.24
35767 H 101.81580297781812 62.796634042872356 3.110825612300971 H 0.0 **** 0.06
35768 H 102.39623328187317 64.36594569429386 3.7180113835554494 H 0.0 **** 0.06
35769 H 101.65806375064837 64.2531940158064 2.1015183133792164 H 0.0 **** 0.06
35770 H 103.2645190561971 63.54469338912985 2.3973700335107253 H 0.0 **** 0.06
35771 C 117.73455903159483 65.55847259327294 40.588329428694976 C 0.0 **** -0.24
35772 H 116.99548552526566 65.04570228974012 39.972361516211606 H 0.0 **** 0.06
35773 H 118.40375755156872 64.82585387269097 41.03871771599495 H 0.0 **** 0.06
35774 H 117.22681474066825 66.11868762241755 41.3732748587766 H 0.0 **** 0.06
35775 H 118.31100569780502 66.24517574181709 39.9674513763884 H 0.0 **** 0.06
35776 C 27.41785214961692 148.48005240746934 68.09587095575384 C 0.0 **** -0.24
35777 H 26.475826587065626 148.07247336011133 68.46444617212555 H 0.0 **** 0.06
35778 H 27.354193664430525 149.56777614742245 68.06125654906717 H 0.0 **** 0.06
35779 H 27.612494446101962 148.0947445928135 67.09471074438403 H 0.0 **** 0.06
35780 H 28.22748489231941 148.18509490386091 68.76305560770035 H 0.0 **** 0.06
35781 C 57.96575760527715 36.17756094408014 56.246400388570635 C 0.0 **** -0.24
35782 H 57.562803765977634 37.10207113928192 55.833461448761 H 0.0 **** 0.06
35783 H 58.30037635953421 36.35340339345913 57.26991897317268 H 0.0 **** 0.06
35784 H 58.80879959834763 35.8453114061453 55.64044499988853 H 0.0 **** 0.06
35785 H 57.191401844224416 35.41028866302571 56.243254825951425 H 0.0 **** 0.06
35786 C 134.00717068889827 113.83610029749464 117.46803252336201 C 0.0 **** -0.24
35787 H 134.0947780600226 114.59415247438666 118.24608799321891 H 0.0 **** 0.06
35788 H 132.98027895924406 113.4720922062083 117.42996703069326 H 0.0 **** 0.06
35789 H 134.67877833402954 113.00635211049529 117.6920206026935 H 0.0 **** 0.06
35790 H 134.27531457065527 114.27022155797631 116.50556329134344 H 0.0 **** 0.06
35791 C 125.34666824924719 32.813579760685 97.72135205948331 C 0.0 **** -0.24
35792 H 125.21972625459696 33.18573137135547 96.70524263856163 H 0.0 **** 0.06
35793 H 124.9494851751573 33.54248284713381 98.42796609079585 H 0.0 **** 0.06
35794 H 126.40699701114345 32.65469573254751 97.920066175447 H 0.0 **** 0.06
35795 H 124.8115779452581 31.869717228314613 97.83118562756266 H 0.0 **** 0.06
35796 C 67.97785246925335 71.95792334308263 3.763260327461694 C 0.0 **** -0.24
35797 H 67.81359246685089 72.97712122629724 3.4155898571705166 H 0.0 **** 0.06
35798 H 68.79574975473365 71.50886813650186 3.1991300562651475 H 0.0 **** 0.06
35799 H 67.06991098864673 71.37241340857463 3.615368803656878 H 0.0 **** 0.06
35800 H 68.23225610310071 71.97246867841002 4.823513478077672 H 0.0 **** 0.06
35801 C 103.8782459264002 144.49136739852963 127.58625987692497 C 0.0 **** -0.24
35802 H 104.7147996346544 144.5611044075506 126.89170743876153 H 0.0 **** 0.06
35803 H 104.23952141946016 144.63157930224844 128.60516032960115 H 0.0 **** 0.06
35804 H 103.41334315583318 143.50960487119232 127.49634749414881 H 0.0 **** 0.06
35805 H 103.14576408829218 145.26376111550616 127.35025391770122 H 0.0 **** 0.06
35806 C 53.050590540205945 85.110104433901 145.75446209646842 C 0.0 **** -0.24
35807 H 53.58841887750435 85.5480808251335 144.9131709034193 H 0.0 **** 0.06
35808 H 52.31723815615601 85.8253439999803 146.1285024294475 H 0.0 **** 0.06
35809 H 53.75592364497473 84.8651662441998 146.54781695671636 H 0.0 **** 0.06
35810 H 52.54098269580865 84.20371645010937 145.42681263525895 H 0.0 **** 0.06
35811 C 9.011456775941063 89.38007477415577 99.45921524625244 C 0.0 **** -0.24
35812 H 10.084735674972933 89.27655523304963 99.29327348161412 H 0.0 **** 0.06
35813 H 8.47084735085496 88.90083648952648 98.6427860614923 H 0.0 **** 0.06
35814 H 8.750712615864565 90.4378067594995 99.49747775013354 H 0.0 **** 0.06
35815 H 8.74256280011025 88.90513545673574 100.40197826309246 H 0.0 **** 0.06
35816 C 107.35346077597215 50.97605953266577 12.288170082352494 C 0.0 **** -0.24
35817 H 108.31727953555732 51.33951277663175 12.645092530669615 H 0.0 **** 0.06
35818 H 107.51409653552422 50.2288770300423 11.510470928782773 H 0.0 **** 0.06
35819 H 106.78108871888112 51.80857958870047 11.87895611607825 H 0.0 **** 0.06
35820 H 106.80463380284625 50.5285228069755 13.11596309187064 H 0.0 **** 0.06
35821 C 25.05175697970421 1.2901518648095873 107.10239232793687 C 0.0 **** -0.24
35822 H 25.155055160915225 2.297068585720467 106.69792516218 H 0.0 **** 0.06
35823 H 24.02136518564933 0.9532974947940431 106.98124187602072 H 0.0 **** 0.06
35824 H 25.30958523731192 1.2962169587433436 108.16141701406137 H 0.0 **** 0.06
35825 H 25.720123985825268 0.6142651842159808 106.56935273472352 H 0.0 **** 0.06
35826 C 80.6553511403917 69.74188110088863 109.84202162855296 C 0.0 **** -0.24
35827 H 79.66271723186573 69.8642253669907 110.27612681296283 H 0.0 **** 0.06
35828 H 80.79133486812484 68.70464485478723 109.53465717770017 H 0.0 **** 0.06
35829 H 81.41039597190685 70.00440134196617 110.58179108047356 H 0.0 **** 0.06
35830 H 80.75414459053097 70.39405136274439 108.9744853048616 H 0.0 **** 0.06
35831 C 14.315356306121146 88.31339329520755 143.8362009069555 C 0.0 **** -0.24
35832 H 13.790563196265367 88.41918663164046 144.7845122296201 H 0.0 **** 0.06
35833 H 13.730417945271796 87.68208426564829 143.1656238493671 H 0.0 **** 0.06
35834 H 15.289380765754828 87.85646086544037 144.00896827413337 H 0.0 **** 0.06
35835 H 14.45066539013439 89.29654689776815 143.3836150157206 H 0.0 **** 0.06
35836 C 84.85348902611278 44.380234096772455 82.10359804745343 C 0.0 **** -0.24
35837 H 84.41921243359253 45.21575071804884 82.65333737618101 H 0.0 **** 0.06
35838 H 84.39527935610481 44.31780711981568 81.11644392435505 H 0.0 **** 0.06
35839 H 84.6730937800186 43.454520083672094 82.64900116696646 H 0.0 **** 0.06
35840 H 85.92711563646435 44.535382312550325 81.99705032952807 H 0.0 **** 0.06
35841 C 113.96279837682515 18.559405361326128 126.34924012575308 C 0.0 **** -0.24
35842 H 114.24746547384787 18.980933613459 125.38543721892998 H 0.0 **** 0.06
35843 H 112.88446714363558 18.39947009268198 126.37210875649822 H 0.0 **** 0.06
35844 H 114.2454160588543 19.248800784509598 127.144984864344 H 0.0 **** 0.06
35845 H 114.47505040412058 17.608755081886358 126.49508718627158 H 0.0 **** 0.06
35846 C 53.785070248027836 10.186894978505592 78.79362035642022 C 0.0 **** -0.24
35847 H 54.58876651239106 10.519228356365318 78.135875453585 H 0.0 **** 0.06
35848 H 54.09222841890133 9.279122016907422 79.3120357855689 H 0.0 **** 0.06
35849 H 52.89193483013503 9.984137449792655 78.20213239040967 H 0.0 **** 0.06
35850 H 53.56802327942965 10.96707835986507 79.5231715789515 H 0.0 **** 0.06
35851 C 124.55020614132377 140.61768702918147 9.46876146147008 C 0.0 **** -0.24
35852 H 125.09875663642185 139.74411277068424 9.117293349965877 H 0.0 **** 0.06
35853 H 124.98706188563727 141.51877281255014 9.036726737430797 H 0.0 **** 0.06
35854 H 124.60747933537516 140.66997743694225 10.55629169157774 H 0.0 **** 0.06
35855 H 123.50641705984509 140.5380183421867 9.162554354428465 H 0.0 **** 0.06
35856 C 138.28383607550205 79.90471512659738 93.6146057182827 C 0.0 **** -0.24
35857 H 138.16976048062594 79.88499592354299 94.69863727266518 H 0.0 **** 0.06
35858 H 139.31243336034305 80.16531886326169 93.36227288945851 H 0.0 **** 0.06
35859 H 137.60714284063675 80.64618877260358 93.19098850080631 H 0.0 **** 0.06
35860 H 138.04800335468855 78.92140853441708 93.20686734467918 H 0.0 **** 0.06
35861 C 28.790529153425155 75.55220399670826 102.97386964884264 C 0.0 **** -0.24
35862 H 28.546561593285787 76.49697416694089 103.45987031369278 H 0.0 **** 0.06
35863 H 29.74027456361455 75.64919870981603 102.44763759546295 H 0.0 **** 0.06
35864 H 28.00530494757271 75.29628166400221 102.26206826292756 H 0.0 **** 0.06
35865 H 28.869184442068615 74.76682835870868 103.7255071487729 H 0.0 **** 0.06
35866 C 123.61263869844845 16.63342845121103 66.09186992199895 C 0.0 **** -0.24
35867 H 122.81935578736409 17.125075128518148 66.65588879493646 H 0.0 **** 0.06
35868 H 123.58413835269045 15.561074177364688 66.28475724710786 H 0.0 **** 0.06
35869 H 124.57848107756632 17.033809546809984 66.40172795351765 H 0.0 **** 0.06
35870 H 123.46800197806522 16.816138196806683 65.02710241258085 H 0.0 **** 0.06
35871 C 48.05373859654834 25.621597144235665 48.77033651187983 C 0.0 **** -0.24
35872 H 47.89242027295174 24.79917094135157 49.46769656634066 H 0.0 **** 0.06
35873 H 47.14690862681229 25.785713877288735 48.186338507528006 H 0.0 **** 0.06
35874 H 48.87785085818891 25.373388513194 48.10012982223979 H 0.0 **** 0.06
35875 H 48.29765883450439 26.5265415745073 49.32559674753176 H 0.0 **** 0.06
35876 C 8.524084042088049 6.371273324237819 147.17908085201043 C 0.0 **** -0.24
35877 H 8.736299466130816 5.508346988861234 147.81013016055255 H 0.0 **** 0.06
35878 H 8.031673620068887 6.040178618316958 146.2642842699721 H 0.0 **** 0.06
35879 H 9.456693502289568 6.875644832916436 146.92871828854243 H 0.0 **** 0.06
35880 H 7.870648319328382 7.060250248516894 147.715313150881 H 0.0 **** 0.06
35881 C 59.32444459764298 113.12845810870434 21.919335606214247 C 0.0 **** -0.24
35882 H 59.02475622436157 113.8026652309903 21.11756251727249 H 0.0 **** 0.06
35883 H 58.43851322783277 112.78020158664489 22.450877239723134 H 0.0 **** 0.06
35884 H 59.97987621744895 113.65661680780815 22.612319219576534 H 0.0 **** 0.06
35885 H 59.8537258076901 112.2751958434695 21.49726176592462 H 0.0 **** 0.06
35886 C 47.8189329049267 1.263712124466398 117.72313457028075 C 0.0 **** -0.24
35887 H 47.0548673874942 1.3115387284302287 116.9470128031718 H 0.0 **** 0.06
35888 H 47.354985976088074 1.4110214908513434 118.69889207916803 H 0.0 **** 0.06
35889 H 48.56055474054503 2.044797938781578 117.5509354192374 H 0.0 **** 0.06
35890 H 48.30442906251909 0.2888919931462439 117.6952127667801 H 0.0 **** 0.06
35891 C 94.78703856533507 13.958064172550536 44.47425806972973 C 0.0 **** -0.24
35892 H 94.80197614652651 14.054814823929604 45.55932747856255 H 0.0 **** 0.06
35893 H 93.90894139714912 14.466610933220778 44.07640880950868 H 0.0 **** 0.06
35894 H 94.74847429568763 12.902488041281543 44.20438156335183 H 0.0 **** 0.06
35895 H 95.68762421655157 14.407511920571238 44.05679590122469 H 0.0 **** 0.06
35896 C 48.84588005472716 84.6994706579823 59.34742034570294 C 0.0 **** -0.24
35897 H 48.80014096308673 83.61954511507182 59.49271415137622 H 0.0 **** 0.06
35898 H 48.22356199834127 85.19239250076657 60.09511334486555 H 0.0 **** 0.06
35899 H 48.482826691097216 84.94785651432765 58.34996547613727 H 0.0 **** 0.06
35900 H 49.876985327717136 85.03603558161976 59.45407606233542 H 0.0 **** 0.06
35901 C 145.374524049094 147.97611486310245 126.74193198757445 C 0.0 **** -0.24
35902 H 145.77789264327933 148.3884778801641 125.81717093905672 H 0.0 **** 0.06
35903 H 146.18024274539167 147.85082074392548 127.465252282304 H 0.0 **** 0.06
35904 H 144.91399024622126 147.00929406190076 126.53792303846939 H 0.0 **** 0.06
35905 H 144.62603397194027 148.65837374624405 127.14573506947914 H 0.0 **** 0.06
35906 C 64.01414446928355 88.67232938882375 143.1682856383434 C 0.0 **** -0.24
35907 H 63.982283721442485 88.02795422472795 142.28962982945913 H 0.0 **** 0.06
35908 H 64.90928694256901 88.44973881801974 143.7498369326376 H 0.0 **** 0.06
35909 H 63.12993419219394 88.49593838789123 143.78119582964365 H 0.0 **** 0.06
35910 H 64.03554809996017 89.71516706118612 142.8531905315654 H 0.0 **** 0.06
35911 C 98.53425880825506 3.1647424786424025 39.8474386151851 C 0.0 **** -0.24
35912 H 98.65530885616865 2.9240016877625656 40.90413880079407 H 0.0 **** 0.06
35913 H 99.12091150352741 2.4700518255770945 39.247265345441036 H 0.0 **** 0.06
35914 H 98.87802268414657 4.183360475277521 39.665877934211295 H 0.0 **** 0.06
35915 H 97.48244533227067 3.0828392539909046 39.57534172262933 H 0.0 **** 0.06
35916 C 84.52084123026972 31.752265469891768 88.19967692390671 C 0.0 **** -0.24
35917 H 84.33123683398807 31.237141268736593 87.25888276387607 H 0.0 **** 0.06
35918 H 85.17096753384467 31.140034880379716 88.82496725017188 H 0.0 **** 0.06
35919 H 83.57688050112228 31.925294171450105 88.71595172804533 H 0.0 **** 0.06
35920 H 85.00460801855263 32.708744937681985 87.99941150400522 H 0.0 **** 0.06
35921 C 12.368887067194748 103.81627584974096 46.020658834522166 C 0.0 **** -0.24
35922 H 12.063836580661246 102.99063918965261 46.66366644963787 H 0.0 **** 0.06
35923 H 13.139036813840448 104.40198301174085 46.52192717389923 H 0.0 **** 0.06
35924 H 11.507085860194763 104.4510538378748 45.812072862997695 H 0.0 **** 0.06
35925 H 12.763403576206713 103.42172922744653 45.0846042693901 H 0.0 **** 0.06
35926 C 26.87945551154354 49.98069912825099 89.17837412970997 C 0.0 **** -0.24
35927 H 26.86625898418515 51.05604687358172 89.35269429268848 H 0.0 **** 0.06
35928 H 26.51717017470736 49.46437337245928 90.06794625821001 H 0.0 **** 0.06
35929 H 27.89895054020002 49.660270336446416 88.96205772598282 H 0.0 **** 0.06
35930 H 26.23637194752655 49.74210454423974 88.33225973123083 H 0.0 **** 0.06
35931 C 85.63272174309722 53.92468777595374 13.861083831607317 C 0.0 **** -0.24
35932 H 86.63173857947227 53.87054432525136 14.293664842185393 H 0.0 **** 0.06
35933 H 85.52612449364537 53.15766788567174 13.094281391516233 H 0.0 **** 0.06
35934 H 85.48343094185914 54.90858306787186 13.41470971805191 H 0.0 **** 0.06
35935 H 84.88916774959404 53.764899430140616 14.642072715001149 H 0.0 **** 0.06
35936 C 57.2159686705797 59.44044847712104 135.21098391804296 C 0.0 **** -0.24
35937 H 57.67751779506264 59.346517932570066 134.22789544292758 H 0.0 **** 0.06
35938 H 57.22230195582125 58.47143032218652 135.70966134327244 H 0.0 **** 0.06
35939 H 56.18834309123521 59.7851458573265 135.09759144344093 H 0.0 **** 0.06
35940 H 57.77688415408038 60.160202943562865 135.8076185063572 H 0.0 **** 0.06
35941 C 105.39703290301243 62.674819555584605 124.89709466995117 C 0.0 **** -0.24
35942 H 104.35813665692181 62.41260099170452 124.70218591356951 H 0.0 **** 0.06
35943 H 105.55536680050302 63.728128119985485 124.6649138331386 H 0.0 **** 0.06
35944 H 106.04897394664731 62.063198300033676 124.27370972872461 H 0.0 **** 0.06
35945 H 105.62517438769648 62.49596931385497 125.94819150883137 H 0.0 **** 0.06
35946 C 2.676835612517607 55.556149294074146 116.30955222268356 C 0.0 **** -0.24
35947 H 2.253832275649529 56.055223503594846 117.18144533414615 H 0.0 **** 0.06
35948 H 2.9333823895039473 56.30024168542735 115.55550265717993 H 0.0 **** 0.06
35949 H 1.9444254155193903 54.860336981217245 115.90030778378976 H 0.0 **** 0.06
35950 H 3.5728302466090156 55.011165644009054 116.60321843718496 H 0.0 **** 0.06
35951 C 116.56245184905696 29.784699266241915 66.36148010095138 C 0.0 **** -0.24
35952 H 116.92238989306252 30.466270707960803 65.59100138971928 H 0.0 **** 0.06
35953 H 116.4785981979186 28.77938418484362 65.94605174931013 H 0.0 **** 0.06
35954 H 115.58501708914336 30.11587271247369 66.71200102132423 H 0.0 **** 0.06
35955 H 117.26436560963812 29.77512113333475 67.1951147942226 H 0.0 **** 0.06
35956 C 117.22311825685946 72.6362250435979 133.45524670346194 C 0.0 **** -0.24
35957 H 116.75991079071056 73.28079313621407 132.7090394565791 H 0.0 **** 0.06
35958 H 118.17086664532465 72.25797442582652 133.07050784301703 H 0.0 **** 0.06
35959 H 116.56003238879092 71.79876604215664 133.67463009956677 H 0.0 **** 0.06
35960 H 117.40166429037882 73.20595233381815 134.36680667791325 H 0.0 **** 0.06
35961 C 21.27237473442895 46.953106530174296 141.18732780426438 C 0.0 **** -0.24
35962 H 21.89953580858426 46.49568844304018 140.42188533250737 H 0.0 **** 0.06
35963 H 20.30736589810627 47.21834244792326 140.75473982452655 H 0.0 **** 0.06
35964 H 21.76023600959462 47.849080434006424 141.56813029748736 H 0.0 **** 0.06
35965 H 21.121839710594458 46.245745672031575 142.00356082791453 H 0.0 **** 0.06
35966 C 91.14461389284205 37.035149434962584 97.99298763786192 C 0.0 **** -0.24
35967 H 90.89229048170878 36.902043456469734 96.94066012083971 H 0.0 **** 0.06
35968 H 91.28621240486044 38.09596859089465 98.19973643373021 H 0.0 **** 0.06
35969 H 92.06369796540108 36.494787577154995 98.21666366234501 H 0.0 **** 0.06
35970 H 90.33482322156416 36.649162974229505 98.61242287832363 H 0.0 **** 0.06
35971 C 147.40142902942117 50.97033543822826 58.07563079460209 C 0.0 **** -0.24
35972 H 147.5903779013431 49.91492527631027 57.88049960353213 H 0.0 **** 0.06
35973 H 147.992849781389 51.578628078811306 57.39117111874641 H 0.0 **** 0.06
35974 H 147.6785846074085 51.205465350290936 59.1032996116198 H 0.0 **** 0.06
35975 H 146.34266187902614 51.182201289639224 57.92821828579429 H 0.0 **** 0.06
35976 C 26.746731167183867 125.5148651849378 41.28099530611591 C 0.0 **** -0.24
35977 H 26.310849857060077 124.52795237652613 41.43416205142998 H 0.0 **** 0.06
35978 H 26.27626063183763 125.99089343088822 40.42009397349874 H 0.0 **** 0.06
35979 H 27.817740139446897 125.41494750615418 41.1012322162955 H 0.0 **** 0.06
35980 H 26.58275821422501 126.12550603861213 42.16920424747836 H 0.0 **** 0.06
35981 C 111.41842124475166 6.173764797510199 122.45497941285967 C 0.0 **** -0.24
35982 H 111.24541505008047 5.766674217608074 121.45943707279454 H 0.0 **** 0.06
35983 H 112.41944715006092 5.901156518867367 122.79025000746057 H 0.0 **** 0.06
35984 H 110.6803562422994 5.767846252121668 123.14643559567472 H 0.0 **** 0.06
35985 H 111.32846653656587 7.259382201443813 122.42379497550891 H 0.0 **** 0.06
35986 C 146.1521866874396 122.004544439534 21.041459482360175 C 0.0 **** -0.24
35987 H 147.1562716094919 122.41654050787612 21.132986128006678 H 0.0 **** 0.06
35988 H 145.51840067091973 122.4146584361467 21.828270329858107 H 0.0 **** 0.06
35989 H 146.19396734351838 120.91973818962386 21.136886125930978 H 0.0 **** 0.06
35990 H 145.73902937354563 122.2681073305916 20.067990885405834 H 0.0 **** 0.06
35991 C 0.6999480498183743 134.33465557754175 73.46472457345197 C 0.0 **** -0.24
35992 H 1.3766145940998626 133.667502349866 73.99692883233179 H 0.0 **** 0.06
35993 H -0.2777505131301723 133.86202315298414 73.37065759856833 H 0.0 **** 0.06
35994 H 1.0997076785879472 134.54259581339926 72.47238664237103 H 0.0 **** 0.06
35995 H 0.6007878162027396 135.26810373680897 74.01941934797318 H 0.0 **** 0.06
35996 C 140.33903556638106 82.45560913972336 112.54971749317701 C 0.0 **** -0.24
35997 H 139.87512314676664 83.43646052288621 112.6543517109364 H 0.0 **** 0.06
35998 H 140.4706344434683 82.2274620237037 111.4914622519646 H 0.0 **** 0.06
35999 H 139.70037842351817 81.70170391126655 113.00853052169037 H 0.0 **** 0.06
36000 H 141.3098398587713 82.459757628793 113.04505908244192 H 0.0 **** 0.06
36001 C 140.76262717823855 33.99395466709578 9.703097209356969 C 0.0 **** -0.24
36002 H 141.80362141801263 33.675264572226865 9.632356994563963 H 0.0 **** 0.06
36003 H 140.7173067098539 35.08262759612322 9.727155116351469 H 0.0 **** 0.06
36004 H 140.32126728579468 33.59072886757812 10.613518988594905 H 0.0 **** 0.06
36005 H 140.21211072986645 33.62548824854528 8.837445070590974 H 0.0 **** 0.06
36006 C 21.538222102833714 119.04921724033987 30.602509583988876 C 0.0 **** -0.24
36007 H 20.516059873709537 119.23680154195962 30.274727695001673 H 0.0 **** 0.06
36008 H 21.90564389234484 119.91246033551955 31.15724020689788 H 0.0 **** 0.06
36009 H 22.17281164065909 118.87970045025456 29.732081128552466 H 0.0 **** 0.06
36010 H 21.558245765777514 118.16865733910548 31.243886822551787 H 0.0 **** 0.06
36011 C 67.82336374382342 8.35274682441974 32.49564267120891 C 0.0 **** -0.24
36012 H 68.43628119044396 9.237658531389343 32.67072266805309 H 0.0 **** 0.06
36013 H 66.89746452986694 8.435412554683126 33.064054030901275 H 0.0 **** 0.06
36014 H 68.36865146185775 7.465064710001229 32.81417399401741 H 0.0 **** 0.06
36015 H 67.59177963303574 8.276471263677365 31.433006166080162 H 0.0 **** 0.06
36016 C 123.70438766289391 46.644660524848405 75.71113570428145 C 0.0 **** -0.24
36017 H 123.44037990843896 47.36725765638579 74.93952327376158 H 0.0 **** 0.06
36018 H 124.72944891831435 46.82204992442104 76.03782353385822 H 0.0 **** 0.06
36019 H 123.62073374297961 45.63565756200816 75.30746687487898 H 0.0 **** 0.06
36020 H 123.02799869727 46.75504363183805 76.55867509402312 H 0.0 **** 0.06
36021 C 147.38006404906207 132.4758928544121 12.01089928317316 C 0.0 **** -0.24
36022 H 146.75701794717634 132.40799846811245 11.119489520218366 H 0.0 **** 0.06
36023 H 147.78373429715313 133.48511654354866 12.096791002756532 H 0.0 **** 0.06
36024 H 148.1992186161441 131.76062477015523 11.936603603415278 H 0.0 **** 0.06
36025 H 146.77918264115965 132.2483657485845 12.891510117063916 H 0.0 **** 0.06
36026 C 59.87765001296955 136.81476871086906 34.9234753152231 C 0.0 **** -0.24
36027 H 60.80600742894467 137.36794104767532 35.06379044960627 H 0.0 **** 0.06
36028 H 60.02605273940236 136.0415335567412 34.16955123497988 H 0.0 **** 0.06
36029 H 59.09386723686049 137.49725785342682 34.59545610960393 H 0.0 **** 0.06
36030 H 59.58523194863551 136.35153292876564 35.86611935749059 H 0.0 **** 0.06
36031 C 97.68522786577188 41.35500328726738 106.45191063446386 C 0.0 **** -0.24
36032 H 96.95004270921935 41.05104345350861 107.19751087224556 H 0.0 **** 0.06
36033 H 97.17783265402282 41.581045958759944 105.51404748103978 H 0.0 **** 0.06
36034 H 98.39764454475159 40.54509443886383 106.29363671837486 H 0.0 **** 0.06
36035 H 98.21345512266673 42.24067472581879 106.80322745199483 H 0.0 **** 0.06
36036 C 43.073693460466274 52.94084115433124 71.18294420805057 C 0.0 **** -0.24
36037 H 43.67380173328186 52.3161554972999 70.52157263133618 H 0.0 **** 0.06
36038 H 43.67694627534186 53.774711501902715 71.54302725147542 H 0.0 **** 0.06
36039 H 42.730072855124405 52.34699642898275 72.03047110399281 H 0.0 **** 0.06
36040 H 42.212109716911385 53.32530219039887 70.63545565715958 H 0.0 **** 0.06
36041 C 126.79731920206831 61.285398279720695 15.949228386938216 C 0.0 **** -0.24
36042 H 127.73239169369936 60.8675239306035 16.323054509941244 H 0.0 **** 0.06
36043 H 126.22300495277909 61.690340613131184 16.781928393243362 H 0.0 **** 0.06
36044 H 126.22118573895423 60.50217527885141 15.456663220579884 H 0.0 **** 0.06
36045 H 127.01495957427056 62.08006394187173 15.236074396850483 H 0.0 **** 0.06
36046 C 102.91006332464572 66.42984688062484 107.95668348321126 C 0.0 **** -0.24
36047 H 103.75146014252188 65.86873393701464 107.5506623920181 H 0.0 **** 0.06
36048 H 102.95915276499706 67.46182733543993 107.60903559107194 H 0.0 **** 0.06
36049 H 102.95267519619286 66.41021124373363 109.04593422320457 H 0.0 **** 0.06
36050 H 101.97711321876459 65.97693366923497 107.62149070516776 H 0.0 **** 0.06
36051 C 128.77950726084427 74.23023546417755 75.26615978268097 C 0.0 **** -0.24
36052 H 127.7242561865643 73.98266603775322 75.15415975175529 H 0.0 **** 0.06
36053 H 129.14488953387308 73.84197955848146 76.21749656497713 H 0.0 **** 0.06
36054 H 128.903089723812 75.31291730672504 75.24443697036895 H 0.0 **** 0.06
36055 H 129.3466569676572 73.78330930088421 74.44966379552767 H 0.0 **** 0.06
36056 C 15.65361341719182 0.9493127234955523 9.799262330031617 C 0.0 **** -0.24
36057 H 15.83291204754579 0.7568177561037146 8.741597844775754 H 0.0 **** 0.06
36058 H 15.257463714865196 0.048902250887692844 10.270210233461107 H 0.0 **** 0.06
36059 H 14.932987208559268 1.7609224706145028 9.903593526729459 H 0.0 **** 0.06
36060 H 16.589311035531466 1.2300171054220073 10.280952517361314 H 0.0 **** 0.06
36061 C 38.973388887616295 142.84269655669675 142.71496768357616 C 0.0 **** -0.24
36062 H 38.33999346704087 143.72505223541478 142.63694782782576 H 0.0 **** 0.06
36063 H 39.047765737216935 142.3611882523405 141.7399203407959 H 0.0 **** 0.06
36064 H 38.539011592167924 142.14619406957547 143.43229964572163 H 0.0 **** 0.06
36065 H 39.9673896254302 143.1373554279613 143.05261127435418 H 0.0 **** 0.06
36066 C 99.06198440256799 71.45751697333263 88.63500058912973 C 0.0 **** -0.24
36067 H 98.88320305627062 70.79206874698926 89.47945625058833 H 0.0 **** 0.06
36068 H 98.80484890300491 72.478912027207 88.91697752230652 H 0.0 **** 0.06
36069 H 98.44640306720814 71.14725838919233 87.79084023503839 H 0.0 **** 0.06
36070 H 100.11477424779125 71.41161466779812 88.35326300240143 H 0.0 **** 0.06
36071 C 113.29756160965975 111.54455974918802 118.7365509719387 C 0.0 **** -0.24
36072 H 113.76212740000427 110.69543766651604 119.2374100177168 H 0.0 **** 0.06
36073 H 112.35105011645935 111.77978804457108 119.22211053065917 H 0.0 **** 0.06
36074 H 113.11785275038567 111.29455059486047 117.6900206557379 H 0.0 **** 0.06
36075 H 113.96079603553649 112.4075838786576 118.79534666587682 H 0.0 **** 0.06
36076 C 139.71592028236563 114.25940771444941 139.2796296776486 C 0.0 **** -0.24
36077 H 139.35074178587251 113.55830083517354 138.5295375014455 H 0.0 **** 0.06
36078 H 140.11891059280765 115.143290997438 138.78470174975413 H 0.0 **** 0.06
36079 H 140.4986214617145 113.78366072262214 139.87015751934985 H 0.0 **** 0.06
36080 H 138.8935718504381 114.55147872044505 139.93321524271332 H 0.0 **** 0.06
36081 C 57.662327179810404 59.423121491467526 113.20503189224623 C 0.0 **** -0.24
36082 H 57.138426943536615 59.204119523592425 114.13515776792686 H 0.0 **** 0.06
36083 H 56.93542125928457 59.641632893247504 112.4219290377025 H 0.0 **** 0.06
36084 H 58.26147531444337 58.56003712028348 112.91336187968615 H 0.0 **** 0.06
36085 H 58.312538766423756 60.285792770889 113.34863419564526 H 0.0 **** 0.06
36086 C 137.25370115602843 123.20613531298481 61.787368125724456 C 0.0 **** -0.24
36087 H 138.14304577792 123.37938682673236 62.39382881174426 H 0.0 **** 0.06
36088 H 137.00578515417965 124.11621808074968 61.24040786762512 H 0.0 **** 0.06
36089 H 136.42004652195072 122.93269323238844 62.435113375077435 H 0.0 **** 0.06
36090 H 137.44605531173153 122.39866404283127 61.0825969409572 H 0.0 **** 0.06
36091 C 102.65392736157125 33.32201491988968 125.74850158051507 C 0.0 **** -0.24
36092 H 102.2398395970481 32.460578057102 125.22563420194453 H 0.0 **** 0.06
36093 H 103.68296323338635 33.11017151972567 126.03969404212066 H 0.0 **** 0.06
36094 H 102.0592032465496 33.52688372654961 126.63883044781605 H 0.0 **** 0.06
36095 H 102.63344432634645 34.19124838065329 125.09035482047503 H 0.0 **** 0.06
36096 C 22.354276257934515 3.8376614165335923 145.7366478050073 C 0.0 **** -0.24
36097 H 21.53220335425536 3.124903696306177 145.8048612261279 H 0.0 **** 0.06
36098 H 22.230834097550172 4.4502166440451845 144.84354668554857 H 0.0 **** 0.06
36099 H 23.299118101897704 3.297248017850876 145.6798347045746 H 0.0 **** 0.06
36100 H 22.353850858345794 4.476668576056994 146.61983360752765 H 0.0 **** 0.06
36101 C 7.606120595776154 9.081545213357131 64.27926418427472 C 0.0 **** -0.24
36102 H 6.83991747942072 8.307047872157767 64.3121143384522 H 0.0 **** 0.06
36103 H 8.473418023992728 8.710007196540353 63.73373678133683 H 0.0 **** 0.06
36104 H 7.900884336885355 9.343904237875272 65.2957520565393 H 0.0 **** 0.06
36105 H 7.209550113157611 9.96327949435964 63.77676546614185 H 0.0 **** 0.06
36106 C 115.45248751023146 96.85983194832181 134.84206945680182 C 0.0 **** -0.24
36107 H 114.71768548096114 96.9150635126471 134.03890015060207 H 0.0 **** 0.06
36108 H 115.83508014249381 95.84153117328734 134.91317432842234 H 0.0 **** 0.06
36109 H 114.98254433229854 97.13823583944983 135.78518618151685 H 0.0 **** 0.06
36110 H 116.27517580739956 97.54261209675784 134.62994045200978 H 0.0 **** 0.06
36111 C 110.07021427112495 86.44798112603198 99.89327701723283 C 0.0 **** -0.24
36112 H 110.89398505465316 85.92094162907082 99.41178293387193 H 0.0 **** 0.06
36113 H 109.19270588353707 86.41746969196151 99.2473323065664 H 0.0 **** 0.06
36114 H 110.35712921314895 87.48473057502349 100.06960876595876 H 0.0 **** 0.06
36115 H 109.83900891158542 85.96783653885623 100.84484929057916 H 0.0 **** 0.06
36116 C 111.92865379821643 98.706954173464 141.6878649965382 C 0.0 **** -0.24
36117 H 112.95949624306297 98.36726433943869 141.78689097463084 H 0.0 **** 0.06
36118 H 111.2876924353285 97.85882355141376 141.44435624440277 H 0.0 **** 0.06
36119 H 111.86583429228381 99.45045747040626 140.89305366408266 H 0.0 **** 0.06
36120 H 111.60155326233036 99.15164153116592 142.62808725806113 H 0.0 **** 0.06
36121 C 69.27321980994324 143.2143586510846 1.7005650049945302 C 0.0 **** -0.24
36122 H 68.37207707927217 142.62678399832544 1.875248374606116 H 0.0 **** 0.06
36123 H 70.09189662369326 142.80965758218645 2.295888291066092 H 0.0 **** 0.06
36124 H 69.09264842528174 144.2509187301332 1.9876864295893313 H 0.0 **** 0.06
36125 H 69.53476536749757 143.1708523256562 0.6438485991281766 H 0.0 **** 0.06
36126 C 136.10686759379536 20.464911558631655 8.855246854713059 C 0.0 **** -0.24
36127 H 136.76881279467912 20.421023230142154 9.719512329501967 H 0.0 **** 0.06
36128 H 135.56257024322727 21.408969721560894 8.86125038131621 H 0.0 **** 0.06
36129 H 135.3992773381923 19.63651073652006 8.897645141735843 H 0.0 **** 0.06
36130 H 136.69767784605185 20.391308901879796 7.94163894269164 H 0.0 **** 0.06
36131 C 97.87113478653245 64.95015539544224 108.93176466256138 C 0.0 **** -0.24
36132 H 98.23485590314716 63.93028598005648 109.04929227801905 H 0.0 **** 0.06
36133 H 98.01461588154746 65.49771155289304 109.86387031891492 H 0.0 **** 0.06
36134 H 96.81064701652953 64.9311567541468 108.68065069799026 H 0.0 **** 0.06
36135 H 98.42414868349655 65.44325899665742 108.13193532208531 H 0.0 **** 0.06
36136 C 75.99110642460667 18.98751673760723 9.079583615025925 C 0.0 **** -0.24
36137 H 75.8944538395771 18.947204365738514 7.994404969994001 H 0.0 **** 0.06
36138 H 77.04417195550977 19.08157718929968 9.346834702122472 H 0.0 **** 0.06
36139 H 75.58575957711386 18.073281091663127 9.51351519093928 H 0.0 **** 0.06
36140 H 75.44040550379691 19.846816682303455 9.461720461846397 H 0.0 **** 0.06
36141 C 92.21527115375311 12.638619705282736 38.6938814195474 C 0.0 **** -0.24
36142 H 92.80523448013246 11.730032317017617 38.57437114126613 H 0.0 **** 0.06
36143 H 92.72807660019487 13.316918131923671 39.37650454854892 H 0.0 **** 0.06
36144 H 91.2370468884024 12.38469936252011 39.10110027692603 H 0.0 **** 0.06
36145 H 92.09163684949202 13.122016742087453 37.725423727055684 H 0.0 **** 0.06
36146 C 27.583579131853355 14.960767145528024 141.434101219081 C 0.0 **** -0.24
36147 H 27.991406040500294 14.523010470596972 142.3453283019957 H 0.0 **** 0.06
36148 H 26.49768719040162 14.861486636415947 141.43925778492036 H 0.0 **** 0.06
36149 H 27.99234587629053 14.441582398757163 140.5672578482704 H 0.0 **** 0.06
36150 H 27.852095332447277 16.015721029181663 141.3858953104701 H 0.0 **** 0.06
36151 C 131.57839556264838 19.904730121261707 116.22561445943852 C 0.0 **** -0.24
36152 H 131.76825880261973 18.899076242884092 116.60062606957958 H 0.0 **** 0.06
36153 H 130.91944729836467 20.431000898512337 116.91748063273691 H 0.0 **** 0.06
36154 H 131.1027616701939 19.843811740987007 115.2462529985677 H 0.0 **** 0.06
36155 H 132.52089478149705 20.445019693604337 116.13913400314048 H 0.0 **** 0.06
36156 C 49.89063906527056 64.78834227931907 30.634075467949273 C 0.0 **** -0.24
36157 H 49.81017862860321 64.0573427269949 29.829881936188784 H 0.0 **** 0.06
36158 H 48.96905420840258 65.36762861685655 30.691120853398544 H 0.0 **** 0.06
36159 H 50.728687147986165 65.45701286727537 30.433711813526415 H 0.0 **** 0.06
36160 H 50.055450414343426 64.27206433687137 31.579618579829685 H 0.0 **** 0.06
36161 C 11.71108610548778 93.54041876227672 38.08239415560006 C 0.0 **** -0.24
36162 H 11.599599335976762 94.23876629335547 37.25279972538217 H 0.0 **** 0.06
36163 H 12.770714742336608 93.36493847557063 38.27002765641571 H 0.0 **** 0.06
36164 H 11.225226465200173 92.59734444681851 37.83122539765367 H 0.0 **** 0.06
36165 H 11.248446312742232 93.95969433586464 38.97545679232964 H 0.0 **** 0.06
36166 C 122.50352549403634 104.76917339237048 24.65546476076974 C 0.0 **** -0.24
36167 H 121.75864403818629 105.53054138317418 24.423036493396502 H 0.0 **** 0.06
36168 H 122.73831389880804 104.80406095652029 25.71926490331939 H 0.0 **** 0.06
36169 H 123.40713746263462 104.95843106579792 24.07623387641054 H 0.0 **** 0.06
36170 H 122.10859098227708 103.78581734213043 24.40101225213401 H 0.0 **** 0.06
36171 C 37.51510549248182 7.967389749456885 103.75483093969953 C 0.0 **** -0.24
36172 H 37.16908360619141 7.749661911097888 102.7451241144567 H 0.0 **** 0.06
36173 H 36.66089276079174 8.221467462738985 104.38396501078799 H 0.0 **** 0.06
36174 H 38.209068291653494 8.807402097310671 103.72844220808562 H 0.0 **** 0.06
36175 H 38.01944683481753 7.091233536373238 104.16328609216325 H 0.0 **** 0.06
36176 C 66.30605761101505 122.88065589478357 64.26671850428856 C 0.0 **** -0.24
36177 H 67.08977017281025 122.74536008082676 65.0123881112044 H 0.0 **** 0.06
36178 H 66.57644840399334 123.69781837748512 63.59861091727545 H 0.0 **** 0.06
36179 H 65.36610228491146 123.11408931768305 64.7669707521017 H 0.0 **** 0.06
36180 H 66.19239611421663 121.96185268565624 63.69012569760274 H 0.0 **** 0.06
36181 C 113.27923415958475 75.25158908285516 63.319544460104424 C 0.0 **** -0.24
36182 H 112.54336412282066 76.05573895527993 63.31155948247513 H 0.0 **** 0.06
36183 H 114.27553453676325 75.6733011756431 63.45099003598449 H 0.0 **** 0.06
36184 H 113.23509034611516 74.71029981747414 62.3746303223443 H 0.0 **** 0.06
36185 H 113.06139740143288 74.56804030862108 64.14025738771915 H 0.0 **** 0.06
36186 C 123.9168823617523 59.548988644755724 101.03445762480312 C 0.0 **** -0.24
36187 H 124.89476328738243 60.00266181206662 100.87085119722425 H 0.0 **** 0.06
36188 H 123.38906423158699 59.46985556991628 100.08336219822726 H 0.0 **** 0.06
36189 H 123.3391502693089 60.16798511277236 101.72016051210802 H 0.0 **** 0.06
36190 H 124.04561460087575 58.55472672361634 101.46229723160361 H 0.0 **** 0.06
36191 C 40.91145255408301 2.7640060948169207 106.26001454303362 C 0.0 **** -0.24
36192 H 41.95563795711951 2.9999041810431777 106.46790263899346 H 0.0 **** 0.06
36193 H 40.2699055875448 3.5086968357373394 106.73194324703358 H 0.0 **** 0.06
36194 H 40.67599761788088 1.7765397311251832 106.65636491798033 H 0.0 **** 0.06
36195 H 40.74536599090217 2.772455962481729 105.18269641772922 H 0.0 **** 0.06
36196 C 44.06571520051594 58.87135058572193 10.035049917328735 C 0.0 **** -0.24
36197 H 43.99959558818918 59.80169285836439 10.598129747150324 H 0.0 **** 0.06
36198 H 44.629361879986135 59.04225525223595 9.118032202497517 H 0.0 **** 0.06
36199 H 43.063082765081134 58.524150871857216 9.787231415207287 H 0.0 **** 0.06
36200 H 44.57271696951821 58.11778970817613 10.63827849664088 H 0.0 **** 0.06
36201 C 147.20150740626227 98.16185000094242 121.37139467556052 C 0.0 **** -0.24
36202 H 146.64584107356944 98.2167589000737 122.30752309822132 H 0.0 **** 0.06
36203 H 148.1910666198719 97.7470756551306 121.56025770995409 H 0.0 **** 0.06
36204 H 147.30023715465748 99.16192821196805 120.94992169677421 H 0.0 **** 0.06
36205 H 146.66619403527568 97.52270669304778 120.66914762882725 H 0.0 **** 0.06
36206 C 75.32986760010613 73.0937636889378 61.806543128430434 C 0.0 **** -0.24
36207 H 76.12704676068098 73.81572921599397 61.98700002348258 H 0.0 **** 0.06
36208 H 75.1965885139728 72.96151059237675 60.73287405264193 H 0.0 **** 0.06
36209 H 74.40218347687443 73.46137343375378 62.24664513376459 H 0.0 **** 0.06
36210 H 75.59491327068642 72.13935861045846 62.26162798581777 H 0.0 **** 0.06
36211 C 95.49883827530134 150.24205575249354 0.3533523740563851 C 0.0 **** -0.24
36212 H 94.51248695447156 150.28590323451016 -0.10866706294822137 H 0.0 **** 0.06
36213 H 95.48527108640033 150.79579063848544 1.2925691336843137 H 0.0 **** 0.06
36214 H 96.23458550805337 150.68455922684365 -0.31893343193910084 H 0.0 **** 0.06
36215 H 95.76323974324863 149.20271469737423 0.5478144863828724 H 0.0 **** 0.06
36216 C 85.49169502579483 92.1993112121547 92.29951771590996 C 0.0 **** -0.24
36217 H 84.4576953705653 92.13297578178327 91.96336782281963 H 0.0 **** 0.06
36218 H 86.149498394856 92.28776733145281 91.43413064951173 H 0.0 **** 0.06
36219 H 85.74934212266504 91.30115610374689 92.8611153221769 H 0.0 **** 0.06
36220 H 85.6116727157433 93.0745685808835 92.93886067343925 H 0.0 **** 0.06
36221 C 118.68275552460246 125.88531930647511 35.73032225414221 C 0.0 **** -0.24
36222 H 119.559684340271 126.41013989872383 36.10910804479016 H 0.0 **** 0.06
36223 H 118.07364358220228 126.57396754837939 35.143744237953086 H 0.0 **** 0.06
36224 H 118.09735241345594 125.50545521275276 36.567008522987166 H 0.0 **** 0.06
36225 H 119.0008426118237 125.05465331631135 35.101091719812445 H 0.0 **** 0.06
36226 C 146.80822698946 39.757439054271856 148.32604158491702 C 0.0 **** -0.24
36227 H 146.31088358298348 40.268885515512224 149.15032099543328 H 0.0 **** 0.06
36228 H 146.1739276647556 38.94564133546396 147.96769346514986 H 0.0 **** 0.06
36229 H 147.75836473969525 39.35087298761083 148.67178969308236 H 0.0 **** 0.06
36230 H 146.9872791106247 40.46377592509111 147.51598911013772 H 0.0 **** 0.06
36231 C 35.36049196439866 66.89554160889152 21.18693150140564 C 0.0 **** -0.24
36232 H 34.943958216658395 67.90134371767078 21.241842707257433 H 0.0 **** 0.06
36233 H 36.21394550548405 66.81961520320687 21.86052240796795 H 0.0 **** 0.06
36234 H 35.68282107914791 66.69086308925624 20.166257160872192 H 0.0 **** 0.06
36235 H 34.59964791803438 66.17182652665271 21.479612741189158 H 0.0 **** 0.06
36236 C 30.308027517300303 52.67246170018075 144.3176833740264 C 0.0 **** -0.24
36237 H 29.81052298702315 51.74785528854352 144.61018415104414 H 0.0 **** 0.06
36238 H 30.11064532813657 52.87261501424433 143.26442822181343 H 0.0 **** 0.06
36239 H 31.38228599844004 52.57221381193767 144.47313293346573 H 0.0 **** 0.06
36240 H 29.9281816237542 53.49569318148082 144.9222034189438 H 0.0 **** 0.06
36241 C 109.2752508339302 91.57541205820903 94.45821822908158 C 0.0 **** -0.24
36242 H 109.19347485600379 90.8970444580397 93.60888285526357 H 0.0 **** 0.06
36243 H 108.57939843818936 92.40517234239645 94.32768908238302 H 0.0 **** 0.06
36244 H 110.29329745763984 91.95998070913335 94.51775392735487 H 0.0 **** 0.06
36245 H 109.03445019483651 91.03905114225589 95.37616077111642 H 0.0 **** 0.06
36246 C 147.84794912122217 23.658714345051692 96.06205367848747 C 0.0 **** -0.24
36247 H 147.5639434622285 22.94493996718313 95.28875334373413 H 0.0 **** 0.06
36248 H 148.69006232667974 23.263264042248807 96.63054546685942 H 0.0 **** 0.06
36249 H 147.00373950912768 23.82475372918151 96.73070867938654 H 0.0 **** 0.06
36250 H 148.13416025019765 24.60261708801636 95.59751917424978 H 0.0 **** 0.06
36251 C 11.819365342963067 108.15679947162918 17.097019614162406 C 0.0 **** -0.24
36252 H 10.99186877118899 108.78146928099453 17.435251166233492 H 0.0 **** 0.06
36253 H 12.333716422803548 107.73743210655319 17.961650437216825 H 0.0 **** 0.06
36254 H 12.51638809673642 108.76181906235179 16.517316195584314 H 0.0 **** 0.06
36255 H 11.434318339670085 107.34907498658826 16.47607084197103 H 0.0 **** 0.06
36256 C 7.746711688933587 58.52480378312137 47.83525649683742 C 0.0 **** -0.24
36257 H 6.828317325343413 57.99174215630376 48.08120482129674 H 0.0 **** 0.06
36258 H 8.499296937921514 58.322724188953714 48.59763486531838 H 0.0 **** 0.06
36259 H 7.545768202053495 59.5960029788225 47.79861605945689 H 0.0 **** 0.06
36260 H 8.112741296614082 58.19090152034609 46.86448150720804 H 0.0 **** 0.06
36261 C 59.30963913279663 124.86363519144682 80.02883946048298 C 0.0 **** -0.24
36262 H 58.27507349178333 124.60581538908632 79.8064967087864 H 0.0 **** 0.06
36263 H 59.520472180547046 125.86952257570597 79.66556341598523 H 0.0 **** 0.06
36264 H 59.97455703253351 124.15297022265237 79.53806459414425 H 0.0 **** 0.06
36265 H 59.46982442498174 124.82545666755503 81.1071091937424 H 0.0 **** 0.06
36266 C 8.96329989377881 1.017951576239824 45.03418575783695 C 0.0 **** -0.24
36267 H 9.691957859757025 1.8185998773674328 45.165629253246834 H 0.0 **** 0.06
36268 H 7.988083284112065 1.351770357741458 45.38754965164037 H 0.0 **** 0.06
36269 H 9.277512794825924 0.14458270105458837 45.60529128953523 H 0.0 **** 0.06
36270 H 8.897616294158098 0.7567628166177087 43.97721998774993 H 0.0 **** 0.06
36271 C 101.0278800690233 53.73640482056099 146.47611178432527 C 0.0 **** -0.24
36272 H 100.25310032338908 53.005684571689486 146.70545367079828 H 0.0 **** 0.06
36273 H 101.97369671171873 53.22172454753836 146.305684105858 H 0.0 **** 0.06
36274 H 101.13559697561175 54.42612933710228 147.31347768864867 H 0.0 **** 0.06
36275 H 100.74950105521248 54.29169878237407 145.58114073597892 H 0.0 **** 0.06
36276 C 142.59212488357775 72.3568079135383 135.9429588372397 C 0.0 **** -0.24
36277 H 142.80560555153713 72.40792661914578 137.01179393082654 H 0.0 **** 0.06
36278 H 142.42130234903527 73.36232912943375 135.55894813989147 H 0.0 **** 0.06
36279 H 141.70211939946145 71.74854760453827 135.78065316714253 H 0.0 **** 0.06
36280 H 143.43959972056902 71.90824635086457 135.42417523543216 H 0.0 **** 0.06
36281 C 8.507917595971634 98.88126835915433 52.23606324188208 C 0.0 **** -0.24
36282 H 9.311037229306038 99.2050106868447 51.573297612973136 H 0.0 **** 0.06
36283 H 7.753691270117514 98.34825828280015 51.65683064184529 H 0.0 **** 0.06
36284 H 8.055435364311336 99.75135859672143 52.711222449782866 H 0.0 **** 0.06
36285 H 8.914708821112328 98.21963508281362 53.00145714421345 H 0.0 **** 0.06
36286 C 83.16141087431701 48.30388410320725 37.11571989922237 C 0.0 **** -0.24
36287 H 82.70346265587244 49.06542326550752 37.747516578274656 H 0.0 **** 0.06
36288 H 84.14990234256199 48.057281087134996 37.50358722594126 H 0.0 **** 0.06
36289 H 83.25359052580993 48.6839339925515 36.09844193047587 H 0.0 **** 0.06
36290 H 82.5380064839327 47.41020891462216 37.11468197168773 H 0.0 **** 0.06
36291 C 26.95666513263761 101.78040028276445 148.67355562485562 C 0.0 **** -0.24
36292 H 26.163449202220953 101.0501742998048 148.51398439543652 H 0.0 **** 0.06
36293 H 26.536989512537104 102.68136413320666 149.119793181679 H 0.0 **** 0.06
36294 H 27.41886381957476 102.02827053780354 147.71711626040255 H 0.0 **** 0.06
36295 H 27.708932315396936 101.35906330985847 149.34130989814656 H 0.0 **** 0.06
36296 C 127.15667455420045 113.04532638443028 97.80189673909634 C 0.0 **** -0.24
36297 H 126.89481831064904 113.5550704776616 96.87436141698157 H 0.0 **** 0.06
36298 H 128.09222866604196 113.45234108474848 98.18773878350794 H 0.0 **** 0.06
36299 H 127.27478984579517 111.97882450810245 97.61061160001712 H 0.0 **** 0.06
36300 H 126.36419453362136 113.19742250192964 98.53473824707524 H 0.0 **** 0.06
36301 C 145.43292106851607 92.1117521492815 15.990188563172971 C 0.0 **** -0.24
36302 H 145.44194249161933 91.11326331380164 15.554134541092289 H 0.0 **** 0.06
36303 H 146.45156096185386 92.49861859918897 16.033945182937053 H 0.0 **** 0.06
36304 H 145.01825493820604 92.06586173064142 16.997725953636603 H 0.0 **** 0.06
36305 H 144.81924966204707 92.77117001215916 15.375904430946136 H 0.0 **** 0.06
36306 C 134.87853751070296 97.33349042823679 19.237577855133594 C 0.0 **** -0.24
36307 H 133.97799982404405 97.25090509766287 19.846679691501066 H 0.0 **** 0.06
36308 H 135.4833081077897 96.43459002397103 19.360293373209288 H 0.0 **** 0.06
36309 H 135.45316172561948 98.20392305977248 19.55448089321004 H 0.0 **** 0.06
36310 H 134.59927982016555 97.44385309501601 18.19039465314674 H 0.0 **** 0.06
36311 C 60.6325750999639 3.7271624196847597 27.822799155167246 C 0.0 **** -0.24
36312 H 61.68833395616197 3.45341095229071 27.805890003696987 H 0.0 **** 0.06
36313 H 60.04811419761511 2.893912079688789 28.212541117400406 H 0.0 **** 0.06
36314 H 60.30228600027756 3.9612942169295593 26.811034421353753 H 0.0 **** 0.06
36315 H 60.49421863117006 4.599219647117479 28.46117923682536 H 0.0 **** 0.06
36316 C 142.822254465398 134.0521393568408 46.57388270512044 C 0.0 **** -0.24
36317 H 143.61087309585932 134.75972751214593 46.316983581004564 H 0.0 **** 0.06
36318 H 143.206310048168 133.03487607481927 46.4919300213228 H 0.0 **** 0.06
36319 H 141.9836300280812 134.18061203998363 45.88931180402335 H 0.0 **** 0.06
36320 H 142.4896646296686 134.2335272505068 47.595621856611274 H 0.0 **** 0.06
36321 C 46.557071495950154 92.69318826710503 76.03588163109777 C 0.0 **** -0.24
36322 H 46.507271067629986 93.59056332991328 76.65287872210342 H 0.0 **** 0.06
36323 H 47.033482179308734 91.89073530727731 76.60046169479415 H 0.0 **** 0.06
36324 H 47.13909950603555 92.9012440374545 75.13845550571341 H 0.0 **** 0.06
36325 H 45.548916712871545 92.39049156417404 75.75389563557212 H 0.0 **** 0.06
36326 C 3.8491007616968886 37.56140388068536 70.08081824668768 C 0.0 **** -0.24
36327 H 3.038124055298738 37.76663799473141 70.77925450437601 H 0.0 **** 0.06
36328 H 3.7919001215686876 36.52253547026129 69.75459435578857 H 0.0 **** 0.06
36329 H 4.805369648747956 37.73583085534398 70.57404287242817 H 0.0 **** 0.06
36330 H 3.759966574613145 38.21955358558057 69.21705293529072 H 0.0 **** 0.06
36331 C 4.929331881383064 3.716858075732631 83.78066010264656 C 0.0 **** -0.24
36332 H 4.5832585262770635 4.630268840670027 84.26477631179347 H 0.0 **** 0.06
36333 H 5.520795641524501 3.1345015081801932 84.48766219503403 H 0.0 **** 0.06
36334 H 5.542427285892586 3.973401299045804 82.91682442598082 H 0.0 **** 0.06
36335 H 4.070256886196489 3.129974756040866 83.45564532689896 H 0.0 **** 0.06
36336 C 61.64664540509207 56.893604676027365 53.97457333894732 C 0.0 **** -0.24
36337 H 62.02624443741993 56.146415243139614 53.27712080560495 H 0.0 **** 0.06
36338 H 62.44603212258025 57.58759487672319 54.233995687719585 H 0.0 **** 0.06
36339 H 61.28859110822705 56.39801864829988 54.87784636088766 H 0.0 **** 0.06
36340 H 60.825351113889184 57.43976820615529 53.51074302085456 H 0.0 **** 0.06
36341 C 110.40189227613826 42.07751025331429 6.9477280287477825 C 0.0 **** -0.24
36342 H 111.2524442837643 41.402886091044394 6.85372281746384 H 0.0 **** 0.06
36343 H 110.73642872906885 43.105541100771845 6.803604906364875 H 0.0 **** 0.06
36344 H 109.962829822929 41.97300875660538 7.939590953041403 H 0.0 **** 0.06
36345 H 109.65581127979556 41.828658881121896 6.191758653339257 H 0.0 **** 0.06
36346 C 71.03965446120365 126.33581633333431 25.987723030234804 C 0.0 **** -0.24
36347 H 70.31790094050693 125.79003969284285 25.38009716315358 H 0.0 **** 0.06
36348 H 70.6946149675686 127.359687860965 26.129935222600636 H 0.0 **** 0.06
36349 H 72.00556571968907 126.34393360297484 25.48308254426007 H 0.0 **** 0.06
36350 H 71.14082415693072 125.8482195597248 26.957776943802287 H 0.0 **** 0.06
36351 C 87.3152545176449 137.3299235518351 72.02724261306855 C 0.0 **** -0.24
36352 H 86.78478643513763 136.3818160507085 71.94731632306264 H 0.0 **** 0.06
36353 H 88.36556724354088 137.141300869994 72.24941854611576 H 0.0 **** 0.06
36354 H 86.87483664295117 137.9259150984143 72.82754300201817 H 0.0 **** 0.06
36355 H 87.23477581393257 137.87149606431365 71.08424743325135 H 0.0 **** 0.06
36356 C 18.207176371924362 70.73186679033164 118.03556802947223 C 0.0 **** -0.24
36357 H 18.635501640705655 70.85832103132118 117.04103583339234 H 0.0 **** 0.06
36358 H 17.800202859812146 71.68292085374239 118.37915093861774 H 0.0 **** 0.06
36359 H 18.983145866905858 70.39735079200327 118.72434294610674 H 0.0 **** 0.06
36360 H 17.411161663906626 69.98790480572946 117.99591131078274 H 0.0 **** 0.06
36361 C 76.98564494691439 61.006151570653685 90.54948574694752 C 0.0 **** -0.24
36362 H 78.06038993222602 61.14071715944911 90.42699572408682 H 0.0 **** 0.06
36363 H 76.46602225843506 61.89710722371666 90.19655547145646 H 0.0 **** 0.06
36364 H 76.75715283567028 60.84583618687802 91.60357011240141 H 0.0 **** 0.06
36365 H 76.65962279844096 60.14158450680861 89.97192725932706 H 0.0 **** 0.06
36366 C 15.031700956608518 59.07827204801907 45.18001718109694 C 0.0 **** -0.24
36367 H 15.385540510336654 59.55855401008152 46.09160603887541 H 0.0 **** 0.06
36368 H 13.967581097937085 58.85739926536367 45.2752206511348 H 0.0 **** 0.06
36369 H 15.582093409206465 58.151543236812884 45.01976950418168 H 0.0 **** 0.06
36370 H 15.189767767619088 59.74621789545651 44.33293233686639 H 0.0 **** 0.06
36371 C 139.55617609103413 114.06072620110571 123.1806632993279 C 0.0 **** -0.24
36372 H 139.2512779901089 113.50243040161006 124.06542338455083 H 0.0 **** 0.06
36373 H 139.59205979099747 115.12511405786155 123.41655394824957 H 0.0 **** 0.06
36374 H 138.83679935628055 113.88968088205702 122.37897374226307 H 0.0 **** 0.06
36375 H 140.54235803592132 113.72499861643384 122.8608920953441 H 0.0 **** 0.06
36376 C 47.77762590667044 12.722949907649934 95.94249039276156 C 0.0 **** -0.24
36377 H 47.39658744322236 12.413409147293862 96.91532987893379 H 0.0 **** 0.06
36378 H 48.182186768675535 13.732705417638499 96.01509768551887 H 0.0 **** 0.06
36379 H 46.96723599958389 12.707570341334588 95.21401174891201 H 0.0 **** 0.06
36380 H 48.564493415200175 12.038114724332786 95.62552225768175 H 0.0 **** 0.06
36381 C 42.876486324632836 90.96371158274108 142.9515296765863 C 0.0 **** -0.24
36382 H 42.0495187772253 91.57550095177972 143.31091094820667 H 0.0 **** 0.06
36383 H 43.22811099015179 91.35346320653068 141.9954275336687 H 0.0 **** 0.06
36384 H 42.538590033184335 89.93478405956687 142.82328469126432 H 0.0 **** 0.06
36385 H 43.689725497969775 90.99109811308708 143.67649553320553 H 0.0 **** 0.06
36386 C 122.89717537770001 135.03489291444382 64.51654867906308 C 0.0 **** -0.24
36387 H 123.53990632610841 135.9027317179605 64.66131120825588 H 0.0 **** 0.06
36388 H 122.67337180427386 134.9222783449868 63.45495013739048 H 0.0 **** 0.06
36389 H 121.96824252337761 135.17302082909447 65.070218193541 H 0.0 **** 0.06
36390 H 123.40657150096858 134.14122231893242 64.87758739422458 H 0.0 **** 0.06
36391 C 67.3101445850308 109.36257097764896 87.27225757683144 C 0.0 **** -0.24
36392 H 67.8097588084947 108.41207744526959 87.0852812333645 H 0.0 **** 0.06
36393 H 66.69941085356002 109.27972039209057 88.17240959051838 H 0.0 **** 0.06
36394 H 66.67424264779496 109.61165661890247 86.42321722249343 H 0.0 **** 0.06
36395 H 68.0572480951834 110.14435098325474 87.40981068502816 H 0.0 **** 0.06
36396 C 59.92563770859502 74.09100732098096 21.431909341561777 C 0.0 **** -0.24
36397 H 59.451365205857286 74.63696739833023 22.24862578037022 H 0.0 **** 0.06
36398 H 59.75883147916258 73.0222941306858 21.565105693490295 H 0.0 **** 0.06
36399 H 60.996695355319204 74.29518168324739 21.432835802739135 H 0.0 **** 0.06
36400 H 59.495487810507996 74.4104197564217 20.48313791878769 H 0.0 **** 0.06
36401 C 84.1349153182901 0.7819891364009948 41.4148297663678 C 0.0 **** -0.24
36402 H 85.15973009130622 0.83859499723658 41.7806711410968 H 0.0 **** 0.06
36403 H 84.11860364535917 0.2541338675802223 40.45996416220943 H 0.0 **** 0.06
36404 H 83.74046272045643 1.7893720097258772 41.27988756644726 H 0.0 **** 0.06
36405 H 83.5204152225538 0.24481675403346514 42.13686780257575 H 0.0 **** 0.06
36406 C 118.77655799072578 147.4748811209819 46.15837752362279 C 0.0 **** -0.24
36407 H 118.64344002861544 146.8146664296225 47.01545666601106 H 0.0 **** 0.06
36408 H 118.80637172971048 146.88131852177716 45.24503309795301 H 0.0 **** 0.06
36409 H 119.71075259936775 148.025852992463 46.26691282896621 H 0.0 **** 0.06
36410 H 117.94460203655761 148.17731221637973 46.10888684943967 H 0.0 **** 0.06
36411 C 30.2250838077319 124.35832360293054 147.1755984254987 C 0.0 **** -0.24
36412 H 30.067477742683998 123.56476416283326 147.9063612083812 H 0.0 **** 0.06
36413 H 30.25333568604264 123.92790931881646 146.17444715397943 H 0.0 **** 0.06
36414 H 31.16930737602604 124.85985592443714 147.38348205061862 H 0.0 **** 0.06
36415 H 29.409072455881713 125.07790455544895 147.23933378939677 H 0.0 **** 0.06
36416 C 56.25016246388569 86.23715074430126 135.56493513406787 C 0.0 **** -0.24
36417 H 56.54024515153438 85.61170183345408 136.40817775357442 H 0.0 **** 0.06
36418 H 56.33182977397112 87.28683203585163 135.84663375182873 H 0.0 **** 0.06
36419 H 55.22010667037509 86.01512609088698 135.28583729639388 H 0.0 **** 0.06
36420 H 56.90735729042703 86.03577028151139 134.71937713596174 H 0.0 **** 0.06
36421 C 68.03746599828519 93.3188781845927 28.86744043565927 C 0.0 **** -0.24
36422 H 67.30968679587875 94.09203237843576 29.11217188085857 H 0.0 **** 0.06
36423 H 68.31635432851694 93.4012744395333 27.815828945511576 H 0.0 **** 0.06
36424 H 67.5999725666928 92.3373054332358 29.0511601526701 H 0.0 **** 0.06
36425 H 68.92411268245156 93.44413272290726 29.489442416597747 H 0.0 **** 0.06
36426 C 117.07786944310426 99.36672099966418 56.940860498311565 C 0.0 **** -0.24
36427 H 117.69422823555475 100.1515270253295 57.38085467182532 H 0.0 **** 0.06
36428 H 116.68397857507354 99.7099537834338 55.98417626220311 H 0.0 **** 0.06
36429 H 116.2515468223731 99.13426361265061 57.612827747322214 H 0.0 **** 0.06
36430 H 117.68296358095559 98.47448969016159 56.786074233387055 H 0.0 **** 0.06
36431 C 31.803849264442796 143.51997451642464 115.59222158754469 C 0.0 **** -0.24
36432 H 31.330137000821892 144.4035632719767 115.16424718050857 H 0.0 **** 0.06
36433 H 32.33140379796989 143.79758071407224 116.50524378295083 H 0.0 **** 0.06
36434 H 32.51190447760726 143.104522471175 114.87504385250512 H 0.0 **** 0.06
36435 H 31.042660178633703 142.77545254636928 115.8244384662456 H 0.0 **** 0.06
36436 C 11.848914269117302 49.90122613848038 101.40530467116723 C 0.0 **** -0.24
36437 H 11.01103174516956 50.53856640915808 101.68883202207003 H 0.0 **** 0.06
36438 H 12.229231537096524 49.38898922817165 102.28913814545491 H 0.0 **** 0.06
36439 H 12.63953911789585 50.51330682063892 100.97066793736555 H 0.0 **** 0.06
36440 H 11.514097038587693 49.16557561522038 100.67332840857408 H 0.0 **** 0.06
36441 C 88.5622028947295 88.90271373244997 70.07142838707396 C 0.0 **** -0.24
36442 H 89.07883728101325 89.51345014588257 69.33039501249455 H 0.0 **** 0.06
36443 H 87.6836726415244 88.44587289504888 69.61630476556584 H 0.0 **** 0.06
36444 H 88.25516244597665 89.52982465295896 70.90775278516044 H 0.0 **** 0.06
36445 H 89.23382226295456 88.12274443600865 70.42994728382693 H 0.0 **** 0.06
36446 C 11.80240991029126 138.39738589369944 78.36001106874005 C 0.0 **** -0.24
36447 H 12.108896200987552 139.325002630406 78.84430938399997 H 0.0 **** 0.06
36448 H 11.2936187321542 138.62742041946447 77.42386730872295 H 0.0 **** 0.06
36449 H 11.12702194834062 137.8501261106469 79.01790720631087 H 0.0 **** 0.06
36450 H 12.68284234898281 137.7881001452018 78.15448223701989 H 0.0 **** 0.06
36451 C 145.86343697270942 118.2761799613699 43.434101670407955 C 0.0 **** -0.24
36452 H 146.35311401232127 117.83213487108259 42.56755171235747 H 0.0 **** 0.06
36453 H 145.03854880296714 117.63708809713637 43.75109003963712 H 0.0 **** 0.06
36454 H 145.47918220607403 119.26110864702451 43.169594151663404 H 0.0 **** 0.06
36455 H 146.58265010859472 118.37199504139915 44.2477136360576 H 0.0 **** 0.06
36456 C 38.82117228939099 135.78626566998014 97.87341830187569 C 0.0 **** -0.24
36457 H 38.39832778354568 134.92768965091835 97.35081495107187 H 0.0 **** 0.06
36458 H 38.132571810932134 136.11067730972937 98.653712450884 H 0.0 **** 0.06
36459 H 38.97866644088579 136.59997610228618 97.16489558614268 H 0.0 **** 0.06
36460 H 39.77283488880158 135.50461349978366 98.32216964961498 H 0.0 **** 0.06
36461 C 66.15007604453407 139.36966617804472 62.09885800401685 C 0.0 **** -0.24
36462 H 65.20763567160398 138.9156293076681 62.40635463261776 H 0.0 **** 0.06
36463 H 66.71521414710315 139.6655811915864 62.9826394873773 H 0.0 **** 0.06
36464 H 65.94707365704703 140.24696837078778 61.484709508160165 H 0.0 **** 0.06
36465 H 66.72850211443496 138.64794968393608 61.521530461373914 H 0.0 **** 0.06
36466 C 113.5497885673105 21.639629734306027 36.90810950846411 C 0.0 **** -0.24
36467 H 112.8782975024378 22.486133178732985 36.76490284852367 H 0.0 **** 0.06
36468 H 113.15238343471869 20.988132379423917 37.6876105734855 H 0.0 **** 0.06
36469 H 114.53356207138599 22.00295060310441 37.20504909556245 H 0.0 **** 0.06
36470 H 113.63520048816794 21.081084174662124 35.976242496220294 H 0.0 **** 0.06
36471 C 90.20813220930377 116.08758581789749 51.64152905751101 C 0.0 **** -0.24
36472 H 89.29323838139565 116.51528285379828 52.050746588475775 H 0.0 **** 0.06
36473 H 89.9896609783849 115.6104664030475 50.68498425918463 H 0.0 **** 0.06
36474 H 90.6046956101075 115.34544436593353 52.33533022893842 H 0.0 **** 0.06
36475 H 90.94447640611436 116.87684878868197 51.49435017719614 H 0.0 **** 0.06
36476 C 52.909913014228664 127.67813024787998 43.35244248535875 C 0.0 **** -0.24
36477 H 53.88191248331913 127.63043432263825 43.84270526117584 H 0.0 **** 0.06
36478 H 52.121955754930184 127.67499145268327 44.105895208867224 H 0.0 **** 0.06
36479 H 52.790260679146854 126.81460298349589 42.69823574305465 H 0.0 **** 0.06
36480 H 52.84474307869806 128.59299948741247 42.762567348239116 H 0.0 **** 0.06
36481 C 126.33969649062291 117.36702214374716 41.35028275212687 C 0.0 **** -0.24
36482 H 125.4836850308345 117.01016511880127 41.92191277478372 H 0.0 **** 0.06
36483 H 126.23179265375754 118.43507680369655 41.161421725937146 H 0.0 **** 0.06
36484 H 126.39137989417961 116.83324109398504 40.401899358688695 H 0.0 **** 0.06
36485 H 127.25402155246675 117.18869499605049 41.91784390281066 H 0.0 **** 0.06
36486 C 116.86306770745632 96.59497241027529 33.653012321693296 C 0.0 **** -0.24
36487 H 117.39316931168712 95.6831340387723 33.926604222369065 H 0.0 **** 0.06
36488 H 116.05753495921486 96.77318491730867 34.36599676051714 H 0.0 **** 0.06
36489 H 116.44509334685945 96.48500618715101 32.652840180458625 H 0.0 **** 0.06
36490 H 117.55500399870827 97.43677773053756 33.66851841241761 H 0.0 **** 0.06
36491 C 5.149025805934446 89.24238337928674 137.92082616196544 C 0.0 **** -0.24
36492 H 5.720158706864865 89.01725389332667 137.02022835926465 H 0.0 **** 0.06
36493 H 4.350591806007511 88.50864248692976 138.03811635859907 H 0.0 **** 0.06
36494 H 4.717785420788793 90.23916520222176 137.8382964863049 H 0.0 **** 0.06
36495 H 5.809219604351043 89.2022990910006 138.7879080068045 H 0.0 **** 0.06
36496 C 136.45920413405912 56.001097218742586 6.450993424009432 C 0.0 **** -0.24
36497 H 135.78711785313038 56.85451432892003 6.356851088568487 H 0.0 **** 0.06
36498 H 136.49846864904868 55.684426986269074 7.4936859862490905 H 0.0 **** 0.06
36499 H 137.4572686846654 56.28699485415362 6.11986632288621 H 0.0 **** 0.06
36500 H 136.09262999748574 55.18017478877587 5.835634822767762 H 0.0 **** 0.06
36501 C 94.32047819952035 3.9006092976994786 125.13045397228161 C 0.0 **** -0.24
36502 H 93.68610876766792 3.9701578539471534 126.0136866023552 H 0.0 **** 0.06
36503 H 93.71086045218837 4.023279569577291 124.23552454985635 H 0.0 **** 0.06
36504 H 94.80723458412618 2.9259832657756952 125.10889535478769 H 0.0 **** 0.06
36505 H 95.07814045732462 4.684258868555929 125.16422941749023 H 0.0 **** 0.06
36506 C 110.98465891982484 139.90053373601182 122.56991266788187 C 0.0 **** -0.24
36507 H 110.79338235057408 139.15698502708506 121.79605668477156 H 0.0 **** 0.06
36508 H 112.05824770515555 139.98010261862635 122.73992851018154 H 0.0 **** 0.06
36509 H 110.49202705680689 139.5968511050914 123.49375150736692 H 0.0 **** 0.06
36510 H 110.59384213053288 140.86629600029633 122.2502269587561 H 0.0 **** 0.06
36511 C 83.57056651677193 65.77700771941528 103.93830167480931 C 0.0 **** -0.24
36512 H 84.46129785999527 65.311498877443 104.36113226101676 H 0.0 **** 0.06
36513 H 82.79741450192518 65.02203696960288 103.79946517760183 H 0.0 **** 0.06
36514 H 83.81756176075213 66.22522405227994 102.97574779916576 H 0.0 **** 0.06
36515 H 83.20794404469581 66.54945384767186 104.61578626551639 H 0.0 **** 0.06
36516 C 78.00039219204592 136.40051314002423 146.24874097676005 C 0.0 **** -0.24
36517 H 77.8645315064997 135.61295157012742 146.9907047039016 H 0.0 **** 0.06
36518 H 78.80585062213089 136.12375107732484 145.56895502619915 H 0.0 **** 0.06
36519 H 78.25295058722344 137.3330493847581 146.7528896390487 H 0.0 **** 0.06
36520 H 77.07682271787041 136.53126446931176 145.6850469197674 H 0.0 **** 0.06
36521 C 83.0416905451447 146.54836799303487 94.39180926306003 C 0.0 **** -0.24
36522 H 81.9735656727759 146.72207199197524 94.51974923707118 H 0.0 **** 0.06
36523 H 83.53795883213843 146.61185314872165 95.36082162095985 H 0.0 **** 0.06
36524 H 83.45448872196327 147.30255660823374 93.72269818255216 H 0.0 **** 0.06
36525 H 83.199635612194 145.55748530471482 93.96609300214928 H 0.0 **** 0.06
36526 C 1.8035206031553628 99.08971738465691 85.0089873965253 C 0.0 **** -0.24
36527 H 1.1035996167315147 98.93566491115216 84.18808977220763 H 0.0 **** 0.06
36528 H 1.2495243126546711 99.31252236357251 85.92043652048406 H 0.0 **** 0.06
36529 H 2.4641535917658928 99.92279781437051 84.77100945907301 H 0.0 **** 0.06
36530 H 2.3964455896185086 98.18685642218028 85.1544608251339 H 0.0 **** 0.06
36531 C 78.75471220682424 125.7011589937496 93.92135493149848 C 0.0 **** -0.24
36532 H 79.32825242910303 124.86062664585748 94.31269811490972 H 0.0 **** 0.06
36533 H 79.4275130099288 126.3952294514635 93.41623532645897 H 0.0 **** 0.06
36534 H 78.25427620627805 126.21277311240075 94.74295839683646 H 0.0 **** 0.06
36535 H 78.0117507961655 125.3354664722344 93.21373657033044 H 0.0 **** 0.06
36536 C 25.43941694307256 86.11008002754859 34.840968814444125 C 0.0 **** -0.24
36537 H 25.858003190043235 86.03758162932608 35.84483734377848 H 0.0 **** 0.06
36538 H 24.729271990784895 86.9357167608922 34.80220552809824 H 0.0 **** 0.06
36539 H 24.928929594805567 85.17955084806995 34.59298778194392 H 0.0 **** 0.06
36540 H 26.242349351066167 86.28587029025672 34.1254733254938 H 0.0 **** 0.06
36541 C 55.35100825100561 75.11665549607531 94.2538050603617 C 0.0 **** -0.24
36542 H 55.47180470213637 74.67343210519832 95.24138425353028 H 0.0 **** 0.06
36543 H 56.2854594029164 75.02786522221588 93.69876825623233 H 0.0 **** 0.06
36544 H 55.08802530213583 76.16944072014972 94.3577075721401 H 0.0 **** 0.06
36545 H 54.55873106253969 74.59607513806354 93.71595896071966 H 0.0 **** 0.06
36546 C 6.438461492742249 67.19390793877378 88.84264995371277 C 0.0 **** -0.24
36547 H 6.692563403564009 66.43102389714343 89.57860147700532 H 0.0 **** 0.06
36548 H 5.421248434482607 67.0288008985614 88.48505408222468 H 0.0 **** 0.06
36549 H 7.132326467671419 67.13649767838453 88.00468402397442 H 0.0 **** 0.06
36550 H 6.505641040037915 68.1797119271547 89.30351209262554 H 0.0 **** 0.06
36551 C 12.636229080786592 81.00934166887458 146.55506046173514 C 0.0 **** -0.24
36552 H 12.550403391174115 81.6736852684748 147.41524999678154 H 0.0 **** 0.06
36553 H 11.640952498281962 80.77452307922255 146.17628047579385 H 0.0 **** 0.06
36554 H 13.137201445248309 80.0894615763358 146.85578753120697 H 0.0 **** 0.06
36555 H 13.21597225674904 81.50002933624 145.77378399579933 H 0.0 **** 0.06
36556 C 133.71921981085086 124.69761410788537 49.353764801646335 C 0.0 **** -0.24
36557 H 133.5467692977064 124.52742416656987 50.416234409540124 H 0.0 **** 0.06
36558 H 134.6821946594875 124.27160263137917 49.06975213202672 H 0.0 **** 0.06
36559 H 133.72226513668986 125.76890407182046 49.153422564225295 H 0.0 **** 0.06
36560 H 132.9267144025397 124.22256678551052 48.77658055192816 H 0.0 **** 0.06
36561 C 10.982299081447053 7.624311299301475 3.334214431670773 C 0.0 **** -0.24
36562 H 11.081517202853718 8.548688716074139 2.765923477088762 H 0.0 **** 0.06
36563 H 11.665183882188721 7.645242237991155 4.183955424575771 H 0.0 **** 0.06
36564 H 11.225879803194623 6.776400515912577 2.6939728972251373 H 0.0 **** 0.06
36565 H 9.957637997519257 7.526839074405096 3.6920318275580826 H 0.0 **** 0.06
36566 C 71.46154568845802 144.6122879326908 80.35936071081204 C 0.0 **** -0.24
36567 H 72.37818909994579 145.17245973844143 80.17588081298867 H 0.0 **** 0.06
36568 H 70.8631286913795 144.58733199668964 79.44822471023531 H 0.0 **** 0.06
36569 H 70.8943335067473 145.09410426338349 81.1550452006637 H 0.0 **** 0.06
36570 H 71.71238397915172 143.59366464667846 80.65810022513762 H 0.0 **** 0.06
36571 C 96.49524439582777 24.5340875360927 85.48060989537458 C 0.0 **** -0.24
36572 H 96.338217112925 23.844330500281615 86.31093646495829 H 0.0 **** 0.06
36573 H 97.3966611494249 25.121113177889043 85.66205489541919 H 0.0 **** 0.06
36574 H 95.6369931630683 25.20086585127612 85.39563934305933 H 0.0 **** 0.06
36575 H 96.60987840142671 23.968242274464757 84.55608262847076 H 0.0 **** 0.06
36576 C 38.07425974981963 127.81354351111031 27.421135711043163 C 0.0 **** -0.24
36577 H 37.32205757577186 128.60003372340068 27.363572668471562 H 0.0 **** 0.06
36578 H 39.05461623997891 128.2602939875556 27.590117039322138 H 0.0 **** 0.06
36579 H 38.085779009828016 127.25378739300733 26.48581229883061 H 0.0 **** 0.06
36580 H 37.83458350973399 127.14105835363178 28.245006155399423 H 0.0 **** 0.06
36581 C 103.65266446734466 141.6570944036067 137.93171672218222 C 0.0 **** -0.24
36582 H 103.01174552731021 141.31435592258174 137.11925765355943 H 0.0 **** 0.06
36583 H 104.68005017197379 141.35173227931938 137.73694244384967 H 0.0 **** 0.06
36584 H 103.31426870062421 141.21910204998898 138.87027916319204 H 0.0 **** 0.06
36585 H 103.60266737573039 142.74418105925832 137.99983725304386 H 0.0 **** 0.06
36586 C 1.2007931740952245 48.56634281504209 76.91972053614575 C 0.0 **** -0.24
36587 H 1.9395485972032134 49.03150263987936 76.26727572204379 H 0.0 **** 0.06
36588 H 1.6955739863383315 47.84890301154887 77.57444304460073 H 0.0 **** 0.06
36589 H 0.45425322888416986 48.052779691032455 76.31444498992767 H 0.0 **** 0.06
36590 H 0.7150548652186899 49.33372480105231 77.52294080113018 H 0.0 **** 0.06
36591 C 123.57175158787466 135.59596836582625 97.68555386263151 C 0.0 **** -0.24
36592 H 123.29352924191095 136.04159348152393 98.64062195847421 H 0.0 **** 0.06
36593 H 122.78172239895774 134.920235802952 97.35609686734253 H 0.0 **** 0.06
36594 H 124.50180293718988 135.0405603112157 97.80023084422945 H 0.0 **** 0.06
36595 H 123.70776127654663 136.38416211437288 96.94425128875335 H 0.0 **** 0.06
36596 C 61.0643546387432 118.50857047967814 98.81120904187567 C 0.0 **** -0.24
36597 H 61.62815322934196 117.71747097171102 99.30681094491737 H 0.0 **** 0.06
36598 H 60.21575365330693 118.07331188489805 98.28296589178348 H 0.0 **** 0.06
36599 H 61.71004617299786 119.02442734676826 98.10043015662433 H 0.0 **** 0.06
36600 H 60.70377271701267 119.21844767447503 99.55621545917718 H 0.0 **** 0.06
36601 C 124.41041587413336 30.2953218980102 137.82297957202505 C 0.0 **** -0.24
36602 H 125.0052224642133 31.127551663275796 138.20072586011702 H 0.0 **** 0.06
36603 H 124.24683059824476 29.573824797245123 138.62336464725047 H 0.0 **** 0.06
36604 H 124.94093819438906 29.81324413295522 137.00230390361423 H 0.0 **** 0.06
36605 H 123.45009574032672 30.667822006211026 137.4663237206452 H 0.0 **** 0.06
36606 C 127.88344578365145 137.1662500237721 76.7679362106526 C 0.0 **** -0.24
36607 H 128.5632343024018 138.01694007032 76.8256643264946 H 0.0 **** 0.06
36608 H 127.46904239992904 136.9644323873397 77.75512257625613 H 0.0 **** 0.06
36609 H 128.42834178510634 136.29012472251884 76.41588181074306 H 0.0 **** 0.06
36610 H 127.0755277902764 137.39444454411105 76.07383952816863 H 0.0 **** 0.06
36611 C 44.15737948082689 140.84816459185572 73.05156220606395 C 0.0 **** -0.24
36612 H 44.07601871807482 140.98470634131115 74.12958550582596 H 0.0 **** 0.06
36613 H 44.031423631518436 141.8107649434719 72.55348162994042 H 0.0 **** 0.06
36614 H 43.3836922742276 140.1603945853137 72.71313357724509 H 0.0 **** 0.06
36615 H 45.13860493049593 140.439750306442 72.81049819383159 H 0.0 **** 0.06
36616 C 101.27587452702166 37.052280858040746 122.78506692507206 C 0.0 **** -0.24
36617 H 101.50230990094755 35.99424140538372 122.9204702359372 H 0.0 **** 0.06
36618 H 100.64694790041612 37.17858310848405 121.90439815300518 H 0.0 **** 0.06
36619 H 102.2050302329984 37.60775970218853 122.6521554337727 H 0.0 **** 0.06
36620 H 100.75134933355558 37.42577774749981 123.66413737313307 H 0.0 **** 0.06
36621 C 60.548944334344355 70.7308550581656 82.29311907590832 C 0.0 **** -0.24
36622 H 60.73596179044142 70.43635859601982 81.2602479299707 H 0.0 **** 0.06
36623 H 59.897861577741594 69.99577345523548 82.76820310291004 H 0.0 **** 0.06
36624 H 60.066631694320506 71.70779508465252 82.30982706340085 H 0.0 **** 0.06
36625 H 61.49425305940639 70.78245323818933 82.83253217750436 H 0.0 **** 0.06
36626 C 149.7923979022938 141.01505175173406 71.38753800757272 C 0.0 **** -0.24
36627 H 150.2245939996985 141.28813249350253 72.35031260883704 H 0.0 **** 0.06
36628 H 148.86558026971207 141.56902289176247 71.2361294174773 H 0.0 **** 0.06
36629 H 149.58421868300408 139.9456443171546 71.3735880641945 H 0.0 **** 0.06
36630 H 150.49574906367636 141.2593315435393 70.59153423437374 H 0.0 **** 0.06
36631 C 109.79214758416019 101.80445599778852 53.48254074834807 C 0.0 **** -0.24
36632 H 110.72202392930403 102.09002653031683 52.99030812810696 H 0.0 **** 0.06
36633 H 109.52516852189133 102.56201299578294 54.220147079793605 H 0.0 **** 0.06
36634 H 109.92357723941136 100.84277192771742 53.97864807901698 H 0.0 **** 0.06
36635 H 108.99777247957233 101.72399457381277 52.74004316451618 H 0.0 **** 0.06
36636 C 111.22825948023771 119.06933617319548 119.24512652636832 C 0.0 **** -0.24
36637 H 111.10004447700763 120.03703950597269 118.76070456538986 H 0.0 **** 0.06
36638 H 112.2497685985443 118.71927673702463 119.0915620414383 H 0.0 **** 0.06
36639 H 110.52988298794097 118.35220000253993 118.8142640713852 H 0.0 **** 0.06
36640 H 111.03551592159548 119.169314521982 120.31295690083414 H 0.0 **** 0.06
36641 C 106.17753960538694 19.30139428775557 3.1461013013814068 C 0.0 **** -0.24
36642 H 105.76847698184567 18.363378922112666 2.769884009076236 H 0.0 **** 0.06
36643 H 107.04155765601378 19.587610420467634 2.545580983053128 H 0.0 **** 0.06
36644 H 106.48219060189102 19.173683320341418 4.184413455948828 H 0.0 **** 0.06
36645 H 105.41707335221456 20.079924608357565 3.082452932869046 H 0.0 **** 0.06
36646 C 68.01794153055933 136.8018385675811 141.4938495675413 C 0.0 **** -0.24
36647 H 67.62377636033743 136.71270723977236 140.48121788140105 H 0.0 **** 0.06
36648 H 68.68432490707282 137.66334833434985 141.54895532842477 H 0.0 **** 0.06
36649 H 68.57081021721889 135.8983187608173 141.7487801806359 H 0.0 **** 0.06
36650 H 67.19378784815339 136.93423145914278 142.19455728176843 H 0.0 **** 0.06
36651 C 13.654854737574851 67.62586712282335 3.74393823112851 C 0.0 **** -0.24
36652 H 13.859407923865916 68.63007759465721 3.371981479168795 H 0.0 **** 0.06
36653 H 14.32557854245215 67.40353432583578 4.573925093375209 H 0.0 **** 0.06
36654 H 13.81268340128372 66.90354070688531 2.943423319957901 H 0.0 **** 0.06
36655 H 12.621627529101431 67.56962956508231 4.086352237205574 H 0.0 **** 0.06
36656 C 83.13216370139942 136.44499093436707 112.40627317013455 C 0.0 **** -0.24
36657 H 82.78216058343816 135.57309329886363 112.95832823193139 H 0.0 **** 0.06
36658 H 84.0417942334287 136.8273023937485 112.86911192844524 H 0.0 **** 0.06
36659 H 82.36256948078166 137.21752821944517 112.42286861043137 H 0.0 **** 0.06
36660 H 83.33977135568881 136.16164926723556 111.37425279342638 H 0.0 **** 0.06
36661 C 90.50241476725857 132.6349343564946 10.975148253135465 C 0.0 **** -0.24
36662 H 90.28626709637899 131.59084520208845 10.753663659962747 H 0.0 **** 0.06
36663 H 89.94636032061474 133.27455894019764 10.289205577150128 H 0.0 **** 0.06
36664 H 91.57037234153862 132.81772412963548 10.858084230116852 H 0.0 **** 0.06
36665 H 90.20702772088538 132.8581697116538 12.000294559493938 H 0.0 **** 0.06
36666 C 149.97254703228134 25.990473855538596 129.84719558020706 C 0.0 **** -0.24
36667 H 150.85720224978317 25.813226801985394 130.45924633907285 H 0.0 **** 0.06
36668 H 150.2531218453417 25.97899640145104 128.7931559272029 H 0.0 **** 0.06
36669 H 149.54510233913368 26.960079996360122 130.09934709873394 H 0.0 **** 0.06
36670 H 149.23718809844854 25.208418860234104 130.03571533812365 H 0.0 **** 0.06
36671 C 18.845478443532684 129.30139411625495 47.84115978421596 C 0.0 **** -0.24
36672 H 18.553418080971035 130.33590529766 48.021960358011256 H 0.0 **** 0.06
36673 H 19.364884783014347 128.91286201684503 48.716125657925375 H 0.0 **** 0.06
36674 H 19.50711067704345 129.25781630910748 46.975127277139336 H 0.0 **** 0.06
36675 H 17.955822105432816 128.7016813537352 47.64891336359187 H 0.0 **** 0.06
36676 C 101.70424369060659 44.948827886117 40.6284668134094 C 0.0 **** -0.24
36677 H 101.5088248882485 44.42627828793218 39.69192001667298 H 0.0 **** 0.06
36678 H 102.77950006888967 44.99259477583006 40.80284765692801 H 0.0 **** 0.06
36679 H 101.22327767836754 44.416109449376265 41.44894487722584 H 0.0 **** 0.06
36680 H 101.30433222871584 45.961266032604556 40.56913453118986 H 0.0 **** 0.06
36681 C 44.76536424302475 92.11956098352739 94.09728434115551 C 0.0 **** -0.24
36682 H 43.98665557054176 92.75071757285473 94.52455312966525 H 0.0 **** 0.06
36683 H 44.93978193576942 91.26555495172438 94.75231615401253 H 0.0 **** 0.06
36684 H 45.68486906380696 92.69482320934851 93.9976968165928 H 0.0 **** 0.06
36685 H 44.448335635392425 91.76613410088434 93.11539491952632 H 0.0 **** 0.06
36686 C 13.730977978361516 13.826186352709243 27.675998273508625 C 0.0 **** -0.24
36687 H 14.248688285391573 14.784028577251974 27.632320262782763 H 0.0 **** 0.06
36688 H 14.420690891763194 13.055492445226378 28.019049952533038 H 0.0 **** 0.06
36689 H 13.361432871677984 13.567933356437749 26.68308522318261 H 0.0 **** 0.06
36690 H 12.891645421611415 13.89782103373912 28.36827122747733 H 0.0 **** 0.06
36691 C 49.45621623924649 64.90124989401042 85.83793028560717 C 0.0 **** -0.24
36692 H 49.336187445889834 64.38014874079941 84.88853251251297 H 0.0 **** 0.06
36693 H 48.53749640087659 65.43578531004503 86.07841149712362 H 0.0 **** 0.06
36694 H 50.28028243933261 65.610152257136 85.76170826264661 H 0.0 **** 0.06
36695 H 49.672456222687 64.17640244089482 86.62358859001142 H 0.0 **** 0.06
36696 C 67.92806054345232 101.27678874068806 85.0615511081734 C 0.0 **** -0.24
36697 H 67.076992228568 101.83379333065218 84.67054078816312 H 0.0 **** 0.06
36698 H 67.98004296202215 101.40412546691002 86.14274519921585 H 0.0 **** 0.06
36699 H 68.84581054020498 101.65035025134003 84.60717435799936 H 0.0 **** 0.06
36700 H 67.81041954314776 100.21993768445677 84.82482367734764 H 0.0 **** 0.06
36701 C 84.79727959163326 114.55139684115703 29.277997956377703 C 0.0 **** -0.24
36702 H 85.00261422953193 115.34073090758584 28.554026998945915 H 0.0 **** 0.06
36703 H 85.40970823263306 114.7065226980189 30.16701070217937 H 0.0 **** 0.06
36704 H 85.03519642439417 113.58349599331 28.83661828012515 H 0.0 **** 0.06
36705 H 83.74360459488862 114.57675826761185 29.552521570509043 H 0.0 **** 0.06
36706 C 97.32144142838692 13.784711221222977 84.83722170112009 C 0.0 **** -0.24
36707 H 97.7721709921511 14.546645145187512 85.47345519117287 H 0.0 **** 0.06
36708 H 98.10344175996654 13.267034667643259 84.28097806662579 H 0.0 **** 0.06
36709 H 96.63117097712383 14.258086919397243 84.13841510058458 H 0.0 **** 0.06
36710 H 96.78010953555349 13.068977171090381 85.45497892884686 H 0.0 **** 0.06
36711 C 89.68216335135976 55.09860968001739 77.33039199653261 C 0.0 **** -0.24
36712 H 88.6415567081995 55.3437986248552 77.11798277109757 H 0.0 **** 0.06
36713 H 89.77653843888925 54.78992221901014 78.37164791568189 H 0.0 **** 0.06
36714 H 90.30478828941898 55.9755000626061 77.15400913812769 H 0.0 **** 0.06
36715 H 90.00404941466483 54.28654582624975 76.67905789349972 H 0.0 **** 0.06
36716 C 139.5891631626226 104.55003351960515 1.9568893300627295 C 0.0 **** -0.24
36717 H 140.1969137846637 103.81897435774796 1.4233837732112065 H 0.0 **** 0.06
36718 H 138.60829913368545 104.12342091528335 2.168107104728385 H 0.0 **** 0.06
36719 H 139.47279394035905 105.44265623887081 1.3416248366506451 H 0.0 **** 0.06
36720 H 140.07894751665253 104.81565578885692 2.8931844455856854 H 0.0 **** 0.06
36721 C 143.2205956296528 80.16792202329904 142.57396220834596 C 0.0 **** -0.24
36722 H 142.38229298880816 80.19388002351137 143.27107582568962 H 0.0 **** 0.06
36723 H 144.05940488598736 79.64779095393475 143.03536349416285 H 0.0 **** 0.06
36724 H 143.5163340439798 81.18638108031149 142.3241114766141 H 0.0 **** 0.06
36725 H 142.9212176405584 79.64305526385075 141.6662187285794 H 0.0 **** 0.06
36726 C 22.07777933465445 145.65985779489426 48.327973168221305 C 0.0 **** -0.24
36727 H 21.884684761825184 144.95184809625198 47.521904781642036 H 0.0 **** 0.06
36728 H 22.964763499381434 145.34747497394932 48.87980065512055 H 0.0 **** 0.06
36729 H 21.221304447007498 145.6844093778534 49.00175018713283 H 0.0 **** 0.06
36730 H 22.239822242503834 146.65246069379836 47.90890750586345 H 0.0 **** 0.06
36731 C 117.24809303991616 72.08303311431303 25.802967059634597 C 0.0 **** -0.24
36732 H 117.77242300223578 72.92660358992617 26.252904231882496 H 0.0 **** 0.06
36733 H 116.48671697137978 72.45413556105314 25.116143954444794 H 0.0 **** 0.06
36734 H 116.77514938991534 71.49070761033556 26.585988303472988 H 0.0 **** 0.06
36735 H 117.95960055235854 71.46325496703128 25.257878471286162 H 0.0 **** 0.06
36736 C 24.301313338267335 61.50295019687189 15.51545642523655 C 0.0 **** -0.24
36737 H 23.72922254160477 62.425930056828406 15.615535504900066 H 0.0 **** 0.06
36738 H 24.190131752210277 61.116121630300654 14.502163366549809 H 0.0 **** 0.06
36739 H 23.930543317747095 60.767642563262825 16.228508109333006 H 0.0 **** 0.06
36740 H 25.3537008612073 61.704510877215625 15.714401803655647 H 0.0 **** 0.06
36741 C 118.97177097274118 37.90694609094857 62.273486121791365 C 0.0 **** -0.24
36742 H 119.1098900825312 37.169206844880925 63.06424172205003 H 0.0 **** 0.06
36743 H 119.8647348247668 37.94225201173758 61.64954579739833 H 0.0 **** 0.06
36744 H 118.79883371387461 38.88762485006475 62.7178163986425 H 0.0 **** 0.06
36745 H 118.11201794278162 37.62765525069296 61.66349113776248 H 0.0 **** 0.06
36746 C 27.53744319047712 99.31472784039502 6.6529993156453315 C 0.0 **** -0.24
36747 H 27.007017677556036 99.13519644912986 7.587935529155914 H 0.0 **** 0.06
36748 H 27.327876359686258 100.32621787131441 6.304819548538433 H 0.0 **** 0.06
36749 H 27.2068764762559 98.59543399401343 5.903948930002912 H 0.0 **** 0.06
36750 H 28.609278725925407 99.20096556004148 6.816765093959702 H 0.0 **** 0.06
36751 C 112.52616322114427 77.56644162660538 81.33485641333425 C 0.0 **** -0.24
36752 H 113.46632275638287 77.12897680366197 80.999842922597 H 0.0 **** 0.06
36753 H 112.5884272334847 77.79105112426603 82.3992638636391 H 0.0 **** 0.06
36754 H 111.71424521872409 76.86107082875455 81.15851109988839 H 0.0 **** 0.06
36755 H 112.33568638020664 78.48567362390142 80.78007931714384 H 0.0 **** 0.06
36756 C 90.53743386666807 104.87197683393593 113.46468989500605 C 0.0 **** -0.24
36757 H 91.49759355317572 104.69263803392109 112.97974402524764 H 0.0 **** 0.06
36758 H 89.93151384261968 105.52710157003283 112.83826989911475 H 0.0 **** 0.06
36759 H 90.70295567370924 105.34491619416984 114.43245244825053 H 0.0 **** 0.06
36760 H 90.01958185060612 103.92372472829386 113.60723006999959 H 0.0 **** 0.06
36761 C 5.219827735583323 62.95219151737504 86.94193110968838 C 0.0 **** -0.24
36762 H 5.716593239165803 63.666957333868766 87.5976279355828 H 0.0 **** 0.06
36763 H 5.179330046565013 61.97833565686747 87.43059787802571 H 0.0 **** 0.06
36764 H 5.777163926567084 62.86747832225623 86.00846039913297 H 0.0 **** 0.06
36765 H 4.20734482732658 63.295262583139035 86.73149334821935 H 0.0 **** 0.06
36766 C 145.4251591899211 107.29206808102359 74.90178680410075 C 0.0 **** -0.24
36767 H 145.20163358044326 106.96217050891076 73.88682207145472 H 0.0 **** 0.06
36768 H 146.49837020451812 107.45527324230451 75.00253745783405 H 0.0 **** 0.06
36769 H 145.10556222927082 106.5285375435644 75.61019512076224 H 0.0 **** 0.06
36770 H 144.89574641319496 108.22267756811439 75.1054963211703 H 0.0 **** 0.06
36771 C 60.6151473061806 101.75926734000801 125.88039458443403 C 0.0 **** -0.24
36772 H 60.77141338743982 101.61408656039418 126.94992344512004 H 0.0 **** 0.06
36773 H 60.91837147741208 100.86057302327819 125.34344011341818 H 0.0 **** 0.06
36774 H 61.20998328512107 102.60571233547292 125.53915498860242 H 0.0 **** 0.06
36775 H 59.559934692712574 101.95657256402733 125.69192319103219 H 0.0 **** 0.06
36776 C 30.7248815736709 142.48293078673615 46.344594882173524 C 0.0 **** -0.24
36777 H 31.369727681477258 143.26760004777393 46.741907327016676 H 0.0 **** 0.06
36778 H 29.889439457153713 142.32048906224355 47.02674860215778 H 0.0 **** 0.06
36779 H 31.296436994136258 141.5601640407167 46.243153121938136 H 0.0 **** 0.06
36780 H 30.344903325676285 142.78497989454354 45.3693557831853 H 0.0 **** 0.06
36781 C 143.40477547909362 140.30777301241386 95.21609807408066 C 0.0 **** -0.24
36782 H 144.48358751377268 140.1639427174826 95.15940671328109 H 0.0 **** 0.06
36783 H 143.17763157131213 141.05968604482607 95.97215755488281 H 0.0 **** 0.06
36784 H 142.9259225002163 139.36656174051078 95.48340238770126 H 0.0 **** 0.06
36785 H 143.03265566184297 140.64337896451264 94.24758735789406 H 0.0 **** 0.06
36786 C 25.977941031234252 15.288069878070928 71.62222350051935 C 0.0 **** -0.24
36787 H 26.793609474136105 15.331814881106311 70.90084368938956 H 0.0 **** 0.06
36788 H 26.175692631293742 14.497882752225848 72.3474704550791 H 0.0 **** 0.06
36789 H 25.044122522731726 15.078779932969326 71.1013145243478 H 0.0 **** 0.06
36790 H 25.899020795545482 16.245031582283275 72.13911073780831 H 0.0 **** 0.06
36791 C 131.29329694630934 125.0885228422311 74.03513469878584 C 0.0 **** -0.24
36792 H 132.04668775241393 125.76224349116623 73.62697141788445 H 0.0 **** 0.06
36793 H 130.6785313966986 124.69670728204255 73.22494560930419 H 0.0 **** 0.06
36794 H 130.6628521317958 125.63275823052084 74.73936457333983 H 0.0 **** 0.06
36795 H 131.78494362140572 124.26342376271975 74.55095594388762 H 0.0 **** 0.06
36796 C 139.45403440709063 125.91985735966414 135.15114074472243 C 0.0 **** -0.24
36797 H 139.6001471077988 126.574489125672 136.01005331055788 H 0.0 **** 0.06
36798 H 140.03894618733045 126.29058107500258 134.3087324942688 H 0.0 **** 0.06
36799 H 138.39826840955024 125.90377807421005 134.88198452427915 H 0.0 **** 0.06
36800 H 139.78039656411593 124.91118030843258 135.4036715710308 H 0.0 **** 0.06
36801 C 49.19104561921958 99.42470615327818 138.930638839305 C 0.0 **** -0.24
36802 H 48.37084194382632 99.63527596945974 139.61789411526098 H 0.0 **** 0.06
36803 H 48.855293946530736 99.58240925151989 137.90594863636136 H 0.0 **** 0.06
36804 H 49.51085002157663 98.3899834671218 139.0536493633781 H 0.0 **** 0.06
36805 H 50.025676563308224 100.09122884732827 139.1467016745081 H 0.0 **** 0.06
36806 C 24.546408936653904 15.743687940447757 85.0162877531682 C 0.0 **** -0.24
36807 H 25.590801294083086 15.698006160120116 84.70842050111433 H 0.0 **** 0.06
36808 H 24.1698537810139 14.732678180884648 85.17348821255864 H 0.0 **** 0.06
36809 H 23.960029890665254 16.234159528904428 84.239063375739 H 0.0 **** 0.06
36810 H 24.46532371327563 16.310818334681613 85.94399989276677 H 0.0 **** 0.06
36811 C 148.80552417272264 124.01457659668928 143.2117642107435 C 0.0 **** -0.24
36812 H 148.56045198841554 125.06779472106574 143.0776386652184 H 0.0 **** 0.06
36813 H 148.55097123887714 123.4640829033266 142.30525826167107 H 0.0 **** 0.06
36814 H 148.23793781712328 123.61367217599617 144.05208372825803 H 0.0 **** 0.06
36815 H 149.8724764051891 123.91182397174101 143.411825069302 H 0.0 **** 0.06
36816 C 66.12444973306708 141.4526327146644 73.98758977506527 C 0.0 **** -0.24
36817 H 66.30137976802439 142.06184042799532 73.10036924825393 H 0.0 **** 0.06
36818 H 65.43248613147954 140.6466953135701 73.7413443779376 H 0.0 **** 0.06
36819 H 65.69517081548909 142.07322164806362 74.77397228987448 H 0.0 **** 0.06
36820 H 67.06796492998652 141.02972477829982 74.33256141639202 H 0.0 **** 0.06
36821 C 57.97452003744121 123.57821683389729 70.10781893251712 C 0.0 **** -0.24
36822 H 58.417912578963495 122.59178375951616 70.24385690313258 H 0.0 **** 0.06
36823 H 57.075612691302126 123.4912285077245 69.49758611335872 H 0.0 **** 0.06
36824 H 58.690549616363825 124.23251029924647 69.61138449008209 H 0.0 **** 0.06
36825 H 57.71462364789474 123.99601281379525 71.08124891293781 H 0.0 **** 0.06
36826 C 135.99298879684187 29.848672156506574 6.299382219851729 C 0.0 **** -0.24
36827 H 136.5472151712724 30.403405870089365 5.543370939451744 H 0.0 **** 0.06
36828 H 135.00009332254177 30.284061834895702 6.4139941949098365 H 0.0 **** 0.06
36829 H 136.52429396729525 29.900485311027857 7.2501475571702585 H 0.0 **** 0.06
36830 H 135.90060862597318 28.806841533593428 5.991725984744036 H 0.0 **** 0.06
36831 C 72.3428316759229 74.14365061837495 87.60035939201697 C 0.0 **** -0.24
36832 H 73.1815827876409 74.5535659512285 88.16240872409622 H 0.0 **** 0.06
36833 H 71.64602299280645 73.66250727098704 88.28618458569821 H 0.0 **** 0.06
36834 H 72.7113572900557 73.40991575447333 86.88253172857634 H 0.0 **** 0.06
36835 H 71.83384610845084 74.94760689955046 87.06897491538257 H 0.0 **** 0.06
36836 C 8.576445933302182 120.32376296530578 18.48435389662515 C 0.0 **** -0.24
36837 H 8.351594905931272 121.32597346130655 18.847788324059053 H 0.0 **** 0.06
36838 H 8.722269443161359 119.65389381191892 19.33293057381627 H 0.0 **** 0.06
36839 H 9.485011671383354 120.35057931234888 17.88246214490343 H 0.0 **** 0.06
36840 H 7.747865577999669 119.96359516769684 17.874484041731165 H 0.0 **** 0.06
36841 C 33.01542702563705 11.33753339256819 58.903700683623796 C 0.0 **** -0.24
36842 H 32.86328679348645 11.061032092318982 59.94702127910914 H 0.0 **** 0.06
36843 H 32.928329174798705 12.419237394286228 58.79904926349242 H 0.0 **** 0.06
36844 H 32.26162510981936 10.85013468378719 58.285476088941735 H 0.0 **** 0.06
36845 H 34.00823609351755 11.020063148478926 58.585455072206514 H 0.0 **** 0.06
36846 C 12.732315592078066 97.34457540698332 143.252547447322 C 0.0 **** -0.24
36847 H 13.694267570985687 97.28277602394151 143.7622794778854 H 0.0 **** 0.06
36848 H 12.30203903864367 96.34696081514022 143.16526804940702 H 0.0 **** 0.06
36849 H 12.873669544285576 97.7680040379462 142.2587005284346 H 0.0 **** 0.06
36850 H 12.05883395435103 97.98265327484877 143.82626921511917 H 0.0 **** 0.06
36851 C 69.29316488497335 70.54925652527805 57.564296637198424 C 0.0 **** -0.24
36852 H 70.11433370000174 70.40060314734916 58.26427975953885 H 0.0 **** 0.06
36853 H 69.63672208357806 71.1550723207456 56.72515588788036 H 0.0 **** 0.06
36854 H 68.47332201890187 71.05858608999046 58.069752386430025 H 0.0 **** 0.06
36855 H 68.94846925699848 69.58181467963863 57.19774824998751 H 0.0 **** 0.06
36856 C 84.81009704411244 115.24748649232957 148.06524883513413 C 0.0 **** -0.24
36857 H 83.94216033045632 114.94302516617994 148.6503553682568 H 0.0 **** 0.06
36858 H 84.99211968003397 116.31188344904989 148.2146923808504 H 0.0 **** 0.06
36859 H 84.62206586522761 115.05511964863997 147.00943269558712 H 0.0 **** 0.06
36860 H 85.68224651456521 114.67995224817368 148.38891787071705 H 0.0 **** 0.06
36861 C 42.20699286213909 48.00069646602745 51.690109604513424 C 0.0 **** -0.24
36862 H 43.01877372750175 47.702865351510155 51.026915880072636 H 0.0 **** 0.06
36863 H 42.57754432079213 48.064561589107285 52.71278223781624 H 0.0 **** 0.06
36864 H 41.40714217714333 47.26302551604675 51.638024278788464 H 0.0 **** 0.06
36865 H 41.824840660465895 48.973544127706816 51.38061225164371 H 0.0 **** 0.06
36866 C 40.845304897629575 116.43163931029444 126.8706554809483 C 0.0 **** -0.24
36867 H 41.83184449674843 116.0290265667836 126.63855179059557 H 0.0 **** 0.06
36868 H 40.337015642872416 115.7654880295044 127.56808074825848 H 0.0 **** 0.06
36869 H 40.26166660929228 116.51279067366006 125.95395582001413 H 0.0 **** 0.06
36870 H 40.95321536335315 117.41734593189928 127.321968264789 H 0.0 **** 0.06
36871 C 118.40380343670907 80.82284871490353 143.56894203947564 C 0.0 **** -0.24
36872 H 117.64494216326952 80.07253611141964 143.34522776377764 H 0.0 **** 0.06
36873 H 118.43997395691272 81.55431326448875 142.76090687156892 H 0.0 **** 0.06
36874 H 119.37501979243652 80.33887559263849 143.6650786135732 H 0.0 **** 0.06
36875 H 118.15236506444873 81.32468209146856 144.5029610258527 H 0.0 **** 0.06
36876 C 53.52859932237807 33.92618807264921 79.08472775398491 C 0.0 **** -0.24
36877 H 52.71207060148376 33.60492532222628 78.43847737116607 H 0.0 **** 0.06
36878 H 53.42742834998238 33.452681508791954 80.0611643589948 H 0.0 **** 0.06
36879 H 53.493715022400906 35.00945441161389 79.20113055864203 H 0.0 **** 0.06
36880 H 54.48066227521544 33.63899031627295 78.6383399532157 H 0.0 **** 0.06
36881 C 4.161331562684751 132.62259502221858 118.61738673530881 C 0.0 **** -0.24
36882 H 4.538761165314497 133.6009127155543 118.91690453506588 H 0.0 **** 0.06
36883 H 3.677347300300056 132.14355625196157 119.46916112775465 H 0.0 **** 0.06
36884 H 4.990906653045727 132.00330867766783 118.275711320025 H 0.0 **** 0.06
36885 H 3.4405427484666404 132.7429439237624 117.80872048417184 H 0.0 **** 0.06
36886 C 28.93162941619355 26.41998917060485 138.4455463381092 C 0.0 **** -0.24
36887 H 28.507564217412046 25.646501826867663 137.80433298622825 H 0.0 **** 0.06
36888 H 29.199612668379025 27.286374964702645 137.83991430685964 H 0.0 **** 0.06
36889 H 29.82148688989507 26.033211629490324 138.94172198917894 H 0.0 **** 0.06
36890 H 28.195866652266446 26.71352173305752 139.19423336980017 H 0.0 **** 0.06
36891 C 107.07008773822629 77.39138863385793 138.0000650493167 C 0.0 **** -0.24
36892 H 107.82063189002493 77.33342488450819 138.78894792843218 H 0.0 **** 0.06
36893 H 107.49251112109737 77.89997061436722 137.13322460650485 H 0.0 **** 0.06
36894 H 106.20481413969982 77.94703897723929 138.36221529084628 H 0.0 **** 0.06
36895 H 106.76230820903494 76.38393958311678 137.71748460477093 H 0.0 **** 0.06
36896 C 147.93494213641333 74.79926291793645 67.91281409263817 C 0.0 **** -0.24
36897 H 147.49748398138968 75.43073213625452 67.13933850605227 H 0.0 **** 0.06
36898 H 149.0119937469588 74.73281741914128 67.76154519429893 H 0.0 **** 0.06
36899 H 147.4969815448884 73.8023977624287 67.85702981027781 H 0.0 **** 0.06
36900 H 147.73122241065965 75.23175112273111 68.892235196744 H 0.0 **** 0.06
36901 C 25.351647136525827 111.03795721335416 87.17183971246025 C 0.0 **** -0.24
36902 H 25.1819127597093 111.87573597058781 87.84889548195045 H 0.0 **** 0.06
36903 H 25.421848943885927 111.40620224633165 86.14858765826776 H 0.0 **** 0.06
36904 H 24.52212387598871 110.33566038361317 87.24952355792392 H 0.0 **** 0.06
36905 H 26.27949145526663 110.5349610180304 87.442801338419 H 0.0 **** 0.06
36906 C 149.03019694652528 63.062946266928776 54.88807683248663 C 0.0 **** -0.24
36907 H 148.6653458803132 62.37609188486161 54.12522285268918 H 0.0 **** 0.06
36908 H 148.3154390417776 63.1047877608959 55.71019174253075 H 0.0 **** 0.06
36909 H 149.14735959525675 64.05649796301375 54.45613077018052 H 0.0 **** 0.06
36910 H 149.9922052064636 62.712311445976184 55.26140618040526 H 0.0 **** 0.06
36911 C 19.82413746708307 66.49303722983676 67.96071791030934 C 0.0 **** -0.24
36912 H 20.600139553726812 66.34806066380173 67.20855830542072 H 0.0 **** 0.06
36913 H 19.594745347533795 65.53897943845162 68.43488291787227 H 0.0 **** 0.06
36914 H 18.926616576290293 66.88765863896721 67.48391952924422 H 0.0 **** 0.06
36915 H 20.17551844158743 67.19865936102106 68.71280584556351 H 0.0 **** 0.06
36916 C 11.737204193079265 56.48017609398056 68.35975087379452 C 0.0 **** -0.24
36917 H 10.98809853141146 57.08621108846076 67.85060771044564 H 0.0 **** 0.06
36918 H 11.314201289132583 56.08028516962119 69.28237828946146 H 0.0 **** 0.06
36919 H 12.605230783857863 57.09623802410067 68.59517184030659 H 0.0 **** 0.06
36920 H 12.040349389723858 55.65721070691042 67.7129777895448 H 0.0 **** 0.06
36921 C 13.761311546511514 14.654642504205157 22.342991503068795 C 0.0 **** -0.24
36922 H 14.319612639989863 13.772058316042518 22.65561033467838 H 0.0 **** 0.06
36923 H 12.970843936797323 14.357530204867004 21.652482422970913 H 0.0 **** 0.06
36924 H 14.434494273585386 15.35363081090847 21.846949331148885 H 0.0 **** 0.06
36925 H 13.319561700069947 15.133239234086687 23.21698505312761 H 0.0 **** 0.06
36926 C 40.20339793810443 45.457848274491795 26.214582955584447 C 0.0 **** -0.24
36927 H 41.0665516755042 44.81042922950802 26.056925973923967 H 0.0 **** 0.06
36928 H 39.388793547317576 44.87779910955955 26.650025481083752 H 0.0 **** 0.06
36929 H 39.883173649592834 45.87498265201759 25.259788316632438 H 0.0 **** 0.06
36930 H 40.47603745697961 46.26799090489983 26.891410200046565 H 0.0 **** 0.06
36931 C 28.965825602779546 97.21604762033586 46.35440586931284 C 0.0 **** -0.24
36932 H 30.052881039330885 97.15170119473393 46.407467333147096 H 0.0 **** 0.06
36933 H 28.67115095169771 98.25299387208027 46.190595507057026 H 0.0 **** 0.06
36934 H 28.534516530645703 96.85907607157303 47.28987810207656 H 0.0 **** 0.06
36935 H 28.6055876432186 96.60135408260443 45.53033918528476 H 0.0 **** 0.06
36936 C 57.23970086416644 136.59628229247016 128.09546578655284 C 0.0 **** -0.24
36937 H 56.24517720757373 136.5967899831768 128.5419844707954 H 0.0 **** 0.06
36938 H 57.64539548858647 137.6073479143871 128.10841273922097 H 0.0 **** 0.06
36939 H 57.17463960223958 136.24415095425172 127.06567985832191 H 0.0 **** 0.06
36940 H 57.89221769707345 135.93343118169958 128.66508471776342 H 0.0 **** 0.06
36941 C 14.241158513767665 85.54179840672015 67.1348851456242 C 0.0 **** -0.24
36942 H 13.256129353712296 85.97284004878796 67.31168478458889 H 0.0 **** 0.06
36943 H 14.888758192756022 85.75337750561596 67.98648568046082 H 0.0 **** 0.06
36944 H 14.672407856359605 85.97841693964025 66.233689401524 H 0.0 **** 0.06
36945 H 14.148008407932778 84.46326000852926 67.00743528328579 H 0.0 **** 0.06
36946 C 33.40331969813873 102.85985645825033 109.02272444397808 C 0.0 **** -0.24
36947 H 33.92694191926907 103.35732107639424 108.20647742260554 H 0.0 **** 0.06
36948 H 32.35912247854496 103.17318326665978 109.02791845417282 H 0.0 **** 0.06
36949 H 33.86837884289653 103.13163480158292 109.97103771324826 H 0.0 **** 0.06
36950 H 33.45913734155067 101.78028405503906 108.8864259977159 H 0.0 **** 0.06
36951 C 35.8901744814238 16.903233324881903 67.68739647980742 C 0.0 **** -0.24
36952 H 34.89458573865252 16.924408515897518 67.24642927370074 H 0.0 **** 0.06
36953 H 35.84823989995559 17.305679148318582 68.69988665823003 H 0.0 **** 0.06
36954 H 36.568111304041224 17.507917509232094 67.08421224515591 H 0.0 **** 0.06
36955 H 36.252646136872215 15.875497254665689 67.71965129876028 H 0.0 **** 0.06
36956 C 99.16769359498541 88.33923222239 42.40574224013625 C 0.0 **** -0.24
36957 H 98.57116099858362 89.13109834545811 42.858245690019345 H 0.0 **** 0.06
36958 H 98.64158040605577 87.93759310803321 41.539733916213066 H 0.0 **** 0.06
36959 H 99.32919725263955 87.54486737067643 43.133854527691824 H 0.0 **** 0.06
36960 H 100.12986099237186 88.74430960882471 42.090877623657406 H 0.0 **** 0.06
36961 C 57.48397265428983 120.14186779394599 41.29298468629611 C 0.0 **** -0.24
36962 H 58.103284584109616 121.03339521333386 41.19801073395608 H 0.0 **** 0.06
36963 H 56.82406675843444 120.06467744004716 40.427700677122374 H 0.0 **** 0.06
36964 H 56.8854683668451 120.21063666132123 42.200917456012434 H 0.0 **** 0.06
36965 H 58.12192696877422 119.26031428326353 41.34379937865722 H 0.0 **** 0.06
36966 C 106.13728521671163 76.04089103303727 129.38694004244522 C 0.0 **** -0.24
36967 H 105.82449789102526 75.23058721946333 130.04473428564418 H 0.0 **** 0.06
36968 H 106.80602971217547 75.64969152470536 128.62019091118796 H 0.0 **** 0.06
36969 H 106.65732791125384 76.8015647562998 129.96962999805245 H 0.0 **** 0.06
36970 H 105.25991013750962 76.48328434290686 128.91401969830483 H 0.0 **** 0.06
36971 C 33.6526302653844 35.451697280609466 135.9979444436423 C 0.0 **** -0.24
36972 H 34.6335037797034 35.16379710701409 135.62058904510596 H 0.0 **** 0.06
36973 H 33.22407087101698 36.21666640757613 135.34903410260623 H 0.0 **** 0.06
36974 H 33.754148592982915 35.84740175091349 137.0079862483899 H 0.0 **** 0.06
36975 H 32.99858347848493 34.580082902079255 136.01289921228573 H 0.0 **** 0.06
36976 C 89.96673440655267 108.87166996894415 9.871853012755672 C 0.0 **** -0.24
36977 H 90.41171789359899 109.83429876958367 10.124297031783222 H 0.0 **** 0.06
36978 H 88.92695490723725 109.01777387475572 9.578415211554109 H 0.0 **** 0.06
36979 H 90.01108296057951 108.21307407966758 10.739029540188 H 0.0 **** 0.06
36980 H 90.51886396680129 108.42331192109937 9.045588218029557 H 0.0 **** 0.06
36981 C 10.192783499881223 138.9436573932013 65.07697287506076 C 0.0 **** -0.24
36982 H 9.709915773120414 139.67689057926333 65.72346986710347 H 0.0 **** 0.06
36983 H 11.217802390591224 138.7842355935007 65.41207951055557 H 0.0 **** 0.06
36984 H 10.19729927508412 139.31154641355712 64.05142535111996 H 0.0 **** 0.06
36985 H 9.644095685153836 138.00275585369823 65.12272734206125 H 0.0 **** 0.06
36986 C 40.89453265272661 82.51628335408127 138.3400241093449 C 0.0 **** -0.24
36987 H 40.622111140171526 82.90718720886055 137.36008066687057 H 0.0 **** 0.06
36988 H 40.711083059244814 83.27717013520424 139.0992645661709 H 0.0 **** 0.06
36989 H 41.951361991033025 82.2483306138344 138.3423871532975 H 0.0 **** 0.06
36990 H 40.295305295376764 81.63240090304201 138.5583171828042 H 0.0 **** 0.06
36991 C 130.13706580198016 3.5057849999914303 141.0146774963632 C 0.0 **** -0.24
36992 H 130.36743674304282 4.329702194035228 141.68985388703774 H 0.0 **** 0.06
36993 H 129.31810562210993 2.9171974211745315 141.42711578004472 H 0.0 **** 0.06
36994 H 131.0172433230856 2.8735877347671703 140.89910232715712 H 0.0 **** 0.06
36995 H 129.84493051634598 3.904222265611285 140.04312502709462 H 0.0 **** 0.06
36996 C 146.01345815157416 80.59871990451514 83.57589540663206 C 0.0 **** -0.24
36997 H 145.22882799697976 79.94746336388707 83.96169709340215 H 0.0 **** 0.06
36998 H 146.82205212518312 80.66360924957023 84.30487187500523 H 0.0 **** 0.06
36999 H 145.60497042317542 81.59205804486352 83.39552211116798 H 0.0 **** 0.06
37000 H 146.3987518719295 80.18781569342194 82.64245875630705 H 0.0 **** 0.06
37001 C 137.85205734739492 127.69058255152893 96.53104500367765 C 0.0 **** -0.24
37002 H 138.35718337957547 128.26578342052878 97.30779604570212 H 0.0 **** 0.06
37003 H 137.50198362212703 128.3658907647983 95.74940202830348 H 0.0 **** 0.06
37004 H 137.00240151568042 127.16406759819202 96.96444598864528 H 0.0 **** 0.06
37005 H 138.54794797973548 126.96864532477164 96.10287170081953 H 0.0 **** 0.06
37006 C 35.33603940585412 114.26355526190748 149.6003105822452 C 0.0 **** -0.24
37007 H 35.68131390964169 113.83217974370073 150.5396114627391 H 0.0 **** 0.06
37008 H 34.80722670034343 115.19586196176722 149.8015414660555 H 0.0 **** 0.06
37009 H 34.66240113043656 113.56397590728442 149.1047283895115 H 0.0 **** 0.06
37010 H 36.1922476413777 114.46241326523001 148.9554970841663 H 0.0 **** 0.06
37011 C 94.57645755799697 15.775082184200933 149.60661080003428 C 0.0 **** -0.24
37012 H 94.09918348325894 16.75206179567318 149.52738456283623 H 0.0 **** 0.06
37013 H 95.35412524268546 15.68852745490991 148.8482212500642 H 0.0 **** 0.06
37014 H 93.83057501356885 14.99465261271741 149.4532405683079 H 0.0 **** 0.06
37015 H 95.01948880802613 15.665509546074965 150.5959290466257 H 0.0 **** 0.06
37016 C 41.26223709571704 127.22010634298199 25.984715255755418 C 0.0 **** -0.24
37017 H 42.042726646756435 127.48272985301082 25.27044888804602 H 0.0 **** 0.06
37018 H 41.27344114613257 127.93083273904628 26.811690455540003 H 0.0 **** 0.06
37019 H 41.4426237500584 126.21523842480737 26.3668338412418 H 0.0 **** 0.06
37020 H 40.291704956496986 127.25286213744587 25.490922928935504 H 0.0 **** 0.06
37021 C 35.607728104300946 80.82632384481757 18.85314050034438 C 0.0 **** -0.24
37022 H 35.02390710729759 81.31101735113938 19.63505654306195 H 0.0 **** 0.06
37023 H 36.59462073318704 80.57231612074725 19.240402054749048 H 0.0 **** 0.06
37024 H 35.7133028102993 81.5049819287372 18.00545497465159 H 0.0 **** 0.06
37025 H 35.098480410758185 79.91843440400088 18.53005997014636 H 0.0 **** 0.06
37026 C 102.48477320984493 82.7328754135697 130.95345590140525 C 0.0 **** -0.24
37027 H 101.5928268290865 82.31659947844419 130.485695848657 H 0.0 **** 0.06
37028 H 102.38787717042422 83.81725772327376 131.02004198390628 H 0.0 **** 0.06
37029 H 103.36000715803105 82.48225131739134 130.3530380238773 H 0.0 **** 0.06
37030 H 102.59958473315116 82.3152764336904 131.95431350024145 H 0.0 **** 0.06
37031 C 52.561666908234244 138.245067635463 12.137926883355902 C 0.0 **** -0.24
37032 H 53.127104285321764 137.81800816539106 12.966196323994012 H 0.0 **** 0.06
37033 H 52.5430642277465 137.538757549186 11.308552752685415 H 0.0 **** 0.06
37034 H 53.03574842007444 139.17237959905262 11.814791057900038 H 0.0 **** 0.06
37035 H 51.54196629745343 138.45172634571966 12.462568713292995 H 0.0 **** 0.06
37036 C 10.533358081442088 105.93004984729777 143.040873525638 C 0.0 **** -0.24
37037 H 9.616586406493859 105.79337127463486 143.6136161501371 H 0.0 **** 0.06
37038 H 10.489778805265317 105.32300726289202 142.13574718756868 H 0.0 **** 0.06
37039 H 11.387954096119095 105.62324438632714 143.64385324547436 H 0.0 **** 0.06
37040 H 10.63838399641331 106.98051234474178 142.7690673584587 H 0.0 **** 0.06
37041 C 69.95360592847916 80.42881142916445 57.674440050226124 C 0.0 **** -0.24
37042 H 69.5902711732223 80.01315372926405 58.61393671945376 H 0.0 **** 0.06
37043 H 70.01877876459179 79.63673967766944 56.92729990986989 H 0.0 **** 0.06
37044 H 70.94061868526455 80.86611182914102 57.82803593332844 H 0.0 **** 0.06
37045 H 69.26487230934075 81.20023358206191 57.32849441145244 H 0.0 **** 0.06
37046 C 111.4893825597786 89.22860907409037 36.86504060996208 C 0.0 **** -0.24
37047 H 112.33431509450072 89.34551457916817 36.18671208786776 H 0.0 **** 0.06
37048 H 111.40774176555011 90.11236992346241 37.498618594705135 H 0.0 **** 0.06
37049 H 111.6417956649437 88.34743479422687 37.48713912821046 H 0.0 **** 0.06
37050 H 110.57256098003138 89.1109450490508 36.286504622569794 H 0.0 **** 0.06
37051 C 108.7112433790777 52.13654196600697 50.986809698603935 C 0.0 **** -0.24
37052 H 108.65478278338549 52.32940825158826 52.05881172031505 H 0.0 **** 0.06
37053 H 108.39778926508075 53.026012181443804 50.44155224818826 H 0.0 **** 0.06
37054 H 108.05453686238707 51.30352259886584 50.733369731964586 H 0.0 **** 0.06
37055 H 109.73680951953281 51.885787983018616 50.71679489192516 H 0.0 **** 0.06
37056 C 123.48409334332264 138.57625171276717 3.266179394173065 C 0.0 **** -0.24
37057 H 122.45375062328965 138.27080653020582 3.079860691761297 H 0.0 **** 0.06
37058 H 124.1377814331584 138.12334141116415 2.5204142556300724 H 0.0 **** 0.06
37059 H 123.78484589340782 138.24773316289983 4.260747606618736 H 0.0 **** 0.06
37060 H 123.55773445896561 139.66120866952392 3.204156740991067 H 0.0 **** 0.06
37061 C 146.36181953097002 36.37170263595178 51.16591000197501 C 0.0 **** -0.24
37062 H 145.85116967091113 35.63304254280655 50.54749873350596 H 0.0 **** 0.06
37063 H 146.21956349722336 36.12502069700278 52.217804819015825 H 0.0 **** 0.06
37064 H 145.9494509195848 37.360781555294665 50.96445396983407 H 0.0 **** 0.06
37065 H 147.4264915322412 36.367956068403714 50.93225859973515 H 0.0 **** 0.06
37066 C 54.92400326981773 63.00521073757679 10.952297902593727 C 0.0 **** -0.24
37067 H 55.322964197228416 61.99466721809628 11.043711687627535 H 0.0 **** 0.06
37068 H 55.33771170845776 63.47909297633905 10.061432884039277 H 0.0 **** 0.06
37069 H 55.199065582931624 63.58538884803315 11.832981477560935 H 0.0 **** 0.06
37070 H 53.838009073905695 62.96160734317726 10.869341067566296 H 0.0 **** 0.06
37071 C 79.85274198850465 128.9907706949766 44.974514198337886 C 0.0 **** -0.24
37072 H 80.91820262017849 129.2231652675859 44.96171047491197 H 0.0 **** 0.06
37073 H 79.71339525157465 127.9429123058329 45.23962502889816 H 0.0 **** 0.06
37074 H 79.42902773446372 129.17688564241232 43.98837329173989 H 0.0 **** 0.06
37075 H 79.35302403473354 129.6214989489083 45.70972866984414 H 0.0 **** 0.06
37076 C 148.7345326876494 71.71390501508594 109.8302671259263 C 0.0 **** -0.24
37077 H 148.28144387024884 70.80556598691905 109.43034301076261 H 0.0 **** 0.06
37078 H 147.9502730510477 72.39694644510521 110.15770068755921 H 0.0 **** 0.06
37079 H 149.33455506027923 72.19109283365552 109.05590455249745 H 0.0 **** 0.06
37080 H 149.3710772724017 71.45845410491174 110.67796361753284 H 0.0 **** 0.06
37081 C 114.69218903785016 110.60556247615465 106.80064040674718 C 0.0 **** -0.24
37082 H 115.76641218945976 110.45830645822447 106.68834715315266 H 0.0 **** 0.06
37083 H 114.16571196578091 109.71676504990874 106.45185173630078 H 0.0 **** 0.06
37084 H 114.38028235668996 111.4675696813134 106.21178367773585 H 0.0 **** 0.06
37085 H 114.45717082841905 110.77757155281584 107.85099834639318 H 0.0 **** 0.06
37086 C 131.56390236828872 76.60891070093395 5.2014372980794406 C 0.0 **** -0.24
37087 H 132.4690920523827 76.27994534264081 4.69211139831026 H 0.0 **** 0.06
37088 H 131.53093181222667 76.17370990643045 6.2005497626779515 H 0.0 **** 0.06
37089 H 130.69030457395894 76.28608215421768 4.635407179524179 H 0.0 **** 0.06
37090 H 131.56528103458646 77.69590540044696 5.277680851805485 H 0.0 **** 0.06
37091 C 35.090550955436704 125.93060068935404 78.36907079327202 C 0.0 **** -0.24
37092 H 34.34115180253894 126.12120777643287 77.60115132196698 H 0.0 **** 0.06
37093 H 34.5942969428695 125.65361466975554 79.30008811058703 H 0.0 **** 0.06
37094 H 35.68449491455322 126.83142937755088 78.52791909383605 H 0.0 **** 0.06
37095 H 35.74192447707486 125.11761140528677 78.04906231489878 H 0.0 **** 0.06
37096 C 135.1262680711378 27.05311873245722 62.47409182815866 C 0.0 **** -0.24
37097 H 136.02853984411385 27.328814885152383 63.02040380816615 H 0.0 **** 0.06
37098 H 134.35109941824052 27.79837895137888 62.65300593304727 H 0.0 **** 0.06
37099 H 134.77899278265951 26.077208274681993 62.81512581494181 H 0.0 **** 0.06
37100 H 135.3482568462427 27.00682927376681 61.407439685962686 H 0.0 **** 0.06
37101 C 71.35682605103102 144.79991984319363 10.495701495516016 C 0.0 **** -0.24
37102 H 70.9783826980107 145.1876216190093 11.440887933004888 H 0.0 **** 0.06
37103 H 70.6476939810147 145.02770384551997 9.69933683639971 H 0.0 **** 0.06
37104 H 71.48533083219412 143.72057647177917 10.571423748144866 H 0.0 **** 0.06
37105 H 72.316568671508 145.26578047762894 10.270425034408959 H 0.0 **** 0.06
37106 C 83.01805466968891 94.48756788113413 9.212326327880255 C 0.0 **** -0.24
37107 H 82.78985878085727 94.17581758953027 10.231165788325924 H 0.0 **** 0.06
37108 H 82.99592769823346 93.6201040676509 8.553665287517134 H 0.0 **** 0.06
37109 H 84.0100350815875 94.93992863518015 9.184719400657151 H 0.0 **** 0.06
37110 H 82.2771590649074 95.21576705726135 8.881369881419083 H 0.0 **** 0.06
37111 C 95.4203121830203 113.40082253547804 5.013089169167216 C 0.0 **** -0.24
37112 H 96.25494815230269 112.7257375238264 5.202497496002735 H 0.0 **** 0.06
37113 H 95.70966162018495 114.4180329711502 5.279052241367907 H 0.0 **** 0.06
37114 H 94.56327511528629 113.09689314837219 5.61352888359238 H 0.0 **** 0.06
37115 H 95.15618049782111 113.36299215349673 3.956312090459818 H 0.0 **** 0.06
37116 C 24.596411183075304 122.42123055575578 12.073225208534375 C 0.0 **** -0.24
37117 H 25.183715194574745 123.3252901543465 11.91264276382148 H 0.0 **** 0.06
37118 H 25.231004564968316 121.64852202259672 12.50948811057961 H 0.0 **** 0.06
37119 H 24.19998213590219 122.07124743517195 11.120895300517049 H 0.0 **** 0.06
37120 H 23.771441663218127 122.63940633680883 12.751116858643186 H 0.0 **** 0.06
37121 C 123.31020789471675 17.852242340378098 92.99017987416906 C 0.0 **** -0.24
37122 H 122.51499223801129 17.146023486306717 92.75192483229375 H 0.0 **** 0.06
37123 H 124.02890424771606 17.87943536722173 92.1710562084478 H 0.0 **** 0.06
37124 H 123.8133679069232 17.536272114593658 93.90479583426162 H 0.0 **** 0.06
37125 H 122.88386399682234 18.844550918857806 93.13377308955677 H 0.0 **** 0.06
37126 C 113.07789929558514 121.90414632705479 66.17505174730644 C 0.0 **** -0.24
37127 H 113.79258182181225 121.68934488813063 65.38024879608668 H 0.0 **** 0.06
37128 H 112.50200889717787 122.79227425118064 65.91395494334631 H 0.0 **** 0.06
37129 H 113.61386431030571 122.07980757439442 67.10828438021764 H 0.0 **** 0.06
37130 H 112.40403361423309 121.05676841753912 66.29644845634363 H 0.0 **** 0.06
37131 C 10.325777927098237 84.5803271137546 96.3701595693687 C 0.0 **** -0.24
37132 H 9.833749042920417 85.51483964176231 96.10099718947862 H 0.0 **** 0.06
37133 H 11.316731805081304 84.79378735822007 96.77074241532205 H 0.0 **** 0.06
37134 H 10.418628675400079 83.95141778472174 95.4847741864034 H 0.0 **** 0.06
37135 H 9.732689698271052 84.06164323703041 97.12305986543714 H 0.0 **** 0.06
37136 C 86.03676090782726 146.993298180024 19.85039784711944 C 0.0 **** -0.24
37137 H 85.41779245816423 147.788537315269 19.43435184150775 H 0.0 **** 0.06
37138 H 87.04562990206671 147.06872121899974 19.445028643362036 H 0.0 **** 0.06
37139 H 85.6092492814083 146.02534827492096 19.587157830008152 H 0.0 **** 0.06
37140 H 86.07190555907468 147.09227514076656 20.935305168831178 H 0.0 **** 0.06
37141 C 130.9086934351532 6.247669242264255 47.13571173964341 C 0.0 **** -0.24
37142 H 130.96301864009183 5.2651063999866885 46.667693052101384 H 0.0 **** 0.06
37143 H 130.0742409843246 6.269540102903147 47.837361433592136 H 0.0 **** 0.06
37144 H 130.75942390452155 7.007561139511864 46.36817579782185 H 0.0 **** 0.06
37145 H 131.83711095062688 6.448297678920042 47.669724477913164 H 0.0 **** 0.06
37146 C 114.07706374074941 5.426761727654146 62.66897254347681 C 0.0 **** -0.24
37147 H 113.81885619653049 5.607469714515894 61.62523790600167 H 0.0 **** 0.06
37148 H 113.6070899811793 4.501450856394204 63.00378290731787 H 0.0 **** 0.06
37149 H 113.72328891380845 6.256249563174805 63.28036255488615 H 0.0 **** 0.06
37150 H 115.15940152257939 5.339618116786806 62.76563903948977 H 0.0 **** 0.06
37151 C 123.32325504532669 26.18504484345698 22.07458814889739 C 0.0 **** -0.24
37152 H 124.24994827399986 25.63226640822819 21.915263938713764 H 0.0 **** 0.06
37153 H 122.49518932804814 25.484085907488236 22.17297600850415 H 0.0 **** 0.06
37154 H 123.14287700309434 26.844195066539612 21.22493924561482 H 0.0 **** 0.06
37155 H 123.40776631592782 26.779893636643692 22.984028768658007 H 0.0 **** 0.06
37156 C 139.08471325883212 119.24624411969401 129.61699656470864 C 0.0 **** -0.24
37157 H 139.39298739518355 118.23147068430458 129.36210349623872 H 0.0 **** 0.06
37158 H 139.95462291423442 119.90277591623916 129.60927221877532 H 0.0 **** 0.06
37159 H 138.63463035083532 119.24915247277383 130.60976663062337 H 0.0 **** 0.06
37160 H 138.35598600919587 119.59844414949018 128.88595465765005 H 0.0 **** 0.06
37161 C 98.60494423679897 135.41921832180535 100.63859039627513 C 0.0 **** -0.24
37162 H 99.6805380531683 135.5566125294295 100.75111270501392 H 0.0 **** 0.06
37163 H 98.10066874154617 135.74511044814275 101.54897387278923 H 0.0 **** 0.06
37164 H 98.38955704259351 134.36579886579497 100.46125097838181 H 0.0 **** 0.06
37165 H 98.24985563422975 136.0102853848185 99.79512596293257 H 0.0 **** 0.06
37166 C 69.62375860972747 24.79887027782945 71.54395919244892 C 0.0 **** -0.24
37167 H 68.72982710607249 25.197875733310724 72.02262982334216 H 0.0 **** 0.06
37168 H 70.50456107024372 25.303981226563707 71.94097865794937 H 0.0 **** 0.06
37169 H 69.56434210328597 24.964211017668447 70.46763737841255 H 0.0 **** 0.06
37170 H 69.69577836512126 23.72998417861038 71.74340874196872 H 0.0 **** 0.06
37171 C 95.1871765141271 5.40402992043056 101.62241812013092 C 0.0 **** -0.24
37172 H 95.75320864454427 5.5088129215778565 100.69692926209828 H 0.0 **** 0.06
37173 H 94.201623639767 4.994490709819132 101.40073218598704 H 0.0 **** 0.06
37174 H 95.07833611593554 6.3813149674567455 102.09306575975262 H 0.0 **** 0.06
37175 H 95.71692057995527 4.732638227805836 102.29727355409347 H 0.0 **** 0.06
37176 C 81.10671122545344 142.7284374739341 11.271852554518738 C 0.0 **** -0.24
37177 H 80.62143422929023 141.79785553824718 10.976805105301409 H 0.0 **** 0.06
37178 H 82.09705050175634 142.78154403550897 10.819012279256683 H 0.0 **** 0.06
37179 H 81.20149083815284 142.75891470916775 12.357462733165697 H 0.0 **** 0.06
37180 H 80.5057990575772 143.57338247104718 10.934929687644967 H 0.0 **** 0.06
37181 C 99.23322825344142 75.57188535525232 30.531211366345907 C 0.0 **** -0.24
37182 H 99.08321026158814 76.58898859499682 30.89181231827763 H 0.0 **** 0.06
37183 H 98.70836869181142 74.87454545991372 31.18401837293824 H 0.0 **** 0.06
37184 H 100.29827987245632 75.34002972375008 30.53191727067562 H 0.0 **** 0.06
37185 H 98.8433161387528 75.48464821732657 29.517791583858724 H 0.0 **** 0.06
37186 C 62.01555758187459 17.453290860032887 85.09719811227062 C 0.0 **** -0.24
37187 H 60.96175546626853 17.480889041760314 84.8186124821461 H 0.0 **** 0.06
37188 H 62.11037036057911 17.596587400672824 86.17412483482696 H 0.0 **** 0.06
37189 H 62.54977380685767 18.248908457374313 84.57610482461709 H 0.0 **** 0.06
37190 H 62.43988274265581 16.488872784945166 84.81930714169083 H 0.0 **** 0.06
37191 C 41.380804064676795 41.441556863568266 64.94133968617355 C 0.0 **** -0.24
37192 H 42.135865477874404 41.140650876446784 64.21464418147286 H 0.0 **** 0.06
37193 H 40.524695249147584 41.8681709402793 64.41932188532417 H 0.0 **** 0.06
37194 H 41.80247040307975 42.18523997317038 65.6179735880223 H 0.0 **** 0.06
37195 H 41.060916354829914 40.570052557195396 65.51343549876435 H 0.0 **** 0.06
37196 C 65.91608581119485 19.853879355621267 0.5297364642094919 C 0.0 **** -0.24
37197 H 65.30616832818862 19.0789631419606 0.9921215237098977 H 0.0 **** 0.06
37198 H 65.29090678386582 20.470483458994273 -0.11643616363349452 H 0.0 **** 0.06
37199 H 66.70574190294276 19.39091733408886 -0.06243067735448449 H 0.0 **** 0.06
37200 H 66.36171208765894 20.47667837866824 1.3064913449715618 H 0.0 **** 0.06
37201 C 58.914398633018976 32.438911630259184 69.99680060460099 C 0.0 **** -0.24
37202 H 57.98530048834766 32.621848281734856 70.53619311997602 H 0.0 **** 0.06
37203 H 59.6598731634804 33.17508458269913 70.2958082217433 H 0.0 **** 0.06
37204 H 58.73263943503267 32.520009464079436 68.92494602817374 H 0.0 **** 0.06
37205 H 59.27794911005711 31.438297355580545 70.22868111993074 H 0.0 **** 0.06
37206 C 72.9882663430371 29.8267648953329 135.66747313774772 C 0.0 **** -0.24
37207 H 73.39902964960687 30.831247661625326 135.76816749063474 H 0.0 **** 0.06
37208 H 73.62929416685002 29.1177268012098 136.19067364215587 H 0.0 **** 0.06
37209 H 72.93463825101065 29.55973770949666 134.61182451689814 H 0.0 **** 0.06
37210 H 71.98729342452847 29.799948309218507 136.09996317205818 H 0.0 **** 0.06
37211 C 19.757382097864756 16.499067023920077 109.46173597356784 C 0.0 **** -0.24
37212 H 19.705841322947023 17.544698586383078 109.7670877534594 H 0.0 **** 0.06
37213 H 20.375050792473694 15.944981815207399 110.1686047393415 H 0.0 **** 0.06
37214 H 20.194433244282003 16.43371024122783 108.46578505250778 H 0.0 **** 0.06
37215 H 18.752484038961896 16.075862269805526 109.44653237306858 H 0.0 **** 0.06
37216 C 120.27224068371531 139.47060079001292 70.05083554621157 C 0.0 **** -0.24
37217 H 119.24541968875398 139.83371206286225 70.0965010543137 H 0.0 **** 0.06
37218 H 120.95683711074018 140.2906971944019 70.27039454086074 H 0.0 **** 0.06
37219 H 120.47684102217316 139.08336852125174 69.05255083458147 H 0.0 **** 0.06
37220 H 120.40943129756981 138.67552639987179 70.78390917333547 H 0.0 **** 0.06
37221 C 128.92732567665465 36.25205130379892 48.58332560740887 C 0.0 **** -0.24
37222 H 129.6006709463483 37.001147727930984 48.16801471265916 H 0.0 **** 0.06
37223 H 128.5150594662846 35.64618037232923 47.77587808387574 H 0.0 **** 0.06
37224 H 128.11605706874266 36.74792664669086 49.11565947741164 H 0.0 **** 0.06
37225 H 129.47770742842053 35.61249267992459 49.272882097860546 H 0.0 **** 0.06
37226 C 95.32079243929032 117.74747674650246 80.62465535887638 C 0.0 **** -0.24
37227 H 95.70526084743037 118.46084278032981 81.35361724282585 H 0.0 **** 0.06
37228 H 94.63291990572894 118.25471287259512 79.94851679614668 H 0.0 **** 0.06
37229 H 94.79564871213736 116.94510099936889 81.1443839115122 H 0.0 **** 0.06
37230 H 96.14968465319073 117.3296416562963 80.05488351644539 H 0.0 **** 0.06
37231 C 118.02780002652437 31.791987748367376 43.94368216864258 C 0.0 **** -0.24
37232 H 117.20387142653973 32.40692626954632 43.581127657103835 H 0.0 **** 0.06
37233 H 117.86166651428417 30.754139648813236 43.65301654839854 H 0.0 **** 0.06
37234 H 118.08022094826677 31.860653448779544 45.030825028449 H 0.0 **** 0.06
37235 H 118.96287007193271 32.146338499586705 43.511301556217674 H 0.0 **** 0.06
37236 C 136.37911739998793 142.29745950213498 95.35211191807775 C 0.0 **** -0.24
37237 H 137.1515737353961 141.82651465799546 94.74347189532315 H 0.0 **** 0.06
37238 H 135.3976196541498 142.0496166465137 94.9482535656184 H 0.0 **** 0.06
37239 H 136.51620776711988 143.37873335551507 95.3400053661306 H 0.0 **** 0.06
37240 H 136.45375485355245 141.93364359951732 96.37684052581952 H 0.0 **** 0.06
37241 C 4.8291098601524425 48.74859665168191 69.74818903654585 C 0.0 **** -0.24
37242 H 3.864433803042033 49.23457061360605 69.59810925612557 H 0.0 **** 0.06
37243 H 5.196011644875 48.971647187628164 70.75014863123647 H 0.0 **** 0.06
37244 H 5.540129268984202 49.11838535093298 69.009460264553 H 0.0 **** 0.06
37245 H 4.714069582793599 47.670656060085676 69.63402992100984 H 0.0 **** 0.06
37246 C 37.7228501608218 117.13183496005826 23.48936049931274 C 0.0 **** -0.24
37247 H 37.92285499492797 117.0814977254559 24.55953324329812 H 0.0 **** 0.06
37248 H 37.607195059123335 116.12307909605528 23.093005877183714 H 0.0 **** 0.06
37249 H 38.55540024994582 117.62657608761941 22.987574580946955 H 0.0 **** 0.06
37250 H 36.80791345541877 117.69844825152876 23.31750977419972 H 0.0 **** 0.06
37251 C 36.76946500153355 103.81476595156956 143.94826667831666 C 0.0 **** -0.24
37252 H 37.17873033715307 104.43164858849401 143.1480053496758 H 0.0 **** 0.06
37253 H 37.490749616912694 103.04161044611037 144.2157056516676 H 0.0 **** 0.06
37254 H 35.84455533158018 103.34805450486759 143.61083672072334 H 0.0 **** 0.06
37255 H 36.56574060639815 104.43860500676023 144.81929293163262 H 0.0 **** 0.06
37256 C 134.1383329524254 114.10872506458797 140.51813290407208 C 0.0 **** -0.24
37257 H 134.65041101287443 113.67030657552947 139.66240998122208 H 0.0 **** 0.06
37258 H 133.60008166790965 113.3296995727457 141.05834983590435 H 0.0 **** 0.06
37259 H 133.43195803803698 114.86438771238444 140.1712366541444 H 0.0 **** 0.06
37260 H 134.8690996403318 114.57208879727047 141.18110318121404 H 0.0 **** 0.06
37261 C 7.7970310208491185 85.00585081462808 1.9603638332928313 C 0.0 **** -0.24
37262 H 8.189593411630767 85.94851070774844 1.579948856891832 H 0.0 **** 0.06
37263 H 7.950392980010605 84.95804775294009 3.0386956369792344 H 0.0 **** 0.06
37264 H 8.318674906184498 84.17647991869529 1.4824976745308334 H 0.0 **** 0.06
37265 H 6.731586532192381 84.94083533204774 1.7408313899528984 H 0.0 **** 0.06
37266 C 144.9782358967538 102.54992116378756 76.03310274169894 C 0.0 **** -0.24
37267 H 144.08608605694485 103.08429564354418 75.70684968648177 H 0.0 **** 0.06
37268 H 144.7806111757282 102.06300035624929 76.98782262915277 H 0.0 **** 0.06
37269 H 145.802229861392 103.25500359305312 76.14679193165432 H 0.0 **** 0.06
37270 H 145.24393170885776 101.79843097167031 75.28924406520943 H 0.0 **** 0.06
37271 C 111.52584927127245 37.009343521112754 41.76418603726526 C 0.0 **** -0.24
37272 H 111.07755708349353 36.01733813205575 41.82322773160544 H 0.0 **** 0.06
37273 H 112.5968834482068 36.93557814487691 41.959270728373866 H 0.0 **** 0.06
37274 H 111.06508240615861 37.661074292600055 42.50687736024116 H 0.0 **** 0.06
37275 H 111.3652607143616 37.42147812780736 40.768037022456724 H 0.0 **** 0.06
37276 C 123.16104316058771 36.994761249686086 125.21092917673577 C 0.0 **** -0.24
37277 H 122.52832733736254 37.43724849131979 124.44207276552898 H 0.0 **** 0.06
37278 H 122.68986665578895 37.119227521613944 126.18577189314712 H 0.0 **** 0.06
37279 H 124.13276129578479 37.48866943332876 125.21068742348452 H 0.0 **** 0.06
37280 H 123.29370464194379 35.93273200012718 125.00455260849326 H 0.0 **** 0.06
37281 C 87.06041637844997 114.3463713857653 103.53564703903379 C 0.0 **** -0.24
37282 H 86.28478201976058 115.08368295291415 103.74058714395022 H 0.0 **** 0.06
37283 H 86.85216203567447 113.85490540237073 102.5849295078516 H 0.0 **** 0.06
37284 H 87.0746343069827 113.60294310633704 104.33346893351387 H 0.0 **** 0.06
37285 H 88.02875040151329 114.84291837323347 103.48397742826216 H 0.0 **** 0.06
37286 C 16.04660374042789 7.816722604328305 91.13012795869096 C 0.0 **** -0.24
37287 H 16.107056914775953 8.683530235719928 90.47084768097167 H 0.0 **** 0.06
37288 H 16.06443896135285 6.904616809732971 90.53238431704814 H 0.0 **** 0.06
37289 H 15.11991277877511 7.85996550559139 91.70174878599059 H 0.0 **** 0.06
37290 H 16.895782108914943 7.820655377853029 91.81310753113343 H 0.0 **** 0.06
37291 C 136.5094542725336 146.38842430645505 0.1352417579138887 C 0.0 **** -0.24
37292 H 135.72385457505757 145.6327801904382 0.1702791117265292 H 0.0 **** 0.06
37293 H 136.5936584483673 146.8695281196877 1.1099033794577622 H 0.0 **** 0.06
37294 H 136.26208234121208 147.13522834314728 -0.61940276294618 H 0.0 **** 0.06
37295 H 137.45688551932798 145.91445162249875 -0.1192702707265596 H 0.0 **** 0.06
37296 C 131.11011882728383 103.54217566606518 31.21274115703877 C 0.0 **** -0.24
37297 H 131.46387661309478 104.30134351246618 31.910524865582673 H 0.0 **** 0.06
37298 H 130.0484134455699 103.36127001292003 31.3801666813181 H 0.0 **** 0.06
37299 H 131.6659353843164 102.61819544753901 31.368127602150757 H 0.0 **** 0.06
37300 H 131.26264939661414 103.88944541274124 30.190585761471013 H 0.0 **** 0.06
37301 C 15.515674202979127 141.16555695601895 12.06601287877983 C 0.0 **** -0.24
37302 H 14.463482700196124 141.4474983745634 12.056446795093414 H 0.0 **** 0.06
37303 H 16.104545624915396 141.94406804245693 11.580703255581597 H 0.0 **** 0.06
37304 H 15.644178399455761 140.22569020025338 11.529541425152544 H 0.0 **** 0.06
37305 H 15.850292791060149 141.04508506330853 13.096386310648597 H 0.0 **** 0.06
37306 C 149.52528658907949 55.57797633204274 0.09454636283811624 C 0.0 **** -0.24
37307 H 149.29545788067188 55.39604820159818 1.144501319949768 H 0.0 **** 0.06
37308 H 148.59953642049902 55.75511679177754 -0.4539291675194477 H 0.0 **** 0.06
37309 H 150.03409058206233 54.70791203015432 -0.3212542094586297 H 0.0 **** 0.06
37310 H 150.17093585097672 56.451373852850594 0.010485459079575321 H 0.0 **** 0.06
37311 C 22.31930616580658 74.07021426261818 133.02715751176527 C 0.0 **** -0.24
37312 H 23.33208402266152 74.46154500937288 132.92442586645035 H 0.0 **** 0.06
37313 H 21.68764607815669 74.48741400649433 132.2429028393641 H 0.0 **** 0.06
37314 H 21.92017124449967 74.34748818656576 134.00327635808623 H 0.0 **** 0.06
37315 H 22.340447161725024 72.98365824843498 132.93884784429724 H 0.0 **** 0.06
37316 C 86.16643057014923 73.34493370404286 50.65532510599411 C 0.0 **** -0.24
37317 H 85.9484095986999 73.98052001174408 49.797195525238294 H 0.0 **** 0.06
37318 H 87.2120299199282 73.03937609973437 50.62343439093894 H 0.0 **** 0.06
37319 H 85.52782530788423 72.46153373727975 50.623179449085455 H 0.0 **** 0.06
37320 H 85.9763063713471 73.89833331674406 51.57438065561229 H 0.0 **** 0.06
37321 C 92.34051908180872 76.92469367133748 85.8461573051173 C 0.0 **** -0.24
37322 H 92.99864600275787 77.49052076966697 86.5052787816819 H 0.0 **** 0.06
37323 H 91.76442035098236 77.61463110547405 85.22867523029899 H 0.0 **** 0.06
37324 H 91.66025097476758 76.31851822148681 86.44527261010012 H 0.0 **** 0.06
37325 H 92.93849031137277 76.2760147516787 85.20571795072877 H 0.0 **** 0.06
37326 C 6.810294213209488 134.3677244096521 50.56440386908582 C 0.0 **** -0.24
37327 H 6.701810293553649 135.231600051464 49.90753732985378 H 0.0 **** 0.06
37328 H 7.849178519073007 134.28202791440157 50.88312788346397 H 0.0 **** 0.06
37329 H 6.518525479662912 133.46542668871433 50.026890784753164 H 0.0 **** 0.06
37330 H 6.170723281216283 134.49372289084556 51.43769641443426 H 0.0 **** 0.06
37331 C 91.68436822147797 141.6596681680096 76.00835950513596 C 0.0 **** -0.24
37332 H 90.96365048475272 140.84534372847872 76.08929881389501 H 0.0 **** 0.06
37333 H 92.51015819843971 141.3493251836219 75.3680176931619 H 0.0 **** 0.06
37334 H 92.06566941330647 141.90618694720524 76.99973602733714 H 0.0 **** 0.06
37335 H 91.19783758439141 142.53474024334227 75.57761447352745 H 0.0 **** 0.06
37336 C 86.90613995482373 103.39226813472808 99.41507437707648 C 0.0 **** -0.24
37337 H 86.28807243458442 102.63726064953184 99.90038324972471 H 0.0 **** 0.06
37338 H 86.81806362444796 103.29223459360233 98.33308992836498 H 0.0 **** 0.06
37339 H 87.9456445431392 103.25434901753093 99.70971475029029 H 0.0 **** 0.06
37340 H 86.5706667804904 104.38405569590108 99.71670599385423 H 0.0 **** 0.06
37341 C 38.430907282448686 107.81174732298166 10.00802728044269 C 0.0 **** -0.24
37342 H 39.30560538325902 107.20475283286703 9.774953480288929 H 0.0 **** 0.06
37343 H 38.71948641197106 108.6208853000586 10.679049865215873 H 0.0 **** 0.06
37344 H 37.67556177844203 107.19114891157432 10.490351106508115 H 0.0 **** 0.06
37345 H 38.023653236680616 108.23025608212004 9.087021261625956 H 0.0 **** 0.06
37346 C 88.78427009938886 90.5967337471622 148.22851189552625 C 0.0 **** -0.24
37347 H 88.11425238860224 91.42793347789006 148.4507927981381 H 0.0 **** 0.06
37348 H 88.1981932861548 89.73478042934636 147.90843071858353 H 0.0 **** 0.06
37349 H 89.35205043903785 90.33941219281968 149.12154409752958 H 0.0 **** 0.06
37350 H 89.46978559292961 90.88611764887264 147.43260554797865 H 0.0 **** 0.06
37351 C 8.40555731222176 135.30336603207178 141.45769091879316 C 0.0 **** -0.24
37352 H 8.534062892602009 134.29780869319217 141.85897543030273 H 0.0 **** 0.06
37353 H 8.926919592071727 135.38271955702 140.50368469235568 H 0.0 **** 0.06
37354 H 8.818260795094972 136.0287787246794 142.15909576584917 H 0.0 **** 0.06
37355 H 7.344893975243991 135.50296273970858 141.31099102088592 H 0.0 **** 0.06
37356 C 5.425934700439342 40.209270391401276 48.54590738086635 C 0.0 **** -0.24
37357 H 5.750457303053842 41.12834337447026 48.05807604552351 H 0.0 **** 0.06
37358 H 6.239623982226675 39.483684278559 48.52884699268236 H 0.0 **** 0.06
37359 H 4.563929194914156 39.80212756979944 48.017670023382024 H 0.0 **** 0.06
37360 H 5.150988642197461 40.424629402463154 49.57832136565702 H 0.0 **** 0.06
37361 C 34.395716838457616 122.2084937813957 99.55262787327507 C 0.0 **** -0.24
37362 H 35.208550250448326 121.63965852066599 100.00447384970985 H 0.0 **** 0.06
37363 H 34.65873434526216 122.46577631028947 98.52693203613885 H 0.0 **** 0.06
37364 H 34.228425061639285 123.12075614134761 100.12519431438469 H 0.0 **** 0.06
37365 H 33.486167059251784 121.60699309997693 99.55453814672123 H 0.0 **** 0.06
37366 C 37.90749635587483 51.43953160877359 145.27132075360083 C 0.0 **** -0.24
37367 H 38.51115199263219 52.1434175253024 145.84432596792007 H 0.0 **** 0.06
37368 H 38.11941858052248 50.424162303240365 145.6064619649489 H 0.0 **** 0.06
37369 H 38.15008118022976 51.53080344510474 144.2127908662048 H 0.0 **** 0.06
37370 H 36.85119660648152 51.65915209514466 145.42279062764678 H 0.0 **** 0.06
37371 C 106.65261425968522 66.5941191810213 57.120751183981724 C 0.0 **** -0.24
37372 H 105.56994603815609 66.4776286849455 57.17008649328238 H 0.0 **** 0.06
37373 H 106.89577593233214 67.47995904349476 56.53303555148318 H 0.0 **** 0.06
37374 H 107.09044501695054 65.71379199056847 56.65018052015387 H 0.0 **** 0.06
37375 H 107.05264627190162 66.70457953704621 58.12796135633505 H 0.0 **** 0.06
37376 C 103.46424515212708 37.683347373700535 74.06322391792274 C 0.0 **** -0.24
37377 H 103.92492036147495 38.186112102171286 74.9133218221748 H 0.0 **** 0.06
37378 H 104.22990139899018 37.44216078655175 73.32558508998459 H 0.0 **** 0.06
37379 H 102.71950069007508 38.33932243886262 73.61377888058807 H 0.0 **** 0.06
37380 H 102.98292544877653 36.7660391948474 74.40241639204932 H 0.0 **** 0.06
37381 C 112.09816639781896 145.55927140880414 113.43080738670552 C 0.0 **** -0.24
37382 H 112.57163152268869 144.57989127519355 113.36217931866038 H 0.0 **** 0.06
37383 H 111.36732886219777 145.55277341807786 114.23986967104746 H 0.0 **** 0.06
37384 H 111.59810744210101 145.7878957186795 112.48968972838729 H 0.0 **** 0.06
37385 H 112.85710321357426 146.31591854260756 113.63332543512352 H 0.0 **** 0.06
37386 C 105.85480645396638 87.5736984108353 32.9645898681714 C 0.0 **** -0.24
37387 H 105.81343883388678 87.57388438648931 31.87522345547086 H 0.0 **** 0.06
37388 H 105.81962978211777 88.60051013142484 33.32988811561222 H 0.0 **** 0.06
37389 H 106.78114216422449 87.10167266451012 33.29314177860596 H 0.0 **** 0.06
37390 H 105.00433734629848 87.01804353244032 33.359833391521875 H 0.0 **** 0.06
37391 C 95.03096953870325 31.79333857959324 36.37359493323388 C 0.0 **** -0.24
37392 H 94.59719822007747 30.888192750820934 35.947301613265914 H 0.0 **** 0.06
37393 H 96.08274681614921 31.620051184642136 36.60105815546679 H 0.0 **** 0.06
37394 H 94.49889683597475 32.05469036053066 37.288373252722664 H 0.0 **** 0.06
37395 H 94.94275880747594 32.609915770912565 35.65689901029009 H 0.0 **** 0.06
37396 C 37.87227002875815 68.88823865024816 63.954484414954365 C 0.0 **** -0.24
37397 H 37.67794490364716 69.83938832131373 64.45023489336859 H 0.0 **** 0.06
37398 H 38.49736426408311 69.05731724907801 63.07742220214949 H 0.0 **** 0.06
37399 H 36.927991338619044 68.43897652964975 63.64724708260633 H 0.0 **** 0.06
37400 H 38.386939748075505 68.21837949354699 64.64422880189487 H 0.0 **** 0.06
37401 C 52.87080400327022 145.19848957913732 37.22252037837677 C 0.0 **** -0.24
37402 H 52.39824699958467 144.42024250078003 37.82358686882213 H 0.0 **** 0.06
37403 H 52.65726912662626 146.17440706186827 37.657944756306506 H 0.0 **** 0.06
37404 H 52.47905316139358 145.15895333247377 36.20605707287598 H 0.0 **** 0.06
37405 H 53.9488791293777 145.03623934999996 37.20256039244407 H 0.0 **** 0.06
37406 C 136.7380407208587 116.43546613151163 137.94716235030052 C 0.0 **** -0.24
37407 H 136.30306905482803 116.70409985909838 136.98442611521443 H 0.0 **** 0.06
37408 H 136.02693154713785 115.832588294047 138.5124070402279 H 0.0 **** 0.06
37409 H 136.9709867038594 117.34262165042215 138.50568410926286 H 0.0 **** 0.06
37410 H 137.65236725677943 115.86416056443936 137.78609582181613 H 0.0 **** 0.06
37411 C 135.40202048522113 19.29348282642698 144.19555487349024 C 0.0 **** -0.24
37412 H 135.5856795423207 18.22717760089578 144.32689792154233 H 0.0 **** 0.06
37413 H 134.33563839481337 19.494679507695984 144.30601609043552 H 0.0 **** 0.06
37414 H 135.72946137185218 19.599009516521093 143.2024967982464 H 0.0 **** 0.06
37415 H 135.95683042011257 19.85291305946923 144.94920748482645 H 0.0 **** 0.06
37416 C 80.23850222824615 100.77171435666845 9.126373832795991 C 0.0 **** -0.24
37417 H 79.75117068048053 100.26113609018971 8.296053857035275 H 0.0 **** 0.06
37418 H 80.6014425493893 101.7444181054014 8.792650495039567 H 0.0 **** 0.06
37419 H 81.07695341071025 100.17200328975966 9.479765561531252 H 0.0 **** 0.06
37420 H 79.52372219376824 100.90973546090483 9.937565645355818 H 0.0 **** 0.06
37421 C 71.78023451584491 81.10467638298428 9.98353387175655 C 0.0 **** -0.24
37422 H 70.74350618519239 81.26164830391878 9.683434355755935 H 0.0 **** 0.06
37423 H 72.19786044714627 82.04253340304427 10.349579320451198 H 0.0 **** 0.06
37424 H 72.35780925096662 80.75823687851198 9.126845154792136 H 0.0 **** 0.06
37425 H 71.81898705321058 80.35600124443056 10.775380003045484 H 0.0 **** 0.06
37426 C 97.54710244978396 114.03644400919309 114.82704528224683 C 0.0 **** -0.24
37427 H 96.51975190944033 114.29701297331401 114.57276952211738 H 0.0 **** 0.06
37428 H 98.01283822793067 114.86988856260682 115.3536284871074 H 0.0 **** 0.06
37429 H 98.10417220083022 113.82501113725657 113.91483374847304 H 0.0 **** 0.06
37430 H 97.54976084884319 113.15447287301326 115.46721269521036 H 0.0 **** 0.06
37431 C 115.78506177253446 41.6263703955257 83.63771940039777 C 0.0 **** -0.24
37432 H 115.12905146258255 41.51814556847144 84.50172481748636 H 0.0 **** 0.06
37433 H 116.4505153283484 42.476742538762 83.79249773604441 H 0.0 **** 0.06
37434 H 115.18361469578177 41.79314201791733 82.74404545132195 H 0.0 **** 0.06
37435 H 116.37550541645861 40.7193086358058 83.51545866952523 H 0.0 **** 0.06
37436 C 132.74782810847677 133.08057112648098 80.60940197883556 C 0.0 **** -0.24
37437 H 132.24993734973458 132.42870660935847 81.32740402368532 H 0.0 **** 0.06
37438 H 132.65083379356022 134.117593252162 80.93199417679202 H 0.0 **** 0.06
37439 H 132.28616249591755 132.96023198477548 79.62878590823905 H 0.0 **** 0.06
37440 H 133.80349602512726 132.8161247989821 80.54913698474263 H 0.0 **** 0.06
37441 C 107.8293021009451 132.62908539102625 135.3263363115851 C 0.0 **** -0.24
37442 H 106.9154745099625 132.23004707383478 134.88680927386778 H 0.0 **** 0.06
37443 H 108.66322878588979 131.96450993242297 135.0970520232908 H 0.0 **** 0.06
37444 H 107.70925728428979 132.70273084938776 136.40747880642394 H 0.0 **** 0.06
37445 H 108.02889161426735 133.61875967551435 134.91489210166975 H 0.0 **** 0.06
37446 C 133.2117988622765 29.454309735381017 55.8543126720418 C 0.0 **** -0.24
37447 H 132.57433838436225 28.636367932556155 55.51676878665546 H 0.0 **** 0.06
37448 H 134.16901654005468 29.40637308774788 55.336253952764736 H 0.0 **** 0.06
37449 H 133.37472072679435 29.36762464773794 56.92919391842753 H 0.0 **** 0.06
37450 H 132.7267835434266 30.405409609903728 55.63621721812959 H 0.0 **** 0.06
37451 C 120.31266303458165 118.20112810904547 65.88274292215905 C 0.0 **** -0.24
37452 H 119.6034214318671 118.6261695059508 66.59229884585719 H 0.0 **** 0.06
37453 H 120.30328524735722 117.11372979328965 65.96713190325138 H 0.0 **** 0.06
37454 H 121.31260487566857 118.57426695769075 66.1007249029868 H 0.0 **** 0.06
37455 H 120.02991180024742 118.48912076470938 64.8696089239476 H 0.0 **** 0.06
37456 C 50.27877500707105 36.66217411956806 76.86286421989959 C 0.0 **** -0.24
37457 H 50.34952217527892 36.45695391402111 77.93114461283963 H 0.0 **** 0.06
37458 H 51.04738793872569 36.099518952356554 76.33326928283364 H 0.0 **** 0.06
37459 H 50.423159125059684 37.72858191435308 76.6884935253629 H 0.0 **** 0.06
37460 H 49.29522360045809 36.364124074991516 76.50072438817605 H 0.0 **** 0.06
37461 C 118.88618179962491 63.562220954432746 146.48011532355062 C 0.0 **** -0.24
37462 H 117.81919461081226 63.41413259402907 146.6468386370471 H 0.0 **** 0.06
37463 H 119.22621132803495 62.892402767742766 145.69054013032903 H 0.0 **** 0.06
37464 H 119.43107120885973 63.349142938306656 147.39941165726776 H 0.0 **** 0.06
37465 H 119.06631316298542 64.59568728364252 146.1819130928372 H 0.0 **** 0.06
37466 C 105.68800028896747 68.49547090421115 108.72849876049328 C 0.0 **** -0.24
37467 H 106.3804355789422 68.01068151126047 108.0398013504567 H 0.0 **** 0.06
37468 H 104.92080877502919 69.02131106734977 108.16018565463257 H 0.0 **** 0.06
37469 H 106.23192697652986 69.2052659908751 109.35050689606989 H 0.0 **** 0.06
37470 H 105.21915397219966 67.74217804201673 109.36152441126954 H 0.0 **** 0.06
37471 C 54.30030027962749 31.4204189343842 23.273592859678843 C 0.0 **** -0.24
37472 H 54.48010460411416 32.240887040164466 22.579166504916827 H 0.0 **** 0.06
37473 H 53.37059880208841 31.59832221126301 23.813110266968607 H 0.0 **** 0.06
37474 H 55.12582340248895 31.35602775664489 23.98195915508836 H 0.0 **** 0.06
37475 H 54.22536243206497 30.485459999991974 22.717998037531686 H 0.0 **** 0.06
37476 C 69.47504496282977 124.19658698108104 58.00369218208385 C 0.0 **** -0.24
37477 H 69.26642861587789 123.14256229941113 57.82216628950029 H 0.0 **** 0.06
37478 H 68.76426092914016 124.80901717567612 57.44672549949426 H 0.0 **** 0.06
37479 H 70.48888970086585 124.42793849774249 57.67642039662506 H 0.0 **** 0.06
37480 H 69.38041967319799 124.40774946673493 59.0679998804181 H 0.0 **** 0.06
37481 C 137.92734828584315 89.91701214615587 108.93002930268786 C 0.0 **** -0.24
37482 H 138.3402897889705 89.1253213020344 108.30513779659803 H 0.0 **** 0.06
37483 H 137.1432057729886 89.50553123876513 109.56590152389917 H 0.0 **** 0.06
37484 H 137.5100835981658 90.698582319028 108.29574253872563 H 0.0 **** 0.06
37485 H 138.7178539787272 90.33625090429258 109.55282952179336 H 0.0 **** 0.06
37486 C 95.17477392333396 54.83780132081304 34.867846643669424 C 0.0 **** -0.24
37487 H 95.36557029797656 55.78676578805579 35.36857776028077 H 0.0 **** 0.06
37488 H 96.12344946549194 54.374965175620986 34.593323501374826 H 0.0 **** 0.06
37489 H 94.58272621894108 55.01316463387673 33.970409929882365 H 0.0 **** 0.06
37490 H 94.62785112109535 54.17642423346483 35.54039278203638 H 0.0 **** 0.06
37491 C 107.6564845344911 95.91493483765589 106.1923614436451 C 0.0 **** -0.24
37492 H 107.75549804862432 95.97276487084639 105.10839027410185 H 0.0 **** 0.06
37493 H 106.68887974268408 96.3188003236122 106.49078920984778 H 0.0 **** 0.06
37494 H 108.45283330850684 96.49480738572456 106.660702134507 H 0.0 **** 0.06
37495 H 107.73059470176717 94.87486916778538 106.50905932503156 H 0.0 **** 0.06
37496 C 92.2225044036743 76.22898632160681 98.2461062584949 C 0.0 **** -0.24
37497 H 92.72353082801399 77.149405436339 97.94637028005346 H 0.0 **** 0.06
37498 H 92.86051656774472 75.37646925640227 98.01357968193184 H 0.0 **** 0.06
37499 H 91.2806549642395 76.13632218131968 97.70484708445218 H 0.0 **** 0.06
37500 H 92.02543008154602 76.25452042783478 99.31730612912341 H 0.0 **** 0.06
@<TRIPOS>BOND
1 1 2 28
2 1 3 28
3 1 4 28
4 1 5 28
5 6 7 28
6 6 8 28
7 6 9 28
8 6 10 28
9 11 12 28
10 11 13 28
11 11 14 28
12 11 15 28
13 16 17 28
14 16 18 28
15 16 19 28
16 16 20 28
17 21 22 28
18 21 23 28
19 21 24 28
20 21 25 28
21 26 27 28
22 26 28 28
23 26 29 28
24 26 30 28
25 31 32 28
26 31 33 28
27 31 34 28
28 31 35 28
29 36 37 28
30 36 38 28
31 36 39 28
32 36 40 28
33 41 42 28
34 41 43 28
35 41 44 28
36 41 45 28
37 46 47 28
38 46 48 28
39 46 49 28
40 46 50 28
41 51 52 28
42 51 53 28
43 51 54 28
44 51 55 28
45 56 57 28
46 56 58 28
47 56 59 28
48 56 60 28
49 61 62 28
50 61 63 28
51 61 64 28
52 61 65 28
53 66 67 28
54 66 68 28
55 66 69 28
56 66 70 28
57 71 72 28
58 71 73 28
59 71 74 28
60 71 75 28
61 76 77 28
62 76 78 28
63 76 79 28
64 76 80 28
65 81 82 28
66 81 83 28
67 81 84 28
68 81 85 28
69 86 87 28
70 86 88 28
71 86 89 28
72 86 90 28
73 91 92 28
74 91 93 28
75 91 94 28
76 91 95 28
77 96 97 28
78 96 98 28
79 96 99 28
80 96 100 28
81 101 102 28
82 101 103 28
83 101 104 28
84 101 105 28
85 106 107 28
86 106 108 28
87 106 109 28
88 106 110 28
89 111 112 28
90 111 113 28
91 111 114 28
92 111 115 28
93 116 117 28
94 116 118 28
95 116 119 28
96 116 120 28
97 121 122 28
98 121 123 28
99 121 124 28
100 121 125 28
101 126 127 28
102 126 128 28
103 126 129 28
104 126 130 28
105 131 132 28
106 131 133 28
107 131 134 28
108 131 135 28
109 136 137 28
110 136 138 28
111 136 139 28
112 136 140 28
113 141 142 28
114 141 143 28
115 141 144 28
116 141 145 28
117 146 147 28
118 146 148 28
119 146 149 28
120 146 150 28
121 151 152 28
122 151 153 28
123 151 154 28
124 151 155 28
125 156 157 28
126 156 158 28
127 156 159 28
128 156 160 28
129 161 162 28
130 161 163 28
131 161 164 28
132 161 165 28
133 166 167 28
134 166 168 28
135 166 169 28
136 166 170 28
137 171 172 28
138 171 173 28
139 171 174 28
140 171 175 28
141 176 177 28
142 176 178 28
143 176 179 28
144 176 180 28
145 181 182 28
146 181 183 28
147 181 184 28
148 181 185 28
149 186 187 28
150 186 188 28
151 186 189 28
152 186 190 28
153 191 192 28
154 191 193 28
155 191 194 28
156 191 195 28
157 196 197 28
158 196 198 28
159 196 199 28
160 196 200 28
161 201 202 28
162 201 203 28
163 201 204 28
164 201 205 28
165 206 207 28
166 206 208 28
167 206 209 28
168 206 210 28
169 211 212 28
170 211 213 28
171 211 214 28
172 211 215 28
173 216 217 28
174 216 218 28
175 216 219 28
176 216 220 28
177 221 222 28
178 221 223 28
179 221 224 28
180 221 225 28
181 226 227 28
182 226 228 28
183 226 229 28
184 226 230 28
185 231 232 28
186 231 233 28
187 231 234 28
188 231 235 28
189 236 237 28
190 236 238 28
191 236 239 28
192 236 240 28
193 241 242 28
194 241 243 28
195 241 244 28
196 241 245 28
197 246 247 28
198 246 248 28
199 246 249 28
200 246 250 28
201 251 252 28
202 251 253 28
203 251 254 28
204 251 255 28
205 256 257 28
206 256 258 28
207 256 259 28
208 256 260 28
209 261 262 28
210 261 263 28
211 261 264 28
212 261 265 28
213 266 267 28
214 266 268 28
215 266 269 28
216 266 270 28
217 271 272 28
218 271 273 28
219 271 274 28
220 271 275 28
221 276 277 28
222 276 278 28
223 276 279 28
224 276 280 28
225 281 282 28
226 281 283 28
227 281 284 28
228 281 285 28
229 286 287 28
230 286 288 28
231 286 289 28
232 286 290 28
233 291 292 28
234 291 293 28
235 291 294 28
236 291 295 28
237 296 297 28
238 296 298 28
239 296 299 28
240 296 300 28
241 301 302 28
242 301 303 28
243 301 304 28
244 301 305 28
245 306 307 28
246 306 308 28
247 306 309 28
248 306 310 28
249 311 312 28
250 311 313 28
251 311 314 28
252 311 315 28
253 316 317 28
254 316 318 28
255 316 319 28
256 316 320 28
257 321 322 28
258 321 323 28
259 321 324 28
260 321 325 28
261 326 327 28
262 326 328 28
263 326 329 28
264 326 330 28
265 331 332 28
266 331 333 28
267 331 334 28
268 331 335 28
269 336 337 28
270 336 338 28
271 336 339 28
272 336 340 28
273 341 342 28
274 341 343 28
275 341 344 28
276 341 345 28
277 346 347 28
278 346 348 28
279 346 349 28
280 346 350 28
281 351 352 28
282 351 353 28
283 351 354 28
284 351 355 28
285 356 357 28
286 356 358 28
287 356 359 28
288 356 360 28
289 361 362 28
290 361 363 28
291 361 364 28
292 361 365 28
293 366 367 28
294 366 368 28
295 366 369 28
296 366 370 28
297 371 372 28
298 371 373 28
299 371 374 28
300 371 375 28
301 376 377 28
302 376 378 28
303 376 379 28
304 376 380 28
305 381 382 28
306 381 383 28
307 381 384 28
308 381 385 28
309 386 387 28
310 386 388 28
311 386 389 28
312 386 390 28
313 391 392 28
314 391 393 28
315 391 394 28
316 391 395 28
317 396 397 28
318 396 398 28
319 396 399 28
320 396 400 28
321 401 402 28
322 401 403 28
323 401 404 28
324 401 405 28
325 406 407 28
326 406 408 28
327 406 409 28
328 406 410 28
329 411 412 28
330 411 413 28
331 411 414 28
332 411 415 28
333 416 417 28
334 416 418 28
335 416 419 28
336 416 420 28
337 421 422 28
338 421 423 28
339 421 424 28
340 421 425 28
341 426 427 28
342 426 428 28
343 426 429 28
344 426 430 28
345 431 432 28
346 431 433 28
347 431 434 28
348 431 435 28
349 436 437 28
350 436 438 28
351 436 439 28
352 436 440 28
353 441 442 28
354 441 443 28
355 441 444 28
356 441 445 28
357 446 447 28
358 446 448 28
359 446 449 28
360 446 450 28
361 451 452 28
362 451 453 28
363 451 454 28
364 451 455 28
365 456 457 28
366 456 458 28
367 456 459 28
368 456 460 28
369 461 462 28
370 461 463 28
371 461 464 28
372 461 465 28
373 466 467 28
374 466 468 28
375 466 469 28
376 466 470 28
377 471 472 28
378 471 473 28
379 471 474 28
380 471 475 28
381 476 477 28
382 476 478 28
383 476 479 28
384 476 480 28
385 481 482 28
386 481 483 28
387 481 484 28
388 481 485 28
389 486 487 28
390 486 488 28
391 486 489 28
392 486 490 28
393 491 492 28
394 491 493 28
395 491 494 28
396 491 495 28
397 496 497 28
398 496 498 28
399 496 499 28
400 496 500 28
401 501 502 28
402 501 503 28
403 501 504 28
404 501 505 28
405 506 507 28
406 506 508 28
407 506 509 28
408 506 510 28
409 511 512 28
410 511 513 28
411 511 514 28
412 511 515 28
413 516 517 28
414 516 518 28
415 516 519 28
416 516 520 28
417 521 522 28
418 521 523 28
419 521 524 28
420 521 525 28
421 526 527 28
422 526 528 28
423 526 529 28
424 526 530 28
425 531 532 28
426 531 533 28
427 531 534 28
428 531 535 28
429 536 537 28
430 536 538 28
431 536 539 28
432 536 540 28
433 541 542 28
434 541 543 28
435 541 544 28
436 541 545 28
437 546 547 28
438 546 548 28
439 546 549 28
440 546 550 28
441 551 552 28
442 551 553 28
443 551 554 28
444 551 555 28
445 556 557 28
446 556 558 28
447 556 559 28
448 556 560 28
449 561 562 28
450 561 563 28
451 561 564 28
452 561 565 28
453 566 567 28
454 566 568 28
455 566 569 28
456 566 570 28
457 571 572 28
458 571 573 28
459 571 574 28
460 571 575 28
461 576 577 28
462 576 578 28
463 576 579 28
464 576 580 28
465 581 582 28
466 581 583 28
467 581 584 28
468 581 585 28
469 586 587 28
470 586 588 28
471 586 589 28
472 586 590 28
473 591 592 28
474 591 593 28
475 591 594 28
476 591 595 28
477 596 597 28
478 596 598 28
479 596 599 28
480 596 600 28
481 601 602 28
482 601 603 28
483 601 604 28
484 601 605 28
485 606 607 28
486 606 608 28
487 606 609 28
488 606 610 28
489 611 612 28
490 611 613 28
491 611 614 28
492 611 615 28
493 616 617 28
494 616 618 28
495 616 619 28
496 616 620 28
497 621 622 28
498 621 623 28
499 621 624 28
500 621 625 28
501 626 627 28
502 626 628 28
503 626 629 28
504 626 630 28
505 631 632 28
506 631 633 28
507 631 634 28
508 631 635 28
509 636 637 28
510 636 638 28
511 636 639 28
512 636 640 28
513 641 642 28
514 641 643 28
515 641 644 28
516 641 645 28
517 646 647 28
518 646 648 28
519 646 649 28
520 646 650 28
521 651 652 28
522 651 653 28
523 651 654 28
524 651 655 28
525 656 657 28
526 656 658 28
527 656 659 28
528 656 660 28
529 661 662 28
530 661 663 28
531 661 664 28
532 661 665 28
533 666 667 28
534 666 668 28
535 666 669 28
536 666 670 28
537 671 672 28
538 671 673 28
539 671 674 28
540 671 675 28
541 676 677 28
542 676 678 28
543 676 679 28
544 676 680 28
545 681 682 28
546 681 683 28
547 681 684 28
548 681 685 28
549 686 687 28
550 686 688 28
551 686 689 28
552 686 690 28
553 691 692 28
554 691 693 28
555 691 694 28
556 691 695 28
557 696 697 28
558 696 698 28
559 696 699 28
560 696 700 28
561 701 702 28
562 701 703 28
563 701 704 28
564 701 705 28
565 706 707 28
566 706 708 28
567 706 709 28
568 706 710 28
569 711 712 28
570 711 713 28
571 711 714 28
572 711 715 28
573 716 717 28
574 716 718 28
575 716 719 28
576 716 720 28
577 721 722 28
578 721 723 28
579 721 724 28
580 721 725 28
581 726 727 28
582 726 728 28
583 726 729 28
584 726 730 28
585 731 732 28
586 731 733 28
587 731 734 28
588 731 735 28
589 736 737 28
590 736 738 28
591 736 739 28
592 736 740 28
593 741 742 28
594 741 743 28
595 741 744 28
596 741 745 28
597 746 747 28
598 746 748 28
599 746 749 28
600 746 750 28
601 751 752 28
602 751 753 28
603 751 754 28
604 751 755 28
605 756 757 28
606 756 758 28
607 756 759 28
608 756 760 28
609 761 762 28
610 761 763 28
611 761 764 28
612 761 765 28
613 766 767 28
614 766 768 28
615 766 769 28
616 766 770 28
617 771 772 28
618 771 773 28
619 771 774 28
620 771 775 28
621 776 777 28
622 776 778 28
623 776 779 28
624 776 780 28
625 781 782 28
626 781 783 28
627 781 784 28
628 781 785 28
629 786 787 28
630 786 788 28
631 786 789 28
632 786 790 28
633 791 792 28
634 791 793 28
635 791 794 28
636 791 795 28
637 796 797 28
638 796 798 28
639 796 799 28
640 796 800 28
641 801 802 28
642 801 803 28
643 801 804 28
644 801 805 28
645 806 807 28
646 806 808 28
647 806 809 28
648 806 810 28
649 811 812 28
650 811 813 28
651 811 814 28
652 811 815 28
653 816 817 28
654 816 818 28
655 816 819 28
656 816 820 28
657 821 822 28
658 821 823 28
659 821 824 28
660 821 825 28
661 826 827 28
662 826 828 28
663 826 829 28
664 826 830 28
665 831 832 28
666 831 833 28
667 831 834 28
668 831 835 28
669 836 837 28
670 836 838 28
671 836 839 28
672 836 840 28
673 841 842 28
674 841 843 28
675 841 844 28
676 841 845 28
677 846 847 28
678 846 848 28
679 846 849 28
680 846 850 28
681 851 852 28
682 851 853 28
683 851 854 28
684 851 855 28
685 856 857 28
686 856 858 28
687 856 859 28
688 856 860 28
689 861 862 28
690 861 863 28
691 861 864 28
692 861 865 28
693 866 867 28
694 866 868 28
695 866 869 28
696 866 870 28
697 871 872 28
698 871 873 28
699 871 874 28
700 871 875 28
701 876 877 28
702 876 878 28
703 876 879 28
704 876 880 28
705 881 882 28
706 881 883 28
707 881 884 28
708 881 885 28
709 886 887 28
710 886 888 28
711 886 889 28
712 886 890 28
713 891 892 28
714 891 893 28
715 891 894 28
716 891 895 28
717 896 897 28
718 896 898 28
719 896 899 28
720 896 900 28
721 901 902 28
722 901 903 28
723 901 904 28
724 901 905 28
725 906 907 28
726 906 908 28
727 906 909 28
728 906 910 28
729 911 912 28
730 911 913 28
731 911 914 28
732 911 915 28
733 916 917 28
734 916 918 28
735 916 919 28
736 916 920 28
737 921 922 28
738 921 923 28
739 921 924 28
740 921 925 28
741 926 927 28
742 926 928 28
743 926 929 28
744 926 930 28
745 931 932 28
746 931 933 28
747 931 934 28
748 931 935 28
749 936 937 28
750 936 938 28
751 936 939 28
752 936 940 28
753 941 942 28
754 941 943 28
755 941 944 28
756 941 945 28
757 946 947 28
758 946 948 28
759 946 949 28
760 946 950 28
761 951 952 28
762 951 953 28
763 951 954 28
764 951 955 28
765 956 957 28
766 956 958 28
767 956 959 28
768 956 960 28
769 961 962 28
770 961 963 28
771 961 964 28
772 961 965 28
773 966 967 28
774 966 968 28
775 966 969 28
776 966 970 28
777 971 972 28
778 971 973 28
779 971 974 28
780 971 975 28
781 976 977 28
782 976 978 28
783 976 979 28
784 976 980 28
785 981 982 28
786 981 983 28
787 981 984 28
788 981 985 28
789 986 987 28
790 986 988 28
791 986 989 28
792 986 990 28
793 991 992 28
794 991 993 28
795 991 994 28
796 991 995 28
797 996 997 28
798 996 998 28
799 996 999 28
800 996 1000 28
801 1001 1002 28
802 1001 1003 28
803 1001 1004 28
804 1001 1005 28
805 1006 1007 28
806 1006 1008 28
807 1006 1009 28
808 1006 1010 28
809 1011 1012 28
810 1011 1013 28
811 1011 1014 28
812 1011 1015 28
813 1016 1017 28
814 1016 1018 28
815 1016 1019 28
816 1016 1020 28
817 1021 1022 28
818 1021 1023 28
819 1021 1024 28
820 1021 1025 28
821 1026 1027 28
822 1026 1028 28
823 1026 1029 28
824 1026 1030 28
825 1031 1032 28
826 1031 1033 28
827 1031 1034 28
828 1031 1035 28
829 1036 1037 28
830 1036 1038 28
831 1036 1039 28
832 1036 1040 28
833 1041 1042 28
834 1041 1043 28
835 1041 1044 28
836 1041 1045 28
837 1046 1047 28
838 1046 1048 28
839 1046 1049 28
840 1046 1050 28
841 1051 1052 28
842 1051 1053 28
843 1051 1054 28
844 1051 1055 28
845 1056 1057 28
846 1056 1058 28
847 1056 1059 28
848 1056 1060 28
849 1061 1062 28
850 1061 1063 28
851 1061 1064 28
852 1061 1065 28
853 1066 1067 28
854 1066 1068 28
855 1066 1069 28
856 1066 1070 28
857 1071 1072 28
858 1071 1073 28
859 1071 1074 28
860 1071 1075 28
861 1076 1077 28
862 1076 1078 28
863 1076 1079 28
864 1076 1080 28
865 1081 1082 28
866 1081 1083 28
867 1081 1084 28
868 1081 1085 28
869 1086 1087 28
870 1086 1088 28
871 1086 1089 28
872 1086 1090 28
873 1091 1092 28
874 1091 1093 28
875 1091 1094 28
876 1091 1095 28
877 1096 1097 28
878 1096 1098 28
879 1096 1099 28
880 1096 1100 28
881 1101 1102 28
882 1101 1103 28
883 1101 1104 28
884 1101 1105 28
885 1106 1107 28
886 1106 1108 28
887 1106 1109 28
888 1106 1110 28
889 1111 1112 28
890 1111 1113 28
891 1111 1114 28
892 1111 1115 28
893 1116 1117 28
894 1116 1118 28
895 1116 1119 28
896 1116 1120 28
897 1121 1122 28
898 1121 1123 28
899 1121 1124 28
900 1121 1125 28
901 1126 1127 28
902 1126 1128 28
903 1126 1129 28
904 1126 1130 28
905 1131 1132 28
906 1131 1133 28
907 1131 1134 28
908 1131 1135 28
909 1136 1137 28
910 1136 1138 28
911 1136 1139 28
912 1136 1140 28
913 1141 1142 28
914 1141 1143 28
915 1141 1144 28
916 1141 1145 28
917 1146 1147 28
918 1146 1148 28
919 1146 1149 28
920 1146 1150 28
921 1151 1152 28
922 1151 1153 28
923 1151 1154 28
924 1151 1155 28
925 1156 1157 28
926 1156 1158 28
927 1156 1159 28
928 1156 1160 28
929 1161 1162 28
930 1161 1163 28
931 1161 1164 28
932 1161 1165 28
933 1166 1167 28
934 1166 1168 28
935 1166 1169 28
936 1166 1170 28
937 1171 1172 28
938 1171 1173 28
939 1171 1174 28
940 1171 1175 28
941 1176 1177 28
942 1176 1178 28
943 1176 1179 28
944 1176 1180 28
945 1181 1182 28
946 1181 1183 28
947 1181 1184 28
948 1181 1185 28
949 1186 1187 28
950 1186 1188 28
951 1186 1189 28
952 1186 1190 28
953 1191 1192 28
954 1191 1193 28
955 1191 1194 28
956 1191 1195 28
957 1196 1197 28
958 1196 1198 28
959 1196 1199 28
960 1196 1200 28
961 1201 1202 28
962 1201 1203 28
963 1201 1204 28
964 1201 1205 28
965 1206 1207 28
966 1206 1208 28
967 1206 1209 28
968 1206 1210 28
969 1211 1212 28
970 1211 1213 28
971 1211 1214 28
972 1211 1215 28
973 1216 1217 28
974 1216 1218 28
975 1216 1219 28
976 1216 1220 28
977 1221 1222 28
978 1221 1223 28
979 1221 1224 28
980 1221 1225 28
981 1226 1227 28
982 1226 1228 28
983 1226 1229 28
984 1226 1230 28
985 1231 1232 28
986 1231 1233 28
987 1231 1234 28
988 1231 1235 28
989 1236 1237 28
990 1236 1238 28
991 1236 1239 28
992 1236 1240 28
993 1241 1242 28
994 1241 1243 28
995 1241 1244 28
996 1241 1245 28
997 1246 1247 28
998 1246 1248 28
999 1246 1249 28
1000 1246 1250 28
1001 1251 1252 28
1002 1251 1253 28
1003 1251 1254 28
1004 1251 1255 28
1005 1256 1257 28
1006 1256 1258 28
1007 1256 1259 28
1008 1256 1260 28
1009 1261 1262 28
1010 1261 1263 28
1011 1261 1264 28
1012 1261 1265 28
1013 1266 1267 28
1014 1266 1268 28
1015 1266 1269 28
1016 1266 1270 28
1017 1271 1272 28
1018 1271 1273 28
1019 1271 1274 28
1020 1271 1275 28
1021 1276 1277 28
1022 1276 1278 28
1023 1276 1279 28
1024 1276 1280 28
1025 1281 1282 28
1026 1281 1283 28
1027 1281 1284 28
1028 1281 1285 28
1029 1286 1287 28
1030 1286 1288 28
1031 1286 1289 28
1032 1286 1290 28
1033 1291 1292 28
1034 1291 1293 28
1035 1291 1294 28
1036 1291 1295 28
1037 1296 1297 28
1038 1296 1298 28
1039 1296 1299 28
1040 1296 1300 28
1041 1301 1302 28
1042 1301 1303 28
1043 1301 1304 28
1044 1301 1305 28
1045 1306 1307 28
1046 1306 1308 28
1047 1306 1309 28
1048 1306 1310 28
1049 1311 1312 28
1050 1311 1313 28
1051 1311 1314 28
1052 1311 1315 28
1053 1316 1317 28
1054 1316 1318 28
1055 1316 1319 28
1056 1316 1320 28
1057 1321 1322 28
1058 1321 1323 28
1059 1321 1324 28
1060 1321 1325 28
1061 1326 1327 28
1062 1326 1328 28
1063 1326 1329 28
1064 1326 1330 28
1065 1331 1332 28
1066 1331 1333 28
1067 1331 1334 28
1068 1331 1335 28
1069 1336 1337 28
1070 1336 1338 28
1071 1336 1339 28
1072 1336 1340 28
1073 1341 1342 28
1074 1341 1343 28
1075 1341 1344 28
1076 1341 1345 28
1077 1346 1347 28
1078 1346 1348 28
1079 1346 1349 28
1080 1346 1350 28
1081 1351 1352 28
1082 1351 1353 28
1083 1351 1354 28
1084 1351 1355 28
1085 1356 1357 28
1086 1356 1358 28
1087 1356 1359 28
1088 1356 1360 28
1089 1361 1362 28
1090 1361 1363 28
1091 1361 1364 28
1092 1361 1365 28
1093 1366 1367 28
1094 1366 1368 28
1095 1366 1369 28
1096 1366 1370 28
1097 1371 1372 28
1098 1371 1373 28
1099 1371 1374 28
1100 1371 1375 28
1101 1376 1377 28
1102 1376 1378 28
1103 1376 1379 28
1104 1376 1380 28
1105 1381 1382 28
1106 1381 1383 28
1107 1381 1384 28
1108 1381 1385 28
1109 1386 1387 28
1110 1386 1388 28
1111 1386 1389 28
1112 1386 1390 28
1113 1391 1392 28
1114 1391 1393 28
1115 1391 1394 28
1116 1391 1395 28
1117 1396 1397 28
1118 1396 1398 28
1119 1396 1399 28
1120 1396 1400 28
1121 1401 1402 28
1122 1401 1403 28
1123 1401 1404 28
1124 1401 1405 28
1125 1406 1407 28
1126 1406 1408 28
1127 1406 1409 28
1128 1406 1410 28
1129 1411 1412 28
1130 1411 1413 28
1131 1411 1414 28
1132 1411 1415 28
1133 1416 1417 28
1134 1416 1418 28
1135 1416 1419 28
1136 1416 1420 28
1137 1421 1422 28
1138 1421 1423 28
1139 1421 1424 28
1140 1421 1425 28
1141 1426 1427 28
1142 1426 1428 28
1143 1426 1429 28
1144 1426 1430 28
1145 1431 1432 28
1146 1431 1433 28
1147 1431 1434 28
1148 1431 1435 28
1149 1436 1437 28
1150 1436 1438 28
1151 1436 1439 28
1152 1436 1440 28
1153 1441 1442 28
1154 1441 1443 28
1155 1441 1444 28
1156 1441 1445 28
1157 1446 1447 28
1158 1446 1448 28
1159 1446 1449 28
1160 1446 1450 28
1161 1451 1452 28
1162 1451 1453 28
1163 1451 1454 28
1164 1451 1455 28
1165 1456 1457 28
1166 1456 1458 28
1167 1456 1459 28
1168 1456 1460 28
1169 1461 1462 28
1170 1461 1463 28
1171 1461 1464 28
1172 1461 1465 28
1173 1466 1467 28
1174 1466 1468 28
1175 1466 1469 28
1176 1466 1470 28
1177 1471 1472 28
1178 1471 1473 28
1179 1471 1474 28
1180 1471 1475 28
1181 1476 1477 28
1182 1476 1478 28
1183 1476 1479 28
1184 1476 1480 28
1185 1481 1482 28
1186 1481 1483 28
1187 1481 1484 28
1188 1481 1485 28
1189 1486 1487 28
1190 1486 1488 28
1191 1486 1489 28
1192 1486 1490 28
1193 1491 1492 28
1194 1491 1493 28
1195 1491 1494 28
1196 1491 1495 28
1197 1496 1497 28
1198 1496 1498 28
1199 1496 1499 28
1200 1496 1500 28
1201 1501 1502 28
1202 1501 1503 28
1203 1501 1504 28
1204 1501 1505 28
1205 1506 1507 28
1206 1506 1508 28
1207 1506 1509 28
1208 1506 1510 28
1209 1511 1512 28
1210 1511 1513 28
1211 1511 1514 28
1212 1511 1515 28
1213 1516 1517 28
1214 1516 1518 28
1215 1516 1519 28
1216 1516 1520 28
1217 1521 1522 28
1218 1521 1523 28
1219 1521 1524 28
1220 1521 1525 28
1221 1526 1527 28
1222 1526 1528 28
1223 1526 1529 28
1224 1526 1530 28
1225 1531 1532 28
1226 1531 1533 28
1227 1531 1534 28
1228 1531 1535 28
1229 1536 1537 28
1230 1536 1538 28
1231 1536 1539 28
1232 1536 1540 28
1233 1541 1542 28
1234 1541 1543 28
1235 1541 1544 28
1236 1541 1545 28
1237 1546 1547 28
1238 1546 1548 28
1239 1546 1549 28
1240 1546 1550 28
1241 1551 1552 28
1242 1551 1553 28
1243 1551 1554 28
1244 1551 1555 28
1245 1556 1557 28
1246 1556 1558 28
1247 1556 1559 28
1248 1556 1560 28
1249 1561 1562 28
1250 1561 1563 28
1251 1561 1564 28
1252 1561 1565 28
1253 1566 1567 28
1254 1566 1568 28
1255 1566 1569 28
1256 1566 1570 28
1257 1571 1572 28
1258 1571 1573 28
1259 1571 1574 28
1260 1571 1575 28
1261 1576 1577 28
1262 1576 1578 28
1263 1576 1579 28
1264 1576 1580 28
1265 1581 1582 28
1266 1581 1583 28
1267 1581 1584 28
1268 1581 1585 28
1269 1586 1587 28
1270 1586 1588 28
1271 1586 1589 28
1272 1586 1590 28
1273 1591 1592 28
1274 1591 1593 28
1275 1591 1594 28
1276 1591 1595 28
1277 1596 1597 28
1278 1596 1598 28
1279 1596 1599 28
1280 1596 1600 28
1281 1601 1602 28
1282 1601 1603 28
1283 1601 1604 28
1284 1601 1605 28
1285 1606 1607 28
1286 1606 1608 28
1287 1606 1609 28
1288 1606 1610 28
1289 1611 1612 28
1290 1611 1613 28
1291 1611 1614 28
1292 1611 1615 28
1293 1616 1617 28
1294 1616 1618 28
1295 1616 1619 28
1296 1616 1620 28
1297 1621 1622 28
1298 1621 1623 28
1299 1621 1624 28
1300 1621 1625 28
1301 1626 1627 28
1302 1626 1628 28
1303 1626 1629 28
1304 1626 1630 28
1305 1631 1632 28
1306 1631 1633 28
1307 1631 1634 28
1308 1631 1635 28
1309 1636 1637 28
1310 1636 1638 28
1311 1636 1639 28
1312 1636 1640 28
1313 1641 1642 28
1314 1641 1643 28
1315 1641 1644 28
1316 1641 1645 28
1317 1646 1647 28
1318 1646 1648 28
1319 1646 1649 28
1320 1646 1650 28
1321 1651 1652 28
1322 1651 1653 28
1323 1651 1654 28
1324 1651 1655 28
1325 1656 1657 28
1326 1656 1658 28
1327 1656 1659 28
1328 1656 1660 28
1329 1661 1662 28
1330 1661 1663 28
1331 1661 1664 28
1332 1661 1665 28
1333 1666 1667 28
1334 1666 1668 28
1335 1666 1669 28
1336 1666 1670 28
1337 1671 1672 28
1338 1671 1673 28
1339 1671 1674 28
1340 1671 1675 28
1341 1676 1677 28
1342 1676 1678 28
1343 1676 1679 28
1344 1676 1680 28
1345 1681 1682 28
1346 1681 1683 28
1347 1681 1684 28
1348 1681 1685 28
1349 1686 1687 28
1350 1686 1688 28
1351 1686 1689 28
1352 1686 1690 28
1353 1691 1692 28
1354 1691 1693 28
1355 1691 1694 28
1356 1691 1695 28
1357 1696 1697 28
1358 1696 1698 28
1359 1696 1699 28
1360 1696 1700 28
1361 1701 1702 28
1362 1701 1703 28
1363 1701 1704 28
1364 1701 1705 28
1365 1706 1707 28
1366 1706 1708 28
1367 1706 1709 28
1368 1706 1710 28
1369 1711 1712 28
1370 1711 1713 28
1371 1711 1714 28
1372 1711 1715 28
1373 1716 1717 28
1374 1716 1718 28
1375 1716 1719 28
1376 1716 1720 28
1377 1721 1722 28
1378 1721 1723 28
1379 1721 1724 28
1380 1721 1725 28
1381 1726 1727 28
1382 1726 1728 28
1383 1726 1729 28
1384 1726 1730 28
1385 1731 1732 28
1386 1731 1733 28
1387 1731 1734 28
1388 1731 1735 28
1389 1736 1737 28
1390 1736 1738 28
1391 1736 1739 28
1392 1736 1740 28
1393 1741 1742 28
1394 1741 1743 28
1395 1741 1744 28
1396 1741 1745 28
1397 1746 1747 28
1398 1746 1748 28
1399 1746 1749 28
1400 1746 1750 28
1401 1751 1752 28
1402 1751 1753 28
1403 1751 1754 28
1404 1751 1755 28
1405 1756 1757 28
1406 1756 1758 28
1407 1756 1759 28
1408 1756 1760 28
1409 1761 1762 28
1410 1761 1763 28
1411 1761 1764 28
1412 1761 1765 28
1413 1766 1767 28
1414 1766 1768 28
1415 1766 1769 28
1416 1766 1770 28
1417 1771 1772 28
1418 1771 1773 28
1419 1771 1774 28
1420 1771 1775 28
1421 1776 1777 28
1422 1776 1778 28
1423 1776 1779 28
1424 1776 1780 28
1425 1781 1782 28
1426 1781 1783 28
1427 1781 1784 28
1428 1781 1785 28
1429 1786 1787 28
1430 1786 1788 28
1431 1786 1789 28
1432 1786 1790 28
1433 1791 1792 28
1434 1791 1793 28
1435 1791 1794 28
1436 1791 1795 28
1437 1796 1797 28
1438 1796 1798 28
1439 1796 1799 28
1440 1796 1800 28
1441 1801 1802 28
1442 1801 1803 28
1443 1801 1804 28
1444 1801 1805 28
1445 1806 1807 28
1446 1806 1808 28
1447 1806 1809 28
1448 1806 1810 28
1449 1811 1812 28
1450 1811 1813 28
1451 1811 1814 28
1452 1811 1815 28
1453 1816 1817 28
1454 1816 1818 28
1455 1816 1819 28
1456 1816 1820 28
1457 1821 1822 28
1458 1821 1823 28
1459 1821 1824 28
1460 1821 1825 28
1461 1826 1827 28
1462 1826 1828 28
1463 1826 1829 28
1464 1826 1830 28
1465 1831 1832 28
1466 1831 1833 28
1467 1831 1834 28
1468 1831 1835 28
1469 1836 1837 28
1470 1836 1838 28
1471 1836 1839 28
1472 1836 1840 28
1473 1841 1842 28
1474 1841 1843 28
1475 1841 1844 28
1476 1841 1845 28
1477 1846 1847 28
1478 1846 1848 28
1479 1846 1849 28
1480 1846 1850 28
1481 1851 1852 28
1482 1851 1853 28
1483 1851 1854 28
1484 1851 1855 28
1485 1856 1857 28
1486 1856 1858 28
1487 1856 1859 28
1488 1856 1860 28
1489 1861 1862 28
1490 1861 1863 28
1491 1861 1864 28
1492 1861 1865 28
1493 1866 1867 28
1494 1866 1868 28
1495 1866 1869 28
1496 1866 1870 28
1497 1871 1872 28
1498 1871 1873 28
1499 1871 1874 28
1500 1871 1875 28
1501 1876 1877 28
1502 1876 1878 28
1503 1876 1879 28
1504 1876 1880 28
1505 1881 1882 28
1506 1881 1883 28
1507 1881 1884 28
1508 1881 1885 28
1509 1886 1887 28
1510 1886 1888 28
1511 1886 1889 28
1512 1886 1890 28
1513 1891 1892 28
1514 1891 1893 28
1515 1891 1894 28
1516 1891 1895 28
1517 1896 1897 28
1518 1896 1898 28
1519 1896 1899 28
1520 1896 1900 28
1521 1901 1902 28
1522 1901 1903 28
1523 1901 1904 28
1524 1901 1905 28
1525 1906 1907 28
1526 1906 1908 28
1527 1906 1909 28
1528 1906 1910 28
1529 1911 1912 28
1530 1911 1913 28
1531 1911 1914 28
1532 1911 1915 28
1533 1916 1917 28
1534 1916 1918 28
1535 1916 1919 28
1536 1916 1920 28
1537 1921 1922 28
1538 1921 1923 28
1539 1921 1924 28
1540 1921 1925 28
1541 1926 1927 28
1542 1926 1928 28
1543 1926 1929 28
1544 1926 1930 28
1545 1931 1932 28
1546 1931 1933 28
1547 1931 1934 28
1548 1931 1935 28
1549 1936 1937 28
1550 1936 1938 28
1551 1936 1939 28
1552 1936 1940 28
1553 1941 1942 28
1554 1941 1943 28
1555 1941 1944 28
1556 1941 1945 28
1557 1946 1947 28
1558 1946 1948 28
1559 1946 1949 28
1560 1946 1950 28
1561 1951 1952 28
1562 1951 1953 28
1563 1951 1954 28
1564 1951 1955 28
1565 1956 1957 28
1566 1956 1958 28
1567 1956 1959 28
1568 1956 1960 28
1569 1961 1962 28
1570 1961 1963 28
1571 1961 1964 28
1572 1961 1965 28
1573 1966 1967 28
1574 1966 1968 28
1575 1966 1969 28
1576 1966 1970 28
1577 1971 1972 28
1578 1971 1973 28
1579 1971 1974 28
1580 1971 1975 28
1581 1976 1977 28
1582 1976 1978 28
1583 1976 1979 28
1584 1976 1980 28
1585 1981 1982 28
1586 1981 1983 28
1587 1981 1984 28
1588 1981 1985 28
1589 1986 1987 28
1590 1986 1988 28
1591 1986 1989 28
1592 1986 1990 28
1593 1991 1992 28
1594 1991 1993 28
1595 1991 1994 28
1596 1991 1995 28
1597 1996 1997 28
1598 1996 1998 28
1599 1996 1999 28
1600 1996 2000 28
1601 2001 2002 28
1602 2001 2003 28
1603 2001 2004 28
1604 2001 2005 28
1605 2006 2007 28
1606 2006 2008 28
1607 2006 2009 28
1608 2006 2010 28
1609 2011 2012 28
1610 2011 2013 28
1611 2011 2014 28
1612 2011 2015 28
1613 2016 2017 28
1614 2016 2018 28
1615 2016 2019 28
1616 2016 2020 28
1617 2021 2022 28
1618 2021 2023 28
1619 2021 2024 28
1620 2021 2025 28
1621 2026 2027 28
1622 2026 2028 28
1623 2026 2029 28
1624 2026 2030 28
1625 2031 2032 28
1626 2031 2033 28
1627 2031 2034 28
1628 2031 2035 28
1629 2036 2037 28
1630 2036 2038 28
1631 2036 2039 28
1632 2036 2040 28
1633 2041 2042 28
1634 2041 2043 28
1635 2041 2044 28
1636 2041 2045 28
1637 2046 2047 28
1638 2046 2048 28
1639 2046 2049 28
1640 2046 2050 28
1641 2051 2052 28
1642 2051 2053 28
1643 2051 2054 28
1644 2051 2055 28
1645 2056 2057 28
1646 2056 2058 28
1647 2056 2059 28
1648 2056 2060 28
1649 2061 2062 28
1650 2061 2063 28
1651 2061 2064 28
1652 2061 2065 28
1653 2066 2067 28
1654 2066 2068 28
1655 2066 2069 28
1656 2066 2070 28
1657 2071 2072 28
1658 2071 2073 28
1659 2071 2074 28
1660 2071 2075 28
1661 2076 2077 28
1662 2076 2078 28
1663 2076 2079 28
1664 2076 2080 28
1665 2081 2082 28
1666 2081 2083 28
1667 2081 2084 28
1668 2081 2085 28
1669 2086 2087 28
1670 2086 2088 28
1671 2086 2089 28
1672 2086 2090 28
1673 2091 2092 28
1674 2091 2093 28
1675 2091 2094 28
1676 2091 2095 28
1677 2096 2097 28
1678 2096 2098 28
1679 2096 2099 28
1680 2096 2100 28
1681 2101 2102 28
1682 2101 2103 28
1683 2101 2104 28
1684 2101 2105 28
1685 2106 2107 28
1686 2106 2108 28
1687 2106 2109 28
1688 2106 2110 28
1689 2111 2112 28
1690 2111 2113 28
1691 2111 2114 28
1692 2111 2115 28
1693 2116 2117 28
1694 2116 2118 28
1695 2116 2119 28
1696 2116 2120 28
1697 2121 2122 28
1698 2121 2123 28
1699 2121 2124 28
1700 2121 2125 28
1701 2126 2127 28
1702 2126 2128 28
1703 2126 2129 28
1704 2126 2130 28
1705 2131 2132 28
1706 2131 2133 28
1707 2131 2134 28
1708 2131 2135 28
1709 2136 2137 28
1710 2136 2138 28
1711 2136 2139 28
1712 2136 2140 28
1713 2141 2142 28
1714 2141 2143 28
1715 2141 2144 28
1716 2141 2145 28
1717 2146 2147 28
1718 2146 2148 28
1719 2146 2149 28
1720 2146 2150 28
1721 2151 2152 28
1722 2151 2153 28
1723 2151 2154 28
1724 2151 2155 28
1725 2156 2157 28
1726 2156 2158 28
1727 2156 2159 28
1728 2156 2160 28
1729 2161 2162 28
1730 2161 2163 28
1731 2161 2164 28
1732 2161 2165 28
1733 2166 2167 28
1734 2166 2168 28
1735 2166 2169 28
1736 2166 2170 28
1737 2171 2172 28
1738 2171 2173 28
1739 2171 2174 28
1740 2171 2175 28
1741 2176 2177 28
1742 2176 2178 28
1743 2176 2179 28
1744 2176 2180 28
1745 2181 2182 28
1746 2181 2183 28
1747 2181 2184 28
1748 2181 2185 28
1749 2186 2187 28
1750 2186 2188 28
1751 2186 2189 28
1752 2186 2190 28
1753 2191 2192 28
1754 2191 2193 28
1755 2191 2194 28
1756 2191 2195 28
1757 2196 2197 28
1758 2196 2198 28
1759 2196 2199 28
1760 2196 2200 28
1761 2201 2202 28
1762 2201 2203 28
1763 2201 2204 28
1764 2201 2205 28
1765 2206 2207 28
1766 2206 2208 28
1767 2206 2209 28
1768 2206 2210 28
1769 2211 2212 28
1770 2211 2213 28
1771 2211 2214 28
1772 2211 2215 28
1773 2216 2217 28
1774 2216 2218 28
1775 2216 2219 28
1776 2216 2220 28
1777 2221 2222 28
1778 2221 2223 28
1779 2221 2224 28
1780 2221 2225 28
1781 2226 2227 28
1782 2226 2228 28
1783 2226 2229 28
1784 2226 2230 28
1785 2231 2232 28
1786 2231 2233 28
1787 2231 2234 28
1788 2231 2235 28
1789 2236 2237 28
1790 2236 2238 28
1791 2236 2239 28
1792 2236 2240 28
1793 2241 2242 28
1794 2241 2243 28
1795 2241 2244 28
1796 2241 2245 28
1797 2246 2247 28
1798 2246 2248 28
1799 2246 2249 28
1800 2246 2250 28
1801 2251 2252 28
1802 2251 2253 28
1803 2251 2254 28
1804 2251 2255 28
1805 2256 2257 28
1806 2256 2258 28
1807 2256 2259 28
1808 2256 2260 28
1809 2261 2262 28
1810 2261 2263 28
1811 2261 2264 28
1812 2261 2265 28
1813 2266 2267 28
1814 2266 2268 28
1815 2266 2269 28
1816 2266 2270 28
1817 2271 2272 28
1818 2271 2273 28
1819 2271 2274 28
1820 2271 2275 28
1821 2276 2277 28
1822 2276 2278 28
1823 2276 2279 28
1824 2276 2280 28
1825 2281 2282 28
1826 2281 2283 28
1827 2281 2284 28
1828 2281 2285 28
1829 2286 2287 28
1830 2286 2288 28
1831 2286 2289 28
1832 2286 2290 28
1833 2291 2292 28
1834 2291 2293 28
1835 2291 2294 28
1836 2291 2295 28
1837 2296 2297 28
1838 2296 2298 28
1839 2296 2299 28
1840 2296 2300 28
1841 2301 2302 28
1842 2301 2303 28
1843 2301 2304 28
1844 2301 2305 28
1845 2306 2307 28
1846 2306 2308 28
1847 2306 2309 28
1848 2306 2310 28
1849 2311 2312 28
1850 2311 2313 28
1851 2311 2314 28
1852 2311 2315 28
1853 2316 2317 28
1854 2316 2318 28
1855 2316 2319 28
1856 2316 2320 28
1857 2321 2322 28
1858 2321 2323 28
1859 2321 2324 28
1860 2321 2325 28
1861 2326 2327 28
1862 2326 2328 28
1863 2326 2329 28
1864 2326 2330 28
1865 2331 2332 28
1866 2331 2333 28
1867 2331 2334 28
1868 2331 2335 28
1869 2336 2337 28
1870 2336 2338 28
1871 2336 2339 28
1872 2336 2340 28
1873 2341 2342 28
1874 2341 2343 28
1875 2341 2344 28
1876 2341 2345 28
1877 2346 2347 28
1878 2346 2348 28
1879 2346 2349 28
1880 2346 2350 28
1881 2351 2352 28
1882 2351 2353 28
1883 2351 2354 28
1884 2351 2355 28
1885 2356 2357 28
1886 2356 2358 28
1887 2356 2359 28
1888 2356 2360 28
1889 2361 2362 28
1890 2361 2363 28
1891 2361 2364 28
1892 2361 2365 28
1893 2366 2367 28
1894 2366 2368 28
1895 2366 2369 28
1896 2366 2370 28
1897 2371 2372 28
1898 2371 2373 28
1899 2371 2374 28
1900 2371 2375 28
1901 2376 2377 28
1902 2376 2378 28
1903 2376 2379 28
1904 2376 2380 28
1905 2381 2382 28
1906 2381 2383 28
1907 2381 2384 28
1908 2381 2385 28
1909 2386 2387 28
1910 2386 2388 28
1911 2386 2389 28
1912 2386 2390 28
1913 2391 2392 28
1914 2391 2393 28
1915 2391 2394 28
1916 2391 2395 28
1917 2396 2397 28
1918 2396 2398 28
1919 2396 2399 28
1920 2396 2400 28
1921 2401 2402 28
1922 2401 2403 28
1923 2401 2404 28
1924 2401 2405 28
1925 2406 2407 28
1926 2406 2408 28
1927 2406 2409 28
1928 2406 2410 28
1929 2411 2412 28
1930 2411 2413 28
1931 2411 2414 28
1932 2411 2415 28
1933 2416 2417 28
1934 2416 2418 28
1935 2416 2419 28
1936 2416 2420 28
1937 2421 2422 28
1938 2421 2423 28
1939 2421 2424 28
1940 2421 2425 28
1941 2426 2427 28
1942 2426 2428 28
1943 2426 2429 28
1944 2426 2430 28
1945 2431 2432 28
1946 2431 2433 28
1947 2431 2434 28
1948 2431 2435 28
1949 2436 2437 28
1950 2436 2438 28
1951 2436 2439 28
1952 2436 2440 28
1953 2441 2442 28
1954 2441 2443 28
1955 2441 2444 28
1956 2441 2445 28
1957 2446 2447 28
1958 2446 2448 28
1959 2446 2449 28
1960 2446 2450 28
1961 2451 2452 28
1962 2451 2453 28
1963 2451 2454 28
1964 2451 2455 28
1965 2456 2457 28
1966 2456 2458 28
1967 2456 2459 28
1968 2456 2460 28
1969 2461 2462 28
1970 2461 2463 28
1971 2461 2464 28
1972 2461 2465 28
1973 2466 2467 28
1974 2466 2468 28
1975 2466 2469 28
1976 2466 2470 28
1977 2471 2472 28
1978 2471 2473 28
1979 2471 2474 28
1980 2471 2475 28
1981 2476 2477 28
1982 2476 2478 28
1983 2476 2479 28
1984 2476 2480 28
1985 2481 2482 28
1986 2481 2483 28
1987 2481 2484 28
1988 2481 2485 28
1989 2486 2487 28
1990 2486 2488 28
1991 2486 2489 28
1992 2486 2490 28
1993 2491 2492 28
1994 2491 2493 28
1995 2491 2494 28
1996 2491 2495 28
1997 2496 2497 28
1998 2496 2498 28
1999 2496 2499 28
2000 2496 2500 28
2001 2501 2502 28
2002 2501 2503 28
2003 2501 2504 28
2004 2501 2505 28
2005 2506 2507 28
2006 2506 2508 28
2007 2506 2509 28
2008 2506 2510 28
2009 2511 2512 28
2010 2511 2513 28
2011 2511 2514 28
2012 2511 2515 28
2013 2516 2517 28
2014 2516 2518 28
2015 2516 2519 28
2016 2516 2520 28
2017 2521 2522 28
2018 2521 2523 28
2019 2521 2524 28
2020 2521 2525 28
2021 2526 2527 28
2022 2526 2528 28
2023 2526 2529 28
2024 2526 2530 28
2025 2531 2532 28
2026 2531 2533 28
2027 2531 2534 28
2028 2531 2535 28
2029 2536 2537 28
2030 2536 2538 28
2031 2536 2539 28
2032 2536 2540 28
2033 2541 2542 28
2034 2541 2543 28
2035 2541 2544 28
2036 2541 2545 28
2037 2546 2547 28
2038 2546 2548 28
2039 2546 2549 28
2040 2546 2550 28
2041 2551 2552 28
2042 2551 2553 28
2043 2551 2554 28
2044 2551 2555 28
2045 2556 2557 28
2046 2556 2558 28
2047 2556 2559 28
2048 2556 2560 28
2049 2561 2562 28
2050 2561 2563 28
2051 2561 2564 28
2052 2561 2565 28
2053 2566 2567 28
2054 2566 2568 28
2055 2566 2569 28
2056 2566 2570 28
2057 2571 2572 28
2058 2571 2573 28
2059 2571 2574 28
2060 2571 2575 28
2061 2576 2577 28
2062 2576 2578 28
2063 2576 2579 28
2064 2576 2580 28
2065 2581 2582 28
2066 2581 2583 28
2067 2581 2584 28
2068 2581 2585 28
2069 2586 2587 28
2070 2586 2588 28
2071 2586 2589 28
2072 2586 2590 28
2073 2591 2592 28
2074 2591 2593 28
2075 2591 2594 28
2076 2591 2595 28
2077 2596 2597 28
2078 2596 2598 28
2079 2596 2599 28
2080 2596 2600 28
2081 2601 2602 28
2082 2601 2603 28
2083 2601 2604 28
2084 2601 2605 28
2085 2606 2607 28
2086 2606 2608 28
2087 2606 2609 28
2088 2606 2610 28
2089 2611 2612 28
2090 2611 2613 28
2091 2611 2614 28
2092 2611 2615 28
2093 2616 2617 28
2094 2616 2618 28
2095 2616 2619 28
2096 2616 2620 28
2097 2621 2622 28
2098 2621 2623 28
2099 2621 2624 28
2100 2621 2625 28
2101 2626 2627 28
2102 2626 2628 28
2103 2626 2629 28
2104 2626 2630 28
2105 2631 2632 28
2106 2631 2633 28
2107 2631 2634 28
2108 2631 2635 28
2109 2636 2637 28
2110 2636 2638 28
2111 2636 2639 28
2112 2636 2640 28
2113 2641 2642 28
2114 2641 2643 28
2115 2641 2644 28
2116 2641 2645 28
2117 2646 2647 28
2118 2646 2648 28
2119 2646 2649 28
2120 2646 2650 28
2121 2651 2652 28
2122 2651 2653 28
2123 2651 2654 28
2124 2651 2655 28
2125 2656 2657 28
2126 2656 2658 28
2127 2656 2659 28
2128 2656 2660 28
2129 2661 2662 28
2130 2661 2663 28
2131 2661 2664 28
2132 2661 2665 28
2133 2666 2667 28
2134 2666 2668 28
2135 2666 2669 28
2136 2666 2670 28
2137 2671 2672 28
2138 2671 2673 28
2139 2671 2674 28
2140 2671 2675 28
2141 2676 2677 28
2142 2676 2678 28
2143 2676 2679 28
2144 2676 2680 28
2145 2681 2682 28
2146 2681 2683 28
2147 2681 2684 28
2148 2681 2685 28
2149 2686 2687 28
2150 2686 2688 28
2151 2686 2689 28
2152 2686 2690 28
2153 2691 2692 28
2154 2691 2693 28
2155 2691 2694 28
2156 2691 2695 28
2157 2696 2697 28
2158 2696 2698 28
2159 2696 2699 28
2160 2696 2700 28
2161 2701 2702 28
2162 2701 2703 28
2163 2701 2704 28
2164 2701 2705 28
2165 2706 2707 28
2166 2706 2708 28
2167 2706 2709 28
2168 2706 2710 28
2169 2711 2712 28
2170 2711 2713 28
2171 2711 2714 28
2172 2711 2715 28
2173 2716 2717 28
2174 2716 2718 28
2175 2716 2719 28
2176 2716 2720 28
2177 2721 2722 28
2178 2721 2723 28
2179 2721 2724 28
2180 2721 2725 28
2181 2726 2727 28
2182 2726 2728 28
2183 2726 2729 28
2184 2726 2730 28
2185 2731 2732 28
2186 2731 2733 28
2187 2731 2734 28
2188 2731 2735 28
2189 2736 2737 28
2190 2736 2738 28
2191 2736 2739 28
2192 2736 2740 28
2193 2741 2742 28
2194 2741 2743 28
2195 2741 2744 28
2196 2741 2745 28
2197 2746 2747 28
2198 2746 2748 28
2199 2746 2749 28
2200 2746 2750 28
2201 2751 2752 28
2202 2751 2753 28
2203 2751 2754 28
2204 2751 2755 28
2205 2756 2757 28
2206 2756 2758 28
2207 2756 2759 28
2208 2756 2760 28
2209 2761 2762 28
2210 2761 2763 28
2211 2761 2764 28
2212 2761 2765 28
2213 2766 2767 28
2214 2766 2768 28
2215 2766 2769 28
2216 2766 2770 28
2217 2771 2772 28
2218 2771 2773 28
2219 2771 2774 28
2220 2771 2775 28
2221 2776 2777 28
2222 2776 2778 28
2223 2776 2779 28
2224 2776 2780 28
2225 2781 2782 28
2226 2781 2783 28
2227 2781 2784 28
2228 2781 2785 28
2229 2786 2787 28
2230 2786 2788 28
2231 2786 2789 28
2232 2786 2790 28
2233 2791 2792 28
2234 2791 2793 28
2235 2791 2794 28
2236 2791 2795 28
2237 2796 2797 28
2238 2796 2798 28
2239 2796 2799 28
2240 2796 2800 28
2241 2801 2802 28
2242 2801 2803 28
2243 2801 2804 28
2244 2801 2805 28
2245 2806 2807 28
2246 2806 2808 28
2247 2806 2809 28
2248 2806 2810 28
2249 2811 2812 28
2250 2811 2813 28
2251 2811 2814 28
2252 2811 2815 28
2253 2816 2817 28
2254 2816 2818 28
2255 2816 2819 28
2256 2816 2820 28
2257 2821 2822 28
2258 2821 2823 28
2259 2821 2824 28
2260 2821 2825 28
2261 2826 2827 28
2262 2826 2828 28
2263 2826 2829 28
2264 2826 2830 28
2265 2831 2832 28
2266 2831 2833 28
2267 2831 2834 28
2268 2831 2835 28
2269 2836 2837 28
2270 2836 2838 28
2271 2836 2839 28
2272 2836 2840 28
2273 2841 2842 28
2274 2841 2843 28
2275 2841 2844 28
2276 2841 2845 28
2277 2846 2847 28
2278 2846 2848 28
2279 2846 2849 28
2280 2846 2850 28
2281 2851 2852 28
2282 2851 2853 28
2283 2851 2854 28
2284 2851 2855 28
2285 2856 2857 28
2286 2856 2858 28
2287 2856 2859 28
2288 2856 2860 28
2289 2861 2862 28
2290 2861 2863 28
2291 2861 2864 28
2292 2861 2865 28
2293 2866 2867 28
2294 2866 2868 28
2295 2866 2869 28
2296 2866 2870 28
2297 2871 2872 28
2298 2871 2873 28
2299 2871 2874 28
2300 2871 2875 28
2301 2876 2877 28
2302 2876 2878 28
2303 2876 2879 28
2304 2876 2880 28
2305 2881 2882 28
2306 2881 2883 28
2307 2881 2884 28
2308 2881 2885 28
2309 2886 2887 28
2310 2886 2888 28
2311 2886 2889 28
2312 2886 2890 28
2313 2891 2892 28
2314 2891 2893 28
2315 2891 2894 28
2316 2891 2895 28
2317 2896 2897 28
2318 2896 2898 28
2319 2896 2899 28
2320 2896 2900 28
2321 2901 2902 28
2322 2901 2903 28
2323 2901 2904 28
2324 2901 2905 28
2325 2906 2907 28
2326 2906 2908 28
2327 2906 2909 28
2328 2906 2910 28
2329 2911 2912 28
2330 2911 2913 28
2331 2911 2914 28
2332 2911 2915 28
2333 2916 2917 28
2334 2916 2918 28
2335 2916 2919 28
2336 2916 2920 28
2337 2921 2922 28
2338 2921 2923 28
2339 2921 2924 28
2340 2921 2925 28
2341 2926 2927 28
2342 2926 2928 28
2343 2926 2929 28
2344 2926 2930 28
2345 2931 2932 28
2346 2931 2933 28
2347 2931 2934 28
2348 2931 2935 28
2349 2936 2937 28
2350 2936 2938 28
2351 2936 2939 28
2352 2936 2940 28
2353 2941 2942 28
2354 2941 2943 28
2355 2941 2944 28
2356 2941 2945 28
2357 2946 2947 28
2358 2946 2948 28
2359 2946 2949 28
2360 2946 2950 28
2361 2951 2952 28
2362 2951 2953 28
2363 2951 2954 28
2364 2951 2955 28
2365 2956 2957 28
2366 2956 2958 28
2367 2956 2959 28
2368 2956 2960 28
2369 2961 2962 28
2370 2961 2963 28
2371 2961 2964 28
2372 2961 2965 28
2373 2966 2967 28
2374 2966 2968 28
2375 2966 2969 28
2376 2966 2970 28
2377 2971 2972 28
2378 2971 2973 28
2379 2971 2974 28
2380 2971 2975 28
2381 2976 2977 28
2382 2976 2978 28
2383 2976 2979 28
2384 2976 2980 28
2385 2981 2982 28
2386 2981 2983 28
2387 2981 2984 28
2388 2981 2985 28
2389 2986 2987 28
2390 2986 2988 28
2391 2986 2989 28
2392 2986 2990 28
2393 2991 2992 28
2394 2991 2993 28
2395 2991 2994 28
2396 2991 2995 28
2397 2996 2997 28
2398 2996 2998 28
2399 2996 2999 28
2400 2996 3000 28
2401 3001 3002 28
2402 3001 3003 28
2403 3001 3004 28
2404 3001 3005 28
2405 3006 3007 28
2406 3006 3008 28
2407 3006 3009 28
2408 3006 3010 28
2409 3011 3012 28
2410 3011 3013 28
2411 3011 3014 28
2412 3011 3015 28
2413 3016 3017 28
2414 3016 3018 28
2415 3016 3019 28
2416 3016 3020 28
2417 3021 3022 28
2418 3021 3023 28
2419 3021 3024 28
2420 3021 3025 28
2421 3026 3027 28
2422 3026 3028 28
2423 3026 3029 28
2424 3026 3030 28
2425 3031 3032 28
2426 3031 3033 28
2427 3031 3034 28
2428 3031 3035 28
2429 3036 3037 28
2430 3036 3038 28
2431 3036 3039 28
2432 3036 3040 28
2433 3041 3042 28
2434 3041 3043 28
2435 3041 3044 28
2436 3041 3045 28
2437 3046 3047 28
2438 3046 3048 28
2439 3046 3049 28
2440 3046 3050 28
2441 3051 3052 28
2442 3051 3053 28
2443 3051 3054 28
2444 3051 3055 28
2445 3056 3057 28
2446 3056 3058 28
2447 3056 3059 28
2448 3056 3060 28
2449 3061 3062 28
2450 3061 3063 28
2451 3061 3064 28
2452 3061 3065 28
2453 3066 3067 28
2454 3066 3068 28
2455 3066 3069 28
2456 3066 3070 28
2457 3071 3072 28
2458 3071 3073 28
2459 3071 3074 28
2460 3071 3075 28
2461 3076 3077 28
2462 3076 3078 28
2463 3076 3079 28
2464 3076 3080 28
2465 3081 3082 28
2466 3081 3083 28
2467 3081 3084 28
2468 3081 3085 28
2469 3086 3087 28
2470 3086 3088 28
2471 3086 3089 28
2472 3086 3090 28
2473 3091 3092 28
2474 3091 3093 28
2475 3091 3094 28
2476 3091 3095 28
2477 3096 3097 28
2478 3096 3098 28
2479 3096 3099 28
2480 3096 3100 28
2481 3101 3102 28
2482 3101 3103 28
2483 3101 3104 28
2484 3101 3105 28
2485 3106 3107 28
2486 3106 3108 28
2487 3106 3109 28
2488 3106 3110 28
2489 3111 3112 28
2490 3111 3113 28
2491 3111 3114 28
2492 3111 3115 28
2493 3116 3117 28
2494 3116 3118 28
2495 3116 3119 28
2496 3116 3120 28
2497 3121 3122 28
2498 3121 3123 28
2499 3121 3124 28
2500 3121 3125 28
2501 3126 3127 28
2502 3126 3128 28
2503 3126 3129 28
2504 3126 3130 28
2505 3131 3132 28
2506 3131 3133 28
2507 3131 3134 28
2508 3131 3135 28
2509 3136 3137 28
2510 3136 3138 28
2511 3136 3139 28
2512 3136 3140 28
2513 3141 3142 28
2514 3141 3143 28
2515 3141 3144 28
2516 3141 3145 28
2517 3146 3147 28
2518 3146 3148 28
2519 3146 3149 28
2520 3146 3150 28
2521 3151 3152 28
2522 3151 3153 28
2523 3151 3154 28
2524 3151 3155 28
2525 3156 3157 28
2526 3156 3158 28
2527 3156 3159 28
2528 3156 3160 28
2529 3161 3162 28
2530 3161 3163 28
2531 3161 3164 28
2532 3161 3165 28
2533 3166 3167 28
2534 3166 3168 28
2535 3166 3169 28
2536 3166 3170 28
2537 3171 3172 28
2538 3171 3173 28
2539 3171 3174 28
2540 3171 3175 28
2541 3176 3177 28
2542 3176 3178 28
2543 3176 3179 28
2544 3176 3180 28
2545 3181 3182 28
2546 3181 3183 28
2547 3181 3184 28
2548 3181 3185 28
2549 3186 3187 28
2550 3186 3188 28
2551 3186 3189 28
2552 3186 3190 28
2553 3191 3192 28
2554 3191 3193 28
2555 3191 3194 28
2556 3191 3195 28
2557 3196 3197 28
2558 3196 3198 28
2559 3196 3199 28
2560 3196 3200 28
2561 3201 3202 28
2562 3201 3203 28
2563 3201 3204 28
2564 3201 3205 28
2565 3206 3207 28
2566 3206 3208 28
2567 3206 3209 28
2568 3206 3210 28
2569 3211 3212 28
2570 3211 3213 28
2571 3211 3214 28
2572 3211 3215 28
2573 3216 3217 28
2574 3216 3218 28
2575 3216 3219 28
2576 3216 3220 28
2577 3221 3222 28
2578 3221 3223 28
2579 3221 3224 28
2580 3221 3225 28
2581 3226 3227 28
2582 3226 3228 28
2583 3226 3229 28
2584 3226 3230 28
2585 3231 3232 28
2586 3231 3233 28
2587 3231 3234 28
2588 3231 3235 28
2589 3236 3237 28
2590 3236 3238 28
2591 3236 3239 28
2592 3236 3240 28
2593 3241 3242 28
2594 3241 3243 28
2595 3241 3244 28
2596 3241 3245 28
2597 3246 3247 28
2598 3246 3248 28
2599 3246 3249 28
2600 3246 3250 28
2601 3251 3252 28
2602 3251 3253 28
2603 3251 3254 28
2604 3251 3255 28
2605 3256 3257 28
2606 3256 3258 28
2607 3256 3259 28
2608 3256 3260 28
2609 3261 3262 28
2610 3261 3263 28
2611 3261 3264 28
2612 3261 3265 28
2613 3266 3267 28
2614 3266 3268 28
2615 3266 3269 28
2616 3266 3270 28
2617 3271 3272 28
2618 3271 3273 28
2619 3271 3274 28
2620 3271 3275 28
2621 3276 3277 28
2622 3276 3278 28
2623 3276 3279 28
2624 3276 3280 28
2625 3281 3282 28
2626 3281 3283 28
2627 3281 3284 28
2628 3281 3285 28
2629 3286 3287 28
2630 3286 3288 28
2631 3286 3289 28
2632 3286 3290 28
2633 3291 3292 28
2634 3291 3293 28
2635 3291 3294 28
2636 3291 3295 28
2637 3296 3297 28
2638 3296 3298 28
2639 3296 3299 28
2640 3296 3300 28
2641 3301 3302 28
2642 3301 3303 28
2643 3301 3304 28
2644 3301 3305 28
2645 3306 3307 28
2646 3306 3308 28
2647 3306 3309 28
2648 3306 3310 28
2649 3311 3312 28
2650 3311 3313 28
2651 3311 3314 28
2652 3311 3315 28
2653 3316 3317 28
2654 3316 3318 28
2655 3316 3319 28
2656 3316 3320 28
2657 3321 3322 28
2658 3321 3323 28
2659 3321 3324 28
2660 3321 3325 28
2661 3326 3327 28
2662 3326 3328 28
2663 3326 3329 28
2664 3326 3330 28
2665 3331 3332 28
2666 3331 3333 28
2667 3331 3334 28
2668 3331 3335 28
2669 3336 3337 28
2670 3336 3338 28
2671 3336 3339 28
2672 3336 3340 28
2673 3341 3342 28
2674 3341 3343 28
2675 3341 3344 28
2676 3341 3345 28
2677 3346 3347 28
2678 3346 3348 28
2679 3346 3349 28
2680 3346 3350 28
2681 3351 3352 28
2682 3351 3353 28
2683 3351 3354 28
2684 3351 3355 28
2685 3356 3357 28
2686 3356 3358 28
2687 3356 3359 28
2688 3356 3360 28
2689 3361 3362 28
2690 3361 3363 28
2691 3361 3364 28
2692 3361 3365 28
2693 3366 3367 28
2694 3366 3368 28
2695 3366 3369 28
2696 3366 3370 28
2697 3371 3372 28
2698 3371 3373 28
2699 3371 3374 28
2700 3371 3375 28
2701 3376 3377 28
2702 3376 3378 28
2703 3376 3379 28
2704 3376 3380 28
2705 3381 3382 28
2706 3381 3383 28
2707 3381 3384 28
2708 3381 3385 28
2709 3386 3387 28
2710 3386 3388 28
2711 3386 3389 28
2712 3386 3390 28
2713 3391 3392 28
2714 3391 3393 28
2715 3391 3394 28
2716 3391 3395 28
2717 3396 3397 28
2718 3396 3398 28
2719 3396 3399 28
2720 3396 3400 28
2721 3401 3402 28
2722 3401 3403 28
2723 3401 3404 28
2724 3401 3405 28
2725 3406 3407 28
2726 3406 3408 28
2727 3406 3409 28
2728 3406 3410 28
2729 3411 3412 28
2730 3411 3413 28
2731 3411 3414 28
2732 3411 3415 28
2733 3416 3417 28
2734 3416 3418 28
2735 3416 3419 28
2736 3416 3420 28
2737 3421 3422 28
2738 3421 3423 28
2739 3421 3424 28
2740 3421 3425 28
2741 3426 3427 28
2742 3426 3428 28
2743 3426 3429 28
2744 3426 3430 28
2745 3431 3432 28
2746 3431 3433 28
2747 3431 3434 28
2748 3431 3435 28
2749 3436 3437 28
2750 3436 3438 28
2751 3436 3439 28
2752 3436 3440 28
2753 3441 3442 28
2754 3441 3443 28
2755 3441 3444 28
2756 3441 3445 28
2757 3446 3447 28
2758 3446 3448 28
2759 3446 3449 28
2760 3446 3450 28
2761 3451 3452 28
2762 3451 3453 28
2763 3451 3454 28
2764 3451 3455 28
2765 3456 3457 28
2766 3456 3458 28
2767 3456 3459 28
2768 3456 3460 28
2769 3461 3462 28
2770 3461 3463 28
2771 3461 3464 28
2772 3461 3465 28
2773 3466 3467 28
2774 3466 3468 28
2775 3466 3469 28
2776 3466 3470 28
2777 3471 3472 28
2778 3471 3473 28
2779 3471 3474 28
2780 3471 3475 28
2781 3476 3477 28
2782 3476 3478 28
2783 3476 3479 28
2784 3476 3480 28
2785 3481 3482 28
2786 3481 3483 28
2787 3481 3484 28
2788 3481 3485 28
2789 3486 3487 28
2790 3486 3488 28
2791 3486 3489 28
2792 3486 3490 28
2793 3491 3492 28
2794 3491 3493 28
2795 3491 3494 28
2796 3491 3495 28
2797 3496 3497 28
2798 3496 3498 28
2799 3496 3499 28
2800 3496 3500 28
2801 3501 3502 28
2802 3501 3503 28
2803 3501 3504 28
2804 3501 3505 28
2805 3506 3507 28
2806 3506 3508 28
2807 3506 3509 28
2808 3506 3510 28
2809 3511 3512 28
2810 3511 3513 28
2811 3511 3514 28
2812 3511 3515 28
2813 3516 3517 28
2814 3516 3518 28
2815 3516 3519 28
2816 3516 3520 28
2817 3521 3522 28
2818 3521 3523 28
2819 3521 3524 28
2820 3521 3525 28
2821 3526 3527 28
2822 3526 3528 28
2823 3526 3529 28
2824 3526 3530 28
2825 3531 3532 28
2826 3531 3533 28
2827 3531 3534 28
2828 3531 3535 28
2829 3536 3537 28
2830 3536 3538 28
2831 3536 3539 28
2832 3536 3540 28
2833 3541 3542 28
2834 3541 3543 28
2835 3541 3544 28
2836 3541 3545 28
2837 3546 3547 28
2838 3546 3548 28
2839 3546 3549 28
2840 3546 3550 28
2841 3551 3552 28
2842 3551 3553 28
2843 3551 3554 28
2844 3551 3555 28
2845 3556 3557 28
2846 3556 3558 28
2847 3556 3559 28
2848 3556 3560 28
2849 3561 3562 28
2850 3561 3563 28
2851 3561 3564 28
2852 3561 3565 28
2853 3566 3567 28
2854 3566 3568 28
2855 3566 3569 28
2856 3566 3570 28
2857 3571 3572 28
2858 3571 3573 28
2859 3571 3574 28
2860 3571 3575 28
2861 3576 3577 28
2862 3576 3578 28
2863 3576 3579 28
2864 3576 3580 28
2865 3581 3582 28
2866 3581 3583 28
2867 3581 3584 28
2868 3581 3585 28
2869 3586 3587 28
2870 3586 3588 28
2871 3586 3589 28
2872 3586 3590 28
2873 3591 3592 28
2874 3591 3593 28
2875 3591 3594 28
2876 3591 3595 28
2877 3596 3597 28
2878 3596 3598 28
2879 3596 3599 28
2880 3596 3600 28
2881 3601 3602 28
2882 3601 3603 28
2883 3601 3604 28
2884 3601 3605 28
2885 3606 3607 28
2886 3606 3608 28
2887 3606 3609 28
2888 3606 3610 28
2889 3611 3612 28
2890 3611 3613 28
2891 3611 3614 28
2892 3611 3615 28
2893 3616 3617 28
2894 3616 3618 28
2895 3616 3619 28
2896 3616 3620 28
2897 3621 3622 28
2898 3621 3623 28
2899 3621 3624 28
2900 3621 3625 28
2901 3626 3627 28
2902 3626 3628 28
2903 3626 3629 28
2904 3626 3630 28
2905 3631 3632 28
2906 3631 3633 28
2907 3631 3634 28
2908 3631 3635 28
2909 3636 3637 28
2910 3636 3638 28
2911 3636 3639 28
2912 3636 3640 28
2913 3641 3642 28
2914 3641 3643 28
2915 3641 3644 28
2916 3641 3645 28
2917 3646 3647 28
2918 3646 3648 28
2919 3646 3649 28
2920 3646 3650 28
2921 3651 3652 28
2922 3651 3653 28
2923 3651 3654 28
2924 3651 3655 28
2925 3656 3657 28
2926 3656 3658 28
2927 3656 3659 28
2928 3656 3660 28
2929 3661 3662 28
2930 3661 3663 28
2931 3661 3664 28
2932 3661 3665 28
2933 3666 3667 28
2934 3666 3668 28
2935 3666 3669 28
2936 3666 3670 28
2937 3671 3672 28
2938 3671 3673 28
2939 3671 3674 28
2940 3671 3675 28
2941 3676 3677 28
2942 3676 3678 28
2943 3676 3679 28
2944 3676 3680 28
2945 3681 3682 28
2946 3681 3683 28
2947 3681 3684 28
2948 3681 3685 28
2949 3686 3687 28
2950 3686 3688 28
2951 3686 3689 28
2952 3686 3690 28
2953 3691 3692 28
2954 3691 3693 28
2955 3691 3694 28
2956 3691 3695 28
2957 3696 3697 28
2958 3696 3698 28
2959 3696 3699 28
2960 3696 3700 28
2961 3701 3702 28
2962 3701 3703 28
2963 3701 3704 28
2964 3701 3705 28
2965 3706 3707 28
2966 3706 3708 28
2967 3706 3709 28
2968 3706 3710 28
2969 3711 3712 28
2970 3711 3713 28
2971 3711 3714 28
2972 3711 3715 28
2973 3716 3717 28
2974 3716 3718 28
2975 3716 3719 28
2976 3716 3720 28
2977 3721 3722 28
2978 3721 3723 28
2979 3721 3724 28
2980 3721 3725 28
2981 3726 3727 28
2982 3726 3728 28
2983 3726 3729 28
2984 3726 3730 28
2985 3731 3732 28
2986 3731 3733 28
2987 3731 3734 28
2988 3731 3735 28
2989 3736 3737 28
2990 3736 3738 28
2991 3736 3739 28
2992 3736 3740 28
2993 3741 3742 28
2994 3741 3743 28
2995 3741 3744 28
2996 3741 3745 28
2997 3746 3747 28
2998 3746 3748 28
2999 3746 3749 28
3000 3746 3750 28
3001 3751 3752 28
3002 3751 3753 28
3003 3751 3754 28
3004 3751 3755 28
3005 3756 3757 28
3006 3756 3758 28
3007 3756 3759 28
3008 3756 3760 28
3009 3761 3762 28
3010 3761 3763 28
3011 3761 3764 28
3012 3761 3765 28
3013 3766 3767 28
3014 3766 3768 28
3015 3766 3769 28
3016 3766 3770 28
3017 3771 3772 28
3018 3771 3773 28
3019 3771 3774 28
3020 3771 3775 28
3021 3776 3777 28
3022 3776 3778 28
3023 3776 3779 28
3024 3776 3780 28
3025 3781 3782 28
3026 3781 3783 28
3027 3781 3784 28
3028 3781 3785 28
3029 3786 3787 28
3030 3786 3788 28
3031 3786 3789 28
3032 3786 3790 28
3033 3791 3792 28
3034 3791 3793 28
3035 3791 3794 28
3036 3791 3795 28
3037 3796 3797 28
3038 3796 3798 28
3039 3796 3799 28
3040 3796 3800 28
3041 3801 3802 28
3042 3801 3803 28
3043 3801 3804 28
3044 3801 3805 28
3045 3806 3807 28
3046 3806 3808 28
3047 3806 3809 28
3048 3806 3810 28
3049 3811 3812 28
3050 3811 3813 28
3051 3811 3814 28
3052 3811 3815 28
3053 3816 3817 28
3054 3816 3818 28
3055 3816 3819 28
3056 3816 3820 28
3057 3821 3822 28
3058 3821 3823 28
3059 3821 3824 28
3060 3821 3825 28
3061 3826 3827 28
3062 3826 3828 28
3063 3826 3829 28
3064 3826 3830 28
3065 3831 3832 28
3066 3831 3833 28
3067 3831 3834 28
3068 3831 3835 28
3069 3836 3837 28
3070 3836 3838 28
3071 3836 3839 28
3072 3836 3840 28
3073 3841 3842 28
3074 3841 3843 28
3075 3841 3844 28
3076 3841 3845 28
3077 3846 3847 28
3078 3846 3848 28
3079 3846 3849 28
3080 3846 3850 28
3081 3851 3852 28
3082 3851 3853 28
3083 3851 3854 28
3084 3851 3855 28
3085 3856 3857 28
3086 3856 3858 28
3087 3856 3859 28
3088 3856 3860 28
3089 3861 3862 28
3090 3861 3863 28
3091 3861 3864 28
3092 3861 3865 28
3093 3866 3867 28
3094 3866 3868 28
3095 3866 3869 28
3096 3866 3870 28
3097 3871 3872 28
3098 3871 3873 28
3099 3871 3874 28
3100 3871 3875 28
3101 3876 3877 28
3102 3876 3878 28
3103 3876 3879 28
3104 3876 3880 28
3105 3881 3882 28
3106 3881 3883 28
3107 3881 3884 28
3108 3881 3885 28
3109 3886 3887 28
3110 3886 3888 28
3111 3886 3889 28
3112 3886 3890 28
3113 3891 3892 28
3114 3891 3893 28
3115 3891 3894 28
3116 3891 3895 28
3117 3896 3897 28
3118 3896 3898 28
3119 3896 3899 28
3120 3896 3900 28
3121 3901 3902 28
3122 3901 3903 28
3123 3901 3904 28
3124 3901 3905 28
3125 3906 3907 28
3126 3906 3908 28
3127 3906 3909 28
3128 3906 3910 28
3129 3911 3912 28
3130 3911 3913 28
3131 3911 3914 28
3132 3911 3915 28
3133 3916 3917 28
3134 3916 3918 28
3135 3916 3919 28
3136 3916 3920 28
3137 3921 3922 28
3138 3921 3923 28
3139 3921 3924 28
3140 3921 3925 28
3141 3926 3927 28
3142 3926 3928 28
3143 3926 3929 28
3144 3926 3930 28
3145 3931 3932 28
3146 3931 3933 28
3147 3931 3934 28
3148 3931 3935 28
3149 3936 3937 28
3150 3936 3938 28
3151 3936 3939 28
3152 3936 3940 28
3153 3941 3942 28
3154 3941 3943 28
3155 3941 3944 28
3156 3941 3945 28
3157 3946 3947 28
3158 3946 3948 28
3159 3946 3949 28
3160 3946 3950 28
3161 3951 3952 28
3162 3951 3953 28
3163 3951 3954 28
3164 3951 3955 28
3165 3956 3957 28
3166 3956 3958 28
3167 3956 3959 28
3168 3956 3960 28
3169 3961 3962 28
3170 3961 3963 28
3171 3961 3964 28
3172 3961 3965 28
3173 3966 3967 28
3174 3966 3968 28
3175 3966 3969 28
3176 3966 3970 28
3177 3971 3972 28
3178 3971 3973 28
3179 3971 3974 28
3180 3971 3975 28
3181 3976 3977 28
3182 3976 3978 28
3183 3976 3979 28
3184 3976 3980 28
3185 3981 3982 28
3186 3981 3983 28
3187 3981 3984 28
3188 3981 3985 28
3189 3986 3987 28
3190 3986 3988 28
3191 3986 3989 28
3192 3986 3990 28
3193 3991 3992 28
3194 3991 3993 28
3195 3991 3994 28
3196 3991 3995 28
3197 3996 3997 28
3198 3996 3998 28
3199 3996 3999 28
3200 3996 4000 28
3201 4001 4002 28
3202 4001 4003 28
3203 4001 4004 28
3204 4001 4005 28
3205 4006 4007 28
3206 4006 4008 28
3207 4006 4009 28
3208 4006 4010 28
3209 4011 4012 28
3210 4011 4013 28
3211 4011 4014 28
3212 4011 4015 28
3213 4016 4017 28
3214 4016 4018 28
3215 4016 4019 28
3216 4016 4020 28
3217 4021 4022 28
3218 4021 4023 28
3219 4021 4024 28
3220 4021 4025 28
3221 4026 4027 28
3222 4026 4028 28
3223 4026 4029 28
3224 4026 4030 28
3225 4031 4032 28
3226 4031 4033 28
3227 4031 4034 28
3228 4031 4035 28
3229 4036 4037 28
3230 4036 4038 28
3231 4036 4039 28
3232 4036 4040 28
3233 4041 4042 28
3234 4041 4043 28
3235 4041 4044 28
3236 4041 4045 28
3237 4046 4047 28
3238 4046 4048 28
3239 4046 4049 28
3240 4046 4050 28
3241 4051 4052 28
3242 4051 4053 28
3243 4051 4054 28
3244 4051 4055 28
3245 4056 4057 28
3246 4056 4058 28
3247 4056 4059 28
3248 4056 4060 28
3249 4061 4062 28
3250 4061 4063 28
3251 4061 4064 28
3252 4061 4065 28
3253 4066 4067 28
3254 4066 4068 28
3255 4066 4069 28
3256 4066 4070 28
3257 4071 4072 28
3258 4071 4073 28
3259 4071 4074 28
3260 4071 4075 28
3261 4076 4077 28
3262 4076 4078 28
3263 4076 4079 28
3264 4076 4080 28
3265 4081 4082 28
3266 4081 4083 28
3267 4081 4084 28
3268 4081 4085 28
3269 4086 4087 28
3270 4086 4088 28
3271 4086 4089 28
3272 4086 4090 28
3273 4091 4092 28
3274 4091 4093 28
3275 4091 4094 28
3276 4091 4095 28
3277 4096 4097 28
3278 4096 4098 28
3279 4096 4099 28
3280 4096 4100 28
3281 4101 4102 28
3282 4101 4103 28
3283 4101 4104 28
3284 4101 4105 28
3285 4106 4107 28
3286 4106 4108 28
3287 4106 4109 28
3288 4106 4110 28
3289 4111 4112 28
3290 4111 4113 28
3291 4111 4114 28
3292 4111 4115 28
3293 4116 4117 28
3294 4116 4118 28
3295 4116 4119 28
3296 4116 4120 28
3297 4121 4122 28
3298 4121 4123 28
3299 4121 4124 28
3300 4121 4125 28
3301 4126 4127 28
3302 4126 4128 28
3303 4126 4129 28
3304 4126 4130 28
3305 4131 4132 28
3306 4131 4133 28
3307 4131 4134 28
3308 4131 4135 28
3309 4136 4137 28
3310 4136 4138 28
3311 4136 4139 28
3312 4136 4140 28
3313 4141 4142 28
3314 4141 4143 28
3315 4141 4144 28
3316 4141 4145 28
3317 4146 4147 28
3318 4146 4148 28
3319 4146 4149 28
3320 4146 4150 28
3321 4151 4152 28
3322 4151 4153 28
3323 4151 4154 28
3324 4151 4155 28
3325 4156 4157 28
3326 4156 4158 28
3327 4156 4159 28
3328 4156 4160 28
3329 4161 4162 28
3330 4161 4163 28
3331 4161 4164 28
3332 4161 4165 28
3333 4166 4167 28
3334 4166 4168 28
3335 4166 4169 28
3336 4166 4170 28
3337 4171 4172 28
3338 4171 4173 28
3339 4171 4174 28
3340 4171 4175 28
3341 4176 4177 28
3342 4176 4178 28
3343 4176 4179 28
3344 4176 4180 28
3345 4181 4182 28
3346 4181 4183 28
3347 4181 4184 28
3348 4181 4185 28
3349 4186 4187 28
3350 4186 4188 28
3351 4186 4189 28
3352 4186 4190 28
3353 4191 4192 28
3354 4191 4193 28
3355 4191 4194 28
3356 4191 4195 28
3357 4196 4197 28
3358 4196 4198 28
3359 4196 4199 28
3360 4196 4200 28
3361 4201 4202 28
3362 4201 4203 28
3363 4201 4204 28
3364 4201 4205 28
3365 4206 4207 28
3366 4206 4208 28
3367 4206 4209 28
3368 4206 4210 28
3369 4211 4212 28
3370 4211 4213 28
3371 4211 4214 28
3372 4211 4215 28
3373 4216 4217 28
3374 4216 4218 28
3375 4216 4219 28
3376 4216 4220 28
3377 4221 4222 28
3378 4221 4223 28
3379 4221 4224 28
3380 4221 4225 28
3381 4226 4227 28
3382 4226 4228 28
3383 4226 4229 28
3384 4226 4230 28
3385 4231 4232 28
3386 4231 4233 28
3387 4231 4234 28
3388 4231 4235 28
3389 4236 4237 28
3390 4236 4238 28
3391 4236 4239 28
3392 4236 4240 28
3393 4241 4242 28
3394 4241 4243 28
3395 4241 4244 28
3396 4241 4245 28
3397 4246 4247 28
3398 4246 4248 28
3399 4246 4249 28
3400 4246 4250 28
3401 4251 4252 28
3402 4251 4253 28
3403 4251 4254 28
3404 4251 4255 28
3405 4256 4257 28
3406 4256 4258 28
3407 4256 4259 28
3408 4256 4260 28
3409 4261 4262 28
3410 4261 4263 28
3411 4261 4264 28
3412 4261 4265 28
3413 4266 4267 28
3414 4266 4268 28
3415 4266 4269 28
3416 4266 4270 28
3417 4271 4272 28
3418 4271 4273 28
3419 4271 4274 28
3420 4271 4275 28
3421 4276 4277 28
3422 4276 4278 28
3423 4276 4279 28
3424 4276 4280 28
3425 4281 4282 28
3426 4281 4283 28
3427 4281 4284 28
3428 4281 4285 28
3429 4286 4287 28
3430 4286 4288 28
3431 4286 4289 28
3432 4286 4290 28
3433 4291 4292 28
3434 4291 4293 28
3435 4291 4294 28
3436 4291 4295 28
3437 4296 4297 28
3438 4296 4298 28
3439 4296 4299 28
3440 4296 4300 28
3441 4301 4302 28
3442 4301 4303 28
3443 4301 4304 28
3444 4301 4305 28
3445 4306 4307 28
3446 4306 4308 28
3447 4306 4309 28
3448 4306 4310 28
3449 4311 4312 28
3450 4311 4313 28
3451 4311 4314 28
3452 4311 4315 28
3453 4316 4317 28
3454 4316 4318 28
3455 4316 4319 28
3456 4316 4320 28
3457 4321 4322 28
3458 4321 4323 28
3459 4321 4324 28
3460 4321 4325 28
3461 4326 4327 28
3462 4326 4328 28
3463 4326 4329 28
3464 4326 4330 28
3465 4331 4332 28
3466 4331 4333 28
3467 4331 4334 28
3468 4331 4335 28
3469 4336 4337 28
3470 4336 4338 28
3471 4336 4339 28
3472 4336 4340 28
3473 4341 4342 28
3474 4341 4343 28
3475 4341 4344 28
3476 4341 4345 28
3477 4346 4347 28
3478 4346 4348 28
3479 4346 4349 28
3480 4346 4350 28
3481 4351 4352 28
3482 4351 4353 28
3483 4351 4354 28
3484 4351 4355 28
3485 4356 4357 28
3486 4356 4358 28
3487 4356 4359 28
3488 4356 4360 28
3489 4361 4362 28
3490 4361 4363 28
3491 4361 4364 28
3492 4361 4365 28
3493 4366 4367 28
3494 4366 4368 28
3495 4366 4369 28
3496 4366 4370 28
3497 4371 4372 28
3498 4371 4373 28
3499 4371 4374 28
3500 4371 4375 28
3501 4376 4377 28
3502 4376 4378 28
3503 4376 4379 28
3504 4376 4380 28
3505 4381 4382 28
3506 4381 4383 28
3507 4381 4384 28
3508 4381 4385 28
3509 4386 4387 28
3510 4386 4388 28
3511 4386 4389 28
3512 4386 4390 28
3513 4391 4392 28
3514 4391 4393 28
3515 4391 4394 28
3516 4391 4395 28
3517 4396 4397 28
3518 4396 4398 28
3519 4396 4399 28
3520 4396 4400 28
3521 4401 4402 28
3522 4401 4403 28
3523 4401 4404 28
3524 4401 4405 28
3525 4406 4407 28
3526 4406 4408 28
3527 4406 4409 28
3528 4406 4410 28
3529 4411 4412 28
3530 4411 4413 28
3531 4411 4414 28
3532 4411 4415 28
3533 4416 4417 28
3534 4416 4418 28
3535 4416 4419 28
3536 4416 4420 28
3537 4421 4422 28
3538 4421 4423 28
3539 4421 4424 28
3540 4421 4425 28
3541 4426 4427 28
3542 4426 4428 28
3543 4426 4429 28
3544 4426 4430 28
3545 4431 4432 28
3546 4431 4433 28
3547 4431 4434 28
3548 4431 4435 28
3549 4436 4437 28
3550 4436 4438 28
3551 4436 4439 28
3552 4436 4440 28
3553 4441 4442 28
3554 4441 4443 28
3555 4441 4444 28
3556 4441 4445 28
3557 4446 4447 28
3558 4446 4448 28
3559 4446 4449 28
3560 4446 4450 28
3561 4451 4452 28
3562 4451 4453 28
3563 4451 4454 28
3564 4451 4455 28
3565 4456 4457 28
3566 4456 4458 28
3567 4456 4459 28
3568 4456 4460 28
3569 4461 4462 28
3570 4461 4463 28
3571 4461 4464 28
3572 4461 4465 28
3573 4466 4467 28
3574 4466 4468 28
3575 4466 4469 28
3576 4466 4470 28
3577 4471 4472 28
3578 4471 4473 28
3579 4471 4474 28
3580 4471 4475 28
3581 4476 4477 28
3582 4476 4478 28
3583 4476 4479 28
3584 4476 4480 28
3585 4481 4482 28
3586 4481 4483 28
3587 4481 4484 28
3588 4481 4485 28
3589 4486 4487 28
3590 4486 4488 28
3591 4486 4489 28
3592 4486 4490 28
3593 4491 4492 28
3594 4491 4493 28
3595 4491 4494 28
3596 4491 4495 28
3597 4496 4497 28
3598 4496 4498 28
3599 4496 4499 28
3600 4496 4500 28
3601 4501 4502 28
3602 4501 4503 28
3603 4501 4504 28
3604 4501 4505 28
3605 4506 4507 28
3606 4506 4508 28
3607 4506 4509 28
3608 4506 4510 28
3609 4511 4512 28
3610 4511 4513 28
3611 4511 4514 28
3612 4511 4515 28
3613 4516 4517 28
3614 4516 4518 28
3615 4516 4519 28
3616 4516 4520 28
3617 4521 4522 28
3618 4521 4523 28
3619 4521 4524 28
3620 4521 4525 28
3621 4526 4527 28
3622 4526 4528 28
3623 4526 4529 28
3624 4526 4530 28
3625 4531 4532 28
3626 4531 4533 28
3627 4531 4534 28
3628 4531 4535 28
3629 4536 4537 28
3630 4536 4538 28
3631 4536 4539 28
3632 4536 4540 28
3633 4541 4542 28
3634 4541 4543 28
3635 4541 4544 28
3636 4541 4545 28
3637 4546 4547 28
3638 4546 4548 28
3639 4546 4549 28
3640 4546 4550 28
3641 4551 4552 28
3642 4551 4553 28
3643 4551 4554 28
3644 4551 4555 28
3645 4556 4557 28
3646 4556 4558 28
3647 4556 4559 28
3648 4556 4560 28
3649 4561 4562 28
3650 4561 4563 28
3651 4561 4564 28
3652 4561 4565 28
3653 4566 4567 28
3654 4566 4568 28
3655 4566 4569 28
3656 4566 4570 28
3657 4571 4572 28
3658 4571 4573 28
3659 4571 4574 28
3660 4571 4575 28
3661 4576 4577 28
3662 4576 4578 28
3663 4576 4579 28
3664 4576 4580 28
3665 4581 4582 28
3666 4581 4583 28
3667 4581 4584 28
3668 4581 4585 28
3669 4586 4587 28
3670 4586 4588 28
3671 4586 4589 28
3672 4586 4590 28
3673 4591 4592 28
3674 4591 4593 28
3675 4591 4594 28
3676 4591 4595 28
3677 4596 4597 28
3678 4596 4598 28
3679 4596 4599 28
3680 4596 4600 28
3681 4601 4602 28
3682 4601 4603 28
3683 4601 4604 28
3684 4601 4605 28
3685 4606 4607 28
3686 4606 4608 28
3687 4606 4609 28
3688 4606 4610 28
3689 4611 4612 28
3690 4611 4613 28
3691 4611 4614 28
3692 4611 4615 28
3693 4616 4617 28
3694 4616 4618 28
3695 4616 4619 28
3696 4616 4620 28
3697 4621 4622 28
3698 4621 4623 28
3699 4621 4624 28
3700 4621 4625 28
3701 4626 4627 28
3702 4626 4628 28
3703 4626 4629 28
3704 4626 4630 28
3705 4631 4632 28
3706 4631 4633 28
3707 4631 4634 28
3708 4631 4635 28
3709 4636 4637 28
3710 4636 4638 28
3711 4636 4639 28
3712 4636 4640 28
3713 4641 4642 28
3714 4641 4643 28
3715 4641 4644 28
3716 4641 4645 28
3717 4646 4647 28
3718 4646 4648 28
3719 4646 4649 28
3720 4646 4650 28
3721 4651 4652 28
3722 4651 4653 28
3723 4651 4654 28
3724 4651 4655 28
3725 4656 4657 28
3726 4656 4658 28
3727 4656 4659 28
3728 4656 4660 28
3729 4661 4662 28
3730 4661 4663 28
3731 4661 4664 28
3732 4661 4665 28
3733 4666 4667 28
3734 4666 4668 28
3735 4666 4669 28
3736 4666 4670 28
3737 4671 4672 28
3738 4671 4673 28
3739 4671 4674 28
3740 4671 4675 28
3741 4676 4677 28
3742 4676 4678 28
3743 4676 4679 28
3744 4676 4680 28
3745 4681 4682 28
3746 4681 4683 28
3747 4681 4684 28
3748 4681 4685 28
3749 4686 4687 28
3750 4686 4688 28
3751 4686 4689 28
3752 4686 4690 28
3753 4691 4692 28
3754 4691 4693 28
3755 4691 4694 28
3756 4691 4695 28
3757 4696 4697 28
3758 4696 4698 28
3759 4696 4699 28
3760 4696 4700 28
3761 4701 4702 28
3762 4701 4703 28
3763 4701 4704 28
3764 4701 4705 28
3765 4706 4707 28
3766 4706 4708 28
3767 4706 4709 28
3768 4706 4710 28
3769 4711 4712 28
3770 4711 4713 28
3771 4711 4714 28
3772 4711 4715 28
3773 4716 4717 28
3774 4716 4718 28
3775 4716 4719 28
3776 4716 4720 28
3777 4721 4722 28
3778 4721 4723 28
3779 4721 4724 28
3780 4721 4725 28
3781 4726 4727 28
3782 4726 4728 28
3783 4726 4729 28
3784 4726 4730 28
3785 4731 4732 28
3786 4731 4733 28
3787 4731 4734 28
3788 4731 4735 28
3789 4736 4737 28
3790 4736 4738 28
3791 4736 4739 28
3792 4736 4740 28
3793 4741 4742 28
3794 4741 4743 28
3795 4741 4744 28
3796 4741 4745 28
3797 4746 4747 28
3798 4746 4748 28
3799 4746 4749 28
3800 4746 4750 28
3801 4751 4752 28
3802 4751 4753 28
3803 4751 4754 28
3804 4751 4755 28
3805 4756 4757 28
3806 4756 4758 28
3807 4756 4759 28
3808 4756 4760 28
3809 4761 4762 28
3810 4761 4763 28
3811 4761 4764 28
3812 4761 4765 28
3813 4766 4767 28
3814 4766 4768 28
3815 4766 4769 28
3816 4766 4770 28
3817 4771 4772 28
3818 4771 4773 28
3819 4771 4774 28
3820 4771 4775 28
3821 4776 4777 28
3822 4776 4778 28
3823 4776 4779 28
3824 4776 4780 28
3825 4781 4782 28
3826 4781 4783 28
3827 4781 4784 28
3828 4781 4785 28
3829 4786 4787 28
3830 4786 4788 28
3831 4786 4789 28
3832 4786 4790 28
3833 4791 4792 28
3834 4791 4793 28
3835 4791 4794 28
3836 4791 4795 28
3837 4796 4797 28
3838 4796 4798 28
3839 4796 4799 28
3840 4796 4800 28
3841 4801 4802 28
3842 4801 4803 28
3843 4801 4804 28
3844 4801 4805 28
3845 4806 4807 28
3846 4806 4808 28
3847 4806 4809 28
3848 4806 4810 28
3849 4811 4812 28
3850 4811 4813 28
3851 4811 4814 28
3852 4811 4815 28
3853 4816 4817 28
3854 4816 4818 28
3855 4816 4819 28
3856 4816 4820 28
3857 4821 4822 28
3858 4821 4823 28
3859 4821 4824 28
3860 4821 4825 28
3861 4826 4827 28
3862 4826 4828 28
3863 4826 4829 28
3864 4826 4830 28
3865 4831 4832 28
3866 4831 4833 28
3867 4831 4834 28
3868 4831 4835 28
3869 4836 4837 28
3870 4836 4838 28
3871 4836 4839 28
3872 4836 4840 28
3873 4841 4842 28
3874 4841 4843 28
3875 4841 4844 28
3876 4841 4845 28
3877 4846 4847 28
3878 4846 4848 28
3879 4846 4849 28
3880 4846 4850 28
3881 4851 4852 28
3882 4851 4853 28
3883 4851 4854 28
3884 4851 4855 28
3885 4856 4857 28
3886 4856 4858 28
3887 4856 4859 28
3888 4856 4860 28
3889 4861 4862 28
3890 4861 4863 28
3891 4861 4864 28
3892 4861 4865 28
3893 4866 4867 28
3894 4866 4868 28
3895 4866 4869 28
3896 4866 4870 28
3897 4871 4872 28
3898 4871 4873 28
3899 4871 4874 28
3900 4871 4875 28
3901 4876 4877 28
3902 4876 4878 28
3903 4876 4879 28
3904 4876 4880 28
3905 4881 4882 28
3906 4881 4883 28
3907 4881 4884 28
3908 4881 4885 28
3909 4886 4887 28
3910 4886 4888 28
3911 4886 4889 28
3912 4886 4890 28
3913 4891 4892 28
3914 4891 4893 28
3915 4891 4894 28
3916 4891 4895 28
3917 4896 4897 28
3918 4896 4898 28
3919 4896 4899 28
3920 4896 4900 28
3921 4901 4902 28
3922 4901 4903 28
3923 4901 4904 28
3924 4901 4905 28
3925 4906 4907 28
3926 4906 4908 28
3927 4906 4909 28
3928 4906 4910 28
3929 4911 4912 28
3930 4911 4913 28
3931 4911 4914 28
3932 4911 4915 28
3933 4916 4917 28
3934 4916 4918 28
3935 4916 4919 28
3936 4916 4920 28
3937 4921 4922 28
3938 4921 4923 28
3939 4921 4924 28
3940 4921 4925 28
3941 4926 4927 28
3942 4926 4928 28
3943 4926 4929 28
3944 4926 4930 28
3945 4931 4932 28
3946 4931 4933 28
3947 4931 4934 28
3948 4931 4935 28
3949 4936 4937 28
3950 4936 4938 28
3951 4936 4939 28
3952 4936 4940 28
3953 4941 4942 28
3954 4941 4943 28
3955 4941 4944 28
3956 4941 4945 28
3957 4946 4947 28
3958 4946 4948 28
3959 4946 4949 28
3960 4946 4950 28
3961 4951 4952 28
3962 4951 4953 28
3963 4951 4954 28
3964 4951 4955 28
3965 4956 4957 28
3966 4956 4958 28
3967 4956 4959 28
3968 4956 4960 28
3969 4961 4962 28
3970 4961 4963 28
3971 4961 4964 28
3972 4961 4965 28
3973 4966 4967 28
3974 4966 4968 28
3975 4966 4969 28
3976 4966 4970 28
3977 4971 4972 28
3978 4971 4973 28
3979 4971 4974 28
3980 4971 4975 28
3981 4976 4977 28
3982 4976 4978 28
3983 4976 4979 28
3984 4976 4980 28
3985 4981 4982 28
3986 4981 4983 28
3987 4981 4984 28
3988 4981 4985 28
3989 4986 4987 28
3990 4986 4988 28
3991 4986 4989 28
3992 4986 4990 28
3993 4991 4992 28
3994 4991 4993 28
3995 4991 4994 28
3996 4991 4995 28
3997 4996 4997 28
3998 4996 4998 28
3999 4996 4999 28
4000 4996 5000 28
4001 5001 5002 28
4002 5001 5003 28
4003 5001 5004 28
4004 5001 5005 28
4005 5006 5007 28
4006 5006 5008 28
4007 5006 5009 28
4008 5006 5010 28
4009 5011 5012 28
4010 5011 5013 28
4011 5011 5014 28
4012 5011 5015 28
4013 5016 5017 28
4014 5016 5018 28
4015 5016 5019 28
4016 5016 5020 28
4017 5021 5022 28
4018 5021 5023 28
4019 5021 5024 28
4020 5021 5025 28
4021 5026 5027 28
4022 5026 5028 28
4023 5026 5029 28
4024 5026 5030 28
4025 5031 5032 28
4026 5031 5033 28
4027 5031 5034 28
4028 5031 5035 28
4029 5036 5037 28
4030 5036 5038 28
4031 5036 5039 28
4032 5036 5040 28
4033 5041 5042 28
4034 5041 5043 28
4035 5041 5044 28
4036 5041 5045 28
4037 5046 5047 28
4038 5046 5048 28
4039 5046 5049 28
4040 5046 5050 28
4041 5051 5052 28
4042 5051 5053 28
4043 5051 5054 28
4044 5051 5055 28
4045 5056 5057 28
4046 5056 5058 28
4047 5056 5059 28
4048 5056 5060 28
4049 5061 5062 28
4050 5061 5063 28
4051 5061 5064 28
4052 5061 5065 28
4053 5066 5067 28
4054 5066 5068 28
4055 5066 5069 28
4056 5066 5070 28
4057 5071 5072 28
4058 5071 5073 28
4059 5071 5074 28
4060 5071 5075 28
4061 5076 5077 28
4062 5076 5078 28
4063 5076 5079 28
4064 5076 5080 28
4065 5081 5082 28
4066 5081 5083 28
4067 5081 5084 28
4068 5081 5085 28
4069 5086 5087 28
4070 5086 5088 28
4071 5086 5089 28
4072 5086 5090 28
4073 5091 5092 28
4074 5091 5093 28
4075 5091 5094 28
4076 5091 5095 28
4077 5096 5097 28
4078 5096 5098 28
4079 5096 5099 28
4080 5096 5100 28
4081 5101 5102 28
4082 5101 5103 28
4083 5101 5104 28
4084 5101 5105 28
4085 5106 5107 28
4086 5106 5108 28
4087 5106 5109 28
4088 5106 5110 28
4089 5111 5112 28
4090 5111 5113 28
4091 5111 5114 28
4092 5111 5115 28
4093 5116 5117 28
4094 5116 5118 28
4095 5116 5119 28
4096 5116 5120 28
4097 5121 5122 28
4098 5121 5123 28
4099 5121 5124 28
4100 5121 5125 28
4101 5126 5127 28
4102 5126 5128 28
4103 5126 5129 28
4104 5126 5130 28
4105 5131 5132 28
4106 5131 5133 28
4107 5131 5134 28
4108 5131 5135 28
4109 5136 5137 28
4110 5136 5138 28
4111 5136 5139 28
4112 5136 5140 28
4113 5141 5142 28
4114 5141 5143 28
4115 5141 5144 28
4116 5141 5145 28
4117 5146 5147 28
4118 5146 5148 28
4119 5146 5149 28
4120 5146 5150 28
4121 5151 5152 28
4122 5151 5153 28
4123 5151 5154 28
4124 5151 5155 28
4125 5156 5157 28
4126 5156 5158 28
4127 5156 5159 28
4128 5156 5160 28
4129 5161 5162 28
4130 5161 5163 28
4131 5161 5164 28
4132 5161 5165 28
4133 5166 5167 28
4134 5166 5168 28
4135 5166 5169 28
4136 5166 5170 28
4137 5171 5172 28
4138 5171 5173 28
4139 5171 5174 28
4140 5171 5175 28
4141 5176 5177 28
4142 5176 5178 28
4143 5176 5179 28
4144 5176 5180 28
4145 5181 5182 28
4146 5181 5183 28
4147 5181 5184 28
4148 5181 5185 28
4149 5186 5187 28
4150 5186 5188 28
4151 5186 5189 28
4152 5186 5190 28
4153 5191 5192 28
4154 5191 5193 28
4155 5191 5194 28
4156 5191 5195 28
4157 5196 5197 28
4158 5196 5198 28
4159 5196 5199 28
4160 5196 5200 28
4161 5201 5202 28
4162 5201 5203 28
4163 5201 5204 28
4164 5201 5205 28
4165 5206 5207 28
4166 5206 5208 28
4167 5206 5209 28
4168 5206 5210 28
4169 5211 5212 28
4170 5211 5213 28
4171 5211 5214 28
4172 5211 5215 28
4173 5216 5217 28
4174 5216 5218 28
4175 5216 5219 28
4176 5216 5220 28
4177 5221 5222 28
4178 5221 5223 28
4179 5221 5224 28
4180 5221 5225 28
4181 5226 5227 28
4182 5226 5228 28
4183 5226 5229 28
4184 5226 5230 28
4185 5231 5232 28
4186 5231 5233 28
4187 5231 5234 28
4188 5231 5235 28
4189 5236 5237 28
4190 5236 5238 28
4191 5236 5239 28
4192 5236 5240 28
4193 5241 5242 28
4194 5241 5243 28
4195 5241 5244 28
4196 5241 5245 28
4197 5246 5247 28
4198 5246 5248 28
4199 5246 5249 28
4200 5246 5250 28
4201 5251 5252 28
4202 5251 5253 28
4203 5251 5254 28
4204 5251 5255 28
4205 5256 5257 28
4206 5256 5258 28
4207 5256 5259 28
4208 5256 5260 28
4209 5261 5262 28
4210 5261 5263 28
4211 5261 5264 28
4212 5261 5265 28
4213 5266 5267 28
4214 5266 5268 28
4215 5266 5269 28
4216 5266 5270 28
4217 5271 5272 28
4218 5271 5273 28
4219 5271 5274 28
4220 5271 5275 28
4221 5276 5277 28
4222 5276 5278 28
4223 5276 5279 28
4224 5276 5280 28
4225 5281 5282 28
4226 5281 5283 28
4227 5281 5284 28
4228 5281 5285 28
4229 5286 5287 28
4230 5286 5288 28
4231 5286 5289 28
4232 5286 5290 28
4233 5291 5292 28
4234 5291 5293 28
4235 5291 5294 28
4236 5291 5295 28
4237 5296 5297 28
4238 5296 5298 28
4239 5296 5299 28
4240 5296 5300 28
4241 5301 5302 28
4242 5301 5303 28
4243 5301 5304 28
4244 5301 5305 28
4245 5306 5307 28
4246 5306 5308 28
4247 5306 5309 28
4248 5306 5310 28
4249 5311 5312 28
4250 5311 5313 28
4251 5311 5314 28
4252 5311 5315 28
4253 5316 5317 28
4254 5316 5318 28
4255 5316 5319 28
4256 5316 5320 28
4257 5321 5322 28
4258 5321 5323 28
4259 5321 5324 28
4260 5321 5325 28
4261 5326 5327 28
4262 5326 5328 28
4263 5326 5329 28
4264 5326 5330 28
4265 5331 5332 28
4266 5331 5333 28
4267 5331 5334 28
4268 5331 5335 28
4269 5336 5337 28
4270 5336 5338 28
4271 5336 5339 28
4272 5336 5340 28
4273 5341 5342 28
4274 5341 5343 28
4275 5341 5344 28
4276 5341 5345 28
4277 5346 5347 28
4278 5346 5348 28
4279 5346 5349 28
4280 5346 5350 28
4281 5351 5352 28
4282 5351 5353 28
4283 5351 5354 28
4284 5351 5355 28
4285 5356 5357 28
4286 5356 5358 28
4287 5356 5359 28
4288 5356 5360 28
4289 5361 5362 28
4290 5361 5363 28
4291 5361 5364 28
4292 5361 5365 28
4293 5366 5367 28
4294 5366 5368 28
4295 5366 5369 28
4296 5366 5370 28
4297 5371 5372 28
4298 5371 5373 28
4299 5371 5374 28
4300 5371 5375 28
4301 5376 5377 28
4302 5376 5378 28
4303 5376 5379 28
4304 5376 5380 28
4305 5381 5382 28
4306 5381 5383 28
4307 5381 5384 28
4308 5381 5385 28
4309 5386 5387 28
4310 5386 5388 28
4311 5386 5389 28
4312 5386 5390 28
4313 5391 5392 28
4314 5391 5393 28
4315 5391 5394 28
4316 5391 5395 28
4317 5396 5397 28
4318 5396 5398 28
4319 5396 5399 28
4320 5396 5400 28
4321 5401 5402 28
4322 5401 5403 28
4323 5401 5404 28
4324 5401 5405 28
4325 5406 5407 28
4326 5406 5408 28
4327 5406 5409 28
4328 5406 5410 28
4329 5411 5412 28
4330 5411 5413 28
4331 5411 5414 28
4332 5411 5415 28
4333 5416 5417 28
4334 5416 5418 28
4335 5416 5419 28
4336 5416 5420 28
4337 5421 5422 28
4338 5421 5423 28
4339 5421 5424 28
4340 5421 5425 28
4341 5426 5427 28
4342 5426 5428 28
4343 5426 5429 28
4344 5426 5430 28
4345 5431 5432 28
4346 5431 5433 28
4347 5431 5434 28
4348 5431 5435 28
4349 5436 5437 28
4350 5436 5438 28
4351 5436 5439 28
4352 5436 5440 28
4353 5441 5442 28
4354 5441 5443 28
4355 5441 5444 28
4356 5441 5445 28
4357 5446 5447 28
4358 5446 5448 28
4359 5446 5449 28
4360 5446 5450 28
4361 5451 5452 28
4362 5451 5453 28
4363 5451 5454 28
4364 5451 5455 28
4365 5456 5457 28
4366 5456 5458 28
4367 5456 5459 28
4368 5456 5460 28
4369 5461 5462 28
4370 5461 5463 28
4371 5461 5464 28
4372 5461 5465 28
4373 5466 5467 28
4374 5466 5468 28
4375 5466 5469 28
4376 5466 5470 28
4377 5471 5472 28
4378 5471 5473 28
4379 5471 5474 28
4380 5471 5475 28
4381 5476 5477 28
4382 5476 5478 28
4383 5476 5479 28
4384 5476 5480 28
4385 5481 5482 28
4386 5481 5483 28
4387 5481 5484 28
4388 5481 5485 28
4389 5486 5487 28
4390 5486 5488 28
4391 5486 5489 28
4392 5486 5490 28
4393 5491 5492 28
4394 5491 5493 28
4395 5491 5494 28
4396 5491 5495 28
4397 5496 5497 28
4398 5496 5498 28
4399 5496 5499 28
4400 5496 5500 28
4401 5501 5502 28
4402 5501 5503 28
4403 5501 5504 28
4404 5501 5505 28
4405 5506 5507 28
4406 5506 5508 28
4407 5506 5509 28
4408 5506 5510 28
4409 5511 5512 28
4410 5511 5513 28
4411 5511 5514 28
4412 5511 5515 28
4413 5516 5517 28
4414 5516 5518 28
4415 5516 5519 28
4416 5516 5520 28
4417 5521 5522 28
4418 5521 5523 28
4419 5521 5524 28
4420 5521 5525 28
4421 5526 5527 28
4422 5526 5528 28
4423 5526 5529 28
4424 5526 5530 28
4425 5531 5532 28
4426 5531 5533 28
4427 5531 5534 28
4428 5531 5535 28
4429 5536 5537 28
4430 5536 5538 28
4431 5536 5539 28
4432 5536 5540 28
4433 5541 5542 28
4434 5541 5543 28
4435 5541 5544 28
4436 5541 5545 28
4437 5546 5547 28
4438 5546 5548 28
4439 5546 5549 28
4440 5546 5550 28
4441 5551 5552 28
4442 5551 5553 28
4443 5551 5554 28
4444 5551 5555 28
4445 5556 5557 28
4446 5556 5558 28
4447 5556 5559 28
4448 5556 5560 28
4449 5561 5562 28
4450 5561 5563 28
4451 5561 5564 28
4452 5561 5565 28
4453 5566 5567 28
4454 5566 5568 28
4455 5566 5569 28
4456 5566 5570 28
4457 5571 5572 28
4458 5571 5573 28
4459 5571 5574 28
4460 5571 5575 28
4461 5576 5577 28
4462 5576 5578 28
4463 5576 5579 28
4464 5576 5580 28
4465 5581 5582 28
4466 5581 5583 28
4467 5581 5584 28
4468 5581 5585 28
4469 5586 5587 28
4470 5586 5588 28
4471 5586 5589 28
4472 5586 5590 28
4473 5591 5592 28
4474 5591 5593 28
4475 5591 5594 28
4476 5591 5595 28
4477 5596 5597 28
4478 5596 5598 28
4479 5596 5599 28
4480 5596 5600 28
4481 5601 5602 28
4482 5601 5603 28
4483 5601 5604 28
4484 5601 5605 28
4485 5606 5607 28
4486 5606 5608 28
4487 5606 5609 28
4488 5606 5610 28
4489 5611 5612 28
4490 5611 5613 28
4491 5611 5614 28
4492 5611 5615 28
4493 5616 5617 28
4494 5616 5618 28
4495 5616 5619 28
4496 5616 5620 28
4497 5621 5622 28
4498 5621 5623 28
4499 5621 5624 28
4500 5621 5625 28
4501 5626 5627 28
4502 5626 5628 28
4503 5626 5629 28
4504 5626 5630 28
4505 5631 5632 28
4506 5631 5633 28
4507 5631 5634 28
4508 5631 5635 28
4509 5636 5637 28
4510 5636 5638 28
4511 5636 5639 28
4512 5636 5640 28
4513 5641 5642 28
4514 5641 5643 28
4515 5641 5644 28
4516 5641 5645 28
4517 5646 5647 28
4518 5646 5648 28
4519 5646 5649 28
4520 5646 5650 28
4521 5651 5652 28
4522 5651 5653 28
4523 5651 5654 28
4524 5651 5655 28
4525 5656 5657 28
4526 5656 5658 28
4527 5656 5659 28
4528 5656 5660 28
4529 5661 5662 28
4530 5661 5663 28
4531 5661 5664 28
4532 5661 5665 28
4533 5666 5667 28
4534 5666 5668 28
4535 5666 5669 28
4536 5666 5670 28
4537 5671 5672 28
4538 5671 5673 28
4539 5671 5674 28
4540 5671 5675 28
4541 5676 5677 28
4542 5676 5678 28
4543 5676 5679 28
4544 5676 5680 28
4545 5681 5682 28
4546 5681 5683 28
4547 5681 5684 28
4548 5681 5685 28
4549 5686 5687 28
4550 5686 5688 28
4551 5686 5689 28
4552 5686 5690 28
4553 5691 5692 28
4554 5691 5693 28
4555 5691 5694 28
4556 5691 5695 28
4557 5696 5697 28
4558 5696 5698 28
4559 5696 5699 28
4560 5696 5700 28
4561 5701 5702 28
4562 5701 5703 28
4563 5701 5704 28
4564 5701 5705 28
4565 5706 5707 28
4566 5706 5708 28
4567 5706 5709 28
4568 5706 5710 28
4569 5711 5712 28
4570 5711 5713 28
4571 5711 5714 28
4572 5711 5715 28
4573 5716 5717 28
4574 5716 5718 28
4575 5716 5719 28
4576 5716 5720 28
4577 5721 5722 28
4578 5721 5723 28
4579 5721 5724 28
4580 5721 5725 28
4581 5726 5727 28
4582 5726 5728 28
4583 5726 5729 28
4584 5726 5730 28
4585 5731 5732 28
4586 5731 5733 28
4587 5731 5734 28
4588 5731 5735 28
4589 5736 5737 28
4590 5736 5738 28
4591 5736 5739 28
4592 5736 5740 28
4593 5741 5742 28
4594 5741 5743 28
4595 5741 5744 28
4596 5741 5745 28
4597 5746 5747 28
4598 5746 5748 28
4599 5746 5749 28
4600 5746 5750 28
4601 5751 5752 28
4602 5751 5753 28
4603 5751 5754 28
4604 5751 5755 28
4605 5756 5757 28
4606 5756 5758 28
4607 5756 5759 28
4608 5756 5760 28
4609 5761 5762 28
4610 5761 5763 28
4611 5761 5764 28
4612 5761 5765 28
4613 5766 5767 28
4614 5766 5768 28
4615 5766 5769 28
4616 5766 5770 28
4617 5771 5772 28
4618 5771 5773 28
4619 5771 5774 28
4620 5771 5775 28
4621 5776 5777 28
4622 5776 5778 28
4623 5776 5779 28
4624 5776 5780 28
4625 5781 5782 28
4626 5781 5783 28
4627 5781 5784 28
4628 5781 5785 28
4629 5786 5787 28
4630 5786 5788 28
4631 5786 5789 28
4632 5786 5790 28
4633 5791 5792 28
4634 5791 5793 28
4635 5791 5794 28
4636 5791 5795 28
4637 5796 5797 28
4638 5796 5798 28
4639 5796 5799 28
4640 5796 5800 28
4641 5801 5802 28
4642 5801 5803 28
4643 5801 5804 28
4644 5801 5805 28
4645 5806 5807 28
4646 5806 5808 28
4647 5806 5809 28
4648 5806 5810 28
4649 5811 5812 28
4650 5811 5813 28
4651 5811 5814 28
4652 5811 5815 28
4653 5816 5817 28
4654 5816 5818 28
4655 5816 5819 28
4656 5816 5820 28
4657 5821 5822 28
4658 5821 5823 28
4659 5821 5824 28
4660 5821 5825 28
4661 5826 5827 28
4662 5826 5828 28
4663 5826 5829 28
4664 5826 5830 28
4665 5831 5832 28
4666 5831 5833 28
4667 5831 5834 28
4668 5831 5835 28
4669 5836 5837 28
4670 5836 5838 28
4671 5836 5839 28
4672 5836 5840 28
4673 5841 5842 28
4674 5841 5843 28
4675 5841 5844 28
4676 5841 5845 28
4677 5846 5847 28
4678 5846 5848 28
4679 5846 5849 28
4680 5846 5850 28
4681 5851 5852 28
4682 5851 5853 28
4683 5851 5854 28
4684 5851 5855 28
4685 5856 5857 28
4686 5856 5858 28
4687 5856 5859 28
4688 5856 5860 28
4689 5861 5862 28
4690 5861 5863 28
4691 5861 5864 28
4692 5861 5865 28
4693 5866 5867 28
4694 5866 5868 28
4695 5866 5869 28
4696 5866 5870 28
4697 5871 5872 28
4698 5871 5873 28
4699 5871 5874 28
4700 5871 5875 28
4701 5876 5877 28
4702 5876 5878 28
4703 5876 5879 28
4704 5876 5880 28
4705 5881 5882 28
4706 5881 5883 28
4707 5881 5884 28
4708 5881 5885 28
4709 5886 5887 28
4710 5886 5888 28
4711 5886 5889 28
4712 5886 5890 28
4713 5891 5892 28
4714 5891 5893 28
4715 5891 5894 28
4716 5891 5895 28
4717 5896 5897 28
4718 5896 5898 28
4719 5896 5899 28
4720 5896 5900 28
4721 5901 5902 28
4722 5901 5903 28
4723 5901 5904 28
4724 5901 5905 28
4725 5906 5907 28
4726 5906 5908 28
4727 5906 5909 28
4728 5906 5910 28
4729 5911 5912 28
4730 5911 5913 28
4731 5911 5914 28
4732 5911 5915 28
4733 5916 5917 28
4734 5916 5918 28
4735 5916 5919 28
4736 5916 5920 28
4737 5921 5922 28
4738 5921 5923 28
4739 5921 5924 28
4740 5921 5925 28
4741 5926 5927 28
4742 5926 5928 28
4743 5926 5929 28
4744 5926 5930 28
4745 5931 5932 28
4746 5931 5933 28
4747 5931 5934 28
4748 5931 5935 28
4749 5936 5937 28
4750 5936 5938 28
4751 5936 5939 28
4752 5936 5940 28
4753 5941 5942 28
4754 5941 5943 28
4755 5941 5944 28
4756 5941 5945 28
4757 5946 5947 28
4758 5946 5948 28
4759 5946 5949 28
4760 5946 5950 28
4761 5951 5952 28
4762 5951 5953 28
4763 5951 5954 28
4764 5951 5955 28
4765 5956 5957 28
4766 5956 5958 28
4767 5956 5959 28
4768 5956 5960 28
4769 5961 5962 28
4770 5961 5963 28
4771 5961 5964 28
4772 5961 5965 28
4773 5966 5967 28
4774 5966 5968 28
4775 5966 5969 28
4776 5966 5970 28
4777 5971 5972 28
4778 5971 5973 28
4779 5971 5974 28
4780 5971 5975 28
4781 5976 5977 28
4782 5976 5978 28
4783 5976 5979 28
4784 5976 5980 28
4785 5981 5982 28
4786 5981 5983 28
4787 5981 5984 28
4788 5981 5985 28
4789 5986 5987 28
4790 5986 5988 28
4791 5986 5989 28
4792 5986 5990 28
4793 5991 5992 28
4794 5991 5993 28
4795 5991 5994 28
4796 5991 5995 28
4797 5996 5997 28
4798 5996 5998 28
4799 5996 5999 28
4800 5996 6000 28
4801 6001 6002 28
4802 6001 6003 28
4803 6001 6004 28
4804 6001 6005 28
4805 6006 6007 28
4806 6006 6008 28
4807 6006 6009 28
4808 6006 6010 28
4809 6011 6012 28
4810 6011 6013 28
4811 6011 6014 28
4812 6011 6015 28
4813 6016 6017 28
4814 6016 6018 28
4815 6016 6019 28
4816 6016 6020 28
4817 6021 6022 28
4818 6021 6023 28
4819 6021 6024 28
4820 6021 6025 28
4821 6026 6027 28
4822 6026 6028 28
4823 6026 6029 28
4824 6026 6030 28
4825 6031 6032 28
4826 6031 6033 28
4827 6031 6034 28
4828 6031 6035 28
4829 6036 6037 28
4830 6036 6038 28
4831 6036 6039 28
4832 6036 6040 28
4833 6041 6042 28
4834 6041 6043 28
4835 6041 6044 28
4836 6041 6045 28
4837 6046 6047 28
4838 6046 6048 28
4839 6046 6049 28
4840 6046 6050 28
4841 6051 6052 28
4842 6051 6053 28
4843 6051 6054 28
4844 6051 6055 28
4845 6056 6057 28
4846 6056 6058 28
4847 6056 6059 28
4848 6056 6060 28
4849 6061 6062 28
4850 6061 6063 28
4851 6061 6064 28
4852 6061 6065 28
4853 6066 6067 28
4854 6066 6068 28
4855 6066 6069 28
4856 6066 6070 28
4857 6071 6072 28
4858 6071 6073 28
4859 6071 6074 28
4860 6071 6075 28
4861 6076 6077 28
4862 6076 6078 28
4863 6076 6079 28
4864 6076 6080 28
4865 6081 6082 28
4866 6081 6083 28
4867 6081 6084 28
4868 6081 6085 28
4869 6086 6087 28
4870 6086 6088 28
4871 6086 6089 28
4872 6086 6090 28
4873 6091 6092 28
4874 6091 6093 28
4875 6091 6094 28
4876 6091 6095 28
4877 6096 6097 28
4878 6096 6098 28
4879 6096 6099 28
4880 6096 6100 28
4881 6101 6102 28
4882 6101 6103 28
4883 6101 6104 28
4884 6101 6105 28
4885 6106 6107 28
4886 6106 6108 28
4887 6106 6109 28
4888 6106 6110 28
4889 6111 6112 28
4890 6111 6113 28
4891 6111 6114 28
4892 6111 6115 28
4893 6116 6117 28
4894 6116 6118 28
4895 6116 6119 28
4896 6116 6120 28
4897 6121 6122 28
4898 6121 6123 28
4899 6121 6124 28
4900 6121 6125 28
4901 6126 6127 28
4902 6126 6128 28
4903 6126 6129 28
4904 6126 6130 28
4905 6131 6132 28
4906 6131 6133 28
4907 6131 6134 28
4908 6131 6135 28
4909 6136 6137 28
4910 6136 6138 28
4911 6136 6139 28
4912 6136 6140 28
4913 6141 6142 28
4914 6141 6143 28
4915 6141 6144 28
4916 6141 6145 28
4917 6146 6147 28
4918 6146 6148 28
4919 6146 6149 28
4920 6146 6150 28
4921 6151 6152 28
4922 6151 6153 28
4923 6151 6154 28
4924 6151 6155 28
4925 6156 6157 28
4926 6156 6158 28
4927 6156 6159 28
4928 6156 6160 28
4929 6161 6162 28
4930 6161 6163 28
4931 6161 6164 28
4932 6161 6165 28
4933 6166 6167 28
4934 6166 6168 28
4935 6166 6169 28
4936 6166 6170 28
4937 6171 6172 28
4938 6171 6173 28
4939 6171 6174 28
4940 6171 6175 28
4941 6176 6177 28
4942 6176 6178 28
4943 6176 6179 28
4944 6176 6180 28
4945 6181 6182 28
4946 6181 6183 28
4947 6181 6184 28
4948 6181 6185 28
4949 6186 6187 28
4950 6186 6188 28
4951 6186 6189 28
4952 6186 6190 28
4953 6191 6192 28
4954 6191 6193 28
4955 6191 6194 28
4956 6191 6195 28
4957 6196 6197 28
4958 6196 6198 28
4959 6196 6199 28
4960 6196 6200 28
4961 6201 6202 28
4962 6201 6203 28
4963 6201 6204 28
4964 6201 6205 28
4965 6206 6207 28
4966 6206 6208 28
4967 6206 6209 28
4968 6206 6210 28
4969 6211 6212 28
4970 6211 6213 28
4971 6211 6214 28
4972 6211 6215 28
4973 6216 6217 28
4974 6216 6218 28
4975 6216 6219 28
4976 6216 6220 28
4977 6221 6222 28
4978 6221 6223 28
4979 6221 6224 28
4980 6221 6225 28
4981 6226 6227 28
4982 6226 6228 28
4983 6226 6229 28
4984 6226 6230 28
4985 6231 6232 28
4986 6231 6233 28
4987 6231 6234 28
4988 6231 6235 28
4989 6236 6237 28
4990 6236 6238 28
4991 6236 6239 28
4992 6236 6240 28
4993 6241 6242 28
4994 6241 6243 28
4995 6241 6244 28
4996 6241 6245 28
4997 6246 6247 28
4998 6246 6248 28
4999 6246 6249 28
5000 6246 6250 28
5001 6251 6252 28
5002 6251 6253 28
5003 6251 6254 28
5004 6251 6255 28
5005 6256 6257 28
5006 6256 6258 28
5007 6256 6259 28
5008 6256 6260 28
5009 6261 6262 28
5010 6261 6263 28
5011 6261 6264 28
5012 6261 6265 28
5013 6266 6267 28
5014 6266 6268 28
5015 6266 6269 28
5016 6266 6270 28
5017 6271 6272 28
5018 6271 6273 28
5019 6271 6274 28
5020 6271 6275 28
5021 6276 6277 28
5022 6276 6278 28
5023 6276 6279 28
5024 6276 6280 28
5025 6281 6282 28
5026 6281 6283 28
5027 6281 6284 28
5028 6281 6285 28
5029 6286 6287 28
5030 6286 6288 28
5031 6286 6289 28
5032 6286 6290 28
5033 6291 6292 28
5034 6291 6293 28
5035 6291 6294 28
5036 6291 6295 28
5037 6296 6297 28
5038 6296 6298 28
5039 6296 6299 28
5040 6296 6300 28
5041 6301 6302 28
5042 6301 6303 28
5043 6301 6304 28
5044 6301 6305 28
5045 6306 6307 28
5046 6306 6308 28
5047 6306 6309 28
5048 6306 6310 28
5049 6311 6312 28
5050 6311 6313 28
5051 6311 6314 28
5052 6311 6315 28
5053 6316 6317 28
5054 6316 6318 28
5055 6316 6319 28
5056 6316 6320 28
5057 6321 6322 28
5058 6321 6323 28
5059 6321 6324 28
5060 6321 6325 28
5061 6326 6327 28
5062 6326 6328 28
5063 6326 6329 28
5064 6326 6330 28
5065 6331 6332 28
5066 6331 6333 28
5067 6331 6334 28
5068 6331 6335 28
5069 6336 6337 28
5070 6336 6338 28
5071 6336 6339 28
5072 6336 6340 28
5073 6341 6342 28
5074 6341 6343 28
5075 6341 6344 28
5076 6341 6345 28
5077 6346 6347 28
5078 6346 6348 28
5079 6346 6349 28
5080 6346 6350 28
5081 6351 6352 28
5082 6351 6353 28
5083 6351 6354 28
5084 6351 6355 28
5085 6356 6357 28
5086 6356 6358 28
5087 6356 6359 28
5088 6356 6360 28
5089 6361 6362 28
5090 6361 6363 28
5091 6361 6364 28
5092 6361 6365 28
5093 6366 6367 28
5094 6366 6368 28
5095 6366 6369 28
5096 6366 6370 28
5097 6371 6372 28
5098 6371 6373 28
5099 6371 6374 28
5100 6371 6375 28
5101 6376 6377 28
5102 6376 6378 28
5103 6376 6379 28
5104 6376 6380 28
5105 6381 6382 28
5106 6381 6383 28
5107 6381 6384 28
5108 6381 6385 28
5109 6386 6387 28
5110 6386 6388 28
5111 6386 6389 28
5112 6386 6390 28
5113 6391 6392 28
5114 6391 6393 28
5115 6391 6394 28
5116 6391 6395 28
5117 6396 6397 28
5118 6396 6398 28
5119 6396 6399 28
5120 6396 6400 28
5121 6401 6402 28
5122 6401 6403 28
5123 6401 6404 28
5124 6401 6405 28
5125 6406 6407 28
5126 6406 6408 28
5127 6406 6409 28
5128 6406 6410 28
5129 6411 6412 28
5130 6411 6413 28
5131 6411 6414 28
5132 6411 6415 28
5133 6416 6417 28
5134 6416 6418 28
5135 6416 6419 28
5136 6416 6420 28
5137 6421 6422 28
5138 6421 6423 28
5139 6421 6424 28
5140 6421 6425 28
5141 6426 6427 28
5142 6426 6428 28
5143 6426 6429 28
5144 6426 6430 28
5145 6431 6432 28
5146 6431 6433 28
5147 6431 6434 28
5148 6431 6435 28
5149 6436 6437 28
5150 6436 6438 28
5151 6436 6439 28
5152 6436 6440 28
5153 6441 6442 28
5154 6441 6443 28
5155 6441 6444 28
5156 6441 6445 28
5157 6446 6447 28
5158 6446 6448 28
5159 6446 6449 28
5160 6446 6450 28
5161 6451 6452 28
5162 6451 6453 28
5163 6451 6454 28
5164 6451 6455 28
5165 6456 6457 28
5166 6456 6458 28
5167 6456 6459 28
5168 6456 6460 28
5169 6461 6462 28
5170 6461 6463 28
5171 6461 6464 28
5172 6461 6465 28
5173 6466 6467 28
5174 6466 6468 28
5175 6466 6469 28
5176 6466 6470 28
5177 6471 6472 28
5178 6471 6473 28
5179 6471 6474 28
5180 6471 6475 28
5181 6476 6477 28
5182 6476 6478 28
5183 6476 6479 28
5184 6476 6480 28
5185 6481 6482 28
5186 6481 6483 28
5187 6481 6484 28
5188 6481 6485 28
5189 6486 6487 28
5190 6486 6488 28
5191 6486 6489 28
5192 6486 6490 28
5193 6491 6492 28
5194 6491 6493 28
5195 6491 6494 28
5196 6491 6495 28
5197 6496 6497 28
5198 6496 6498 28
5199 6496 6499 28
5200 6496 6500 28
5201 6501 6502 28
5202 6501 6503 28
5203 6501 6504 28
5204 6501 6505 28
5205 6506 6507 28
5206 6506 6508 28
5207 6506 6509 28
5208 6506 6510 28
5209 6511 6512 28
5210 6511 6513 28
5211 6511 6514 28
5212 6511 6515 28
5213 6516 6517 28
5214 6516 6518 28
5215 6516 6519 28
5216 6516 6520 28
5217 6521 6522 28
5218 6521 6523 28
5219 6521 6524 28
5220 6521 6525 28
5221 6526 6527 28
5222 6526 6528 28
5223 6526 6529 28
5224 6526 6530 28
5225 6531 6532 28
5226 6531 6533 28
5227 6531 6534 28
5228 6531 6535 28
5229 6536 6537 28
5230 6536 6538 28
5231 6536 6539 28
5232 6536 6540 28
5233 6541 6542 28
5234 6541 6543 28
5235 6541 6544 28
5236 6541 6545 28
5237 6546 6547 28
5238 6546 6548 28
5239 6546 6549 28
5240 6546 6550 28
5241 6551 6552 28
5242 6551 6553 28
5243 6551 6554 28
5244 6551 6555 28
5245 6556 6557 28
5246 6556 6558 28
5247 6556 6559 28
5248 6556 6560 28
5249 6561 6562 28
5250 6561 6563 28
5251 6561 6564 28
5252 6561 6565 28
5253 6566 6567 28
5254 6566 6568 28
5255 6566 6569 28
5256 6566 6570 28
5257 6571 6572 28
5258 6571 6573 28
5259 6571 6574 28
5260 6571 6575 28
5261 6576 6577 28
5262 6576 6578 28
5263 6576 6579 28
5264 6576 6580 28
5265 6581 6582 28
5266 6581 6583 28
5267 6581 6584 28
5268 6581 6585 28
5269 6586 6587 28
5270 6586 6588 28
5271 6586 6589 28
5272 6586 6590 28
5273 6591 6592 28
5274 6591 6593 28
5275 6591 6594 28
5276 6591 6595 28
5277 6596 6597 28
5278 6596 6598 28
5279 6596 6599 28
5280 6596 6600 28
5281 6601 6602 28
5282 6601 6603 28
5283 6601 6604 28
5284 6601 6605 28
5285 6606 6607 28
5286 6606 6608 28
5287 6606 6609 28
5288 6606 6610 28
5289 6611 6612 28
5290 6611 6613 28
5291 6611 6614 28
5292 6611 6615 28
5293 6616 6617 28
5294 6616 6618 28
5295 6616 6619 28
5296 6616 6620 28
5297 6621 6622 28
5298 6621 6623 28
5299 6621 6624 28
5300 6621 6625 28
5301 6626 6627 28
5302 6626 6628 28
5303 6626 6629 28
5304 6626 6630 28
5305 6631 6632 28
5306 6631 6633 28
5307 6631 6634 28
5308 6631 6635 28
5309 6636 6637 28
5310 6636 6638 28
5311 6636 6639 28
5312 6636 6640 28
5313 6641 6642 28
5314 6641 6643 28
5315 6641 6644 28
5316 6641 6645 28
5317 6646 6647 28
5318 6646 6648 28
5319 6646 6649 28
5320 6646 6650 28
5321 6651 6652 28
5322 6651 6653 28
5323 6651 6654 28
5324 6651 6655 28
5325 6656 6657 28
5326 6656 6658 28
5327 6656 6659 28
5328 6656 6660 28
5329 6661 6662 28
5330 6661 6663 28
5331 6661 6664 28
5332 6661 6665 28
5333 6666 6667 28
5334 6666 6668 28
5335 6666 6669 28
5336 6666 6670 28
5337 6671 6672 28
5338 6671 6673 28
5339 6671 6674 28
5340 6671 6675 28
5341 6676 6677 28
5342 6676 6678 28
5343 6676 6679 28
5344 6676 6680 28
5345 6681 6682 28
5346 6681 6683 28
5347 6681 6684 28
5348 6681 6685 28
5349 6686 6687 28
5350 6686 6688 28
5351 6686 6689 28
5352 6686 6690 28
5353 6691 6692 28
5354 6691 6693 28
5355 6691 6694 28
5356 6691 6695 28
5357 6696 6697 28
5358 6696 6698 28
5359 6696 6699 28
5360 6696 6700 28
5361 6701 6702 28
5362 6701 6703 28
5363 6701 6704 28
5364 6701 6705 28
5365 6706 6707 28
5366 6706 6708 28
5367 6706 6709 28
5368 6706 6710 28
5369 6711 6712 28
5370 6711 6713 28
5371 6711 6714 28
5372 6711 6715 28
5373 6716 6717 28
5374 6716 6718 28
5375 6716 6719 28
5376 6716 6720 28
5377 6721 6722 28
5378 6721 6723 28
5379 6721 6724 28
5380 6721 6725 28
5381 6726 6727 28
5382 6726 6728 28
5383 6726 6729 28
5384 6726 6730 28
5385 6731 6732 28
5386 6731 6733 28
5387 6731 6734 28
5388 6731 6735 28
5389 6736 6737 28
5390 6736 6738 28
5391 6736 6739 28
5392 6736 6740 28
5393 6741 6742 28
5394 6741 6743 28
5395 6741 6744 28
5396 6741 6745 28
5397 6746 6747 28
5398 6746 6748 28
5399 6746 6749 28
5400 6746 6750 28
5401 6751 6752 28
5402 6751 6753 28
5403 6751 6754 28
5404 6751 6755 28
5405 6756 6757 28
5406 6756 6758 28
5407 6756 6759 28
5408 6756 6760 28
5409 6761 6762 28
5410 6761 6763 28
5411 6761 6764 28
5412 6761 6765 28
5413 6766 6767 28
5414 6766 6768 28
5415 6766 6769 28
5416 6766 6770 28
5417 6771 6772 28
5418 6771 6773 28
5419 6771 6774 28
5420 6771 6775 28
5421 6776 6777 28
5422 6776 6778 28
5423 6776 6779 28
5424 6776 6780 28
5425 6781 6782 28
5426 6781 6783 28
5427 6781 6784 28
5428 6781 6785 28
5429 6786 6787 28
5430 6786 6788 28
5431 6786 6789 28
5432 6786 6790 28
5433 6791 6792 28
5434 6791 6793 28
5435 6791 6794 28
5436 6791 6795 28
5437 6796 6797 28
5438 6796 6798 28
5439 6796 6799 28
5440 6796 6800 28
5441 6801 6802 28
5442 6801 6803 28
5443 6801 6804 28
5444 6801 6805 28
5445 6806 6807 28
5446 6806 6808 28
5447 6806 6809 28
5448 6806 6810 28
5449 6811 6812 28
5450 6811 6813 28
5451 6811 6814 28
5452 6811 6815 28
5453 6816 6817 28
5454 6816 6818 28
5455 6816 6819 28
5456 6816 6820 28
5457 6821 6822 28
5458 6821 6823 28
5459 6821 6824 28
5460 6821 6825 28
5461 6826 6827 28
5462 6826 6828 28
5463 6826 6829 28
5464 6826 6830 28
5465 6831 6832 28
5466 6831 6833 28
5467 6831 6834 28
5468 6831 6835 28
5469 6836 6837 28
5470 6836 6838 28
5471 6836 6839 28
5472 6836 6840 28
5473 6841 6842 28
5474 6841 6843 28
5475 6841 6844 28
5476 6841 6845 28
5477 6846 6847 28
5478 6846 6848 28
5479 6846 6849 28
5480 6846 6850 28
5481 6851 6852 28
5482 6851 6853 28
5483 6851 6854 28
5484 6851 6855 28
5485 6856 6857 28
5486 6856 6858 28
5487 6856 6859 28
5488 6856 6860 28
5489 6861 6862 28
5490 6861 6863 28
5491 6861 6864 28
5492 6861 6865 28
5493 6866 6867 28
5494 6866 6868 28
5495 6866 6869 28
5496 6866 6870 28
5497 6871 6872 28
5498 6871 6873 28
5499 6871 6874 28
5500 6871 6875 28
5501 6876 6877 28
5502 6876 6878 28
5503 6876 6879 28
5504 6876 6880 28
5505 6881 6882 28
5506 6881 6883 28
5507 6881 6884 28
5508 6881 6885 28
5509 6886 6887 28
5510 6886 6888 28
5511 6886 6889 28
5512 6886 6890 28
5513 6891 6892 28
5514 6891 6893 28
5515 6891 6894 28
5516 6891 6895 28
5517 6896 6897 28
5518 6896 6898 28
5519 6896 6899 28
5520 6896 6900 28
5521 6901 6902 28
5522 6901 6903 28
5523 6901 6904 28
5524 6901 6905 28
5525 6906 6907 28
5526 6906 6908 28
5527 6906 6909 28
5528 6906 6910 28
5529 6911 6912 28
5530 6911 6913 28
5531 6911 6914 28
5532 6911 6915 28
5533 6916 6917 28
5534 6916 6918 28
5535 6916 6919 28
5536 6916 6920 28
5537 6921 6922 28
5538 6921 6923 28
5539 6921 6924 28
5540 6921 6925 28
5541 6926 6927 28
5542 6926 6928 28
5543 6926 6929 28
5544 6926 6930 28
5545 6931 6932 28
5546 6931 6933 28
5547 6931 6934 28
5548 6931 6935 28
5549 6936 6937 28
5550 6936 6938 28
5551 6936 6939 28
5552 6936 6940 28
5553 6941 6942 28
5554 6941 6943 28
5555 6941 6944 28
5556 6941 6945 28
5557 6946 6947 28
5558 6946 6948 28
5559 6946 6949 28
5560 6946 6950 28
5561 6951 6952 28
5562 6951 6953 28
5563 6951 6954 28
5564 6951 6955 28
5565 6956 6957 28
5566 6956 6958 28
5567 6956 6959 28
5568 6956 6960 28
5569 6961 6962 28
5570 6961 6963 28
5571 6961 6964 28
5572 6961 6965 28
5573 6966 6967 28
5574 6966 6968 28
5575 6966 6969 28
5576 6966 6970 28
5577 6971 6972 28
5578 6971 6973 28
5579 6971 6974 28
5580 6971 6975 28
5581 6976 6977 28
5582 6976 6978 28
5583 6976 6979 28
5584 6976 6980 28
5585 6981 6982 28
5586 6981 6983 28
5587 6981 6984 28
5588 6981 6985 28
5589 6986 6987 28
5590 6986 6988 28
5591 6986 6989 28
5592 6986 6990 28
5593 6991 6992 28
5594 6991 6993 28
5595 6991 6994 28
5596 6991 6995 28
5597 6996 6997 28
5598 6996 6998 28
5599 6996 6999 28
5600 6996 7000 28
5601 7001 7002 28
5602 7001 7003 28
5603 7001 7004 28
5604 7001 7005 28
5605 7006 7007 28
5606 7006 7008 28
5607 7006 7009 28
5608 7006 7010 28
5609 7011 7012 28
5610 7011 7013 28
5611 7011 7014 28
5612 7011 7015 28
5613 7016 7017 28
5614 7016 7018 28
5615 7016 7019 28
5616 7016 7020 28
5617 7021 7022 28
5618 7021 7023 28
5619 7021 7024 28
5620 7021 7025 28
5621 7026 7027 28
5622 7026 7028 28
5623 7026 7029 28
5624 7026 7030 28
5625 7031 7032 28
5626 7031 7033 28
5627 7031 7034 28
5628 7031 7035 28
5629 7036 7037 28
5630 7036 7038 28
5631 7036 7039 28
5632 7036 7040 28
5633 7041 7042 28
5634 7041 7043 28
5635 7041 7044 28
5636 7041 7045 28
5637 7046 7047 28
5638 7046 7048 28
5639 7046 7049 28
5640 7046 7050 28
5641 7051 7052 28
5642 7051 7053 28
5643 7051 7054 28
5644 7051 7055 28
5645 7056 7057 28
5646 7056 7058 28
5647 7056 7059 28
5648 7056 7060 28
5649 7061 7062 28
5650 7061 7063 28
5651 7061 7064 28
5652 7061 7065 28
5653 7066 7067 28
5654 7066 7068 28
5655 7066 7069 28
5656 7066 7070 28
5657 7071 7072 28
5658 7071 7073 28
5659 7071 7074 28
5660 7071 7075 28
5661 7076 7077 28
5662 7076 7078 28
5663 7076 7079 28
5664 7076 7080 28
5665 7081 7082 28
5666 7081 7083 28
5667 7081 7084 28
5668 7081 7085 28
5669 7086 7087 28
5670 7086 7088 28
5671 7086 7089 28
5672 7086 7090 28
5673 7091 7092 28
5674 7091 7093 28
5675 7091 7094 28
5676 7091 7095 28
5677 7096 7097 28
5678 7096 7098 28
5679 7096 7099 28
5680 7096 7100 28
5681 7101 7102 28
5682 7101 7103 28
5683 7101 7104 28
5684 7101 7105 28
5685 7106 7107 28
5686 7106 7108 28
5687 7106 7109 28
5688 7106 7110 28
5689 7111 7112 28
5690 7111 7113 28
5691 7111 7114 28
5692 7111 7115 28
5693 7116 7117 28
5694 7116 7118 28
5695 7116 7119 28
5696 7116 7120 28
5697 7121 7122 28
5698 7121 7123 28
5699 7121 7124 28
5700 7121 7125 28
5701 7126 7127 28
5702 7126 7128 28
5703 7126 7129 28
5704 7126 7130 28
5705 7131 7132 28
5706 7131 7133 28
5707 7131 7134 28
5708 7131 7135 28
5709 7136 7137 28
5710 7136 7138 28
5711 7136 7139 28
5712 7136 7140 28
5713 7141 7142 28
5714 7141 7143 28
5715 7141 7144 28
5716 7141 7145 28
5717 7146 7147 28
5718 7146 7148 28
5719 7146 7149 28
5720 7146 7150 28
5721 7151 7152 28
5722 7151 7153 28
5723 7151 7154 28
5724 7151 7155 28
5725 7156 7157 28
5726 7156 7158 28
5727 7156 7159 28
5728 7156 7160 28
5729 7161 7162 28
5730 7161 7163 28
5731 7161 7164 28
5732 7161 7165 28
5733 7166 7167 28
5734 7166 7168 28
5735 7166 7169 28
5736 7166 7170 28
5737 7171 7172 28
5738 7171 7173 28
5739 7171 7174 28
5740 7171 7175 28
5741 7176 7177 28
5742 7176 7178 28
5743 7176 7179 28
5744 7176 7180 28
5745 7181 7182 28
5746 7181 7183 28
5747 7181 7184 28
5748 7181 7185 28
5749 7186 7187 28
5750 7186 7188 28
5751 7186 7189 28
5752 7186 7190 28
5753 7191 7192 28
5754 7191 7193 28
5755 7191 7194 28
5756 7191 7195 28
5757 7196 7197 28
5758 7196 7198 28
5759 7196 7199 28
5760 7196 7200 28
5761 7201 7202 28
5762 7201 7203 28
5763 7201 7204 28
5764 7201 7205 28
5765 7206 7207 28
5766 7206 7208 28
5767 7206 7209 28
5768 7206 7210 28
5769 7211 7212 28
5770 7211 7213 28
5771 7211 7214 28
5772 7211 7215 28
5773 7216 7217 28
5774 7216 7218 28
5775 7216 7219 28
5776 7216 7220 28
5777 7221 7222 28
5778 7221 7223 28
5779 7221 7224 28
5780 7221 7225 28
5781 7226 7227 28
5782 7226 7228 28
5783 7226 7229 28
5784 7226 7230 28
5785 7231 7232 28
5786 7231 7233 28
5787 7231 7234 28
5788 7231 7235 28
5789 7236 7237 28
5790 7236 7238 28
5791 7236 7239 28
5792 7236 7240 28
5793 7241 7242 28
5794 7241 7243 28
5795 7241 7244 28
5796 7241 7245 28
5797 7246 7247 28
5798 7246 7248 28
5799 7246 7249 28
5800 7246 7250 28
5801 7251 7252 28
5802 7251 7253 28
5803 7251 7254 28
5804 7251 7255 28
5805 7256 7257 28
5806 7256 7258 28
5807 7256 7259 28
5808 7256 7260 28
5809 7261 7262 28
5810 7261 7263 28
5811 7261 7264 28
5812 7261 7265 28
5813 7266 7267 28
5814 7266 7268 28
5815 7266 7269 28
5816 7266 7270 28
5817 7271 7272 28
5818 7271 7273 28
5819 7271 7274 28
5820 7271 7275 28
5821 7276 7277 28
5822 7276 7278 28
5823 7276 7279 28
5824 7276 7280 28
5825 7281 7282 28
5826 7281 7283 28
5827 7281 7284 28
5828 7281 7285 28
5829 7286 7287 28
5830 7286 7288 28
5831 7286 7289 28
5832 7286 7290 28
5833 7291 7292 28
5834 7291 7293 28
5835 7291 7294 28
5836 7291 7295 28
5837 7296 7297 28
5838 7296 7298 28
5839 7296 7299 28
5840 7296 7300 28
5841 7301 7302 28
5842 7301 7303 28
5843 7301 7304 28
5844 7301 7305 28
5845 7306 7307 28
5846 7306 7308 28
5847 7306 7309 28
5848 7306 7310 28
5849 7311 7312 28
5850 7311 7313 28
5851 7311 7314 28
5852 7311 7315 28
5853 7316 7317 28
5854 7316 7318 28
5855 7316 7319 28
5856 7316 7320 28
5857 7321 7322 28
5858 7321 7323 28
5859 7321 7324 28
5860 7321 7325 28
5861 7326 7327 28
5862 7326 7328 28
5863 7326 7329 28
5864 7326 7330 28
5865 7331 7332 28
5866 7331 7333 28
5867 7331 7334 28
5868 7331 7335 28
5869 7336 7337 28
5870 7336 7338 28
5871 7336 7339 28
5872 7336 7340 28
5873 7341 7342 28
5874 7341 7343 28
5875 7341 7344 28
5876 7341 7345 28
5877 7346 7347 28
5878 7346 7348 28
5879 7346 7349 28
5880 7346 7350 28
5881 7351 7352 28
5882 7351 7353 28
5883 7351 7354 28
5884 7351 7355 28
5885 7356 7357 28
5886 7356 7358 28
5887 7356 7359 28
5888 7356 7360 28
5889 7361 7362 28
5890 7361 7363 28
5891 7361 7364 28
5892 7361 7365 28
5893 7366 7367 28
5894 7366 7368 28
5895 7366 7369 28
5896 7366 7370 28
5897 7371 7372 28
5898 7371 7373 28
5899 7371 7374 28
5900 7371 7375 28
5901 7376 7377 28
5902 7376 7378 28
5903 7376 7379 28
5904 7376 7380 28
5905 7381 7382 28
5906 7381 7383 28
5907 7381 7384 28
5908 7381 7385 28
5909 7386 7387 28
5910 7386 7388 28
5911 7386 7389 28
5912 7386 7390 28
5913 7391 7392 28
5914 7391 7393 28
5915 7391 7394 28
5916 7391 7395 28
5917 7396 7397 28
5918 7396 7398 28
5919 7396 7399 28
5920 7396 7400 28
5921 7401 7402 28
5922 7401 7403 28
5923 7401 7404 28
5924 7401 7405 28
5925 7406 7407 28
5926 7406 7408 28
5927 7406 7409 28
5928 7406 7410 28
5929 7411 7412 28
5930 7411 7413 28
5931 7411 7414 28
5932 7411 7415 28
5933 7416 7417 28
5934 7416 7418 28
5935 7416 7419 28
5936 7416 7420 28
5937 7421 7422 28
5938 7421 7423 28
5939 7421 7424 28
5940 7421 7425 28
5941 7426 7427 28
5942 7426 7428 28
5943 7426 7429 28
5944 7426 7430 28
5945 7431 7432 28
5946 7431 7433 28
5947 7431 7434 28
5948 7431 7435 28
5949 7436 7437 28
5950 7436 7438 28
5951 7436 7439 28
5952 7436 7440 28
5953 7441 7442 28
5954 7441 7443 28
5955 7441 7444 28
5956 7441 7445 28
5957 7446 7447 28
5958 7446 7448 28
5959 7446 7449 28
5960 7446 7450 28
5961 7451 7452 28
5962 7451 7453 28
5963 7451 7454 28
5964 7451 7455 28
5965 7456 7457 28
5966 7456 7458 28
5967 7456 7459 28
5968 7456 7460 28
5969 7461 7462 28
5970 7461 7463 28
5971 7461 7464 28
5972 7461 7465 28
5973 7466 7467 28
5974 7466 7468 28
5975 7466 7469 28
5976 7466 7470 28
5977 7471 7472 28
5978 7471 7473 28
5979 7471 7474 28
5980 7471 7475 28
5981 7476 7477 28
5982 7476 7478 28
5983 7476 7479 28
5984 7476 7480 28
5985 7481 7482 28
5986 7481 7483 28
5987 7481 7484 28
5988 7481 7485 28
5989 7486 7487 28
5990 7486 7488 28
5991 7486 7489 28
5992 7486 7490 28
5993 7491 7492 28
5994 7491 7493 28
5995 7491 7494 28
5996 7491 7495 28
5997 7496 7497 28
5998 7496 7498 28
5999 7496 7499 28
6000 7496 7500 28
6001 7501 7502 28
6002 7501 7503 28
6003 7501 7504 28
6004 7501 7505 28
6005 7506 7507 28
6006 7506 7508 28
6007 7506 7509 28
6008 7506 7510 28
6009 7511 7512 28
6010 7511 7513 28
6011 7511 7514 28
6012 7511 7515 28
6013 7516 7517 28
6014 7516 7518 28
6015 7516 7519 28
6016 7516 7520 28
6017 7521 7522 28
6018 7521 7523 28
6019 7521 7524 28
6020 7521 7525 28
6021 7526 7527 28
6022 7526 7528 28
6023 7526 7529 28
6024 7526 7530 28
6025 7531 7532 28
6026 7531 7533 28
6027 7531 7534 28
6028 7531 7535 28
6029 7536 7537 28
6030 7536 7538 28
6031 7536 7539 28
6032 7536 7540 28
6033 7541 7542 28
6034 7541 7543 28
6035 7541 7544 28
6036 7541 7545 28
6037 7546 7547 28
6038 7546 7548 28
6039 7546 7549 28
6040 7546 7550 28
6041 7551 7552 28
6042 7551 7553 28
6043 7551 7554 28
6044 7551 7555 28
6045 7556 7557 28
6046 7556 7558 28
6047 7556 7559 28
6048 7556 7560 28
6049 7561 7562 28
6050 7561 7563 28
6051 7561 7564 28
6052 7561 7565 28
6053 7566 7567 28
6054 7566 7568 28
6055 7566 7569 28
6056 7566 7570 28
6057 7571 7572 28
6058 7571 7573 28
6059 7571 7574 28
6060 7571 7575 28
6061 7576 7577 28
6062 7576 7578 28
6063 7576 7579 28
6064 7576 7580 28
6065 7581 7582 28
6066 7581 7583 28
6067 7581 7584 28
6068 7581 7585 28
6069 7586 7587 28
6070 7586 7588 28
6071 7586 7589 28
6072 7586 7590 28
6073 7591 7592 28
6074 7591 7593 28
6075 7591 7594 28
6076 7591 7595 28
6077 7596 7597 28
6078 7596 7598 28
6079 7596 7599 28
6080 7596 7600 28
6081 7601 7602 28
6082 7601 7603 28
6083 7601 7604 28
6084 7601 7605 28
6085 7606 7607 28
6086 7606 7608 28
6087 7606 7609 28
6088 7606 7610 28
6089 7611 7612 28
6090 7611 7613 28
6091 7611 7614 28
6092 7611 7615 28
6093 7616 7617 28
6094 7616 7618 28
6095 7616 7619 28
6096 7616 7620 28
6097 7621 7622 28
6098 7621 7623 28
6099 7621 7624 28
6100 7621 7625 28
6101 7626 7627 28
6102 7626 7628 28
6103 7626 7629 28
6104 7626 7630 28
6105 7631 7632 28
6106 7631 7633 28
6107 7631 7634 28
6108 7631 7635 28
6109 7636 7637 28
6110 7636 7638 28
6111 7636 7639 28
6112 7636 7640 28
6113 7641 7642 28
6114 7641 7643 28
6115 7641 7644 28
6116 7641 7645 28
6117 7646 7647 28
6118 7646 7648 28
6119 7646 7649 28
6120 7646 7650 28
6121 7651 7652 28
6122 7651 7653 28
6123 7651 7654 28
6124 7651 7655 28
6125 7656 7657 28
6126 7656 7658 28
6127 7656 7659 28
6128 7656 7660 28
6129 7661 7662 28
6130 7661 7663 28
6131 7661 7664 28
6132 7661 7665 28
6133 7666 7667 28
6134 7666 7668 28
6135 7666 7669 28
6136 7666 7670 28
6137 7671 7672 28
6138 7671 7673 28
6139 7671 7674 28
6140 7671 7675 28
6141 7676 7677 28
6142 7676 7678 28
6143 7676 7679 28
6144 7676 7680 28
6145 7681 7682 28
6146 7681 7683 28
6147 7681 7684 28
6148 7681 7685 28
6149 7686 7687 28
6150 7686 7688 28
6151 7686 7689 28
6152 7686 7690 28
6153 7691 7692 28
6154 7691 7693 28
6155 7691 7694 28
6156 7691 7695 28
6157 7696 7697 28
6158 7696 7698 28
6159 7696 7699 28
6160 7696 7700 28
6161 7701 7702 28
6162 7701 7703 28
6163 7701 7704 28
6164 7701 7705 28
6165 7706 7707 28
6166 7706 7708 28
6167 7706 7709 28
6168 7706 7710 28
6169 7711 7712 28
6170 7711 7713 28
6171 7711 7714 28
6172 7711 7715 28
6173 7716 7717 28
6174 7716 7718 28
6175 7716 7719 28
6176 7716 7720 28
6177 7721 7722 28
6178 7721 7723 28
6179 7721 7724 28
6180 7721 7725 28
6181 7726 7727 28
6182 7726 7728 28
6183 7726 7729 28
6184 7726 7730 28
6185 7731 7732 28
6186 7731 7733 28
6187 7731 7734 28
6188 7731 7735 28
6189 7736 7737 28
6190 7736 7738 28
6191 7736 7739 28
6192 7736 7740 28
6193 7741 7742 28
6194 7741 7743 28
6195 7741 7744 28
6196 7741 7745 28
6197 7746 7747 28
6198 7746 7748 28
6199 7746 7749 28
6200 7746 7750 28
6201 7751 7752 28
6202 7751 7753 28
6203 7751 7754 28
6204 7751 7755 28
6205 7756 7757 28
6206 7756 7758 28
6207 7756 7759 28
6208 7756 7760 28
6209 7761 7762 28
6210 7761 7763 28
6211 7761 7764 28
6212 7761 7765 28
6213 7766 7767 28
6214 7766 7768 28
6215 7766 7769 28
6216 7766 7770 28
6217 7771 7772 28
6218 7771 7773 28
6219 7771 7774 28
6220 7771 7775 28
6221 7776 7777 28
6222 7776 7778 28
6223 7776 7779 28
6224 7776 7780 28
6225 7781 7782 28
6226 7781 7783 28
6227 7781 7784 28
6228 7781 7785 28
6229 7786 7787 28
6230 7786 7788 28
6231 7786 7789 28
6232 7786 7790 28
6233 7791 7792 28
6234 7791 7793 28
6235 7791 7794 28
6236 7791 7795 28
6237 7796 7797 28
6238 7796 7798 28
6239 7796 7799 28
6240 7796 7800 28
6241 7801 7802 28
6242 7801 7803 28
6243 7801 7804 28
6244 7801 7805 28
6245 7806 7807 28
6246 7806 7808 28
6247 7806 7809 28
6248 7806 7810 28
6249 7811 7812 28
6250 7811 7813 28
6251 7811 7814 28
6252 7811 7815 28
6253 7816 7817 28
6254 7816 7818 28
6255 7816 7819 28
6256 7816 7820 28
6257 7821 7822 28
6258 7821 7823 28
6259 7821 7824 28
6260 7821 7825 28
6261 7826 7827 28
6262 7826 7828 28
6263 7826 7829 28
6264 7826 7830 28
6265 7831 7832 28
6266 7831 7833 28
6267 7831 7834 28
6268 7831 7835 28
6269 7836 7837 28
6270 7836 7838 28
6271 7836 7839 28
6272 7836 7840 28
6273 7841 7842 28
6274 7841 7843 28
6275 7841 7844 28
6276 7841 7845 28
6277 7846 7847 28
6278 7846 7848 28
6279 7846 7849 28
6280 7846 7850 28
6281 7851 7852 28
6282 7851 7853 28
6283 7851 7854 28
6284 7851 7855 28
6285 7856 7857 28
6286 7856 7858 28
6287 7856 7859 28
6288 7856 7860 28
6289 7861 7862 28
6290 7861 7863 28
6291 7861 7864 28
6292 7861 7865 28
6293 7866 7867 28
6294 7866 7868 28
6295 7866 7869 28
6296 7866 7870 28
6297 7871 7872 28
6298 7871 7873 28
6299 7871 7874 28
6300 7871 7875 28
6301 7876 7877 28
6302 7876 7878 28
6303 7876 7879 28
6304 7876 7880 28
6305 7881 7882 28
6306 7881 7883 28
6307 7881 7884 28
6308 7881 7885 28
6309 7886 7887 28
6310 7886 7888 28
6311 7886 7889 28
6312 7886 7890 28
6313 7891 7892 28
6314 7891 7893 28
6315 7891 7894 28
6316 7891 7895 28
6317 7896 7897 28
6318 7896 7898 28
6319 7896 7899 28
6320 7896 7900 28
6321 7901 7902 28
6322 7901 7903 28
6323 7901 7904 28
6324 7901 7905 28
6325 7906 7907 28
6326 7906 7908 28
6327 7906 7909 28
6328 7906 7910 28
6329 7911 7912 28
6330 7911 7913 28
6331 7911 7914 28
6332 7911 7915 28
6333 7916 7917 28
6334 7916 7918 28
6335 7916 7919 28
6336 7916 7920 28
6337 7921 7922 28
6338 7921 7923 28
6339 7921 7924 28
6340 7921 7925 28
6341 7926 7927 28
6342 7926 7928 28
6343 7926 7929 28
6344 7926 7930 28
6345 7931 7932 28
6346 7931 7933 28
6347 7931 7934 28
6348 7931 7935 28
6349 7936 7937 28
6350 7936 7938 28
6351 7936 7939 28
6352 7936 7940 28
6353 7941 7942 28
6354 7941 7943 28
6355 7941 7944 28
6356 7941 7945 28
6357 7946 7947 28
6358 7946 7948 28
6359 7946 7949 28
6360 7946 7950 28
6361 7951 7952 28
6362 7951 7953 28
6363 7951 7954 28
6364 7951 7955 28
6365 7956 7957 28
6366 7956 7958 28
6367 7956 7959 28
6368 7956 7960 28
6369 7961 7962 28
6370 7961 7963 28
6371 7961 7964 28
6372 7961 7965 28
6373 7966 7967 28
6374 7966 7968 28
6375 7966 7969 28
6376 7966 7970 28
6377 7971 7972 28
6378 7971 7973 28
6379 7971 7974 28
6380 7971 7975 28
6381 7976 7977 28
6382 7976 7978 28
6383 7976 7979 28
6384 7976 7980 28
6385 7981 7982 28
6386 7981 7983 28
6387 7981 7984 28
6388 7981 7985 28
6389 7986 7987 28
6390 7986 7988 28
6391 7986 7989 28
6392 7986 7990 28
6393 7991 7992 28
6394 7991 7993 28
6395 7991 7994 28
6396 7991 7995 28
6397 7996 7997 28
6398 7996 7998 28
6399 7996 7999 28
6400 7996 8000 28
6401 8001 8002 28
6402 8001 8003 28
6403 8001 8004 28
6404 8001 8005 28
6405 8006 8007 28
6406 8006 8008 28
6407 8006 8009 28
6408 8006 8010 28
6409 8011 8012 28
6410 8011 8013 28
6411 8011 8014 28
6412 8011 8015 28
6413 8016 8017 28
6414 8016 8018 28
6415 8016 8019 28
6416 8016 8020 28
6417 8021 8022 28
6418 8021 8023 28
6419 8021 8024 28
6420 8021 8025 28
6421 8026 8027 28
6422 8026 8028 28
6423 8026 8029 28
6424 8026 8030 28
6425 8031 8032 28
6426 8031 8033 28
6427 8031 8034 28
6428 8031 8035 28
6429 8036 8037 28
6430 8036 8038 28
6431 8036 8039 28
6432 8036 8040 28
6433 8041 8042 28
6434 8041 8043 28
6435 8041 8044 28
6436 8041 8045 28
6437 8046 8047 28
6438 8046 8048 28
6439 8046 8049 28
6440 8046 8050 28
6441 8051 8052 28
6442 8051 8053 28
6443 8051 8054 28
6444 8051 8055 28
6445 8056 8057 28
6446 8056 8058 28
6447 8056 8059 28
6448 8056 8060 28
6449 8061 8062 28
6450 8061 8063 28
6451 8061 8064 28
6452 8061 8065 28
6453 8066 8067 28
6454 8066 8068 28
6455 8066 8069 28
6456 8066 8070 28
6457 8071 8072 28
6458 8071 8073 28
6459 8071 8074 28
6460 8071 8075 28
6461 8076 8077 28
6462 8076 8078 28
6463 8076 8079 28
6464 8076 8080 28
6465 8081 8082 28
6466 8081 8083 28
6467 8081 8084 28
6468 8081 8085 28
6469 8086 8087 28
6470 8086 8088 28
6471 8086 8089 28
6472 8086 8090 28
6473 8091 8092 28
6474 8091 8093 28
6475 8091 8094 28
6476 8091 8095 28
6477 8096 8097 28
6478 8096 8098 28
6479 8096 8099 28
6480 8096 8100 28
6481 8101 8102 28
6482 8101 8103 28
6483 8101 8104 28
6484 8101 8105 28
6485 8106 8107 28
6486 8106 8108 28
6487 8106 8109 28
6488 8106 8110 28
6489 8111 8112 28
6490 8111 8113 28
6491 8111 8114 28
6492 8111 8115 28
6493 8116 8117 28
6494 8116 8118 28
6495 8116 8119 28
6496 8116 8120 28
6497 8121 8122 28
6498 8121 8123 28
6499 8121 8124 28
6500 8121 8125 28
6501 8126 8127 28
6502 8126 8128 28
6503 8126 8129 28
6504 8126 8130 28
6505 8131 8132 28
6506 8131 8133 28
6507 8131 8134 28
6508 8131 8135 28
6509 8136 8137 28
6510 8136 8138 28
6511 8136 8139 28
6512 8136 8140 28
6513 8141 8142 28
6514 8141 8143 28
6515 8141 8144 28
6516 8141 8145 28
6517 8146 8147 28
6518 8146 8148 28
6519 8146 8149 28
6520 8146 8150 28
6521 8151 8152 28
6522 8151 8153 28
6523 8151 8154 28
6524 8151 8155 28
6525 8156 8157 28
6526 8156 8158 28
6527 8156 8159 28
6528 8156 8160 28
6529 8161 8162 28
6530 8161 8163 28
6531 8161 8164 28
6532 8161 8165 28
6533 8166 8167 28
6534 8166 8168 28
6535 8166 8169 28
6536 8166 8170 28
6537 8171 8172 28
6538 8171 8173 28
6539 8171 8174 28
6540 8171 8175 28
6541 8176 8177 28
6542 8176 8178 28
6543 8176 8179 28
6544 8176 8180 28
6545 8181 8182 28
6546 8181 8183 28
6547 8181 8184 28
6548 8181 8185 28
6549 8186 8187 28
6550 8186 8188 28
6551 8186 8189 28
6552 8186 8190 28
6553 8191 8192 28
6554 8191 8193 28
6555 8191 8194 28
6556 8191 8195 28
6557 8196 8197 28
6558 8196 8198 28
6559 8196 8199 28
6560 8196 8200 28
6561 8201 8202 28
6562 8201 8203 28
6563 8201 8204 28
6564 8201 8205 28
6565 8206 8207 28
6566 8206 8208 28
6567 8206 8209 28
6568 8206 8210 28
6569 8211 8212 28
6570 8211 8213 28
6571 8211 8214 28
6572 8211 8215 28
6573 8216 8217 28
6574 8216 8218 28
6575 8216 8219 28
6576 8216 8220 28
6577 8221 8222 28
6578 8221 8223 28
6579 8221 8224 28
6580 8221 8225 28
6581 8226 8227 28
6582 8226 8228 28
6583 8226 8229 28
6584 8226 8230 28
6585 8231 8232 28
6586 8231 8233 28
6587 8231 8234 28
6588 8231 8235 28
6589 8236 8237 28
6590 8236 8238 28
6591 8236 8239 28
6592 8236 8240 28
6593 8241 8242 28
6594 8241 8243 28
6595 8241 8244 28
6596 8241 8245 28
6597 8246 8247 28
6598 8246 8248 28
6599 8246 8249 28
6600 8246 8250 28
6601 8251 8252 28
6602 8251 8253 28
6603 8251 8254 28
6604 8251 8255 28
6605 8256 8257 28
6606 8256 8258 28
6607 8256 8259 28
6608 8256 8260 28
6609 8261 8262 28
6610 8261 8263 28
6611 8261 8264 28
6612 8261 8265 28
6613 8266 8267 28
6614 8266 8268 28
6615 8266 8269 28
6616 8266 8270 28
6617 8271 8272 28
6618 8271 8273 28
6619 8271 8274 28
6620 8271 8275 28
6621 8276 8277 28
6622 8276 8278 28
6623 8276 8279 28
6624 8276 8280 28
6625 8281 8282 28
6626 8281 8283 28
6627 8281 8284 28
6628 8281 8285 28
6629 8286 8287 28
6630 8286 8288 28
6631 8286 8289 28
6632 8286 8290 28
6633 8291 8292 28
6634 8291 8293 28
6635 8291 8294 28
6636 8291 8295 28
6637 8296 8297 28
6638 8296 8298 28
6639 8296 8299 28
6640 8296 8300 28
6641 8301 8302 28
6642 8301 8303 28
6643 8301 8304 28
6644 8301 8305 28
6645 8306 8307 28
6646 8306 8308 28
6647 8306 8309 28
6648 8306 8310 28
6649 8311 8312 28
6650 8311 8313 28
6651 8311 8314 28
6652 8311 8315 28
6653 8316 8317 28
6654 8316 8318 28
6655 8316 8319 28
6656 8316 8320 28
6657 8321 8322 28
6658 8321 8323 28
6659 8321 8324 28
6660 8321 8325 28
6661 8326 8327 28
6662 8326 8328 28
6663 8326 8329 28
6664 8326 8330 28
6665 8331 8332 28
6666 8331 8333 28
6667 8331 8334 28
6668 8331 8335 28
6669 8336 8337 28
6670 8336 8338 28
6671 8336 8339 28
6672 8336 8340 28
6673 8341 8342 28
6674 8341 8343 28
6675 8341 8344 28
6676 8341 8345 28
6677 8346 8347 28
6678 8346 8348 28
6679 8346 8349 28
6680 8346 8350 28
6681 8351 8352 28
6682 8351 8353 28
6683 8351 8354 28
6684 8351 8355 28
6685 8356 8357 28
6686 8356 8358 28
6687 8356 8359 28
6688 8356 8360 28
6689 8361 8362 28
6690 8361 8363 28
6691 8361 8364 28
6692 8361 8365 28
6693 8366 8367 28
6694 8366 8368 28
6695 8366 8369 28
6696 8366 8370 28
6697 8371 8372 28
6698 8371 8373 28
6699 8371 8374 28
6700 8371 8375 28
6701 8376 8377 28
6702 8376 8378 28
6703 8376 8379 28
6704 8376 8380 28
6705 8381 8382 28
6706 8381 8383 28
6707 8381 8384 28
6708 8381 8385 28
6709 8386 8387 28
6710 8386 8388 28
6711 8386 8389 28
6712 8386 8390 28
6713 8391 8392 28
6714 8391 8393 28
6715 8391 8394 28
6716 8391 8395 28
6717 8396 8397 28
6718 8396 8398 28
6719 8396 8399 28
6720 8396 8400 28
6721 8401 8402 28
6722 8401 8403 28
6723 8401 8404 28
6724 8401 8405 28
6725 8406 8407 28
6726 8406 8408 28
6727 8406 8409 28
6728 8406 8410 28
6729 8411 8412 28
6730 8411 8413 28
6731 8411 8414 28
6732 8411 8415 28
6733 8416 8417 28
6734 8416 8418 28
6735 8416 8419 28
6736 8416 8420 28
6737 8421 8422 28
6738 8421 8423 28
6739 8421 8424 28
6740 8421 8425 28
6741 8426 8427 28
6742 8426 8428 28
6743 8426 8429 28
6744 8426 8430 28
6745 8431 8432 28
6746 8431 8433 28
6747 8431 8434 28
6748 8431 8435 28
6749 8436 8437 28
6750 8436 8438 28
6751 8436 8439 28
6752 8436 8440 28
6753 8441 8442 28
6754 8441 8443 28
6755 8441 8444 28
6756 8441 8445 28
6757 8446 8447 28
6758 8446 8448 28
6759 8446 8449 28
6760 8446 8450 28
6761 8451 8452 28
6762 8451 8453 28
6763 8451 8454 28
6764 8451 8455 28
6765 8456 8457 28
6766 8456 8458 28
6767 8456 8459 28
6768 8456 8460 28
6769 8461 8462 28
6770 8461 8463 28
6771 8461 8464 28
6772 8461 8465 28
6773 8466 8467 28
6774 8466 8468 28
6775 8466 8469 28
6776 8466 8470 28
6777 8471 8472 28
6778 8471 8473 28
6779 8471 8474 28
6780 8471 8475 28
6781 8476 8477 28
6782 8476 8478 28
6783 8476 8479 28
6784 8476 8480 28
6785 8481 8482 28
6786 8481 8483 28
6787 8481 8484 28
6788 8481 8485 28
6789 8486 8487 28
6790 8486 8488 28
6791 8486 8489 28
6792 8486 8490 28
6793 8491 8492 28
6794 8491 8493 28
6795 8491 8494 28
6796 8491 8495 28
6797 8496 8497 28
6798 8496 8498 28
6799 8496 8499 28
6800 8496 8500 28
6801 8501 8502 28
6802 8501 8503 28
6803 8501 8504 28
6804 8501 8505 28
6805 8506 8507 28
6806 8506 8508 28
6807 8506 8509 28
6808 8506 8510 28
6809 8511 8512 28
6810 8511 8513 28
6811 8511 8514 28
6812 8511 8515 28
6813 8516 8517 28
6814 8516 8518 28
6815 8516 8519 28
6816 8516 8520 28
6817 8521 8522 28
6818 8521 8523 28
6819 8521 8524 28
6820 8521 8525 28
6821 8526 8527 28
6822 8526 8528 28
6823 8526 8529 28
6824 8526 8530 28
6825 8531 8532 28
6826 8531 8533 28
6827 8531 8534 28
6828 8531 8535 28
6829 8536 8537 28
6830 8536 8538 28
6831 8536 8539 28
6832 8536 8540 28
6833 8541 8542 28
6834 8541 8543 28
6835 8541 8544 28
6836 8541 8545 28
6837 8546 8547 28
6838 8546 8548 28
6839 8546 8549 28
6840 8546 8550 28
6841 8551 8552 28
6842 8551 8553 28
6843 8551 8554 28
6844 8551 8555 28
6845 8556 8557 28
6846 8556 8558 28
6847 8556 8559 28
6848 8556 8560 28
6849 8561 8562 28
6850 8561 8563 28
6851 8561 8564 28
6852 8561 8565 28
6853 8566 8567 28
6854 8566 8568 28
6855 8566 8569 28
6856 8566 8570 28
6857 8571 8572 28
6858 8571 8573 28
6859 8571 8574 28
6860 8571 8575 28
6861 8576 8577 28
6862 8576 8578 28
6863 8576 8579 28
6864 8576 8580 28
6865 8581 8582 28
6866 8581 8583 28
6867 8581 8584 28
6868 8581 8585 28
6869 8586 8587 28
6870 8586 8588 28
6871 8586 8589 28
6872 8586 8590 28
6873 8591 8592 28
6874 8591 8593 28
6875 8591 8594 28
6876 8591 8595 28
6877 8596 8597 28
6878 8596 8598 28
6879 8596 8599 28
6880 8596 8600 28
6881 8601 8602 28
6882 8601 8603 28
6883 8601 8604 28
6884 8601 8605 28
6885 8606 8607 28
6886 8606 8608 28
6887 8606 8609 28
6888 8606 8610 28
6889 8611 8612 28
6890 8611 8613 28
6891 8611 8614 28
6892 8611 8615 28
6893 8616 8617 28
6894 8616 8618 28
6895 8616 8619 28
6896 8616 8620 28
6897 8621 8622 28
6898 8621 8623 28
6899 8621 8624 28
6900 8621 8625 28
6901 8626 8627 28
6902 8626 8628 28
6903 8626 8629 28
6904 8626 8630 28
6905 8631 8632 28
6906 8631 8633 28
6907 8631 8634 28
6908 8631 8635 28
6909 8636 8637 28
6910 8636 8638 28
6911 8636 8639 28
6912 8636 8640 28
6913 8641 8642 28
6914 8641 8643 28
6915 8641 8644 28
6916 8641 8645 28
6917 8646 8647 28
6918 8646 8648 28
6919 8646 8649 28
6920 8646 8650 28
6921 8651 8652 28
6922 8651 8653 28
6923 8651 8654 28
6924 8651 8655 28
6925 8656 8657 28
6926 8656 8658 28
6927 8656 8659 28
6928 8656 8660 28
6929 8661 8662 28
6930 8661 8663 28
6931 8661 8664 28
6932 8661 8665 28
6933 8666 8667 28
6934 8666 8668 28
6935 8666 8669 28
6936 8666 8670 28
6937 8671 8672 28
6938 8671 8673 28
6939 8671 8674 28
6940 8671 8675 28
6941 8676 8677 28
6942 8676 8678 28
6943 8676 8679 28
6944 8676 8680 28
6945 8681 8682 28
6946 8681 8683 28
6947 8681 8684 28
6948 8681 8685 28
6949 8686 8687 28
6950 8686 8688 28
6951 8686 8689 28
6952 8686 8690 28
6953 8691 8692 28
6954 8691 8693 28
6955 8691 8694 28
6956 8691 8695 28
6957 8696 8697 28
6958 8696 8698 28
6959 8696 8699 28
6960 8696 8700 28
6961 8701 8702 28
6962 8701 8703 28
6963 8701 8704 28
6964 8701 8705 28
6965 8706 8707 28
6966 8706 8708 28
6967 8706 8709 28
6968 8706 8710 28
6969 8711 8712 28
6970 8711 8713 28
6971 8711 8714 28
6972 8711 8715 28
6973 8716 8717 28
6974 8716 8718 28
6975 8716 8719 28
6976 8716 8720 28
6977 8721 8722 28
6978 8721 8723 28
6979 8721 8724 28
6980 8721 8725 28
6981 8726 8727 28
6982 8726 8728 28
6983 8726 8729 28
6984 8726 8730 28
6985 8731 8732 28
6986 8731 8733 28
6987 8731 8734 28
6988 8731 8735 28
6989 8736 8737 28
6990 8736 8738 28
6991 8736 8739 28
6992 8736 8740 28
6993 8741 8742 28
6994 8741 8743 28
6995 8741 8744 28
6996 8741 8745 28
6997 8746 8747 28
6998 8746 8748 28
6999 8746 8749 28
7000 8746 8750 28
7001 8751 8752 28
7002 8751 8753 28
7003 8751 8754 28
7004 8751 8755 28
7005 8756 8757 28
7006 8756 8758 28
7007 8756 8759 28
7008 8756 8760 28
7009 8761 8762 28
7010 8761 8763 28
7011 8761 8764 28
7012 8761 8765 28
7013 8766 8767 28
7014 8766 8768 28
7015 8766 8769 28
7016 8766 8770 28
7017 8771 8772 28
7018 8771 8773 28
7019 8771 8774 28
7020 8771 8775 28
7021 8776 8777 28
7022 8776 8778 28
7023 8776 8779 28
7024 8776 8780 28
7025 8781 8782 28
7026 8781 8783 28
7027 8781 8784 28
7028 8781 8785 28
7029 8786 8787 28
7030 8786 8788 28
7031 8786 8789 28
7032 8786 8790 28
7033 8791 8792 28
7034 8791 8793 28
7035 8791 8794 28
7036 8791 8795 28
7037 8796 8797 28
7038 8796 8798 28
7039 8796 8799 28
7040 8796 8800 28
7041 8801 8802 28
7042 8801 8803 28
7043 8801 8804 28
7044 8801 8805 28
7045 8806 8807 28
7046 8806 8808 28
7047 8806 8809 28
7048 8806 8810 28
7049 8811 8812 28
7050 8811 8813 28
7051 8811 8814 28
7052 8811 8815 28
7053 8816 8817 28
7054 8816 8818 28
7055 8816 8819 28
7056 8816 8820 28
7057 8821 8822 28
7058 8821 8823 28
7059 8821 8824 28
7060 8821 8825 28
7061 8826 8827 28
7062 8826 8828 28
7063 8826 8829 28
7064 8826 8830 28
7065 8831 8832 28
7066 8831 8833 28
7067 8831 8834 28
7068 8831 8835 28
7069 8836 8837 28
7070 8836 8838 28
7071 8836 8839 28
7072 8836 8840 28
7073 8841 8842 28
7074 8841 8843 28
7075 8841 8844 28
7076 8841 8845 28
7077 8846 8847 28
7078 8846 8848 28
7079 8846 8849 28
7080 8846 8850 28
7081 8851 8852 28
7082 8851 8853 28
7083 8851 8854 28
7084 8851 8855 28
7085 8856 8857 28
7086 8856 8858 28
7087 8856 8859 28
7088 8856 8860 28
7089 8861 8862 28
7090 8861 8863 28
7091 8861 8864 28
7092 8861 8865 28
7093 8866 8867 28
7094 8866 8868 28
7095 8866 8869 28
7096 8866 8870 28
7097 8871 8872 28
7098 8871 8873 28
7099 8871 8874 28
7100 8871 8875 28
7101 8876 8877 28
7102 8876 8878 28
7103 8876 8879 28
7104 8876 8880 28
7105 8881 8882 28
7106 8881 8883 28
7107 8881 8884 28
7108 8881 8885 28
7109 8886 8887 28
7110 8886 8888 28
7111 8886 8889 28
7112 8886 8890 28
7113 8891 8892 28
7114 8891 8893 28
7115 8891 8894 28
7116 8891 8895 28
7117 8896 8897 28
7118 8896 8898 28
7119 8896 8899 28
7120 8896 8900 28
7121 8901 8902 28
7122 8901 8903 28
7123 8901 8904 28
7124 8901 8905 28
7125 8906 8907 28
7126 8906 8908 28
7127 8906 8909 28
7128 8906 8910 28
7129 8911 8912 28
7130 8911 8913 28
7131 8911 8914 28
7132 8911 8915 28
7133 8916 8917 28
7134 8916 8918 28
7135 8916 8919 28
7136 8916 8920 28
7137 8921 8922 28
7138 8921 8923 28
7139 8921 8924 28
7140 8921 8925 28
7141 8926 8927 28
7142 8926 8928 28
7143 8926 8929 28
7144 8926 8930 28
7145 8931 8932 28
7146 8931 8933 28
7147 8931 8934 28
7148 8931 8935 28
7149 8936 8937 28
7150 8936 8938 28
7151 8936 8939 28
7152 8936 8940 28
7153 8941 8942 28
7154 8941 8943 28
7155 8941 8944 28
7156 8941 8945 28
7157 8946 8947 28
7158 8946 8948 28
7159 8946 8949 28
7160 8946 8950 28
7161 8951 8952 28
7162 8951 8953 28
7163 8951 8954 28
7164 8951 8955 28
7165 8956 8957 28
7166 8956 8958 28
7167 8956 8959 28
7168 8956 8960 28
7169 8961 8962 28
7170 8961 8963 28
7171 8961 8964 28
7172 8961 8965 28
7173 8966 8967 28
7174 8966 8968 28
7175 8966 8969 28
7176 8966 8970 28
7177 8971 8972 28
7178 8971 8973 28
7179 8971 8974 28
7180 8971 8975 28
7181 8976 8977 28
7182 8976 8978 28
7183 8976 8979 28
7184 8976 8980 28
7185 8981 8982 28
7186 8981 8983 28
7187 8981 8984 28
7188 8981 8985 28
7189 8986 8987 28
7190 8986 8988 28
7191 8986 8989 28
7192 8986 8990 28
7193 8991 8992 28
7194 8991 8993 28
7195 8991 8994 28
7196 8991 8995 28
7197 8996 8997 28
7198 8996 8998 28
7199 8996 8999 28
7200 8996 9000 28
7201 9001 9002 28
7202 9001 9003 28
7203 9001 9004 28
7204 9001 9005 28
7205 9006 9007 28
7206 9006 9008 28
7207 9006 9009 28
7208 9006 9010 28
7209 9011 9012 28
7210 9011 9013 28
7211 9011 9014 28
7212 9011 9015 28
7213 9016 9017 28
7214 9016 9018 28
7215 9016 9019 28
7216 9016 9020 28
7217 9021 9022 28
7218 9021 9023 28
7219 9021 9024 28
7220 9021 9025 28
7221 9026 9027 28
7222 9026 9028 28
7223 9026 9029 28
7224 9026 9030 28
7225 9031 9032 28
7226 9031 9033 28
7227 9031 9034 28
7228 9031 9035 28
7229 9036 9037 28
7230 9036 9038 28
7231 9036 9039 28
7232 9036 9040 28
7233 9041 9042 28
7234 9041 9043 28
7235 9041 9044 28
7236 9041 9045 28
7237 9046 9047 28
7238 9046 9048 28
7239 9046 9049 28
7240 9046 9050 28
7241 9051 9052 28
7242 9051 9053 28
7243 9051 9054 28
7244 9051 9055 28
7245 9056 9057 28
7246 9056 9058 28
7247 9056 9059 28
7248 9056 9060 28
7249 9061 9062 28
7250 9061 9063 28
7251 9061 9064 28
7252 9061 9065 28
7253 9066 9067 28
7254 9066 9068 28
7255 9066 9069 28
7256 9066 9070 28
7257 9071 9072 28
7258 9071 9073 28
7259 9071 9074 28
7260 9071 9075 28
7261 9076 9077 28
7262 9076 9078 28
7263 9076 9079 28
7264 9076 9080 28
7265 9081 9082 28
7266 9081 9083 28
7267 9081 9084 28
7268 9081 9085 28
7269 9086 9087 28
7270 9086 9088 28
7271 9086 9089 28
7272 9086 9090 28
7273 9091 9092 28
7274 9091 9093 28
7275 9091 9094 28
7276 9091 9095 28
7277 9096 9097 28
7278 9096 9098 28
7279 9096 9099 28
7280 9096 9100 28
7281 9101 9102 28
7282 9101 9103 28
7283 9101 9104 28
7284 9101 9105 28
7285 9106 9107 28
7286 9106 9108 28
7287 9106 9109 28
7288 9106 9110 28
7289 9111 9112 28
7290 9111 9113 28
7291 9111 9114 28
7292 9111 9115 28
7293 9116 9117 28
7294 9116 9118 28
7295 9116 9119 28
7296 9116 9120 28
7297 9121 9122 28
7298 9121 9123 28
7299 9121 9124 28
7300 9121 9125 28
7301 9126 9127 28
7302 9126 9128 28
7303 9126 9129 28
7304 9126 9130 28
7305 9131 9132 28
7306 9131 9133 28
7307 9131 9134 28
7308 9131 9135 28
7309 9136 9137 28
7310 9136 9138 28
7311 9136 9139 28
7312 9136 9140 28
7313 9141 9142 28
7314 9141 9143 28
7315 9141 9144 28
7316 9141 9145 28
7317 9146 9147 28
7318 9146 9148 28
7319 9146 9149 28
7320 9146 9150 28
7321 9151 9152 28
7322 9151 9153 28
7323 9151 9154 28
7324 9151 9155 28
7325 9156 9157 28
7326 9156 9158 28
7327 9156 9159 28
7328 9156 9160 28
7329 9161 9162 28
7330 9161 9163 28
7331 9161 9164 28
7332 9161 9165 28
7333 9166 9167 28
7334 9166 9168 28
7335 9166 9169 28
7336 9166 9170 28
7337 9171 9172 28
7338 9171 9173 28
7339 9171 9174 28
7340 9171 9175 28
7341 9176 9177 28
7342 9176 9178 28
7343 9176 9179 28
7344 9176 9180 28
7345 9181 9182 28
7346 9181 9183 28
7347 9181 9184 28
7348 9181 9185 28
7349 9186 9187 28
7350 9186 9188 28
7351 9186 9189 28
7352 9186 9190 28
7353 9191 9192 28
7354 9191 9193 28
7355 9191 9194 28
7356 9191 9195 28
7357 9196 9197 28
7358 9196 9198 28
7359 9196 9199 28
7360 9196 9200 28
7361 9201 9202 28
7362 9201 9203 28
7363 9201 9204 28
7364 9201 9205 28
7365 9206 9207 28
7366 9206 9208 28
7367 9206 9209 28
7368 9206 9210 28
7369 9211 9212 28
7370 9211 9213 28
7371 9211 9214 28
7372 9211 9215 28
7373 9216 9217 28
7374 9216 9218 28
7375 9216 9219 28
7376 9216 9220 28
7377 9221 9222 28
7378 9221 9223 28
7379 9221 9224 28
7380 9221 9225 28
7381 9226 9227 28
7382 9226 9228 28
7383 9226 9229 28
7384 9226 9230 28
7385 9231 9232 28
7386 9231 9233 28
7387 9231 9234 28
7388 9231 9235 28
7389 9236 9237 28
7390 9236 9238 28
7391 9236 9239 28
7392 9236 9240 28
7393 9241 9242 28
7394 9241 9243 28
7395 9241 9244 28
7396 9241 9245 28
7397 9246 9247 28
7398 9246 9248 28
7399 9246 9249 28
7400 9246 9250 28
7401 9251 9252 28
7402 9251 9253 28
7403 9251 9254 28
7404 9251 9255 28
7405 9256 9257 28
7406 9256 9258 28
7407 9256 9259 28
7408 9256 9260 28
7409 9261 9262 28
7410 9261 9263 28
7411 9261 9264 28
7412 9261 9265 28
7413 9266 9267 28
7414 9266 9268 28
7415 9266 9269 28
7416 9266 9270 28
7417 9271 9272 28
7418 9271 9273 28
7419 9271 9274 28
7420 9271 9275 28
7421 9276 9277 28
7422 9276 9278 28
7423 9276 9279 28
7424 9276 9280 28
7425 9281 9282 28
7426 9281 9283 28
7427 9281 9284 28
7428 9281 9285 28
7429 9286 9287 28
7430 9286 9288 28
7431 9286 9289 28
7432 9286 9290 28
7433 9291 9292 28
7434 9291 9293 28
7435 9291 9294 28
7436 9291 9295 28
7437 9296 9297 28
7438 9296 9298 28
7439 9296 9299 28
7440 9296 9300 28
7441 9301 9302 28
7442 9301 9303 28
7443 9301 9304 28
7444 9301 9305 28
7445 9306 9307 28
7446 9306 9308 28
7447 9306 9309 28
7448 9306 9310 28
7449 9311 9312 28
7450 9311 9313 28
7451 9311 9314 28
7452 9311 9315 28
7453 9316 9317 28
7454 9316 9318 28
7455 9316 9319 28
7456 9316 9320 28
7457 9321 9322 28
7458 9321 9323 28
7459 9321 9324 28
7460 9321 9325 28
7461 9326 9327 28
7462 9326 9328 28
7463 9326 9329 28
7464 9326 9330 28
7465 9331 9332 28
7466 9331 9333 28
7467 9331 9334 28
7468 9331 9335 28
7469 9336 9337 28
7470 9336 9338 28
7471 9336 9339 28
7472 9336 9340 28
7473 9341 9342 28
7474 9341 9343 28
7475 9341 9344 28
7476 9341 9345 28
7477 9346 9347 28
7478 9346 9348 28
7479 9346 9349 28
7480 9346 9350 28
7481 9351 9352 28
7482 9351 9353 28
7483 9351 9354 28
7484 9351 9355 28
7485 9356 9357 28
7486 9356 9358 28
7487 9356 9359 28
7488 9356 9360 28
7489 9361 9362 28
7490 9361 9363 28
7491 9361 9364 28
7492 9361 9365 28
7493 9366 9367 28
7494 9366 9368 28
7495 9366 9369 28
7496 9366 9370 28
7497 9371 9372 28
7498 9371 9373 28
7499 9371 9374 28
7500 9371 9375 28
7501 9376 9377 28
7502 9376 9378 28
7503 9376 9379 28
7504 9376 9380 28
7505 9381 9382 28
7506 9381 9383 28
7507 9381 9384 28
7508 9381 9385 28
7509 9386 9387 28
7510 9386 9388 28
7511 9386 9389 28
7512 9386 9390 28
7513 9391 9392 28
7514 9391 9393 28
7515 9391 9394 28
7516 9391 9395 28
7517 9396 9397 28
7518 9396 9398 28
7519 9396 9399 28
7520 9396 9400 28
7521 9401 9402 28
7522 9401 9403 28
7523 9401 9404 28
7524 9401 9405 28
7525 9406 9407 28
7526 9406 9408 28
7527 9406 9409 28
7528 9406 9410 28
7529 9411 9412 28
7530 9411 9413 28
7531 9411 9414 28
7532 9411 9415 28
7533 9416 9417 28
7534 9416 9418 28
7535 9416 9419 28
7536 9416 9420 28
7537 9421 9422 28
7538 9421 9423 28
7539 9421 9424 28
7540 9421 9425 28
7541 9426 9427 28
7542 9426 9428 28
7543 9426 9429 28
7544 9426 9430 28
7545 9431 9432 28
7546 9431 9433 28
7547 9431 9434 28
7548 9431 9435 28
7549 9436 9437 28
7550 9436 9438 28
7551 9436 9439 28
7552 9436 9440 28
7553 9441 9442 28
7554 9441 9443 28
7555 9441 9444 28
7556 9441 9445 28
7557 9446 9447 28
7558 9446 9448 28
7559 9446 9449 28
7560 9446 9450 28
7561 9451 9452 28
7562 9451 9453 28
7563 9451 9454 28
7564 9451 9455 28
7565 9456 9457 28
7566 9456 9458 28
7567 9456 9459 28
7568 9456 9460 28
7569 9461 9462 28
7570 9461 9463 28
7571 9461 9464 28
7572 9461 9465 28
7573 9466 9467 28
7574 9466 9468 28
7575 9466 9469 28
7576 9466 9470 28
7577 9471 9472 28
7578 9471 9473 28
7579 9471 9474 28
7580 9471 9475 28
7581 9476 9477 28
7582 9476 9478 28
7583 9476 9479 28
7584 9476 9480 28
7585 9481 9482 28
7586 9481 9483 28
7587 9481 9484 28
7588 9481 9485 28
7589 9486 9487 28
7590 9486 9488 28
7591 9486 9489 28
7592 9486 9490 28
7593 9491 9492 28
7594 9491 9493 28
7595 9491 9494 28
7596 9491 9495 28
7597 9496 9497 28
7598 9496 9498 28
7599 9496 9499 28
7600 9496 9500 28
7601 9501 9502 28
7602 9501 9503 28
7603 9501 9504 28
7604 9501 9505 28
7605 9506 9507 28
7606 9506 9508 28
7607 9506 9509 28
7608 9506 9510 28
7609 9511 9512 28
7610 9511 9513 28
7611 9511 9514 28
7612 9511 9515 28
7613 9516 9517 28
7614 9516 9518 28
7615 9516 9519 28
7616 9516 9520 28
7617 9521 9522 28
7618 9521 9523 28
7619 9521 9524 28
7620 9521 9525 28
7621 9526 9527 28
7622 9526 9528 28
7623 9526 9529 28
7624 9526 9530 28
7625 9531 9532 28
7626 9531 9533 28
7627 9531 9534 28
7628 9531 9535 28
7629 9536 9537 28
7630 9536 9538 28
7631 9536 9539 28
7632 9536 9540 28
7633 9541 9542 28
7634 9541 9543 28
7635 9541 9544 28
7636 9541 9545 28
7637 9546 9547 28
7638 9546 9548 28
7639 9546 9549 28
7640 9546 9550 28
7641 9551 9552 28
7642 9551 9553 28
7643 9551 9554 28
7644 9551 9555 28
7645 9556 9557 28
7646 9556 9558 28
7647 9556 9559 28
7648 9556 9560 28
7649 9561 9562 28
7650 9561 9563 28
7651 9561 9564 28
7652 9561 9565 28
7653 9566 9567 28
7654 9566 9568 28
7655 9566 9569 28
7656 9566 9570 28
7657 9571 9572 28
7658 9571 9573 28
7659 9571 9574 28
7660 9571 9575 28
7661 9576 9577 28
7662 9576 9578 28
7663 9576 9579 28
7664 9576 9580 28
7665 9581 9582 28
7666 9581 9583 28
7667 9581 9584 28
7668 9581 9585 28
7669 9586 9587 28
7670 9586 9588 28
7671 9586 9589 28
7672 9586 9590 28
7673 9591 9592 28
7674 9591 9593 28
7675 9591 9594 28
7676 9591 9595 28
7677 9596 9597 28
7678 9596 9598 28
7679 9596 9599 28
7680 9596 9600 28
7681 9601 9602 28
7682 9601 9603 28
7683 9601 9604 28
7684 9601 9605 28
7685 9606 9607 28
7686 9606 9608 28
7687 9606 9609 28
7688 9606 9610 28
7689 9611 9612 28
7690 9611 9613 28
7691 9611 9614 28
7692 9611 9615 28
7693 9616 9617 28
7694 9616 9618 28
7695 9616 9619 28
7696 9616 9620 28
7697 9621 9622 28
7698 9621 9623 28
7699 9621 9624 28
7700 9621 9625 28
7701 9626 9627 28
7702 9626 9628 28
7703 9626 9629 28
7704 9626 9630 28
7705 9631 9632 28
7706 9631 9633 28
7707 9631 9634 28
7708 9631 9635 28
7709 9636 9637 28
7710 9636 9638 28
7711 9636 9639 28
7712 9636 9640 28
7713 9641 9642 28
7714 9641 9643 28
7715 9641 9644 28
7716 9641 9645 28
7717 9646 9647 28
7718 9646 9648 28
7719 9646 9649 28
7720 9646 9650 28
7721 9651 9652 28
7722 9651 9653 28
7723 9651 9654 28
7724 9651 9655 28
7725 9656 9657 28
7726 9656 9658 28
7727 9656 9659 28
7728 9656 9660 28
7729 9661 9662 28
7730 9661 9663 28
7731 9661 9664 28
7732 9661 9665 28
7733 9666 9667 28
7734 9666 9668 28
7735 9666 9669 28
7736 9666 9670 28
7737 9671 9672 28
7738 9671 9673 28
7739 9671 9674 28
7740 9671 9675 28
7741 9676 9677 28
7742 9676 9678 28
7743 9676 9679 28
7744 9676 9680 28
7745 9681 9682 28
7746 9681 9683 28
7747 9681 9684 28
7748 9681 9685 28
7749 9686 9687 28
7750 9686 9688 28
7751 9686 9689 28
7752 9686 9690 28
7753 9691 9692 28
7754 9691 9693 28
7755 9691 9694 28
7756 9691 9695 28
7757 9696 9697 28
7758 9696 9698 28
7759 9696 9699 28
7760 9696 9700 28
7761 9701 9702 28
7762 9701 9703 28
7763 9701 9704 28
7764 9701 9705 28
7765 9706 9707 28
7766 9706 9708 28
7767 9706 9709 28
7768 9706 9710 28
7769 9711 9712 28
7770 9711 9713 28
7771 9711 9714 28
7772 9711 9715 28
7773 9716 9717 28
7774 9716 9718 28
7775 9716 9719 28
7776 9716 9720 28
7777 9721 9722 28
7778 9721 9723 28
7779 9721 9724 28
7780 9721 9725 28
7781 9726 9727 28
7782 9726 9728 28
7783 9726 9729 28
7784 9726 9730 28
7785 9731 9732 28
7786 9731 9733 28
7787 9731 9734 28
7788 9731 9735 28
7789 9736 9737 28
7790 9736 9738 28
7791 9736 9739 28
7792 9736 9740 28
7793 9741 9742 28
7794 9741 9743 28
7795 9741 9744 28
7796 9741 9745 28
7797 9746 9747 28
7798 9746 9748 28
7799 9746 9749 28
7800 9746 9750 28
7801 9751 9752 28
7802 9751 9753 28
7803 9751 9754 28
7804 9751 9755 28
7805 9756 9757 28
7806 9756 9758 28
7807 9756 9759 28
7808 9756 9760 28
7809 9761 9762 28
7810 9761 9763 28
7811 9761 9764 28
7812 9761 9765 28
7813 9766 9767 28
7814 9766 9768 28
7815 9766 9769 28
7816 9766 9770 28
7817 9771 9772 28
7818 9771 9773 28
7819 9771 9774 28
7820 9771 9775 28
7821 9776 9777 28
7822 9776 9778 28
7823 9776 9779 28
7824 9776 9780 28
7825 9781 9782 28
7826 9781 9783 28
7827 9781 9784 28
7828 9781 9785 28
7829 9786 9787 28
7830 9786 9788 28
7831 9786 9789 28
7832 9786 9790 28
7833 9791 9792 28
7834 9791 9793 28
7835 9791 9794 28
7836 9791 9795 28
7837 9796 9797 28
7838 9796 9798 28
7839 9796 9799 28
7840 9796 9800 28
7841 9801 9802 28
7842 9801 9803 28
7843 9801 9804 28
7844 9801 9805 28
7845 9806 9807 28
7846 9806 9808 28
7847 9806 9809 28
7848 9806 9810 28
7849 9811 9812 28
7850 9811 9813 28
7851 9811 9814 28
7852 9811 9815 28
7853 9816 9817 28
7854 9816 9818 28
7855 9816 9819 28
7856 9816 9820 28
7857 9821 9822 28
7858 9821 9823 28
7859 9821 9824 28
7860 9821 9825 28
7861 9826 9827 28
7862 9826 9828 28
7863 9826 9829 28
7864 9826 9830 28
7865 9831 9832 28
7866 9831 9833 28
7867 9831 9834 28
7868 9831 9835 28
7869 9836 9837 28
7870 9836 9838 28
7871 9836 9839 28
7872 9836 9840 28
7873 9841 9842 28
7874 9841 9843 28
7875 9841 9844 28
7876 9841 9845 28
7877 9846 9847 28
7878 9846 9848 28
7879 9846 9849 28
7880 9846 9850 28
7881 9851 9852 28
7882 9851 9853 28
7883 9851 9854 28
7884 9851 9855 28
7885 9856 9857 28
7886 9856 9858 28
7887 9856 9859 28
7888 9856 9860 28
7889 9861 9862 28
7890 9861 9863 28
7891 9861 9864 28
7892 9861 9865 28
7893 9866 9867 28
7894 9866 9868 28
7895 9866 9869 28
7896 9866 9870 28
7897 9871 9872 28
7898 9871 9873 28
7899 9871 9874 28
7900 9871 9875 28
7901 9876 9877 28
7902 9876 9878 28
7903 9876 9879 28
7904 9876 9880 28
7905 9881 9882 28
7906 9881 9883 28
7907 9881 9884 28
7908 9881 9885 28
7909 9886 9887 28
7910 9886 9888 28
7911 9886 9889 28
7912 9886 9890 28
7913 9891 9892 28
7914 9891 9893 28
7915 9891 9894 28
7916 9891 9895 28
7917 9896 9897 28
7918 9896 9898 28
7919 9896 9899 28
7920 9896 9900 28
7921 9901 9902 28
7922 9901 9903 28
7923 9901 9904 28
7924 9901 9905 28
7925 9906 9907 28
7926 9906 9908 28
7927 9906 9909 28
7928 9906 9910 28
7929 9911 9912 28
7930 9911 9913 28
7931 9911 9914 28
7932 9911 9915 28
7933 9916 9917 28
7934 9916 9918 28
7935 9916 9919 28
7936 9916 9920 28
7937 9921 9922 28
7938 9921 9923 28
7939 9921 9924 28
7940 9921 9925 28
7941 9926 9927 28
7942 9926 9928 28
7943 9926 9929 28
7944 9926 9930 28
7945 9931 9932 28
7946 9931 9933 28
7947 9931 9934 28
7948 9931 9935 28
7949 9936 9937 28
7950 9936 9938 28
7951 9936 9939 28
7952 9936 9940 28
7953 9941 9942 28
7954 9941 9943 28
7955 9941 9944 28
7956 9941 9945 28
7957 9946 9947 28
7958 9946 9948 28
7959 9946 9949 28
7960 9946 9950 28
7961 9951 9952 28
7962 9951 9953 28
7963 9951 9954 28
7964 9951 9955 28
7965 9956 9957 28
7966 9956 9958 28
7967 9956 9959 28
7968 9956 9960 28
7969 9961 9962 28
7970 9961 9963 28
7971 9961 9964 28
7972 9961 9965 28
7973 9966 9967 28
7974 9966 9968 28
7975 9966 9969 28
7976 9966 9970 28
7977 9971 9972 28
7978 9971 9973 28
7979 9971 9974 28
7980 9971 9975 28
7981 9976 9977 28
7982 9976 9978 28
7983 9976 9979 28
7984 9976 9980 28
7985 9981 9982 28
7986 9981 9983 28
7987 9981 9984 28
7988 9981 9985 28
7989 9986 9987 28
7990 9986 9988 28
7991 9986 9989 28
7992 9986 9990 28
7993 9991 9992 28
7994 9991 9993 28
7995 9991 9994 28
7996 9991 9995 28
7997 9996 9997 28
7998 9996 9998 28
7999 9996 9999 28
8000 9996 10000 28
8001 10001 10002 28
8002 10001 10003 28
8003 10001 10004 28
8004 10001 10005 28
8005 10006 10007 28
8006 10006 10008 28
8007 10006 10009 28
8008 10006 10010 28
8009 10011 10012 28
8010 10011 10013 28
8011 10011 10014 28
8012 10011 10015 28
8013 10016 10017 28
8014 10016 10018 28
8015 10016 10019 28
8016 10016 10020 28
8017 10021 10022 28
8018 10021 10023 28
8019 10021 10024 28
8020 10021 10025 28
8021 10026 10027 28
8022 10026 10028 28
8023 10026 10029 28
8024 10026 10030 28
8025 10031 10032 28
8026 10031 10033 28
8027 10031 10034 28
8028 10031 10035 28
8029 10036 10037 28
8030 10036 10038 28
8031 10036 10039 28
8032 10036 10040 28
8033 10041 10042 28
8034 10041 10043 28
8035 10041 10044 28
8036 10041 10045 28
8037 10046 10047 28
8038 10046 10048 28
8039 10046 10049 28
8040 10046 10050 28
8041 10051 10052 28
8042 10051 10053 28
8043 10051 10054 28
8044 10051 10055 28
8045 10056 10057 28
8046 10056 10058 28
8047 10056 10059 28
8048 10056 10060 28
8049 10061 10062 28
8050 10061 10063 28
8051 10061 10064 28
8052 10061 10065 28
8053 10066 10067 28
8054 10066 10068 28
8055 10066 10069 28
8056 10066 10070 28
8057 10071 10072 28
8058 10071 10073 28
8059 10071 10074 28
8060 10071 10075 28
8061 10076 10077 28
8062 10076 10078 28
8063 10076 10079 28
8064 10076 10080 28
8065 10081 10082 28
8066 10081 10083 28
8067 10081 10084 28
8068 10081 10085 28
8069 10086 10087 28
8070 10086 10088 28
8071 10086 10089 28
8072 10086 10090 28
8073 10091 10092 28
8074 10091 10093 28
8075 10091 10094 28
8076 10091 10095 28
8077 10096 10097 28
8078 10096 10098 28
8079 10096 10099 28
8080 10096 10100 28
8081 10101 10102 28
8082 10101 10103 28
8083 10101 10104 28
8084 10101 10105 28
8085 10106 10107 28
8086 10106 10108 28
8087 10106 10109 28
8088 10106 10110 28
8089 10111 10112 28
8090 10111 10113 28
8091 10111 10114 28
8092 10111 10115 28
8093 10116 10117 28
8094 10116 10118 28
8095 10116 10119 28
8096 10116 10120 28
8097 10121 10122 28
8098 10121 10123 28
8099 10121 10124 28
8100 10121 10125 28
8101 10126 10127 28
8102 10126 10128 28
8103 10126 10129 28
8104 10126 10130 28
8105 10131 10132 28
8106 10131 10133 28
8107 10131 10134 28
8108 10131 10135 28
8109 10136 10137 28
8110 10136 10138 28
8111 10136 10139 28
8112 10136 10140 28
8113 10141 10142 28
8114 10141 10143 28
8115 10141 10144 28
8116 10141 10145 28
8117 10146 10147 28
8118 10146 10148 28
8119 10146 10149 28
8120 10146 10150 28
8121 10151 10152 28
8122 10151 10153 28
8123 10151 10154 28
8124 10151 10155 28
8125 10156 10157 28
8126 10156 10158 28
8127 10156 10159 28
8128 10156 10160 28
8129 10161 10162 28
8130 10161 10163 28
8131 10161 10164 28
8132 10161 10165 28
8133 10166 10167 28
8134 10166 10168 28
8135 10166 10169 28
8136 10166 10170 28
8137 10171 10172 28
8138 10171 10173 28
8139 10171 10174 28
8140 10171 10175 28
8141 10176 10177 28
8142 10176 10178 28
8143 10176 10179 28
8144 10176 10180 28
8145 10181 10182 28
8146 10181 10183 28
8147 10181 10184 28
8148 10181 10185 28
8149 10186 10187 28
8150 10186 10188 28
8151 10186 10189 28
8152 10186 10190 28
8153 10191 10192 28
8154 10191 10193 28
8155 10191 10194 28
8156 10191 10195 28
8157 10196 10197 28
8158 10196 10198 28
8159 10196 10199 28
8160 10196 10200 28
8161 10201 10202 28
8162 10201 10203 28
8163 10201 10204 28
8164 10201 10205 28
8165 10206 10207 28
8166 10206 10208 28
8167 10206 10209 28
8168 10206 10210 28
8169 10211 10212 28
8170 10211 10213 28
8171 10211 10214 28
8172 10211 10215 28
8173 10216 10217 28
8174 10216 10218 28
8175 10216 10219 28
8176 10216 10220 28
8177 10221 10222 28
8178 10221 10223 28
8179 10221 10224 28
8180 10221 10225 28
8181 10226 10227 28
8182 10226 10228 28
8183 10226 10229 28
8184 10226 10230 28
8185 10231 10232 28
8186 10231 10233 28
8187 10231 10234 28
8188 10231 10235 28
8189 10236 10237 28
8190 10236 10238 28
8191 10236 10239 28
8192 10236 10240 28
8193 10241 10242 28
8194 10241 10243 28
8195 10241 10244 28
8196 10241 10245 28
8197 10246 10247 28
8198 10246 10248 28
8199 10246 10249 28
8200 10246 10250 28
8201 10251 10252 28
8202 10251 10253 28
8203 10251 10254 28
8204 10251 10255 28
8205 10256 10257 28
8206 10256 10258 28
8207 10256 10259 28
8208 10256 10260 28
8209 10261 10262 28
8210 10261 10263 28
8211 10261 10264 28
8212 10261 10265 28
8213 10266 10267 28
8214 10266 10268 28
8215 10266 10269 28
8216 10266 10270 28
8217 10271 10272 28
8218 10271 10273 28
8219 10271 10274 28
8220 10271 10275 28
8221 10276 10277 28
8222 10276 10278 28
8223 10276 10279 28
8224 10276 10280 28
8225 10281 10282 28
8226 10281 10283 28
8227 10281 10284 28
8228 10281 10285 28
8229 10286 10287 28
8230 10286 10288 28
8231 10286 10289 28
8232 10286 10290 28
8233 10291 10292 28
8234 10291 10293 28
8235 10291 10294 28
8236 10291 10295 28
8237 10296 10297 28
8238 10296 10298 28
8239 10296 10299 28
8240 10296 10300 28
8241 10301 10302 28
8242 10301 10303 28
8243 10301 10304 28
8244 10301 10305 28
8245 10306 10307 28
8246 10306 10308 28
8247 10306 10309 28
8248 10306 10310 28
8249 10311 10312 28
8250 10311 10313 28
8251 10311 10314 28
8252 10311 10315 28
8253 10316 10317 28
8254 10316 10318 28
8255 10316 10319 28
8256 10316 10320 28
8257 10321 10322 28
8258 10321 10323 28
8259 10321 10324 28
8260 10321 10325 28
8261 10326 10327 28
8262 10326 10328 28
8263 10326 10329 28
8264 10326 10330 28
8265 10331 10332 28
8266 10331 10333 28
8267 10331 10334 28
8268 10331 10335 28
8269 10336 10337 28
8270 10336 10338 28
8271 10336 10339 28
8272 10336 10340 28
8273 10341 10342 28
8274 10341 10343 28
8275 10341 10344 28
8276 10341 10345 28
8277 10346 10347 28
8278 10346 10348 28
8279 10346 10349 28
8280 10346 10350 28
8281 10351 10352 28
8282 10351 10353 28
8283 10351 10354 28
8284 10351 10355 28
8285 10356 10357 28
8286 10356 10358 28
8287 10356 10359 28
8288 10356 10360 28
8289 10361 10362 28
8290 10361 10363 28
8291 10361 10364 28
8292 10361 10365 28
8293 10366 10367 28
8294 10366 10368 28
8295 10366 10369 28
8296 10366 10370 28
8297 10371 10372 28
8298 10371 10373 28
8299 10371 10374 28
8300 10371 10375 28
8301 10376 10377 28
8302 10376 10378 28
8303 10376 10379 28
8304 10376 10380 28
8305 10381 10382 28
8306 10381 10383 28
8307 10381 10384 28
8308 10381 10385 28
8309 10386 10387 28
8310 10386 10388 28
8311 10386 10389 28
8312 10386 10390 28
8313 10391 10392 28
8314 10391 10393 28
8315 10391 10394 28
8316 10391 10395 28
8317 10396 10397 28
8318 10396 10398 28
8319 10396 10399 28
8320 10396 10400 28
8321 10401 10402 28
8322 10401 10403 28
8323 10401 10404 28
8324 10401 10405 28
8325 10406 10407 28
8326 10406 10408 28
8327 10406 10409 28
8328 10406 10410 28
8329 10411 10412 28
8330 10411 10413 28
8331 10411 10414 28
8332 10411 10415 28
8333 10416 10417 28
8334 10416 10418 28
8335 10416 10419 28
8336 10416 10420 28
8337 10421 10422 28
8338 10421 10423 28
8339 10421 10424 28
8340 10421 10425 28
8341 10426 10427 28
8342 10426 10428 28
8343 10426 10429 28
8344 10426 10430 28
8345 10431 10432 28
8346 10431 10433 28
8347 10431 10434 28
8348 10431 10435 28
8349 10436 10437 28
8350 10436 10438 28
8351 10436 10439 28
8352 10436 10440 28
8353 10441 10442 28
8354 10441 10443 28
8355 10441 10444 28
8356 10441 10445 28
8357 10446 10447 28
8358 10446 10448 28
8359 10446 10449 28
8360 10446 10450 28
8361 10451 10452 28
8362 10451 10453 28
8363 10451 10454 28
8364 10451 10455 28
8365 10456 10457 28
8366 10456 10458 28
8367 10456 10459 28
8368 10456 10460 28
8369 10461 10462 28
8370 10461 10463 28
8371 10461 10464 28
8372 10461 10465 28
8373 10466 10467 28
8374 10466 10468 28
8375 10466 10469 28
8376 10466 10470 28
8377 10471 10472 28
8378 10471 10473 28
8379 10471 10474 28
8380 10471 10475 28
8381 10476 10477 28
8382 10476 10478 28
8383 10476 10479 28
8384 10476 10480 28
8385 10481 10482 28
8386 10481 10483 28
8387 10481 10484 28
8388 10481 10485 28
8389 10486 10487 28
8390 10486 10488 28
8391 10486 10489 28
8392 10486 10490 28
8393 10491 10492 28
8394 10491 10493 28
8395 10491 10494 28
8396 10491 10495 28
8397 10496 10497 28
8398 10496 10498 28
8399 10496 10499 28
8400 10496 10500 28
8401 10501 10502 28
8402 10501 10503 28
8403 10501 10504 28
8404 10501 10505 28
8405 10506 10507 28
8406 10506 10508 28
8407 10506 10509 28
8408 10506 10510 28
8409 10511 10512 28
8410 10511 10513 28
8411 10511 10514 28
8412 10511 10515 28
8413 10516 10517 28
8414 10516 10518 28
8415 10516 10519 28
8416 10516 10520 28
8417 10521 10522 28
8418 10521 10523 28
8419 10521 10524 28
8420 10521 10525 28
8421 10526 10527 28
8422 10526 10528 28
8423 10526 10529 28
8424 10526 10530 28
8425 10531 10532 28
8426 10531 10533 28
8427 10531 10534 28
8428 10531 10535 28
8429 10536 10537 28
8430 10536 10538 28
8431 10536 10539 28
8432 10536 10540 28
8433 10541 10542 28
8434 10541 10543 28
8435 10541 10544 28
8436 10541 10545 28
8437 10546 10547 28
8438 10546 10548 28
8439 10546 10549 28
8440 10546 10550 28
8441 10551 10552 28
8442 10551 10553 28
8443 10551 10554 28
8444 10551 10555 28
8445 10556 10557 28
8446 10556 10558 28
8447 10556 10559 28
8448 10556 10560 28
8449 10561 10562 28
8450 10561 10563 28
8451 10561 10564 28
8452 10561 10565 28
8453 10566 10567 28
8454 10566 10568 28
8455 10566 10569 28
8456 10566 10570 28
8457 10571 10572 28
8458 10571 10573 28
8459 10571 10574 28
8460 10571 10575 28
8461 10576 10577 28
8462 10576 10578 28
8463 10576 10579 28
8464 10576 10580 28
8465 10581 10582 28
8466 10581 10583 28
8467 10581 10584 28
8468 10581 10585 28
8469 10586 10587 28
8470 10586 10588 28
8471 10586 10589 28
8472 10586 10590 28
8473 10591 10592 28
8474 10591 10593 28
8475 10591 10594 28
8476 10591 10595 28
8477 10596 10597 28
8478 10596 10598 28
8479 10596 10599 28
8480 10596 10600 28
8481 10601 10602 28
8482 10601 10603 28
8483 10601 10604 28
8484 10601 10605 28
8485 10606 10607 28
8486 10606 10608 28
8487 10606 10609 28
8488 10606 10610 28
8489 10611 10612 28
8490 10611 10613 28
8491 10611 10614 28
8492 10611 10615 28
8493 10616 10617 28
8494 10616 10618 28
8495 10616 10619 28
8496 10616 10620 28
8497 10621 10622 28
8498 10621 10623 28
8499 10621 10624 28
8500 10621 10625 28
8501 10626 10627 28
8502 10626 10628 28
8503 10626 10629 28
8504 10626 10630 28
8505 10631 10632 28
8506 10631 10633 28
8507 10631 10634 28
8508 10631 10635 28
8509 10636 10637 28
8510 10636 10638 28
8511 10636 10639 28
8512 10636 10640 28
8513 10641 10642 28
8514 10641 10643 28
8515 10641 10644 28
8516 10641 10645 28
8517 10646 10647 28
8518 10646 10648 28
8519 10646 10649 28
8520 10646 10650 28
8521 10651 10652 28
8522 10651 10653 28
8523 10651 10654 28
8524 10651 10655 28
8525 10656 10657 28
8526 10656 10658 28
8527 10656 10659 28
8528 10656 10660 28
8529 10661 10662 28
8530 10661 10663 28
8531 10661 10664 28
8532 10661 10665 28
8533 10666 10667 28
8534 10666 10668 28
8535 10666 10669 28
8536 10666 10670 28
8537 10671 10672 28
8538 10671 10673 28
8539 10671 10674 28
8540 10671 10675 28
8541 10676 10677 28
8542 10676 10678 28
8543 10676 10679 28
8544 10676 10680 28
8545 10681 10682 28
8546 10681 10683 28
8547 10681 10684 28
8548 10681 10685 28
8549 10686 10687 28
8550 10686 10688 28
8551 10686 10689 28
8552 10686 10690 28
8553 10691 10692 28
8554 10691 10693 28
8555 10691 10694 28
8556 10691 10695 28
8557 10696 10697 28
8558 10696 10698 28
8559 10696 10699 28
8560 10696 10700 28
8561 10701 10702 28
8562 10701 10703 28
8563 10701 10704 28
8564 10701 10705 28
8565 10706 10707 28
8566 10706 10708 28
8567 10706 10709 28
8568 10706 10710 28
8569 10711 10712 28
8570 10711 10713 28
8571 10711 10714 28
8572 10711 10715 28
8573 10716 10717 28
8574 10716 10718 28
8575 10716 10719 28
8576 10716 10720 28
8577 10721 10722 28
8578 10721 10723 28
8579 10721 10724 28
8580 10721 10725 28
8581 10726 10727 28
8582 10726 10728 28
8583 10726 10729 28
8584 10726 10730 28
8585 10731 10732 28
8586 10731 10733 28
8587 10731 10734 28
8588 10731 10735 28
8589 10736 10737 28
8590 10736 10738 28
8591 10736 10739 28
8592 10736 10740 28
8593 10741 10742 28
8594 10741 10743 28
8595 10741 10744 28
8596 10741 10745 28
8597 10746 10747 28
8598 10746 10748 28
8599 10746 10749 28
8600 10746 10750 28
8601 10751 10752 28
8602 10751 10753 28
8603 10751 10754 28
8604 10751 10755 28
8605 10756 10757 28
8606 10756 10758 28
8607 10756 10759 28
8608 10756 10760 28
8609 10761 10762 28
8610 10761 10763 28
8611 10761 10764 28
8612 10761 10765 28
8613 10766 10767 28
8614 10766 10768 28
8615 10766 10769 28
8616 10766 10770 28
8617 10771 10772 28
8618 10771 10773 28
8619 10771 10774 28
8620 10771 10775 28
8621 10776 10777 28
8622 10776 10778 28
8623 10776 10779 28
8624 10776 10780 28
8625 10781 10782 28
8626 10781 10783 28
8627 10781 10784 28
8628 10781 10785 28
8629 10786 10787 28
8630 10786 10788 28
8631 10786 10789 28
8632 10786 10790 28
8633 10791 10792 28
8634 10791 10793 28
8635 10791 10794 28
8636 10791 10795 28
8637 10796 10797 28
8638 10796 10798 28
8639 10796 10799 28
8640 10796 10800 28
8641 10801 10802 28
8642 10801 10803 28
8643 10801 10804 28
8644 10801 10805 28
8645 10806 10807 28
8646 10806 10808 28
8647 10806 10809 28
8648 10806 10810 28
8649 10811 10812 28
8650 10811 10813 28
8651 10811 10814 28
8652 10811 10815 28
8653 10816 10817 28
8654 10816 10818 28
8655 10816 10819 28
8656 10816 10820 28
8657 10821 10822 28
8658 10821 10823 28
8659 10821 10824 28
8660 10821 10825 28
8661 10826 10827 28
8662 10826 10828 28
8663 10826 10829 28
8664 10826 10830 28
8665 10831 10832 28
8666 10831 10833 28
8667 10831 10834 28
8668 10831 10835 28
8669 10836 10837 28
8670 10836 10838 28
8671 10836 10839 28
8672 10836 10840 28
8673 10841 10842 28
8674 10841 10843 28
8675 10841 10844 28
8676 10841 10845 28
8677 10846 10847 28
8678 10846 10848 28
8679 10846 10849 28
8680 10846 10850 28
8681 10851 10852 28
8682 10851 10853 28
8683 10851 10854 28
8684 10851 10855 28
8685 10856 10857 28
8686 10856 10858 28
8687 10856 10859 28
8688 10856 10860 28
8689 10861 10862 28
8690 10861 10863 28
8691 10861 10864 28
8692 10861 10865 28
8693 10866 10867 28
8694 10866 10868 28
8695 10866 10869 28
8696 10866 10870 28
8697 10871 10872 28
8698 10871 10873 28
8699 10871 10874 28
8700 10871 10875 28
8701 10876 10877 28
8702 10876 10878 28
8703 10876 10879 28
8704 10876 10880 28
8705 10881 10882 28
8706 10881 10883 28
8707 10881 10884 28
8708 10881 10885 28
8709 10886 10887 28
8710 10886 10888 28
8711 10886 10889 28
8712 10886 10890 28
8713 10891 10892 28
8714 10891 10893 28
8715 10891 10894 28
8716 10891 10895 28
8717 10896 10897 28
8718 10896 10898 28
8719 10896 10899 28
8720 10896 10900 28
8721 10901 10902 28
8722 10901 10903 28
8723 10901 10904 28
8724 10901 10905 28
8725 10906 10907 28
8726 10906 10908 28
8727 10906 10909 28
8728 10906 10910 28
8729 10911 10912 28
8730 10911 10913 28
8731 10911 10914 28
8732 10911 10915 28
8733 10916 10917 28
8734 10916 10918 28
8735 10916 10919 28
8736 10916 10920 28
8737 10921 10922 28
8738 10921 10923 28
8739 10921 10924 28
8740 10921 10925 28
8741 10926 10927 28
8742 10926 10928 28
8743 10926 10929 28
8744 10926 10930 28
8745 10931 10932 28
8746 10931 10933 28
8747 10931 10934 28
8748 10931 10935 28
8749 10936 10937 28
8750 10936 10938 28
8751 10936 10939 28
8752 10936 10940 28
8753 10941 10942 28
8754 10941 10943 28
8755 10941 10944 28
8756 10941 10945 28
8757 10946 10947 28
8758 10946 10948 28
8759 10946 10949 28
8760 10946 10950 28
8761 10951 10952 28
8762 10951 10953 28
8763 10951 10954 28
8764 10951 10955 28
8765 10956 10957 28
8766 10956 10958 28
8767 10956 10959 28
8768 10956 10960 28
8769 10961 10962 28
8770 10961 10963 28
8771 10961 10964 28
8772 10961 10965 28
8773 10966 10967 28
8774 10966 10968 28
8775 10966 10969 28
8776 10966 10970 28
8777 10971 10972 28
8778 10971 10973 28
8779 10971 10974 28
8780 10971 10975 28
8781 10976 10977 28
8782 10976 10978 28
8783 10976 10979 28
8784 10976 10980 28
8785 10981 10982 28
8786 10981 10983 28
8787 10981 10984 28
8788 10981 10985 28
8789 10986 10987 28
8790 10986 10988 28
8791 10986 10989 28
8792 10986 10990 28
8793 10991 10992 28
8794 10991 10993 28
8795 10991 10994 28
8796 10991 10995 28
8797 10996 10997 28
8798 10996 10998 28
8799 10996 10999 28
8800 10996 11000 28
8801 11001 11002 28
8802 11001 11003 28
8803 11001 11004 28
8804 11001 11005 28
8805 11006 11007 28
8806 11006 11008 28
8807 11006 11009 28
8808 11006 11010 28
8809 11011 11012 28
8810 11011 11013 28
8811 11011 11014 28
8812 11011 11015 28
8813 11016 11017 28
8814 11016 11018 28
8815 11016 11019 28
8816 11016 11020 28
8817 11021 11022 28
8818 11021 11023 28
8819 11021 11024 28
8820 11021 11025 28
8821 11026 11027 28
8822 11026 11028 28
8823 11026 11029 28
8824 11026 11030 28
8825 11031 11032 28
8826 11031 11033 28
8827 11031 11034 28
8828 11031 11035 28
8829 11036 11037 28
8830 11036 11038 28
8831 11036 11039 28
8832 11036 11040 28
8833 11041 11042 28
8834 11041 11043 28
8835 11041 11044 28
8836 11041 11045 28
8837 11046 11047 28
8838 11046 11048 28
8839 11046 11049 28
8840 11046 11050 28
8841 11051 11052 28
8842 11051 11053 28
8843 11051 11054 28
8844 11051 11055 28
8845 11056 11057 28
8846 11056 11058 28
8847 11056 11059 28
8848 11056 11060 28
8849 11061 11062 28
8850 11061 11063 28
8851 11061 11064 28
8852 11061 11065 28
8853 11066 11067 28
8854 11066 11068 28
8855 11066 11069 28
8856 11066 11070 28
8857 11071 11072 28
8858 11071 11073 28
8859 11071 11074 28
8860 11071 11075 28
8861 11076 11077 28
8862 11076 11078 28
8863 11076 11079 28
8864 11076 11080 28
8865 11081 11082 28
8866 11081 11083 28
8867 11081 11084 28
8868 11081 11085 28
8869 11086 11087 28
8870 11086 11088 28
8871 11086 11089 28
8872 11086 11090 28
8873 11091 11092 28
8874 11091 11093 28
8875 11091 11094 28
8876 11091 11095 28
8877 11096 11097 28
8878 11096 11098 28
8879 11096 11099 28
8880 11096 11100 28
8881 11101 11102 28
8882 11101 11103 28
8883 11101 11104 28
8884 11101 11105 28
8885 11106 11107 28
8886 11106 11108 28
8887 11106 11109 28
8888 11106 11110 28
8889 11111 11112 28
8890 11111 11113 28
8891 11111 11114 28
8892 11111 11115 28
8893 11116 11117 28
8894 11116 11118 28
8895 11116 11119 28
8896 11116 11120 28
8897 11121 11122 28
8898 11121 11123 28
8899 11121 11124 28
8900 11121 11125 28
8901 11126 11127 28
8902 11126 11128 28
8903 11126 11129 28
8904 11126 11130 28
8905 11131 11132 28
8906 11131 11133 28
8907 11131 11134 28
8908 11131 11135 28
8909 11136 11137 28
8910 11136 11138 28
8911 11136 11139 28
8912 11136 11140 28
8913 11141 11142 28
8914 11141 11143 28
8915 11141 11144 28
8916 11141 11145 28
8917 11146 11147 28
8918 11146 11148 28
8919 11146 11149 28
8920 11146 11150 28
8921 11151 11152 28
8922 11151 11153 28
8923 11151 11154 28
8924 11151 11155 28
8925 11156 11157 28
8926 11156 11158 28
8927 11156 11159 28
8928 11156 11160 28
8929 11161 11162 28
8930 11161 11163 28
8931 11161 11164 28
8932 11161 11165 28
8933 11166 11167 28
8934 11166 11168 28
8935 11166 11169 28
8936 11166 11170 28
8937 11171 11172 28
8938 11171 11173 28
8939 11171 11174 28
8940 11171 11175 28
8941 11176 11177 28
8942 11176 11178 28
8943 11176 11179 28
8944 11176 11180 28
8945 11181 11182 28
8946 11181 11183 28
8947 11181 11184 28
8948 11181 11185 28
8949 11186 11187 28
8950 11186 11188 28
8951 11186 11189 28
8952 11186 11190 28
8953 11191 11192 28
8954 11191 11193 28
8955 11191 11194 28
8956 11191 11195 28
8957 11196 11197 28
8958 11196 11198 28
8959 11196 11199 28
8960 11196 11200 28
8961 11201 11202 28
8962 11201 11203 28
8963 11201 11204 28
8964 11201 11205 28
8965 11206 11207 28
8966 11206 11208 28
8967 11206 11209 28
8968 11206 11210 28
8969 11211 11212 28
8970 11211 11213 28
8971 11211 11214 28
8972 11211 11215 28
8973 11216 11217 28
8974 11216 11218 28
8975 11216 11219 28
8976 11216 11220 28
8977 11221 11222 28
8978 11221 11223 28
8979 11221 11224 28
8980 11221 11225 28
8981 11226 11227 28
8982 11226 11228 28
8983 11226 11229 28
8984 11226 11230 28
8985 11231 11232 28
8986 11231 11233 28
8987 11231 11234 28
8988 11231 11235 28
8989 11236 11237 28
8990 11236 11238 28
8991 11236 11239 28
8992 11236 11240 28
8993 11241 11242 28
8994 11241 11243 28
8995 11241 11244 28
8996 11241 11245 28
8997 11246 11247 28
8998 11246 11248 28
8999 11246 11249 28
9000 11246 11250 28
9001 11251 11252 28
9002 11251 11253 28
9003 11251 11254 28
9004 11251 11255 28
9005 11256 11257 28
9006 11256 11258 28
9007 11256 11259 28
9008 11256 11260 28
9009 11261 11262 28
9010 11261 11263 28
9011 11261 11264 28
9012 11261 11265 28
9013 11266 11267 28
9014 11266 11268 28
9015 11266 11269 28
9016 11266 11270 28
9017 11271 11272 28
9018 11271 11273 28
9019 11271 11274 28
9020 11271 11275 28
9021 11276 11277 28
9022 11276 11278 28
9023 11276 11279 28
9024 11276 11280 28
9025 11281 11282 28
9026 11281 11283 28
9027 11281 11284 28
9028 11281 11285 28
9029 11286 11287 28
9030 11286 11288 28
9031 11286 11289 28
9032 11286 11290 28
9033 11291 11292 28
9034 11291 11293 28
9035 11291 11294 28
9036 11291 11295 28
9037 11296 11297 28
9038 11296 11298 28
9039 11296 11299 28
9040 11296 11300 28
9041 11301 11302 28
9042 11301 11303 28
9043 11301 11304 28
9044 11301 11305 28
9045 11306 11307 28
9046 11306 11308 28
9047 11306 11309 28
9048 11306 11310 28
9049 11311 11312 28
9050 11311 11313 28
9051 11311 11314 28
9052 11311 11315 28
9053 11316 11317 28
9054 11316 11318 28
9055 11316 11319 28
9056 11316 11320 28
9057 11321 11322 28
9058 11321 11323 28
9059 11321 11324 28
9060 11321 11325 28
9061 11326 11327 28
9062 11326 11328 28
9063 11326 11329 28
9064 11326 11330 28
9065 11331 11332 28
9066 11331 11333 28
9067 11331 11334 28
9068 11331 11335 28
9069 11336 11337 28
9070 11336 11338 28
9071 11336 11339 28
9072 11336 11340 28
9073 11341 11342 28
9074 11341 11343 28
9075 11341 11344 28
9076 11341 11345 28
9077 11346 11347 28
9078 11346 11348 28
9079 11346 11349 28
9080 11346 11350 28
9081 11351 11352 28
9082 11351 11353 28
9083 11351 11354 28
9084 11351 11355 28
9085 11356 11357 28
9086 11356 11358 28
9087 11356 11359 28
9088 11356 11360 28
9089 11361 11362 28
9090 11361 11363 28
9091 11361 11364 28
9092 11361 11365 28
9093 11366 11367 28
9094 11366 11368 28
9095 11366 11369 28
9096 11366 11370 28
9097 11371 11372 28
9098 11371 11373 28
9099 11371 11374 28
9100 11371 11375 28
9101 11376 11377 28
9102 11376 11378 28
9103 11376 11379 28
9104 11376 11380 28
9105 11381 11382 28
9106 11381 11383 28
9107 11381 11384 28
9108 11381 11385 28
9109 11386 11387 28
9110 11386 11388 28
9111 11386 11389 28
9112 11386 11390 28
9113 11391 11392 28
9114 11391 11393 28
9115 11391 11394 28
9116 11391 11395 28
9117 11396 11397 28
9118 11396 11398 28
9119 11396 11399 28
9120 11396 11400 28
9121 11401 11402 28
9122 11401 11403 28
9123 11401 11404 28
9124 11401 11405 28
9125 11406 11407 28
9126 11406 11408 28
9127 11406 11409 28
9128 11406 11410 28
9129 11411 11412 28
9130 11411 11413 28
9131 11411 11414 28
9132 11411 11415 28
9133 11416 11417 28
9134 11416 11418 28
9135 11416 11419 28
9136 11416 11420 28
9137 11421 11422 28
9138 11421 11423 28
9139 11421 11424 28
9140 11421 11425 28
9141 11426 11427 28
9142 11426 11428 28
9143 11426 11429 28
9144 11426 11430 28
9145 11431 11432 28
9146 11431 11433 28
9147 11431 11434 28
9148 11431 11435 28
9149 11436 11437 28
9150 11436 11438 28
9151 11436 11439 28
9152 11436 11440 28
9153 11441 11442 28
9154 11441 11443 28
9155 11441 11444 28
9156 11441 11445 28
9157 11446 11447 28
9158 11446 11448 28
9159 11446 11449 28
9160 11446 11450 28
9161 11451 11452 28
9162 11451 11453 28
9163 11451 11454 28
9164 11451 11455 28
9165 11456 11457 28
9166 11456 11458 28
9167 11456 11459 28
9168 11456 11460 28
9169 11461 11462 28
9170 11461 11463 28
9171 11461 11464 28
9172 11461 11465 28
9173 11466 11467 28
9174 11466 11468 28
9175 11466 11469 28
9176 11466 11470 28
9177 11471 11472 28
9178 11471 11473 28
9179 11471 11474 28
9180 11471 11475 28
9181 11476 11477 28
9182 11476 11478 28
9183 11476 11479 28
9184 11476 11480 28
9185 11481 11482 28
9186 11481 11483 28
9187 11481 11484 28
9188 11481 11485 28
9189 11486 11487 28
9190 11486 11488 28
9191 11486 11489 28
9192 11486 11490 28
9193 11491 11492 28
9194 11491 11493 28
9195 11491 11494 28
9196 11491 11495 28
9197 11496 11497 28
9198 11496 11498 28
9199 11496 11499 28
9200 11496 11500 28
9201 11501 11502 28
9202 11501 11503 28
9203 11501 11504 28
9204 11501 11505 28
9205 11506 11507 28
9206 11506 11508 28
9207 11506 11509 28
9208 11506 11510 28
9209 11511 11512 28
9210 11511 11513 28
9211 11511 11514 28
9212 11511 11515 28
9213 11516 11517 28
9214 11516 11518 28
9215 11516 11519 28
9216 11516 11520 28
9217 11521 11522 28
9218 11521 11523 28
9219 11521 11524 28
9220 11521 11525 28
9221 11526 11527 28
9222 11526 11528 28
9223 11526 11529 28
9224 11526 11530 28
9225 11531 11532 28
9226 11531 11533 28
9227 11531 11534 28
9228 11531 11535 28
9229 11536 11537 28
9230 11536 11538 28
9231 11536 11539 28
9232 11536 11540 28
9233 11541 11542 28
9234 11541 11543 28
9235 11541 11544 28
9236 11541 11545 28
9237 11546 11547 28
9238 11546 11548 28
9239 11546 11549 28
9240 11546 11550 28
9241 11551 11552 28
9242 11551 11553 28
9243 11551 11554 28
9244 11551 11555 28
9245 11556 11557 28
9246 11556 11558 28
9247 11556 11559 28
9248 11556 11560 28
9249 11561 11562 28
9250 11561 11563 28
9251 11561 11564 28
9252 11561 11565 28
9253 11566 11567 28
9254 11566 11568 28
9255 11566 11569 28
9256 11566 11570 28
9257 11571 11572 28
9258 11571 11573 28
9259 11571 11574 28
9260 11571 11575 28
9261 11576 11577 28
9262 11576 11578 28
9263 11576 11579 28
9264 11576 11580 28
9265 11581 11582 28
9266 11581 11583 28
9267 11581 11584 28
9268 11581 11585 28
9269 11586 11587 28
9270 11586 11588 28
9271 11586 11589 28
9272 11586 11590 28
9273 11591 11592 28
9274 11591 11593 28
9275 11591 11594 28
9276 11591 11595 28
9277 11596 11597 28
9278 11596 11598 28
9279 11596 11599 28
9280 11596 11600 28
9281 11601 11602 28
9282 11601 11603 28
9283 11601 11604 28
9284 11601 11605 28
9285 11606 11607 28
9286 11606 11608 28
9287 11606 11609 28
9288 11606 11610 28
9289 11611 11612 28
9290 11611 11613 28
9291 11611 11614 28
9292 11611 11615 28
9293 11616 11617 28
9294 11616 11618 28
9295 11616 11619 28
9296 11616 11620 28
9297 11621 11622 28
9298 11621 11623 28
9299 11621 11624 28
9300 11621 11625 28
9301 11626 11627 28
9302 11626 11628 28
9303 11626 11629 28
9304 11626 11630 28
9305 11631 11632 28
9306 11631 11633 28
9307 11631 11634 28
9308 11631 11635 28
9309 11636 11637 28
9310 11636 11638 28
9311 11636 11639 28
9312 11636 11640 28
9313 11641 11642 28
9314 11641 11643 28
9315 11641 11644 28
9316 11641 11645 28
9317 11646 11647 28
9318 11646 11648 28
9319 11646 11649 28
9320 11646 11650 28
9321 11651 11652 28
9322 11651 11653 28
9323 11651 11654 28
9324 11651 11655 28
9325 11656 11657 28
9326 11656 11658 28
9327 11656 11659 28
9328 11656 11660 28
9329 11661 11662 28
9330 11661 11663 28
9331 11661 11664 28
9332 11661 11665 28
9333 11666 11667 28
9334 11666 11668 28
9335 11666 11669 28
9336 11666 11670 28
9337 11671 11672 28
9338 11671 11673 28
9339 11671 11674 28
9340 11671 11675 28
9341 11676 11677 28
9342 11676 11678 28
9343 11676 11679 28
9344 11676 11680 28
9345 11681 11682 28
9346 11681 11683 28
9347 11681 11684 28
9348 11681 11685 28
9349 11686 11687 28
9350 11686 11688 28
9351 11686 11689 28
9352 11686 11690 28
9353 11691 11692 28
9354 11691 11693 28
9355 11691 11694 28
9356 11691 11695 28
9357 11696 11697 28
9358 11696 11698 28
9359 11696 11699 28
9360 11696 11700 28
9361 11701 11702 28
9362 11701 11703 28
9363 11701 11704 28
9364 11701 11705 28
9365 11706 11707 28
9366 11706 11708 28
9367 11706 11709 28
9368 11706 11710 28
9369 11711 11712 28
9370 11711 11713 28
9371 11711 11714 28
9372 11711 11715 28
9373 11716 11717 28
9374 11716 11718 28
9375 11716 11719 28
9376 11716 11720 28
9377 11721 11722 28
9378 11721 11723 28
9379 11721 11724 28
9380 11721 11725 28
9381 11726 11727 28
9382 11726 11728 28
9383 11726 11729 28
9384 11726 11730 28
9385 11731 11732 28
9386 11731 11733 28
9387 11731 11734 28
9388 11731 11735 28
9389 11736 11737 28
9390 11736 11738 28
9391 11736 11739 28
9392 11736 11740 28
9393 11741 11742 28
9394 11741 11743 28
9395 11741 11744 28
9396 11741 11745 28
9397 11746 11747 28
9398 11746 11748 28
9399 11746 11749 28
9400 11746 11750 28
9401 11751 11752 28
9402 11751 11753 28
9403 11751 11754 28
9404 11751 11755 28
9405 11756 11757 28
9406 11756 11758 28
9407 11756 11759 28
9408 11756 11760 28
9409 11761 11762 28
9410 11761 11763 28
9411 11761 11764 28
9412 11761 11765 28
9413 11766 11767 28
9414 11766 11768 28
9415 11766 11769 28
9416 11766 11770 28
9417 11771 11772 28
9418 11771 11773 28
9419 11771 11774 28
9420 11771 11775 28
9421 11776 11777 28
9422 11776 11778 28
9423 11776 11779 28
9424 11776 11780 28
9425 11781 11782 28
9426 11781 11783 28
9427 11781 11784 28
9428 11781 11785 28
9429 11786 11787 28
9430 11786 11788 28
9431 11786 11789 28
9432 11786 11790 28
9433 11791 11792 28
9434 11791 11793 28
9435 11791 11794 28
9436 11791 11795 28
9437 11796 11797 28
9438 11796 11798 28
9439 11796 11799 28
9440 11796 11800 28
9441 11801 11802 28
9442 11801 11803 28
9443 11801 11804 28
9444 11801 11805 28
9445 11806 11807 28
9446 11806 11808 28
9447 11806 11809 28
9448 11806 11810 28
9449 11811 11812 28
9450 11811 11813 28
9451 11811 11814 28
9452 11811 11815 28
9453 11816 11817 28
9454 11816 11818 28
9455 11816 11819 28
9456 11816 11820 28
9457 11821 11822 28
9458 11821 11823 28
9459 11821 11824 28
9460 11821 11825 28
9461 11826 11827 28
9462 11826 11828 28
9463 11826 11829 28
9464 11826 11830 28
9465 11831 11832 28
9466 11831 11833 28
9467 11831 11834 28
9468 11831 11835 28
9469 11836 11837 28
9470 11836 11838 28
9471 11836 11839 28
9472 11836 11840 28
9473 11841 11842 28
9474 11841 11843 28
9475 11841 11844 28
9476 11841 11845 28
9477 11846 11847 28
9478 11846 11848 28
9479 11846 11849 28
9480 11846 11850 28
9481 11851 11852 28
9482 11851 11853 28
9483 11851 11854 28
9484 11851 11855 28
9485 11856 11857 28
9486 11856 11858 28
9487 11856 11859 28
9488 11856 11860 28
9489 11861 11862 28
9490 11861 11863 28
9491 11861 11864 28
9492 11861 11865 28
9493 11866 11867 28
9494 11866 11868 28
9495 11866 11869 28
9496 11866 11870 28
9497 11871 11872 28
9498 11871 11873 28
9499 11871 11874 28
9500 11871 11875 28
9501 11876 11877 28
9502 11876 11878 28
9503 11876 11879 28
9504 11876 11880 28
9505 11881 11882 28
9506 11881 11883 28
9507 11881 11884 28
9508 11881 11885 28
9509 11886 11887 28
9510 11886 11888 28
9511 11886 11889 28
9512 11886 11890 28
9513 11891 11892 28
9514 11891 11893 28
9515 11891 11894 28
9516 11891 11895 28
9517 11896 11897 28
9518 11896 11898 28
9519 11896 11899 28
9520 11896 11900 28
9521 11901 11902 28
9522 11901 11903 28
9523 11901 11904 28
9524 11901 11905 28
9525 11906 11907 28
9526 11906 11908 28
9527 11906 11909 28
9528 11906 11910 28
9529 11911 11912 28
9530 11911 11913 28
9531 11911 11914 28
9532 11911 11915 28
9533 11916 11917 28
9534 11916 11918 28
9535 11916 11919 28
9536 11916 11920 28
9537 11921 11922 28
9538 11921 11923 28
9539 11921 11924 28
9540 11921 11925 28
9541 11926 11927 28
9542 11926 11928 28
9543 11926 11929 28
9544 11926 11930 28
9545 11931 11932 28
9546 11931 11933 28
9547 11931 11934 28
9548 11931 11935 28
9549 11936 11937 28
9550 11936 11938 28
9551 11936 11939 28
9552 11936 11940 28
9553 11941 11942 28
9554 11941 11943 28
9555 11941 11944 28
9556 11941 11945 28
9557 11946 11947 28
9558 11946 11948 28
9559 11946 11949 28
9560 11946 11950 28
9561 11951 11952 28
9562 11951 11953 28
9563 11951 11954 28
9564 11951 11955 28
9565 11956 11957 28
9566 11956 11958 28
9567 11956 11959 28
9568 11956 11960 28
9569 11961 11962 28
9570 11961 11963 28
9571 11961 11964 28
9572 11961 11965 28
9573 11966 11967 28
9574 11966 11968 28
9575 11966 11969 28
9576 11966 11970 28
9577 11971 11972 28
9578 11971 11973 28
9579 11971 11974 28
9580 11971 11975 28
9581 11976 11977 28
9582 11976 11978 28
9583 11976 11979 28
9584 11976 11980 28
9585 11981 11982 28
9586 11981 11983 28
9587 11981 11984 28
9588 11981 11985 28
9589 11986 11987 28
9590 11986 11988 28
9591 11986 11989 28
9592 11986 11990 28
9593 11991 11992 28
9594 11991 11993 28
9595 11991 11994 28
9596 11991 11995 28
9597 11996 11997 28
9598 11996 11998 28
9599 11996 11999 28
9600 11996 12000 28
9601 12001 12002 28
9602 12001 12003 28
9603 12001 12004 28
9604 12001 12005 28
9605 12006 12007 28
9606 12006 12008 28
9607 12006 12009 28
9608 12006 12010 28
9609 12011 12012 28
9610 12011 12013 28
9611 12011 12014 28
9612 12011 12015 28
9613 12016 12017 28
9614 12016 12018 28
9615 12016 12019 28
9616 12016 12020 28
9617 12021 12022 28
9618 12021 12023 28
9619 12021 12024 28
9620 12021 12025 28
9621 12026 12027 28
9622 12026 12028 28
9623 12026 12029 28
9624 12026 12030 28
9625 12031 12032 28
9626 12031 12033 28
9627 12031 12034 28
9628 12031 12035 28
9629 12036 12037 28
9630 12036 12038 28
9631 12036 12039 28
9632 12036 12040 28
9633 12041 12042 28
9634 12041 12043 28
9635 12041 12044 28
9636 12041 12045 28
9637 12046 12047 28
9638 12046 12048 28
9639 12046 12049 28
9640 12046 12050 28
9641 12051 12052 28
9642 12051 12053 28
9643 12051 12054 28
9644 12051 12055 28
9645 12056 12057 28
9646 12056 12058 28
9647 12056 12059 28
9648 12056 12060 28
9649 12061 12062 28
9650 12061 12063 28
9651 12061 12064 28
9652 12061 12065 28
9653 12066 12067 28
9654 12066 12068 28
9655 12066 12069 28
9656 12066 12070 28
9657 12071 12072 28
9658 12071 12073 28
9659 12071 12074 28
9660 12071 12075 28
9661 12076 12077 28
9662 12076 12078 28
9663 12076 12079 28
9664 12076 12080 28
9665 12081 12082 28
9666 12081 12083 28
9667 12081 12084 28
9668 12081 12085 28
9669 12086 12087 28
9670 12086 12088 28
9671 12086 12089 28
9672 12086 12090 28
9673 12091 12092 28
9674 12091 12093 28
9675 12091 12094 28
9676 12091 12095 28
9677 12096 12097 28
9678 12096 12098 28
9679 12096 12099 28
9680 12096 12100 28
9681 12101 12102 28
9682 12101 12103 28
9683 12101 12104 28
9684 12101 12105 28
9685 12106 12107 28
9686 12106 12108 28
9687 12106 12109 28
9688 12106 12110 28
9689 12111 12112 28
9690 12111 12113 28
9691 12111 12114 28
9692 12111 12115 28
9693 12116 12117 28
9694 12116 12118 28
9695 12116 12119 28
9696 12116 12120 28
9697 12121 12122 28
9698 12121 12123 28
9699 12121 12124 28
9700 12121 12125 28
9701 12126 12127 28
9702 12126 12128 28
9703 12126 12129 28
9704 12126 12130 28
9705 12131 12132 28
9706 12131 12133 28
9707 12131 12134 28
9708 12131 12135 28
9709 12136 12137 28
9710 12136 12138 28
9711 12136 12139 28
9712 12136 12140 28
9713 12141 12142 28
9714 12141 12143 28
9715 12141 12144 28
9716 12141 12145 28
9717 12146 12147 28
9718 12146 12148 28
9719 12146 12149 28
9720 12146 12150 28
9721 12151 12152 28
9722 12151 12153 28
9723 12151 12154 28
9724 12151 12155 28
9725 12156 12157 28
9726 12156 12158 28
9727 12156 12159 28
9728 12156 12160 28
9729 12161 12162 28
9730 12161 12163 28
9731 12161 12164 28
9732 12161 12165 28
9733 12166 12167 28
9734 12166 12168 28
9735 12166 12169 28
9736 12166 12170 28
9737 12171 12172 28
9738 12171 12173 28
9739 12171 12174 28
9740 12171 12175 28
9741 12176 12177 28
9742 12176 12178 28
9743 12176 12179 28
9744 12176 12180 28
9745 12181 12182 28
9746 12181 12183 28
9747 12181 12184 28
9748 12181 12185 28
9749 12186 12187 28
9750 12186 12188 28
9751 12186 12189 28
9752 12186 12190 28
9753 12191 12192 28
9754 12191 12193 28
9755 12191 12194 28
9756 12191 12195 28
9757 12196 12197 28
9758 12196 12198 28
9759 12196 12199 28
9760 12196 12200 28
9761 12201 12202 28
9762 12201 12203 28
9763 12201 12204 28
9764 12201 12205 28
9765 12206 12207 28
9766 12206 12208 28
9767 12206 12209 28
9768 12206 12210 28
9769 12211 12212 28
9770 12211 12213 28
9771 12211 12214 28
9772 12211 12215 28
9773 12216 12217 28
9774 12216 12218 28
9775 12216 12219 28
9776 12216 12220 28
9777 12221 12222 28
9778 12221 12223 28
9779 12221 12224 28
9780 12221 12225 28
9781 12226 12227 28
9782 12226 12228 28
9783 12226 12229 28
9784 12226 12230 28
9785 12231 12232 28
9786 12231 12233 28
9787 12231 12234 28
9788 12231 12235 28
9789 12236 12237 28
9790 12236 12238 28
9791 12236 12239 28
9792 12236 12240 28
9793 12241 12242 28
9794 12241 12243 28
9795 12241 12244 28
9796 12241 12245 28
9797 12246 12247 28
9798 12246 12248 28
9799 12246 12249 28
9800 12246 12250 28
9801 12251 12252 28
9802 12251 12253 28
9803 12251 12254 28
9804 12251 12255 28
9805 12256 12257 28
9806 12256 12258 28
9807 12256 12259 28
9808 12256 12260 28
9809 12261 12262 28
9810 12261 12263 28
9811 12261 12264 28
9812 12261 12265 28
9813 12266 12267 28
9814 12266 12268 28
9815 12266 12269 28
9816 12266 12270 28
9817 12271 12272 28
9818 12271 12273 28
9819 12271 12274 28
9820 12271 12275 28
9821 12276 12277 28
9822 12276 12278 28
9823 12276 12279 28
9824 12276 12280 28
9825 12281 12282 28
9826 12281 12283 28
9827 12281 12284 28
9828 12281 12285 28
9829 12286 12287 28
9830 12286 12288 28
9831 12286 12289 28
9832 12286 12290 28
9833 12291 12292 28
9834 12291 12293 28
9835 12291 12294 28
9836 12291 12295 28
9837 12296 12297 28
9838 12296 12298 28
9839 12296 12299 28
9840 12296 12300 28
9841 12301 12302 28
9842 12301 12303 28
9843 12301 12304 28
9844 12301 12305 28
9845 12306 12307 28
9846 12306 12308 28
9847 12306 12309 28
9848 12306 12310 28
9849 12311 12312 28
9850 12311 12313 28
9851 12311 12314 28
9852 12311 12315 28
9853 12316 12317 28
9854 12316 12318 28
9855 12316 12319 28
9856 12316 12320 28
9857 12321 12322 28
9858 12321 12323 28
9859 12321 12324 28
9860 12321 12325 28
9861 12326 12327 28
9862 12326 12328 28
9863 12326 12329 28
9864 12326 12330 28
9865 12331 12332 28
9866 12331 12333 28
9867 12331 12334 28
9868 12331 12335 28
9869 12336 12337 28
9870 12336 12338 28
9871 12336 12339 28
9872 12336 12340 28
9873 12341 12342 28
9874 12341 12343 28
9875 12341 12344 28
9876 12341 12345 28
9877 12346 12347 28
9878 12346 12348 28
9879 12346 12349 28
9880 12346 12350 28
9881 12351 12352 28
9882 12351 12353 28
9883 12351 12354 28
9884 12351 12355 28
9885 12356 12357 28
9886 12356 12358 28
9887 12356 12359 28
9888 12356 12360 28
9889 12361 12362 28
9890 12361 12363 28
9891 12361 12364 28
9892 12361 12365 28
9893 12366 12367 28
9894 12366 12368 28
9895 12366 12369 28
9896 12366 12370 28
9897 12371 12372 28
9898 12371 12373 28
9899 12371 12374 28
9900 12371 12375 28
9901 12376 12377 28
9902 12376 12378 28
9903 12376 12379 28
9904 12376 12380 28
9905 12381 12382 28
9906 12381 12383 28
9907 12381 12384 28
9908 12381 12385 28
9909 12386 12387 28
9910 12386 12388 28
9911 12386 12389 28
9912 12386 12390 28
9913 12391 12392 28
9914 12391 12393 28
9915 12391 12394 28
9916 12391 12395 28
9917 12396 12397 28
9918 12396 12398 28
9919 12396 12399 28
9920 12396 12400 28
9921 12401 12402 28
9922 12401 12403 28
9923 12401 12404 28
9924 12401 12405 28
9925 12406 12407 28
9926 12406 12408 28
9927 12406 12409 28
9928 12406 12410 28
9929 12411 12412 28
9930 12411 12413 28
9931 12411 12414 28
9932 12411 12415 28
9933 12416 12417 28
9934 12416 12418 28
9935 12416 12419 28
9936 12416 12420 28
9937 12421 12422 28
9938 12421 12423 28
9939 12421 12424 28
9940 12421 12425 28
9941 12426 12427 28
9942 12426 12428 28
9943 12426 12429 28
9944 12426 12430 28
9945 12431 12432 28
9946 12431 12433 28
9947 12431 12434 28
9948 12431 12435 28
9949 12436 12437 28
9950 12436 12438 28
9951 12436 12439 28
9952 12436 12440 28
9953 12441 12442 28
9954 12441 12443 28
9955 12441 12444 28
9956 12441 12445 28
9957 12446 12447 28
9958 12446 12448 28
9959 12446 12449 28
9960 12446 12450 28
9961 12451 12452 28
9962 12451 12453 28
9963 12451 12454 28
9964 12451 12455 28
9965 12456 12457 28
9966 12456 12458 28
9967 12456 12459 28
9968 12456 12460 28
9969 12461 12462 28
9970 12461 12463 28
9971 12461 12464 28
9972 12461 12465 28
9973 12466 12467 28
9974 12466 12468 28
9975 12466 12469 28
9976 12466 12470 28
9977 12471 12472 28
9978 12471 12473 28
9979 12471 12474 28
9980 12471 12475 28
9981 12476 12477 28
9982 12476 12478 28
9983 12476 12479 28
9984 12476 12480 28
9985 12481 12482 28
9986 12481 12483 28
9987 12481 12484 28
9988 12481 12485 28
9989 12486 12487 28
9990 12486 12488 28
9991 12486 12489 28
9992 12486 12490 28
9993 12491 12492 28
9994 12491 12493 28
9995 12491 12494 28
9996 12491 12495 28
9997 12496 12497 28
9998 12496 12498 28
9999 12496 12499 28
10000 12496 12500 28
10001 12501 12502 28
10002 12501 12503 28
10003 12501 12504 28
10004 12501 12505 28
10005 12506 12507 28
10006 12506 12508 28
10007 12506 12509 28
10008 12506 12510 28
10009 12511 12512 28
10010 12511 12513 28
10011 12511 12514 28
10012 12511 12515 28
10013 12516 12517 28
10014 12516 12518 28
10015 12516 12519 28
10016 12516 12520 28
10017 12521 12522 28
10018 12521 12523 28
10019 12521 12524 28
10020 12521 12525 28
10021 12526 12527 28
10022 12526 12528 28
10023 12526 12529 28
10024 12526 12530 28
10025 12531 12532 28
10026 12531 12533 28
10027 12531 12534 28
10028 12531 12535 28
10029 12536 12537 28
10030 12536 12538 28
10031 12536 12539 28
10032 12536 12540 28
10033 12541 12542 28
10034 12541 12543 28
10035 12541 12544 28
10036 12541 12545 28
10037 12546 12547 28
10038 12546 12548 28
10039 12546 12549 28
10040 12546 12550 28
10041 12551 12552 28
10042 12551 12553 28
10043 12551 12554 28
10044 12551 12555 28
10045 12556 12557 28
10046 12556 12558 28
10047 12556 12559 28
10048 12556 12560 28
10049 12561 12562 28
10050 12561 12563 28
10051 12561 12564 28
10052 12561 12565 28
10053 12566 12567 28
10054 12566 12568 28
10055 12566 12569 28
10056 12566 12570 28
10057 12571 12572 28
10058 12571 12573 28
10059 12571 12574 28
10060 12571 12575 28
10061 12576 12577 28
10062 12576 12578 28
10063 12576 12579 28
10064 12576 12580 28
10065 12581 12582 28
10066 12581 12583 28
10067 12581 12584 28
10068 12581 12585 28
10069 12586 12587 28
10070 12586 12588 28
10071 12586 12589 28
10072 12586 12590 28
10073 12591 12592 28
10074 12591 12593 28
10075 12591 12594 28
10076 12591 12595 28
10077 12596 12597 28
10078 12596 12598 28
10079 12596 12599 28
10080 12596 12600 28
10081 12601 12602 28
10082 12601 12603 28
10083 12601 12604 28
10084 12601 12605 28
10085 12606 12607 28
10086 12606 12608 28
10087 12606 12609 28
10088 12606 12610 28
10089 12611 12612 28
10090 12611 12613 28
10091 12611 12614 28
10092 12611 12615 28
10093 12616 12617 28
10094 12616 12618 28
10095 12616 12619 28
10096 12616 12620 28
10097 12621 12622 28
10098 12621 12623 28
10099 12621 12624 28
10100 12621 12625 28
10101 12626 12627 28
10102 12626 12628 28
10103 12626 12629 28
10104 12626 12630 28
10105 12631 12632 28
10106 12631 12633 28
10107 12631 12634 28
10108 12631 12635 28
10109 12636 12637 28
10110 12636 12638 28
10111 12636 12639 28
10112 12636 12640 28
10113 12641 12642 28
10114 12641 12643 28
10115 12641 12644 28
10116 12641 12645 28
10117 12646 12647 28
10118 12646 12648 28
10119 12646 12649 28
10120 12646 12650 28
10121 12651 12652 28
10122 12651 12653 28
10123 12651 12654 28
10124 12651 12655 28
10125 12656 12657 28
10126 12656 12658 28
10127 12656 12659 28
10128 12656 12660 28
10129 12661 12662 28
10130 12661 12663 28
10131 12661 12664 28
10132 12661 12665 28
10133 12666 12667 28
10134 12666 12668 28
10135 12666 12669 28
10136 12666 12670 28
10137 12671 12672 28
10138 12671 12673 28
10139 12671 12674 28
10140 12671 12675 28
10141 12676 12677 28
10142 12676 12678 28
10143 12676 12679 28
10144 12676 12680 28
10145 12681 12682 28
10146 12681 12683 28
10147 12681 12684 28
10148 12681 12685 28
10149 12686 12687 28
10150 12686 12688 28
10151 12686 12689 28
10152 12686 12690 28
10153 12691 12692 28
10154 12691 12693 28
10155 12691 12694 28
10156 12691 12695 28
10157 12696 12697 28
10158 12696 12698 28
10159 12696 12699 28
10160 12696 12700 28
10161 12701 12702 28
10162 12701 12703 28
10163 12701 12704 28
10164 12701 12705 28
10165 12706 12707 28
10166 12706 12708 28
10167 12706 12709 28
10168 12706 12710 28
10169 12711 12712 28
10170 12711 12713 28
10171 12711 12714 28
10172 12711 12715 28
10173 12716 12717 28
10174 12716 12718 28
10175 12716 12719 28
10176 12716 12720 28
10177 12721 12722 28
10178 12721 12723 28
10179 12721 12724 28
10180 12721 12725 28
10181 12726 12727 28
10182 12726 12728 28
10183 12726 12729 28
10184 12726 12730 28
10185 12731 12732 28
10186 12731 12733 28
10187 12731 12734 28
10188 12731 12735 28
10189 12736 12737 28
10190 12736 12738 28
10191 12736 12739 28
10192 12736 12740 28
10193 12741 12742 28
10194 12741 12743 28
10195 12741 12744 28
10196 12741 12745 28
10197 12746 12747 28
10198 12746 12748 28
10199 12746 12749 28
10200 12746 12750 28
10201 12751 12752 28
10202 12751 12753 28
10203 12751 12754 28
10204 12751 12755 28
10205 12756 12757 28
10206 12756 12758 28
10207 12756 12759 28
10208 12756 12760 28
10209 12761 12762 28
10210 12761 12763 28
10211 12761 12764 28
10212 12761 12765 28
10213 12766 12767 28
10214 12766 12768 28
10215 12766 12769 28
10216 12766 12770 28
10217 12771 12772 28
10218 12771 12773 28
10219 12771 12774 28
10220 12771 12775 28
10221 12776 12777 28
10222 12776 12778 28
10223 12776 12779 28
10224 12776 12780 28
10225 12781 12782 28
10226 12781 12783 28
10227 12781 12784 28
10228 12781 12785 28
10229 12786 12787 28
10230 12786 12788 28
10231 12786 12789 28
10232 12786 12790 28
10233 12791 12792 28
10234 12791 12793 28
10235 12791 12794 28
10236 12791 12795 28
10237 12796 12797 28
10238 12796 12798 28
10239 12796 12799 28
10240 12796 12800 28
10241 12801 12802 28
10242 12801 12803 28
10243 12801 12804 28
10244 12801 12805 28
10245 12806 12807 28
10246 12806 12808 28
10247 12806 12809 28
10248 12806 12810 28
10249 12811 12812 28
10250 12811 12813 28
10251 12811 12814 28
10252 12811 12815 28
10253 12816 12817 28
10254 12816 12818 28
10255 12816 12819 28
10256 12816 12820 28
10257 12821 12822 28
10258 12821 12823 28
10259 12821 12824 28
10260 12821 12825 28
10261 12826 12827 28
10262 12826 12828 28
10263 12826 12829 28
10264 12826 12830 28
10265 12831 12832 28
10266 12831 12833 28
10267 12831 12834 28
10268 12831 12835 28
10269 12836 12837 28
10270 12836 12838 28
10271 12836 12839 28
10272 12836 12840 28
10273 12841 12842 28
10274 12841 12843 28
10275 12841 12844 28
10276 12841 12845 28
10277 12846 12847 28
10278 12846 12848 28
10279 12846 12849 28
10280 12846 12850 28
10281 12851 12852 28
10282 12851 12853 28
10283 12851 12854 28
10284 12851 12855 28
10285 12856 12857 28
10286 12856 12858 28
10287 12856 12859 28
10288 12856 12860 28
10289 12861 12862 28
10290 12861 12863 28
10291 12861 12864 28
10292 12861 12865 28
10293 12866 12867 28
10294 12866 12868 28
10295 12866 12869 28
10296 12866 12870 28
10297 12871 12872 28
10298 12871 12873 28
10299 12871 12874 28
10300 12871 12875 28
10301 12876 12877 28
10302 12876 12878 28
10303 12876 12879 28
10304 12876 12880 28
10305 12881 12882 28
10306 12881 12883 28
10307 12881 12884 28
10308 12881 12885 28
10309 12886 12887 28
10310 12886 12888 28
10311 12886 12889 28
10312 12886 12890 28
10313 12891 12892 28
10314 12891 12893 28
10315 12891 12894 28
10316 12891 12895 28
10317 12896 12897 28
10318 12896 12898 28
10319 12896 12899 28
10320 12896 12900 28
10321 12901 12902 28
10322 12901 12903 28
10323 12901 12904 28
10324 12901 12905 28
10325 12906 12907 28
10326 12906 12908 28
10327 12906 12909 28
10328 12906 12910 28
10329 12911 12912 28
10330 12911 12913 28
10331 12911 12914 28
10332 12911 12915 28
10333 12916 12917 28
10334 12916 12918 28
10335 12916 12919 28
10336 12916 12920 28
10337 12921 12922 28
10338 12921 12923 28
10339 12921 12924 28
10340 12921 12925 28
10341 12926 12927 28
10342 12926 12928 28
10343 12926 12929 28
10344 12926 12930 28
10345 12931 12932 28
10346 12931 12933 28
10347 12931 12934 28
10348 12931 12935 28
10349 12936 12937 28
10350 12936 12938 28
10351 12936 12939 28
10352 12936 12940 28
10353 12941 12942 28
10354 12941 12943 28
10355 12941 12944 28
10356 12941 12945 28
10357 12946 12947 28
10358 12946 12948 28
10359 12946 12949 28
10360 12946 12950 28
10361 12951 12952 28
10362 12951 12953 28
10363 12951 12954 28
10364 12951 12955 28
10365 12956 12957 28
10366 12956 12958 28
10367 12956 12959 28
10368 12956 12960 28
10369 12961 12962 28
10370 12961 12963 28
10371 12961 12964 28
10372 12961 12965 28
10373 12966 12967 28
10374 12966 12968 28
10375 12966 12969 28
10376 12966 12970 28
10377 12971 12972 28
10378 12971 12973 28
10379 12971 12974 28
10380 12971 12975 28
10381 12976 12977 28
10382 12976 12978 28
10383 12976 12979 28
10384 12976 12980 28
10385 12981 12982 28
10386 12981 12983 28
10387 12981 12984 28
10388 12981 12985 28
10389 12986 12987 28
10390 12986 12988 28
10391 12986 12989 28
10392 12986 12990 28
10393 12991 12992 28
10394 12991 12993 28
10395 12991 12994 28
10396 12991 12995 28
10397 12996 12997 28
10398 12996 12998 28
10399 12996 12999 28
10400 12996 13000 28
10401 13001 13002 28
10402 13001 13003 28
10403 13001 13004 28
10404 13001 13005 28
10405 13006 13007 28
10406 13006 13008 28
10407 13006 13009 28
10408 13006 13010 28
10409 13011 13012 28
10410 13011 13013 28
10411 13011 13014 28
10412 13011 13015 28
10413 13016 13017 28
10414 13016 13018 28
10415 13016 13019 28
10416 13016 13020 28
10417 13021 13022 28
10418 13021 13023 28
10419 13021 13024 28
10420 13021 13025 28
10421 13026 13027 28
10422 13026 13028 28
10423 13026 13029 28
10424 13026 13030 28
10425 13031 13032 28
10426 13031 13033 28
10427 13031 13034 28
10428 13031 13035 28
10429 13036 13037 28
10430 13036 13038 28
10431 13036 13039 28
10432 13036 13040 28
10433 13041 13042 28
10434 13041 13043 28
10435 13041 13044 28
10436 13041 13045 28
10437 13046 13047 28
10438 13046 13048 28
10439 13046 13049 28
10440 13046 13050 28
10441 13051 13052 28
10442 13051 13053 28
10443 13051 13054 28
10444 13051 13055 28
10445 13056 13057 28
10446 13056 13058 28
10447 13056 13059 28
10448 13056 13060 28
10449 13061 13062 28
10450 13061 13063 28
10451 13061 13064 28
10452 13061 13065 28
10453 13066 13067 28
10454 13066 13068 28
10455 13066 13069 28
10456 13066 13070 28
10457 13071 13072 28
10458 13071 13073 28
10459 13071 13074 28
10460 13071 13075 28
10461 13076 13077 28
10462 13076 13078 28
10463 13076 13079 28
10464 13076 13080 28
10465 13081 13082 28
10466 13081 13083 28
10467 13081 13084 28
10468 13081 13085 28
10469 13086 13087 28
10470 13086 13088 28
10471 13086 13089 28
10472 13086 13090 28
10473 13091 13092 28
10474 13091 13093 28
10475 13091 13094 28
10476 13091 13095 28
10477 13096 13097 28
10478 13096 13098 28
10479 13096 13099 28
10480 13096 13100 28
10481 13101 13102 28
10482 13101 13103 28
10483 13101 13104 28
10484 13101 13105 28
10485 13106 13107 28
10486 13106 13108 28
10487 13106 13109 28
10488 13106 13110 28
10489 13111 13112 28
10490 13111 13113 28
10491 13111 13114 28
10492 13111 13115 28
10493 13116 13117 28
10494 13116 13118 28
10495 13116 13119 28
10496 13116 13120 28
10497 13121 13122 28
10498 13121 13123 28
10499 13121 13124 28
10500 13121 13125 28
10501 13126 13127 28
10502 13126 13128 28
10503 13126 13129 28
10504 13126 13130 28
10505 13131 13132 28
10506 13131 13133 28
10507 13131 13134 28
10508 13131 13135 28
10509 13136 13137 28
10510 13136 13138 28
10511 13136 13139 28
10512 13136 13140 28
10513 13141 13142 28
10514 13141 13143 28
10515 13141 13144 28
10516 13141 13145 28
10517 13146 13147 28
10518 13146 13148 28
10519 13146 13149 28
10520 13146 13150 28
10521 13151 13152 28
10522 13151 13153 28
10523 13151 13154 28
10524 13151 13155 28
10525 13156 13157 28
10526 13156 13158 28
10527 13156 13159 28
10528 13156 13160 28
10529 13161 13162 28
10530 13161 13163 28
10531 13161 13164 28
10532 13161 13165 28
10533 13166 13167 28
10534 13166 13168 28
10535 13166 13169 28
10536 13166 13170 28
10537 13171 13172 28
10538 13171 13173 28
10539 13171 13174 28
10540 13171 13175 28
10541 13176 13177 28
10542 13176 13178 28
10543 13176 13179 28
10544 13176 13180 28
10545 13181 13182 28
10546 13181 13183 28
10547 13181 13184 28
10548 13181 13185 28
10549 13186 13187 28
10550 13186 13188 28
10551 13186 13189 28
10552 13186 13190 28
10553 13191 13192 28
10554 13191 13193 28
10555 13191 13194 28
10556 13191 13195 28
10557 13196 13197 28
10558 13196 13198 28
10559 13196 13199 28
10560 13196 13200 28
10561 13201 13202 28
10562 13201 13203 28
10563 13201 13204 28
10564 13201 13205 28
10565 13206 13207 28
10566 13206 13208 28
10567 13206 13209 28
10568 13206 13210 28
10569 13211 13212 28
10570 13211 13213 28
10571 13211 13214 28
10572 13211 13215 28
10573 13216 13217 28
10574 13216 13218 28
10575 13216 13219 28
10576 13216 13220 28
10577 13221 13222 28
10578 13221 13223 28
10579 13221 13224 28
10580 13221 13225 28
10581 13226 13227 28
10582 13226 13228 28
10583 13226 13229 28
10584 13226 13230 28
10585 13231 13232 28
10586 13231 13233 28
10587 13231 13234 28
10588 13231 13235 28
10589 13236 13237 28
10590 13236 13238 28
10591 13236 13239 28
10592 13236 13240 28
10593 13241 13242 28
10594 13241 13243 28
10595 13241 13244 28
10596 13241 13245 28
10597 13246 13247 28
10598 13246 13248 28
10599 13246 13249 28
10600 13246 13250 28
10601 13251 13252 28
10602 13251 13253 28
10603 13251 13254 28
10604 13251 13255 28
10605 13256 13257 28
10606 13256 13258 28
10607 13256 13259 28
10608 13256 13260 28
10609 13261 13262 28
10610 13261 13263 28
10611 13261 13264 28
10612 13261 13265 28
10613 13266 13267 28
10614 13266 13268 28
10615 13266 13269 28
10616 13266 13270 28
10617 13271 13272 28
10618 13271 13273 28
10619 13271 13274 28
10620 13271 13275 28
10621 13276 13277 28
10622 13276 13278 28
10623 13276 13279 28
10624 13276 13280 28
10625 13281 13282 28
10626 13281 13283 28
10627 13281 13284 28
10628 13281 13285 28
10629 13286 13287 28
10630 13286 13288 28
10631 13286 13289 28
10632 13286 13290 28
10633 13291 13292 28
10634 13291 13293 28
10635 13291 13294 28
10636 13291 13295 28
10637 13296 13297 28
10638 13296 13298 28
10639 13296 13299 28
10640 13296 13300 28
10641 13301 13302 28
10642 13301 13303 28
10643 13301 13304 28
10644 13301 13305 28
10645 13306 13307 28
10646 13306 13308 28
10647 13306 13309 28
10648 13306 13310 28
10649 13311 13312 28
10650 13311 13313 28
10651 13311 13314 28
10652 13311 13315 28
10653 13316 13317 28
10654 13316 13318 28
10655 13316 13319 28
10656 13316 13320 28
10657 13321 13322 28
10658 13321 13323 28
10659 13321 13324 28
10660 13321 13325 28
10661 13326 13327 28
10662 13326 13328 28
10663 13326 13329 28
10664 13326 13330 28
10665 13331 13332 28
10666 13331 13333 28
10667 13331 13334 28
10668 13331 13335 28
10669 13336 13337 28
10670 13336 13338 28
10671 13336 13339 28
10672 13336 13340 28
10673 13341 13342 28
10674 13341 13343 28
10675 13341 13344 28
10676 13341 13345 28
10677 13346 13347 28
10678 13346 13348 28
10679 13346 13349 28
10680 13346 13350 28
10681 13351 13352 28
10682 13351 13353 28
10683 13351 13354 28
10684 13351 13355 28
10685 13356 13357 28
10686 13356 13358 28
10687 13356 13359 28
10688 13356 13360 28
10689 13361 13362 28
10690 13361 13363 28
10691 13361 13364 28
10692 13361 13365 28
10693 13366 13367 28
10694 13366 13368 28
10695 13366 13369 28
10696 13366 13370 28
10697 13371 13372 28
10698 13371 13373 28
10699 13371 13374 28
10700 13371 13375 28
10701 13376 13377 28
10702 13376 13378 28
10703 13376 13379 28
10704 13376 13380 28
10705 13381 13382 28
10706 13381 13383 28
10707 13381 13384 28
10708 13381 13385 28
10709 13386 13387 28
10710 13386 13388 28
10711 13386 13389 28
10712 13386 13390 28
10713 13391 13392 28
10714 13391 13393 28
10715 13391 13394 28
10716 13391 13395 28
10717 13396 13397 28
10718 13396 13398 28
10719 13396 13399 28
10720 13396 13400 28
10721 13401 13402 28
10722 13401 13403 28
10723 13401 13404 28
10724 13401 13405 28
10725 13406 13407 28
10726 13406 13408 28
10727 13406 13409 28
10728 13406 13410 28
10729 13411 13412 28
10730 13411 13413 28
10731 13411 13414 28
10732 13411 13415 28
10733 13416 13417 28
10734 13416 13418 28
10735 13416 13419 28
10736 13416 13420 28
10737 13421 13422 28
10738 13421 13423 28
10739 13421 13424 28
10740 13421 13425 28
10741 13426 13427 28
10742 13426 13428 28
10743 13426 13429 28
10744 13426 13430 28
10745 13431 13432 28
10746 13431 13433 28
10747 13431 13434 28
10748 13431 13435 28
10749 13436 13437 28
10750 13436 13438 28
10751 13436 13439 28
10752 13436 13440 28
10753 13441 13442 28
10754 13441 13443 28
10755 13441 13444 28
10756 13441 13445 28
10757 13446 13447 28
10758 13446 13448 28
10759 13446 13449 28
10760 13446 13450 28
10761 13451 13452 28
10762 13451 13453 28
10763 13451 13454 28
10764 13451 13455 28
10765 13456 13457 28
10766 13456 13458 28
10767 13456 13459 28
10768 13456 13460 28
10769 13461 13462 28
10770 13461 13463 28
10771 13461 13464 28
10772 13461 13465 28
10773 13466 13467 28
10774 13466 13468 28
10775 13466 13469 28
10776 13466 13470 28
10777 13471 13472 28
10778 13471 13473 28
10779 13471 13474 28
10780 13471 13475 28
10781 13476 13477 28
10782 13476 13478 28
10783 13476 13479 28
10784 13476 13480 28
10785 13481 13482 28
10786 13481 13483 28
10787 13481 13484 28
10788 13481 13485 28
10789 13486 13487 28
10790 13486 13488 28
10791 13486 13489 28
10792 13486 13490 28
10793 13491 13492 28
10794 13491 13493 28
10795 13491 13494 28
10796 13491 13495 28
10797 13496 13497 28
10798 13496 13498 28
10799 13496 13499 28
10800 13496 13500 28
10801 13501 13502 28
10802 13501 13503 28
10803 13501 13504 28
10804 13501 13505 28
10805 13506 13507 28
10806 13506 13508 28
10807 13506 13509 28
10808 13506 13510 28
10809 13511 13512 28
10810 13511 13513 28
10811 13511 13514 28
10812 13511 13515 28
10813 13516 13517 28
10814 13516 13518 28
10815 13516 13519 28
10816 13516 13520 28
10817 13521 13522 28
10818 13521 13523 28
10819 13521 13524 28
10820 13521 13525 28
10821 13526 13527 28
10822 13526 13528 28
10823 13526 13529 28
10824 13526 13530 28
10825 13531 13532 28
10826 13531 13533 28
10827 13531 13534 28
10828 13531 13535 28
10829 13536 13537 28
10830 13536 13538 28
10831 13536 13539 28
10832 13536 13540 28
10833 13541 13542 28
10834 13541 13543 28
10835 13541 13544 28
10836 13541 13545 28
10837 13546 13547 28
10838 13546 13548 28
10839 13546 13549 28
10840 13546 13550 28
10841 13551 13552 28
10842 13551 13553 28
10843 13551 13554 28
10844 13551 13555 28
10845 13556 13557 28
10846 13556 13558 28
10847 13556 13559 28
10848 13556 13560 28
10849 13561 13562 28
10850 13561 13563 28
10851 13561 13564 28
10852 13561 13565 28
10853 13566 13567 28
10854 13566 13568 28
10855 13566 13569 28
10856 13566 13570 28
10857 13571 13572 28
10858 13571 13573 28
10859 13571 13574 28
10860 13571 13575 28
10861 13576 13577 28
10862 13576 13578 28
10863 13576 13579 28
10864 13576 13580 28
10865 13581 13582 28
10866 13581 13583 28
10867 13581 13584 28
10868 13581 13585 28
10869 13586 13587 28
10870 13586 13588 28
10871 13586 13589 28
10872 13586 13590 28
10873 13591 13592 28
10874 13591 13593 28
10875 13591 13594 28
10876 13591 13595 28
10877 13596 13597 28
10878 13596 13598 28
10879 13596 13599 28
10880 13596 13600 28
10881 13601 13602 28
10882 13601 13603 28
10883 13601 13604 28
10884 13601 13605 28
10885 13606 13607 28
10886 13606 13608 28
10887 13606 13609 28
10888 13606 13610 28
10889 13611 13612 28
10890 13611 13613 28
10891 13611 13614 28
10892 13611 13615 28
10893 13616 13617 28
10894 13616 13618 28
10895 13616 13619 28
10896 13616 13620 28
10897 13621 13622 28
10898 13621 13623 28
10899 13621 13624 28
10900 13621 13625 28
10901 13626 13627 28
10902 13626 13628 28
10903 13626 13629 28
10904 13626 13630 28
10905 13631 13632 28
10906 13631 13633 28
10907 13631 13634 28
10908 13631 13635 28
10909 13636 13637 28
10910 13636 13638 28
10911 13636 13639 28
10912 13636 13640 28
10913 13641 13642 28
10914 13641 13643 28
10915 13641 13644 28
10916 13641 13645 28
10917 13646 13647 28
10918 13646 13648 28
10919 13646 13649 28
10920 13646 13650 28
10921 13651 13652 28
10922 13651 13653 28
10923 13651 13654 28
10924 13651 13655 28
10925 13656 13657 28
10926 13656 13658 28
10927 13656 13659 28
10928 13656 13660 28
10929 13661 13662 28
10930 13661 13663 28
10931 13661 13664 28
10932 13661 13665 28
10933 13666 13667 28
10934 13666 13668 28
10935 13666 13669 28
10936 13666 13670 28
10937 13671 13672 28
10938 13671 13673 28
10939 13671 13674 28
10940 13671 13675 28
10941 13676 13677 28
10942 13676 13678 28
10943 13676 13679 28
10944 13676 13680 28
10945 13681 13682 28
10946 13681 13683 28
10947 13681 13684 28
10948 13681 13685 28
10949 13686 13687 28
10950 13686 13688 28
10951 13686 13689 28
10952 13686 13690 28
10953 13691 13692 28
10954 13691 13693 28
10955 13691 13694 28
10956 13691 13695 28
10957 13696 13697 28
10958 13696 13698 28
10959 13696 13699 28
10960 13696 13700 28
10961 13701 13702 28
10962 13701 13703 28
10963 13701 13704 28
10964 13701 13705 28
10965 13706 13707 28
10966 13706 13708 28
10967 13706 13709 28
10968 13706 13710 28
10969 13711 13712 28
10970 13711 13713 28
10971 13711 13714 28
10972 13711 13715 28
10973 13716 13717 28
10974 13716 13718 28
10975 13716 13719 28
10976 13716 13720 28
10977 13721 13722 28
10978 13721 13723 28
10979 13721 13724 28
10980 13721 13725 28
10981 13726 13727 28
10982 13726 13728 28
10983 13726 13729 28
10984 13726 13730 28
10985 13731 13732 28
10986 13731 13733 28
10987 13731 13734 28
10988 13731 13735 28
10989 13736 13737 28
10990 13736 13738 28
10991 13736 13739 28
10992 13736 13740 28
10993 13741 13742 28
10994 13741 13743 28
10995 13741 13744 28
10996 13741 13745 28
10997 13746 13747 28
10998 13746 13748 28
10999 13746 13749 28
11000 13746 13750 28
11001 13751 13752 28
11002 13751 13753 28
11003 13751 13754 28
11004 13751 13755 28
11005 13756 13757 28
11006 13756 13758 28
11007 13756 13759 28
11008 13756 13760 28
11009 13761 13762 28
11010 13761 13763 28
11011 13761 13764 28
11012 13761 13765 28
11013 13766 13767 28
11014 13766 13768 28
11015 13766 13769 28
11016 13766 13770 28
11017 13771 13772 28
11018 13771 13773 28
11019 13771 13774 28
11020 13771 13775 28
11021 13776 13777 28
11022 13776 13778 28
11023 13776 13779 28
11024 13776 13780 28
11025 13781 13782 28
11026 13781 13783 28
11027 13781 13784 28
11028 13781 13785 28
11029 13786 13787 28
11030 13786 13788 28
11031 13786 13789 28
11032 13786 13790 28
11033 13791 13792 28
11034 13791 13793 28
11035 13791 13794 28
11036 13791 13795 28
11037 13796 13797 28
11038 13796 13798 28
11039 13796 13799 28
11040 13796 13800 28
11041 13801 13802 28
11042 13801 13803 28
11043 13801 13804 28
11044 13801 13805 28
11045 13806 13807 28
11046 13806 13808 28
11047 13806 13809 28
11048 13806 13810 28
11049 13811 13812 28
11050 13811 13813 28
11051 13811 13814 28
11052 13811 13815 28
11053 13816 13817 28
11054 13816 13818 28
11055 13816 13819 28
11056 13816 13820 28
11057 13821 13822 28
11058 13821 13823 28
11059 13821 13824 28
11060 13821 13825 28
11061 13826 13827 28
11062 13826 13828 28
11063 13826 13829 28
11064 13826 13830 28
11065 13831 13832 28
11066 13831 13833 28
11067 13831 13834 28
11068 13831 13835 28
11069 13836 13837 28
11070 13836 13838 28
11071 13836 13839 28
11072 13836 13840 28
11073 13841 13842 28
11074 13841 13843 28
11075 13841 13844 28
11076 13841 13845 28
11077 13846 13847 28
11078 13846 13848 28
11079 13846 13849 28
11080 13846 13850 28
11081 13851 13852 28
11082 13851 13853 28
11083 13851 13854 28
11084 13851 13855 28
11085 13856 13857 28
11086 13856 13858 28
11087 13856 13859 28
11088 13856 13860 28
11089 13861 13862 28
11090 13861 13863 28
11091 13861 13864 28
11092 13861 13865 28
11093 13866 13867 28
11094 13866 13868 28
11095 13866 13869 28
11096 13866 13870 28
11097 13871 13872 28
11098 13871 13873 28
11099 13871 13874 28
11100 13871 13875 28
11101 13876 13877 28
11102 13876 13878 28
11103 13876 13879 28
11104 13876 13880 28
11105 13881 13882 28
11106 13881 13883 28
11107 13881 13884 28
11108 13881 13885 28
11109 13886 13887 28
11110 13886 13888 28
11111 13886 13889 28
11112 13886 13890 28
11113 13891 13892 28
11114 13891 13893 28
11115 13891 13894 28
11116 13891 13895 28
11117 13896 13897 28
11118 13896 13898 28
11119 13896 13899 28
11120 13896 13900 28
11121 13901 13902 28
11122 13901 13903 28
11123 13901 13904 28
11124 13901 13905 28
11125 13906 13907 28
11126 13906 13908 28
11127 13906 13909 28
11128 13906 13910 28
11129 13911 13912 28
11130 13911 13913 28
11131 13911 13914 28
11132 13911 13915 28
11133 13916 13917 28
11134 13916 13918 28
11135 13916 13919 28
11136 13916 13920 28
11137 13921 13922 28
11138 13921 13923 28
11139 13921 13924 28
11140 13921 13925 28
11141 13926 13927 28
11142 13926 13928 28
11143 13926 13929 28
11144 13926 13930 28
11145 13931 13932 28
11146 13931 13933 28
11147 13931 13934 28
11148 13931 13935 28
11149 13936 13937 28
11150 13936 13938 28
11151 13936 13939 28
11152 13936 13940 28
11153 13941 13942 28
11154 13941 13943 28
11155 13941 13944 28
11156 13941 13945 28
11157 13946 13947 28
11158 13946 13948 28
11159 13946 13949 28
11160 13946 13950 28
11161 13951 13952 28
11162 13951 13953 28
11163 13951 13954 28
11164 13951 13955 28
11165 13956 13957 28
11166 13956 13958 28
11167 13956 13959 28
11168 13956 13960 28
11169 13961 13962 28
11170 13961 13963 28
11171 13961 13964 28
11172 13961 13965 28
11173 13966 13967 28
11174 13966 13968 28
11175 13966 13969 28
11176 13966 13970 28
11177 13971 13972 28
11178 13971 13973 28
11179 13971 13974 28
11180 13971 13975 28
11181 13976 13977 28
11182 13976 13978 28
11183 13976 13979 28
11184 13976 13980 28
11185 13981 13982 28
11186 13981 13983 28
11187 13981 13984 28
11188 13981 13985 28
11189 13986 13987 28
11190 13986 13988 28
11191 13986 13989 28
11192 13986 13990 28
11193 13991 13992 28
11194 13991 13993 28
11195 13991 13994 28
11196 13991 13995 28
11197 13996 13997 28
11198 13996 13998 28
11199 13996 13999 28
11200 13996 14000 28
11201 14001 14002 28
11202 14001 14003 28
11203 14001 14004 28
11204 14001 14005 28
11205 14006 14007 28
11206 14006 14008 28
11207 14006 14009 28
11208 14006 14010 28
11209 14011 14012 28
11210 14011 14013 28
11211 14011 14014 28
11212 14011 14015 28
11213 14016 14017 28
11214 14016 14018 28
11215 14016 14019 28
11216 14016 14020 28
11217 14021 14022 28
11218 14021 14023 28
11219 14021 14024 28
11220 14021 14025 28
11221 14026 14027 28
11222 14026 14028 28
11223 14026 14029 28
11224 14026 14030 28
11225 14031 14032 28
11226 14031 14033 28
11227 14031 14034 28
11228 14031 14035 28
11229 14036 14037 28
11230 14036 14038 28
11231 14036 14039 28
11232 14036 14040 28
11233 14041 14042 28
11234 14041 14043 28
11235 14041 14044 28
11236 14041 14045 28
11237 14046 14047 28
11238 14046 14048 28
11239 14046 14049 28
11240 14046 14050 28
11241 14051 14052 28
11242 14051 14053 28
11243 14051 14054 28
11244 14051 14055 28
11245 14056 14057 28
11246 14056 14058 28
11247 14056 14059 28
11248 14056 14060 28
11249 14061 14062 28
11250 14061 14063 28
11251 14061 14064 28
11252 14061 14065 28
11253 14066 14067 28
11254 14066 14068 28
11255 14066 14069 28
11256 14066 14070 28
11257 14071 14072 28
11258 14071 14073 28
11259 14071 14074 28
11260 14071 14075 28
11261 14076 14077 28
11262 14076 14078 28
11263 14076 14079 28
11264 14076 14080 28
11265 14081 14082 28
11266 14081 14083 28
11267 14081 14084 28
11268 14081 14085 28
11269 14086 14087 28
11270 14086 14088 28
11271 14086 14089 28
11272 14086 14090 28
11273 14091 14092 28
11274 14091 14093 28
11275 14091 14094 28
11276 14091 14095 28
11277 14096 14097 28
11278 14096 14098 28
11279 14096 14099 28
11280 14096 14100 28
11281 14101 14102 28
11282 14101 14103 28
11283 14101 14104 28
11284 14101 14105 28
11285 14106 14107 28
11286 14106 14108 28
11287 14106 14109 28
11288 14106 14110 28
11289 14111 14112 28
11290 14111 14113 28
11291 14111 14114 28
11292 14111 14115 28
11293 14116 14117 28
11294 14116 14118 28
11295 14116 14119 28
11296 14116 14120 28
11297 14121 14122 28
11298 14121 14123 28
11299 14121 14124 28
11300 14121 14125 28
11301 14126 14127 28
11302 14126 14128 28
11303 14126 14129 28
11304 14126 14130 28
11305 14131 14132 28
11306 14131 14133 28
11307 14131 14134 28
11308 14131 14135 28
11309 14136 14137 28
11310 14136 14138 28
11311 14136 14139 28
11312 14136 14140 28
11313 14141 14142 28
11314 14141 14143 28
11315 14141 14144 28
11316 14141 14145 28
11317 14146 14147 28
11318 14146 14148 28
11319 14146 14149 28
11320 14146 14150 28
11321 14151 14152 28
11322 14151 14153 28
11323 14151 14154 28
11324 14151 14155 28
11325 14156 14157 28
11326 14156 14158 28
11327 14156 14159 28
11328 14156 14160 28
11329 14161 14162 28
11330 14161 14163 28
11331 14161 14164 28
11332 14161 14165 28
11333 14166 14167 28
11334 14166 14168 28
11335 14166 14169 28
11336 14166 14170 28
11337 14171 14172 28
11338 14171 14173 28
11339 14171 14174 28
11340 14171 14175 28
11341 14176 14177 28
11342 14176 14178 28
11343 14176 14179 28
11344 14176 14180 28
11345 14181 14182 28
11346 14181 14183 28
11347 14181 14184 28
11348 14181 14185 28
11349 14186 14187 28
11350 14186 14188 28
11351 14186 14189 28
11352 14186 14190 28
11353 14191 14192 28
11354 14191 14193 28
11355 14191 14194 28
11356 14191 14195 28
11357 14196 14197 28
11358 14196 14198 28
11359 14196 14199 28
11360 14196 14200 28
11361 14201 14202 28
11362 14201 14203 28
11363 14201 14204 28
11364 14201 14205 28
11365 14206 14207 28
11366 14206 14208 28
11367 14206 14209 28
11368 14206 14210 28
11369 14211 14212 28
11370 14211 14213 28
11371 14211 14214 28
11372 14211 14215 28
11373 14216 14217 28
11374 14216 14218 28
11375 14216 14219 28
11376 14216 14220 28
11377 14221 14222 28
11378 14221 14223 28
11379 14221 14224 28
11380 14221 14225 28
11381 14226 14227 28
11382 14226 14228 28
11383 14226 14229 28
11384 14226 14230 28
11385 14231 14232 28
11386 14231 14233 28
11387 14231 14234 28
11388 14231 14235 28
11389 14236 14237 28
11390 14236 14238 28
11391 14236 14239 28
11392 14236 14240 28
11393 14241 14242 28
11394 14241 14243 28
11395 14241 14244 28
11396 14241 14245 28
11397 14246 14247 28
11398 14246 14248 28
11399 14246 14249 28
11400 14246 14250 28
11401 14251 14252 28
11402 14251 14253 28
11403 14251 14254 28
11404 14251 14255 28
11405 14256 14257 28
11406 14256 14258 28
11407 14256 14259 28
11408 14256 14260 28
11409 14261 14262 28
11410 14261 14263 28
11411 14261 14264 28
11412 14261 14265 28
11413 14266 14267 28
11414 14266 14268 28
11415 14266 14269 28
11416 14266 14270 28
11417 14271 14272 28
11418 14271 14273 28
11419 14271 14274 28
11420 14271 14275 28
11421 14276 14277 28
11422 14276 14278 28
11423 14276 14279 28
11424 14276 14280 28
11425 14281 14282 28
11426 14281 14283 28
11427 14281 14284 28
11428 14281 14285 28
11429 14286 14287 28
11430 14286 14288 28
11431 14286 14289 28
11432 14286 14290 28
11433 14291 14292 28
11434 14291 14293 28
11435 14291 14294 28
11436 14291 14295 28
11437 14296 14297 28
11438 14296 14298 28
11439 14296 14299 28
11440 14296 14300 28
11441 14301 14302 28
11442 14301 14303 28
11443 14301 14304 28
11444 14301 14305 28
11445 14306 14307 28
11446 14306 14308 28
11447 14306 14309 28
11448 14306 14310 28
11449 14311 14312 28
11450 14311 14313 28
11451 14311 14314 28
11452 14311 14315 28
11453 14316 14317 28
11454 14316 14318 28
11455 14316 14319 28
11456 14316 14320 28
11457 14321 14322 28
11458 14321 14323 28
11459 14321 14324 28
11460 14321 14325 28
11461 14326 14327 28
11462 14326 14328 28
11463 14326 14329 28
11464 14326 14330 28
11465 14331 14332 28
11466 14331 14333 28
11467 14331 14334 28
11468 14331 14335 28
11469 14336 14337 28
11470 14336 14338 28
11471 14336 14339 28
11472 14336 14340 28
11473 14341 14342 28
11474 14341 14343 28
11475 14341 14344 28
11476 14341 14345 28
11477 14346 14347 28
11478 14346 14348 28
11479 14346 14349 28
11480 14346 14350 28
11481 14351 14352 28
11482 14351 14353 28
11483 14351 14354 28
11484 14351 14355 28
11485 14356 14357 28
11486 14356 14358 28
11487 14356 14359 28
11488 14356 14360 28
11489 14361 14362 28
11490 14361 14363 28
11491 14361 14364 28
11492 14361 14365 28
11493 14366 14367 28
11494 14366 14368 28
11495 14366 14369 28
11496 14366 14370 28
11497 14371 14372 28
11498 14371 14373 28
11499 14371 14374 28
11500 14371 14375 28
11501 14376 14377 28
11502 14376 14378 28
11503 14376 14379 28
11504 14376 14380 28
11505 14381 14382 28
11506 14381 14383 28
11507 14381 14384 28
11508 14381 14385 28
11509 14386 14387 28
11510 14386 14388 28
11511 14386 14389 28
11512 14386 14390 28
11513 14391 14392 28
11514 14391 14393 28
11515 14391 14394 28
11516 14391 14395 28
11517 14396 14397 28
11518 14396 14398 28
11519 14396 14399 28
11520 14396 14400 28
11521 14401 14402 28
11522 14401 14403 28
11523 14401 14404 28
11524 14401 14405 28
11525 14406 14407 28
11526 14406 14408 28
11527 14406 14409 28
11528 14406 14410 28
11529 14411 14412 28
11530 14411 14413 28
11531 14411 14414 28
11532 14411 14415 28
11533 14416 14417 28
11534 14416 14418 28
11535 14416 14419 28
11536 14416 14420 28
11537 14421 14422 28
11538 14421 14423 28
11539 14421 14424 28
11540 14421 14425 28
11541 14426 14427 28
11542 14426 14428 28
11543 14426 14429 28
11544 14426 14430 28
11545 14431 14432 28
11546 14431 14433 28
11547 14431 14434 28
11548 14431 14435 28
11549 14436 14437 28
11550 14436 14438 28
11551 14436 14439 28
11552 14436 14440 28
11553 14441 14442 28
11554 14441 14443 28
11555 14441 14444 28
11556 14441 14445 28
11557 14446 14447 28
11558 14446 14448 28
11559 14446 14449 28
11560 14446 14450 28
11561 14451 14452 28
11562 14451 14453 28
11563 14451 14454 28
11564 14451 14455 28
11565 14456 14457 28
11566 14456 14458 28
11567 14456 14459 28
11568 14456 14460 28
11569 14461 14462 28
11570 14461 14463 28
11571 14461 14464 28
11572 14461 14465 28
11573 14466 14467 28
11574 14466 14468 28
11575 14466 14469 28
11576 14466 14470 28
11577 14471 14472 28
11578 14471 14473 28
11579 14471 14474 28
11580 14471 14475 28
11581 14476 14477 28
11582 14476 14478 28
11583 14476 14479 28
11584 14476 14480 28
11585 14481 14482 28
11586 14481 14483 28
11587 14481 14484 28
11588 14481 14485 28
11589 14486 14487 28
11590 14486 14488 28
11591 14486 14489 28
11592 14486 14490 28
11593 14491 14492 28
11594 14491 14493 28
11595 14491 14494 28
11596 14491 14495 28
11597 14496 14497 28
11598 14496 14498 28
11599 14496 14499 28
11600 14496 14500 28
11601 14501 14502 28
11602 14501 14503 28
11603 14501 14504 28
11604 14501 14505 28
11605 14506 14507 28
11606 14506 14508 28
11607 14506 14509 28
11608 14506 14510 28
11609 14511 14512 28
11610 14511 14513 28
11611 14511 14514 28
11612 14511 14515 28
11613 14516 14517 28
11614 14516 14518 28
11615 14516 14519 28
11616 14516 14520 28
11617 14521 14522 28
11618 14521 14523 28
11619 14521 14524 28
11620 14521 14525 28
11621 14526 14527 28
11622 14526 14528 28
11623 14526 14529 28
11624 14526 14530 28
11625 14531 14532 28
11626 14531 14533 28
11627 14531 14534 28
11628 14531 14535 28
11629 14536 14537 28
11630 14536 14538 28
11631 14536 14539 28
11632 14536 14540 28
11633 14541 14542 28
11634 14541 14543 28
11635 14541 14544 28
11636 14541 14545 28
11637 14546 14547 28
11638 14546 14548 28
11639 14546 14549 28
11640 14546 14550 28
11641 14551 14552 28
11642 14551 14553 28
11643 14551 14554 28
11644 14551 14555 28
11645 14556 14557 28
11646 14556 14558 28
11647 14556 14559 28
11648 14556 14560 28
11649 14561 14562 28
11650 14561 14563 28
11651 14561 14564 28
11652 14561 14565 28
11653 14566 14567 28
11654 14566 14568 28
11655 14566 14569 28
11656 14566 14570 28
11657 14571 14572 28
11658 14571 14573 28
11659 14571 14574 28
11660 14571 14575 28
11661 14576 14577 28
11662 14576 14578 28
11663 14576 14579 28
11664 14576 14580 28
11665 14581 14582 28
11666 14581 14583 28
11667 14581 14584 28
11668 14581 14585 28
11669 14586 14587 28
11670 14586 14588 28
11671 14586 14589 28
11672 14586 14590 28
11673 14591 14592 28
11674 14591 14593 28
11675 14591 14594 28
11676 14591 14595 28
11677 14596 14597 28
11678 14596 14598 28
11679 14596 14599 28
11680 14596 14600 28
11681 14601 14602 28
11682 14601 14603 28
11683 14601 14604 28
11684 14601 14605 28
11685 14606 14607 28
11686 14606 14608 28
11687 14606 14609 28
11688 14606 14610 28
11689 14611 14612 28
11690 14611 14613 28
11691 14611 14614 28
11692 14611 14615 28
11693 14616 14617 28
11694 14616 14618 28
11695 14616 14619 28
11696 14616 14620 28
11697 14621 14622 28
11698 14621 14623 28
11699 14621 14624 28
11700 14621 14625 28
11701 14626 14627 28
11702 14626 14628 28
11703 14626 14629 28
11704 14626 14630 28
11705 14631 14632 28
11706 14631 14633 28
11707 14631 14634 28
11708 14631 14635 28
11709 14636 14637 28
11710 14636 14638 28
11711 14636 14639 28
11712 14636 14640 28
11713 14641 14642 28
11714 14641 14643 28
11715 14641 14644 28
11716 14641 14645 28
11717 14646 14647 28
11718 14646 14648 28
11719 14646 14649 28
11720 14646 14650 28
11721 14651 14652 28
11722 14651 14653 28
11723 14651 14654 28
11724 14651 14655 28
11725 14656 14657 28
11726 14656 14658 28
11727 14656 14659 28
11728 14656 14660 28
11729 14661 14662 28
11730 14661 14663 28
11731 14661 14664 28
11732 14661 14665 28
11733 14666 14667 28
11734 14666 14668 28
11735 14666 14669 28
11736 14666 14670 28
11737 14671 14672 28
11738 14671 14673 28
11739 14671 14674 28
11740 14671 14675 28
11741 14676 14677 28
11742 14676 14678 28
11743 14676 14679 28
11744 14676 14680 28
11745 14681 14682 28
11746 14681 14683 28
11747 14681 14684 28
11748 14681 14685 28
11749 14686 14687 28
11750 14686 14688 28
11751 14686 14689 28
11752 14686 14690 28
11753 14691 14692 28
11754 14691 14693 28
11755 14691 14694 28
11756 14691 14695 28
11757 14696 14697 28
11758 14696 14698 28
11759 14696 14699 28
11760 14696 14700 28
11761 14701 14702 28
11762 14701 14703 28
11763 14701 14704 28
11764 14701 14705 28
11765 14706 14707 28
11766 14706 14708 28
11767 14706 14709 28
11768 14706 14710 28
11769 14711 14712 28
11770 14711 14713 28
11771 14711 14714 28
11772 14711 14715 28
11773 14716 14717 28
11774 14716 14718 28
11775 14716 14719 28
11776 14716 14720 28
11777 14721 14722 28
11778 14721 14723 28
11779 14721 14724 28
11780 14721 14725 28
11781 14726 14727 28
11782 14726 14728 28
11783 14726 14729 28
11784 14726 14730 28
11785 14731 14732 28
11786 14731 14733 28
11787 14731 14734 28
11788 14731 14735 28
11789 14736 14737 28
11790 14736 14738 28
11791 14736 14739 28
11792 14736 14740 28
11793 14741 14742 28
11794 14741 14743 28
11795 14741 14744 28
11796 14741 14745 28
11797 14746 14747 28
11798 14746 14748 28
11799 14746 14749 28
11800 14746 14750 28
11801 14751 14752 28
11802 14751 14753 28
11803 14751 14754 28
11804 14751 14755 28
11805 14756 14757 28
11806 14756 14758 28
11807 14756 14759 28
11808 14756 14760 28
11809 14761 14762 28
11810 14761 14763 28
11811 14761 14764 28
11812 14761 14765 28
11813 14766 14767 28
11814 14766 14768 28
11815 14766 14769 28
11816 14766 14770 28
11817 14771 14772 28
11818 14771 14773 28
11819 14771 14774 28
11820 14771 14775 28
11821 14776 14777 28
11822 14776 14778 28
11823 14776 14779 28
11824 14776 14780 28
11825 14781 14782 28
11826 14781 14783 28
11827 14781 14784 28
11828 14781 14785 28
11829 14786 14787 28
11830 14786 14788 28
11831 14786 14789 28
11832 14786 14790 28
11833 14791 14792 28
11834 14791 14793 28
11835 14791 14794 28
11836 14791 14795 28
11837 14796 14797 28
11838 14796 14798 28
11839 14796 14799 28
11840 14796 14800 28
11841 14801 14802 28
11842 14801 14803 28
11843 14801 14804 28
11844 14801 14805 28
11845 14806 14807 28
11846 14806 14808 28
11847 14806 14809 28
11848 14806 14810 28
11849 14811 14812 28
11850 14811 14813 28
11851 14811 14814 28
11852 14811 14815 28
11853 14816 14817 28
11854 14816 14818 28
11855 14816 14819 28
11856 14816 14820 28
11857 14821 14822 28
11858 14821 14823 28
11859 14821 14824 28
11860 14821 14825 28
11861 14826 14827 28
11862 14826 14828 28
11863 14826 14829 28
11864 14826 14830 28
11865 14831 14832 28
11866 14831 14833 28
11867 14831 14834 28
11868 14831 14835 28
11869 14836 14837 28
11870 14836 14838 28
11871 14836 14839 28
11872 14836 14840 28
11873 14841 14842 28
11874 14841 14843 28
11875 14841 14844 28
11876 14841 14845 28
11877 14846 14847 28
11878 14846 14848 28
11879 14846 14849 28
11880 14846 14850 28
11881 14851 14852 28
11882 14851 14853 28
11883 14851 14854 28
11884 14851 14855 28
11885 14856 14857 28
11886 14856 14858 28
11887 14856 14859 28
11888 14856 14860 28
11889 14861 14862 28
11890 14861 14863 28
11891 14861 14864 28
11892 14861 14865 28
11893 14866 14867 28
11894 14866 14868 28
11895 14866 14869 28
11896 14866 14870 28
11897 14871 14872 28
11898 14871 14873 28
11899 14871 14874 28
11900 14871 14875 28
11901 14876 14877 28
11902 14876 14878 28
11903 14876 14879 28
11904 14876 14880 28
11905 14881 14882 28
11906 14881 14883 28
11907 14881 14884 28
11908 14881 14885 28
11909 14886 14887 28
11910 14886 14888 28
11911 14886 14889 28
11912 14886 14890 28
11913 14891 14892 28
11914 14891 14893 28
11915 14891 14894 28
11916 14891 14895 28
11917 14896 14897 28
11918 14896 14898 28
11919 14896 14899 28
11920 14896 14900 28
11921 14901 14902 28
11922 14901 14903 28
11923 14901 14904 28
11924 14901 14905 28
11925 14906 14907 28
11926 14906 14908 28
11927 14906 14909 28
11928 14906 14910 28
11929 14911 14912 28
11930 14911 14913 28
11931 14911 14914 28
11932 14911 14915 28
11933 14916 14917 28
11934 14916 14918 28
11935 14916 14919 28
11936 14916 14920 28
11937 14921 14922 28
11938 14921 14923 28
11939 14921 14924 28
11940 14921 14925 28
11941 14926 14927 28
11942 14926 14928 28
11943 14926 14929 28
11944 14926 14930 28
11945 14931 14932 28
11946 14931 14933 28
11947 14931 14934 28
11948 14931 14935 28
11949 14936 14937 28
11950 14936 14938 28
11951 14936 14939 28
11952 14936 14940 28
11953 14941 14942 28
11954 14941 14943 28
11955 14941 14944 28
11956 14941 14945 28
11957 14946 14947 28
11958 14946 14948 28
11959 14946 14949 28
11960 14946 14950 28
11961 14951 14952 28
11962 14951 14953 28
11963 14951 14954 28
11964 14951 14955 28
11965 14956 14957 28
11966 14956 14958 28
11967 14956 14959 28
11968 14956 14960 28
11969 14961 14962 28
11970 14961 14963 28
11971 14961 14964 28
11972 14961 14965 28
11973 14966 14967 28
11974 14966 14968 28
11975 14966 14969 28
11976 14966 14970 28
11977 14971 14972 28
11978 14971 14973 28
11979 14971 14974 28
11980 14971 14975 28
11981 14976 14977 28
11982 14976 14978 28
11983 14976 14979 28
11984 14976 14980 28
11985 14981 14982 28
11986 14981 14983 28
11987 14981 14984 28
11988 14981 14985 28
11989 14986 14987 28
11990 14986 14988 28
11991 14986 14989 28
11992 14986 14990 28
11993 14991 14992 28
11994 14991 14993 28
11995 14991 14994 28
11996 14991 14995 28
11997 14996 14997 28
11998 14996 14998 28
11999 14996 14999 28
12000 14996 15000 28
12001 15001 15002 28
12002 15001 15003 28
12003 15001 15004 28
12004 15001 15005 28
12005 15006 15007 28
12006 15006 15008 28
12007 15006 15009 28
12008 15006 15010 28
12009 15011 15012 28
12010 15011 15013 28
12011 15011 15014 28
12012 15011 15015 28
12013 15016 15017 28
12014 15016 15018 28
12015 15016 15019 28
12016 15016 15020 28
12017 15021 15022 28
12018 15021 15023 28
12019 15021 15024 28
12020 15021 15025 28
12021 15026 15027 28
12022 15026 15028 28
12023 15026 15029 28
12024 15026 15030 28
12025 15031 15032 28
12026 15031 15033 28
12027 15031 15034 28
12028 15031 15035 28
12029 15036 15037 28
12030 15036 15038 28
12031 15036 15039 28
12032 15036 15040 28
12033 15041 15042 28
12034 15041 15043 28
12035 15041 15044 28
12036 15041 15045 28
12037 15046 15047 28
12038 15046 15048 28
12039 15046 15049 28
12040 15046 15050 28
12041 15051 15052 28
12042 15051 15053 28
12043 15051 15054 28
12044 15051 15055 28
12045 15056 15057 28
12046 15056 15058 28
12047 15056 15059 28
12048 15056 15060 28
12049 15061 15062 28
12050 15061 15063 28
12051 15061 15064 28
12052 15061 15065 28
12053 15066 15067 28
12054 15066 15068 28
12055 15066 15069 28
12056 15066 15070 28
12057 15071 15072 28
12058 15071 15073 28
12059 15071 15074 28
12060 15071 15075 28
12061 15076 15077 28
12062 15076 15078 28
12063 15076 15079 28
12064 15076 15080 28
12065 15081 15082 28
12066 15081 15083 28
12067 15081 15084 28
12068 15081 15085 28
12069 15086 15087 28
12070 15086 15088 28
12071 15086 15089 28
12072 15086 15090 28
12073 15091 15092 28
12074 15091 15093 28
12075 15091 15094 28
12076 15091 15095 28
12077 15096 15097 28
12078 15096 15098 28
12079 15096 15099 28
12080 15096 15100 28
12081 15101 15102 28
12082 15101 15103 28
12083 15101 15104 28
12084 15101 15105 28
12085 15106 15107 28
12086 15106 15108 28
12087 15106 15109 28
12088 15106 15110 28
12089 15111 15112 28
12090 15111 15113 28
12091 15111 15114 28
12092 15111 15115 28
12093 15116 15117 28
12094 15116 15118 28
12095 15116 15119 28
12096 15116 15120 28
12097 15121 15122 28
12098 15121 15123 28
12099 15121 15124 28
12100 15121 15125 28
12101 15126 15127 28
12102 15126 15128 28
12103 15126 15129 28
12104 15126 15130 28
12105 15131 15132 28
12106 15131 15133 28
12107 15131 15134 28
12108 15131 15135 28
12109 15136 15137 28
12110 15136 15138 28
12111 15136 15139 28
12112 15136 15140 28
12113 15141 15142 28
12114 15141 15143 28
12115 15141 15144 28
12116 15141 15145 28
12117 15146 15147 28
12118 15146 15148 28
12119 15146 15149 28
12120 15146 15150 28
12121 15151 15152 28
12122 15151 15153 28
12123 15151 15154 28
12124 15151 15155 28
12125 15156 15157 28
12126 15156 15158 28
12127 15156 15159 28
12128 15156 15160 28
12129 15161 15162 28
12130 15161 15163 28
12131 15161 15164 28
12132 15161 15165 28
12133 15166 15167 28
12134 15166 15168 28
12135 15166 15169 28
12136 15166 15170 28
12137 15171 15172 28
12138 15171 15173 28
12139 15171 15174 28
12140 15171 15175 28
12141 15176 15177 28
12142 15176 15178 28
12143 15176 15179 28
12144 15176 15180 28
12145 15181 15182 28
12146 15181 15183 28
12147 15181 15184 28
12148 15181 15185 28
12149 15186 15187 28
12150 15186 15188 28
12151 15186 15189 28
12152 15186 15190 28
12153 15191 15192 28
12154 15191 15193 28
12155 15191 15194 28
12156 15191 15195 28
12157 15196 15197 28
12158 15196 15198 28
12159 15196 15199 28
12160 15196 15200 28
12161 15201 15202 28
12162 15201 15203 28
12163 15201 15204 28
12164 15201 15205 28
12165 15206 15207 28
12166 15206 15208 28
12167 15206 15209 28
12168 15206 15210 28
12169 15211 15212 28
12170 15211 15213 28
12171 15211 15214 28
12172 15211 15215 28
12173 15216 15217 28
12174 15216 15218 28
12175 15216 15219 28
12176 15216 15220 28
12177 15221 15222 28
12178 15221 15223 28
12179 15221 15224 28
12180 15221 15225 28
12181 15226 15227 28
12182 15226 15228 28
12183 15226 15229 28
12184 15226 15230 28
12185 15231 15232 28
12186 15231 15233 28
12187 15231 15234 28
12188 15231 15235 28
12189 15236 15237 28
12190 15236 15238 28
12191 15236 15239 28
12192 15236 15240 28
12193 15241 15242 28
12194 15241 15243 28
12195 15241 15244 28
12196 15241 15245 28
12197 15246 15247 28
12198 15246 15248 28
12199 15246 15249 28
12200 15246 15250 28
12201 15251 15252 28
12202 15251 15253 28
12203 15251 15254 28
12204 15251 15255 28
12205 15256 15257 28
12206 15256 15258 28
12207 15256 15259 28
12208 15256 15260 28
12209 15261 15262 28
12210 15261 15263 28
12211 15261 15264 28
12212 15261 15265 28
12213 15266 15267 28
12214 15266 15268 28
12215 15266 15269 28
12216 15266 15270 28
12217 15271 15272 28
12218 15271 15273 28
12219 15271 15274 28
12220 15271 15275 28
12221 15276 15277 28
12222 15276 15278 28
12223 15276 15279 28
12224 15276 15280 28
12225 15281 15282 28
12226 15281 15283 28
12227 15281 15284 28
12228 15281 15285 28
12229 15286 15287 28
12230 15286 15288 28
12231 15286 15289 28
12232 15286 15290 28
12233 15291 15292 28
12234 15291 15293 28
12235 15291 15294 28
12236 15291 15295 28
12237 15296 15297 28
12238 15296 15298 28
12239 15296 15299 28
12240 15296 15300 28
12241 15301 15302 28
12242 15301 15303 28
12243 15301 15304 28
12244 15301 15305 28
12245 15306 15307 28
12246 15306 15308 28
12247 15306 15309 28
12248 15306 15310 28
12249 15311 15312 28
12250 15311 15313 28
12251 15311 15314 28
12252 15311 15315 28
12253 15316 15317 28
12254 15316 15318 28
12255 15316 15319 28
12256 15316 15320 28
12257 15321 15322 28
12258 15321 15323 28
12259 15321 15324 28
12260 15321 15325 28
12261 15326 15327 28
12262 15326 15328 28
12263 15326 15329 28
12264 15326 15330 28
12265 15331 15332 28
12266 15331 15333 28
12267 15331 15334 28
12268 15331 15335 28
12269 15336 15337 28
12270 15336 15338 28
12271 15336 15339 28
12272 15336 15340 28
12273 15341 15342 28
12274 15341 15343 28
12275 15341 15344 28
12276 15341 15345 28
12277 15346 15347 28
12278 15346 15348 28
12279 15346 15349 28
12280 15346 15350 28
12281 15351 15352 28
12282 15351 15353 28
12283 15351 15354 28
12284 15351 15355 28
12285 15356 15357 28
12286 15356 15358 28
12287 15356 15359 28
12288 15356 15360 28
12289 15361 15362 28
12290 15361 15363 28
12291 15361 15364 28
12292 15361 15365 28
12293 15366 15367 28
12294 15366 15368 28
12295 15366 15369 28
12296 15366 15370 28
12297 15371 15372 28
12298 15371 15373 28
12299 15371 15374 28
12300 15371 15375 28
12301 15376 15377 28
12302 15376 15378 28
12303 15376 15379 28
12304 15376 15380 28
12305 15381 15382 28
12306 15381 15383 28
12307 15381 15384 28
12308 15381 15385 28
12309 15386 15387 28
12310 15386 15388 28
12311 15386 15389 28
12312 15386 15390 28
12313 15391 15392 28
12314 15391 15393 28
12315 15391 15394 28
12316 15391 15395 28
12317 15396 15397 28
12318 15396 15398 28
12319 15396 15399 28
12320 15396 15400 28
12321 15401 15402 28
12322 15401 15403 28
12323 15401 15404 28
12324 15401 15405 28
12325 15406 15407 28
12326 15406 15408 28
12327 15406 15409 28
12328 15406 15410 28
12329 15411 15412 28
12330 15411 15413 28
12331 15411 15414 28
12332 15411 15415 28
12333 15416 15417 28
12334 15416 15418 28
12335 15416 15419 28
12336 15416 15420 28
12337 15421 15422 28
12338 15421 15423 28
12339 15421 15424 28
12340 15421 15425 28
12341 15426 15427 28
12342 15426 15428 28
12343 15426 15429 28
12344 15426 15430 28
12345 15431 15432 28
12346 15431 15433 28
12347 15431 15434 28
12348 15431 15435 28
12349 15436 15437 28
12350 15436 15438 28
12351 15436 15439 28
12352 15436 15440 28
12353 15441 15442 28
12354 15441 15443 28
12355 15441 15444 28
12356 15441 15445 28
12357 15446 15447 28
12358 15446 15448 28
12359 15446 15449 28
12360 15446 15450 28
12361 15451 15452 28
12362 15451 15453 28
12363 15451 15454 28
12364 15451 15455 28
12365 15456 15457 28
12366 15456 15458 28
12367 15456 15459 28
12368 15456 15460 28
12369 15461 15462 28
12370 15461 15463 28
12371 15461 15464 28
12372 15461 15465 28
12373 15466 15467 28
12374 15466 15468 28
12375 15466 15469 28
12376 15466 15470 28
12377 15471 15472 28
12378 15471 15473 28
12379 15471 15474 28
12380 15471 15475 28
12381 15476 15477 28
12382 15476 15478 28
12383 15476 15479 28
12384 15476 15480 28
12385 15481 15482 28
12386 15481 15483 28
12387 15481 15484 28
12388 15481 15485 28
12389 15486 15487 28
12390 15486 15488 28
12391 15486 15489 28
12392 15486 15490 28
12393 15491 15492 28
12394 15491 15493 28
12395 15491 15494 28
12396 15491 15495 28
12397 15496 15497 28
12398 15496 15498 28
12399 15496 15499 28
12400 15496 15500 28
12401 15501 15502 28
12402 15501 15503 28
12403 15501 15504 28
12404 15501 15505 28
12405 15506 15507 28
12406 15506 15508 28
12407 15506 15509 28
12408 15506 15510 28
12409 15511 15512 28
12410 15511 15513 28
12411 15511 15514 28
12412 15511 15515 28
12413 15516 15517 28
12414 15516 15518 28
12415 15516 15519 28
12416 15516 15520 28
12417 15521 15522 28
12418 15521 15523 28
12419 15521 15524 28
12420 15521 15525 28
12421 15526 15527 28
12422 15526 15528 28
12423 15526 15529 28
12424 15526 15530 28
12425 15531 15532 28
12426 15531 15533 28
12427 15531 15534 28
12428 15531 15535 28
12429 15536 15537 28
12430 15536 15538 28
12431 15536 15539 28
12432 15536 15540 28
12433 15541 15542 28
12434 15541 15543 28
12435 15541 15544 28
12436 15541 15545 28
12437 15546 15547 28
12438 15546 15548 28
12439 15546 15549 28
12440 15546 15550 28
12441 15551 15552 28
12442 15551 15553 28
12443 15551 15554 28
12444 15551 15555 28
12445 15556 15557 28
12446 15556 15558 28
12447 15556 15559 28
12448 15556 15560 28
12449 15561 15562 28
12450 15561 15563 28
12451 15561 15564 28
12452 15561 15565 28
12453 15566 15567 28
12454 15566 15568 28
12455 15566 15569 28
12456 15566 15570 28
12457 15571 15572 28
12458 15571 15573 28
12459 15571 15574 28
12460 15571 15575 28
12461 15576 15577 28
12462 15576 15578 28
12463 15576 15579 28
12464 15576 15580 28
12465 15581 15582 28
12466 15581 15583 28
12467 15581 15584 28
12468 15581 15585 28
12469 15586 15587 28
12470 15586 15588 28
12471 15586 15589 28
12472 15586 15590 28
12473 15591 15592 28
12474 15591 15593 28
12475 15591 15594 28
12476 15591 15595 28
12477 15596 15597 28
12478 15596 15598 28
12479 15596 15599 28
12480 15596 15600 28
12481 15601 15602 28
12482 15601 15603 28
12483 15601 15604 28
12484 15601 15605 28
12485 15606 15607 28
12486 15606 15608 28
12487 15606 15609 28
12488 15606 15610 28
12489 15611 15612 28
12490 15611 15613 28
12491 15611 15614 28
12492 15611 15615 28
12493 15616 15617 28
12494 15616 15618 28
12495 15616 15619 28
12496 15616 15620 28
12497 15621 15622 28
12498 15621 15623 28
12499 15621 15624 28
12500 15621 15625 28
12501 15626 15627 28
12502 15626 15628 28
12503 15626 15629 28
12504 15626 15630 28
12505 15631 15632 28
12506 15631 15633 28
12507 15631 15634 28
12508 15631 15635 28
12509 15636 15637 28
12510 15636 15638 28
12511 15636 15639 28
12512 15636 15640 28
12513 15641 15642 28
12514 15641 15643 28
12515 15641 15644 28
12516 15641 15645 28
12517 15646 15647 28
12518 15646 15648 28
12519 15646 15649 28
12520 15646 15650 28
12521 15651 15652 28
12522 15651 15653 28
12523 15651 15654 28
12524 15651 15655 28
12525 15656 15657 28
12526 15656 15658 28
12527 15656 15659 28
12528 15656 15660 28
12529 15661 15662 28
12530 15661 15663 28
12531 15661 15664 28
12532 15661 15665 28
12533 15666 15667 28
12534 15666 15668 28
12535 15666 15669 28
12536 15666 15670 28
12537 15671 15672 28
12538 15671 15673 28
12539 15671 15674 28
12540 15671 15675 28
12541 15676 15677 28
12542 15676 15678 28
12543 15676 15679 28
12544 15676 15680 28
12545 15681 15682 28
12546 15681 15683 28
12547 15681 15684 28
12548 15681 15685 28
12549 15686 15687 28
12550 15686 15688 28
12551 15686 15689 28
12552 15686 15690 28
12553 15691 15692 28
12554 15691 15693 28
12555 15691 15694 28
12556 15691 15695 28
12557 15696 15697 28
12558 15696 15698 28
12559 15696 15699 28
12560 15696 15700 28
12561 15701 15702 28
12562 15701 15703 28
12563 15701 15704 28
12564 15701 15705 28
12565 15706 15707 28
12566 15706 15708 28
12567 15706 15709 28
12568 15706 15710 28
12569 15711 15712 28
12570 15711 15713 28
12571 15711 15714 28
12572 15711 15715 28
12573 15716 15717 28
12574 15716 15718 28
12575 15716 15719 28
12576 15716 15720 28
12577 15721 15722 28
12578 15721 15723 28
12579 15721 15724 28
12580 15721 15725 28
12581 15726 15727 28
12582 15726 15728 28
12583 15726 15729 28
12584 15726 15730 28
12585 15731 15732 28
12586 15731 15733 28
12587 15731 15734 28
12588 15731 15735 28
12589 15736 15737 28
12590 15736 15738 28
12591 15736 15739 28
12592 15736 15740 28
12593 15741 15742 28
12594 15741 15743 28
12595 15741 15744 28
12596 15741 15745 28
12597 15746 15747 28
12598 15746 15748 28
12599 15746 15749 28
12600 15746 15750 28
12601 15751 15752 28
12602 15751 15753 28
12603 15751 15754 28
12604 15751 15755 28
12605 15756 15757 28
12606 15756 15758 28
12607 15756 15759 28
12608 15756 15760 28
12609 15761 15762 28
12610 15761 15763 28
12611 15761 15764 28
12612 15761 15765 28
12613 15766 15767 28
12614 15766 15768 28
12615 15766 15769 28
12616 15766 15770 28
12617 15771 15772 28
12618 15771 15773 28
12619 15771 15774 28
12620 15771 15775 28
12621 15776 15777 28
12622 15776 15778 28
12623 15776 15779 28
12624 15776 15780 28
12625 15781 15782 28
12626 15781 15783 28
12627 15781 15784 28
12628 15781 15785 28
12629 15786 15787 28
12630 15786 15788 28
12631 15786 15789 28
12632 15786 15790 28
12633 15791 15792 28
12634 15791 15793 28
12635 15791 15794 28
12636 15791 15795 28
12637 15796 15797 28
12638 15796 15798 28
12639 15796 15799 28
12640 15796 15800 28
12641 15801 15802 28
12642 15801 15803 28
12643 15801 15804 28
12644 15801 15805 28
12645 15806 15807 28
12646 15806 15808 28
12647 15806 15809 28
12648 15806 15810 28
12649 15811 15812 28
12650 15811 15813 28
12651 15811 15814 28
12652 15811 15815 28
12653 15816 15817 28
12654 15816 15818 28
12655 15816 15819 28
12656 15816 15820 28
12657 15821 15822 28
12658 15821 15823 28
12659 15821 15824 28
12660 15821 15825 28
12661 15826 15827 28
12662 15826 15828 28
12663 15826 15829 28
12664 15826 15830 28
12665 15831 15832 28
12666 15831 15833 28
12667 15831 15834 28
12668 15831 15835 28
12669 15836 15837 28
12670 15836 15838 28
12671 15836 15839 28
12672 15836 15840 28
12673 15841 15842 28
12674 15841 15843 28
12675 15841 15844 28
12676 15841 15845 28
12677 15846 15847 28
12678 15846 15848 28
12679 15846 15849 28
12680 15846 15850 28
12681 15851 15852 28
12682 15851 15853 28
12683 15851 15854 28
12684 15851 15855 28
12685 15856 15857 28
12686 15856 15858 28
12687 15856 15859 28
12688 15856 15860 28
12689 15861 15862 28
12690 15861 15863 28
12691 15861 15864 28
12692 15861 15865 28
12693 15866 15867 28
12694 15866 15868 28
12695 15866 15869 28
12696 15866 15870 28
12697 15871 15872 28
12698 15871 15873 28
12699 15871 15874 28
12700 15871 15875 28
12701 15876 15877 28
12702 15876 15878 28
12703 15876 15879 28
12704 15876 15880 28
12705 15881 15882 28
12706 15881 15883 28
12707 15881 15884 28
12708 15881 15885 28
12709 15886 15887 28
12710 15886 15888 28
12711 15886 15889 28
12712 15886 15890 28
12713 15891 15892 28
12714 15891 15893 28
12715 15891 15894 28
12716 15891 15895 28
12717 15896 15897 28
12718 15896 15898 28
12719 15896 15899 28
12720 15896 15900 28
12721 15901 15902 28
12722 15901 15903 28
12723 15901 15904 28
12724 15901 15905 28
12725 15906 15907 28
12726 15906 15908 28
12727 15906 15909 28
12728 15906 15910 28
12729 15911 15912 28
12730 15911 15913 28
12731 15911 15914 28
12732 15911 15915 28
12733 15916 15917 28
12734 15916 15918 28
12735 15916 15919 28
12736 15916 15920 28
12737 15921 15922 28
12738 15921 15923 28
12739 15921 15924 28
12740 15921 15925 28
12741 15926 15927 28
12742 15926 15928 28
12743 15926 15929 28
12744 15926 15930 28
12745 15931 15932 28
12746 15931 15933 28
12747 15931 15934 28
12748 15931 15935 28
12749 15936 15937 28
12750 15936 15938 28
12751 15936 15939 28
12752 15936 15940 28
12753 15941 15942 28
12754 15941 15943 28
12755 15941 15944 28
12756 15941 15945 28
12757 15946 15947 28
12758 15946 15948 28
12759 15946 15949 28
12760 15946 15950 28
12761 15951 15952 28
12762 15951 15953 28
12763 15951 15954 28
12764 15951 15955 28
12765 15956 15957 28
12766 15956 15958 28
12767 15956 15959 28
12768 15956 15960 28
12769 15961 15962 28
12770 15961 15963 28
12771 15961 15964 28
12772 15961 15965 28
12773 15966 15967 28
12774 15966 15968 28
12775 15966 15969 28
12776 15966 15970 28
12777 15971 15972 28
12778 15971 15973 28
12779 15971 15974 28
12780 15971 15975 28
12781 15976 15977 28
12782 15976 15978 28
12783 15976 15979 28
12784 15976 15980 28
12785 15981 15982 28
12786 15981 15983 28
12787 15981 15984 28
12788 15981 15985 28
12789 15986 15987 28
12790 15986 15988 28
12791 15986 15989 28
12792 15986 15990 28
12793 15991 15992 28
12794 15991 15993 28
12795 15991 15994 28
12796 15991 15995 28
12797 15996 15997 28
12798 15996 15998 28
12799 15996 15999 28
12800 15996 16000 28
12801 16001 16002 28
12802 16001 16003 28
12803 16001 16004 28
12804 16001 16005 28
12805 16006 16007 28
12806 16006 16008 28
12807 16006 16009 28
12808 16006 16010 28
12809 16011 16012 28
12810 16011 16013 28
12811 16011 16014 28
12812 16011 16015 28
12813 16016 16017 28
12814 16016 16018 28
12815 16016 16019 28
12816 16016 16020 28
12817 16021 16022 28
12818 16021 16023 28
12819 16021 16024 28
12820 16021 16025 28
12821 16026 16027 28
12822 16026 16028 28
12823 16026 16029 28
12824 16026 16030 28
12825 16031 16032 28
12826 16031 16033 28
12827 16031 16034 28
12828 16031 16035 28
12829 16036 16037 28
12830 16036 16038 28
12831 16036 16039 28
12832 16036 16040 28
12833 16041 16042 28
12834 16041 16043 28
12835 16041 16044 28
12836 16041 16045 28
12837 16046 16047 28
12838 16046 16048 28
12839 16046 16049 28
12840 16046 16050 28
12841 16051 16052 28
12842 16051 16053 28
12843 16051 16054 28
12844 16051 16055 28
12845 16056 16057 28
12846 16056 16058 28
12847 16056 16059 28
12848 16056 16060 28
12849 16061 16062 28
12850 16061 16063 28
12851 16061 16064 28
12852 16061 16065 28
12853 16066 16067 28
12854 16066 16068 28
12855 16066 16069 28
12856 16066 16070 28
12857 16071 16072 28
12858 16071 16073 28
12859 16071 16074 28
12860 16071 16075 28
12861 16076 16077 28
12862 16076 16078 28
12863 16076 16079 28
12864 16076 16080 28
12865 16081 16082 28
12866 16081 16083 28
12867 16081 16084 28
12868 16081 16085 28
12869 16086 16087 28
12870 16086 16088 28
12871 16086 16089 28
12872 16086 16090 28
12873 16091 16092 28
12874 16091 16093 28
12875 16091 16094 28
12876 16091 16095 28
12877 16096 16097 28
12878 16096 16098 28
12879 16096 16099 28
12880 16096 16100 28
12881 16101 16102 28
12882 16101 16103 28
12883 16101 16104 28
12884 16101 16105 28
12885 16106 16107 28
12886 16106 16108 28
12887 16106 16109 28
12888 16106 16110 28
12889 16111 16112 28
12890 16111 16113 28
12891 16111 16114 28
12892 16111 16115 28
12893 16116 16117 28
12894 16116 16118 28
12895 16116 16119 28
12896 16116 16120 28
12897 16121 16122 28
12898 16121 16123 28
12899 16121 16124 28
12900 16121 16125 28
12901 16126 16127 28
12902 16126 16128 28
12903 16126 16129 28
12904 16126 16130 28
12905 16131 16132 28
12906 16131 16133 28
12907 16131 16134 28
12908 16131 16135 28
12909 16136 16137 28
12910 16136 16138 28
12911 16136 16139 28
12912 16136 16140 28
12913 16141 16142 28
12914 16141 16143 28
12915 16141 16144 28
12916 16141 16145 28
12917 16146 16147 28
12918 16146 16148 28
12919 16146 16149 28
12920 16146 16150 28
12921 16151 16152 28
12922 16151 16153 28
12923 16151 16154 28
12924 16151 16155 28
12925 16156 16157 28
12926 16156 16158 28
12927 16156 16159 28
12928 16156 16160 28
12929 16161 16162 28
12930 16161 16163 28
12931 16161 16164 28
12932 16161 16165 28
12933 16166 16167 28
12934 16166 16168 28
12935 16166 16169 28
12936 16166 16170 28
12937 16171 16172 28
12938 16171 16173 28
12939 16171 16174 28
12940 16171 16175 28
12941 16176 16177 28
12942 16176 16178 28
12943 16176 16179 28
12944 16176 16180 28
12945 16181 16182 28
12946 16181 16183 28
12947 16181 16184 28
12948 16181 16185 28
12949 16186 16187 28
12950 16186 16188 28
12951 16186 16189 28
12952 16186 16190 28
12953 16191 16192 28
12954 16191 16193 28
12955 16191 16194 28
12956 16191 16195 28
12957 16196 16197 28
12958 16196 16198 28
12959 16196 16199 28
12960 16196 16200 28
12961 16201 16202 28
12962 16201 16203 28
12963 16201 16204 28
12964 16201 16205 28
12965 16206 16207 28
12966 16206 16208 28
12967 16206 16209 28
12968 16206 16210 28
12969 16211 16212 28
12970 16211 16213 28
12971 16211 16214 28
12972 16211 16215 28
12973 16216 16217 28
12974 16216 16218 28
12975 16216 16219 28
12976 16216 16220 28
12977 16221 16222 28
12978 16221 16223 28
12979 16221 16224 28
12980 16221 16225 28
12981 16226 16227 28
12982 16226 16228 28
12983 16226 16229 28
12984 16226 16230 28
12985 16231 16232 28
12986 16231 16233 28
12987 16231 16234 28
12988 16231 16235 28
12989 16236 16237 28
12990 16236 16238 28
12991 16236 16239 28
12992 16236 16240 28
12993 16241 16242 28
12994 16241 16243 28
12995 16241 16244 28
12996 16241 16245 28
12997 16246 16247 28
12998 16246 16248 28
12999 16246 16249 28
13000 16246 16250 28
13001 16251 16252 28
13002 16251 16253 28
13003 16251 16254 28
13004 16251 16255 28
13005 16256 16257 28
13006 16256 16258 28
13007 16256 16259 28
13008 16256 16260 28
13009 16261 16262 28
13010 16261 16263 28
13011 16261 16264 28
13012 16261 16265 28
13013 16266 16267 28
13014 16266 16268 28
13015 16266 16269 28
13016 16266 16270 28
13017 16271 16272 28
13018 16271 16273 28
13019 16271 16274 28
13020 16271 16275 28
13021 16276 16277 28
13022 16276 16278 28
13023 16276 16279 28
13024 16276 16280 28
13025 16281 16282 28
13026 16281 16283 28
13027 16281 16284 28
13028 16281 16285 28
13029 16286 16287 28
13030 16286 16288 28
13031 16286 16289 28
13032 16286 16290 28
13033 16291 16292 28
13034 16291 16293 28
13035 16291 16294 28
13036 16291 16295 28
13037 16296 16297 28
13038 16296 16298 28
13039 16296 16299 28
13040 16296 16300 28
13041 16301 16302 28
13042 16301 16303 28
13043 16301 16304 28
13044 16301 16305 28
13045 16306 16307 28
13046 16306 16308 28
13047 16306 16309 28
13048 16306 16310 28
13049 16311 16312 28
13050 16311 16313 28
13051 16311 16314 28
13052 16311 16315 28
13053 16316 16317 28
13054 16316 16318 28
13055 16316 16319 28
13056 16316 16320 28
13057 16321 16322 28
13058 16321 16323 28
13059 16321 16324 28
13060 16321 16325 28
13061 16326 16327 28
13062 16326 16328 28
13063 16326 16329 28
13064 16326 16330 28
13065 16331 16332 28
13066 16331 16333 28
13067 16331 16334 28
13068 16331 16335 28
13069 16336 16337 28
13070 16336 16338 28
13071 16336 16339 28
13072 16336 16340 28
13073 16341 16342 28
13074 16341 16343 28
13075 16341 16344 28
13076 16341 16345 28
13077 16346 16347 28
13078 16346 16348 28
13079 16346 16349 28
13080 16346 16350 28
13081 16351 16352 28
13082 16351 16353 28
13083 16351 16354 28
13084 16351 16355 28
13085 16356 16357 28
13086 16356 16358 28
13087 16356 16359 28
13088 16356 16360 28
13089 16361 16362 28
13090 16361 16363 28
13091 16361 16364 28
13092 16361 16365 28
13093 16366 16367 28
13094 16366 16368 28
13095 16366 16369 28
13096 16366 16370 28
13097 16371 16372 28
13098 16371 16373 28
13099 16371 16374 28
13100 16371 16375 28
13101 16376 16377 28
13102 16376 16378 28
13103 16376 16379 28
13104 16376 16380 28
13105 16381 16382 28
13106 16381 16383 28
13107 16381 16384 28
13108 16381 16385 28
13109 16386 16387 28
13110 16386 16388 28
13111 16386 16389 28
13112 16386 16390 28
13113 16391 16392 28
13114 16391 16393 28
13115 16391 16394 28
13116 16391 16395 28
13117 16396 16397 28
13118 16396 16398 28
13119 16396 16399 28
13120 16396 16400 28
13121 16401 16402 28
13122 16401 16403 28
13123 16401 16404 28
13124 16401 16405 28
13125 16406 16407 28
13126 16406 16408 28
13127 16406 16409 28
13128 16406 16410 28
13129 16411 16412 28
13130 16411 16413 28
13131 16411 16414 28
13132 16411 16415 28
13133 16416 16417 28
13134 16416 16418 28
13135 16416 16419 28
13136 16416 16420 28
13137 16421 16422 28
13138 16421 16423 28
13139 16421 16424 28
13140 16421 16425 28
13141 16426 16427 28
13142 16426 16428 28
13143 16426 16429 28
13144 16426 16430 28
13145 16431 16432 28
13146 16431 16433 28
13147 16431 16434 28
13148 16431 16435 28
13149 16436 16437 28
13150 16436 16438 28
13151 16436 16439 28
13152 16436 16440 28
13153 16441 16442 28
13154 16441 16443 28
13155 16441 16444 28
13156 16441 16445 28
13157 16446 16447 28
13158 16446 16448 28
13159 16446 16449 28
13160 16446 16450 28
13161 16451 16452 28
13162 16451 16453 28
13163 16451 16454 28
13164 16451 16455 28
13165 16456 16457 28
13166 16456 16458 28
13167 16456 16459 28
13168 16456 16460 28
13169 16461 16462 28
13170 16461 16463 28
13171 16461 16464 28
13172 16461 16465 28
13173 16466 16467 28
13174 16466 16468 28
13175 16466 16469 28
13176 16466 16470 28
13177 16471 16472 28
13178 16471 16473 28
13179 16471 16474 28
13180 16471 16475 28
13181 16476 16477 28
13182 16476 16478 28
13183 16476 16479 28
13184 16476 16480 28
13185 16481 16482 28
13186 16481 16483 28
13187 16481 16484 28
13188 16481 16485 28
13189 16486 16487 28
13190 16486 16488 28
13191 16486 16489 28
13192 16486 16490 28
13193 16491 16492 28
13194 16491 16493 28
13195 16491 16494 28
13196 16491 16495 28
13197 16496 16497 28
13198 16496 16498 28
13199 16496 16499 28
13200 16496 16500 28
13201 16501 16502 28
13202 16501 16503 28
13203 16501 16504 28
13204 16501 16505 28
13205 16506 16507 28
13206 16506 16508 28
13207 16506 16509 28
13208 16506 16510 28
13209 16511 16512 28
13210 16511 16513 28
13211 16511 16514 28
13212 16511 16515 28
13213 16516 16517 28
13214 16516 16518 28
13215 16516 16519 28
13216 16516 16520 28
13217 16521 16522 28
13218 16521 16523 28
13219 16521 16524 28
13220 16521 16525 28
13221 16526 16527 28
13222 16526 16528 28
13223 16526 16529 28
13224 16526 16530 28
13225 16531 16532 28
13226 16531 16533 28
13227 16531 16534 28
13228 16531 16535 28
13229 16536 16537 28
13230 16536 16538 28
13231 16536 16539 28
13232 16536 16540 28
13233 16541 16542 28
13234 16541 16543 28
13235 16541 16544 28
13236 16541 16545 28
13237 16546 16547 28
13238 16546 16548 28
13239 16546 16549 28
13240 16546 16550 28
13241 16551 16552 28
13242 16551 16553 28
13243 16551 16554 28
13244 16551 16555 28
13245 16556 16557 28
13246 16556 16558 28
13247 16556 16559 28
13248 16556 16560 28
13249 16561 16562 28
13250 16561 16563 28
13251 16561 16564 28
13252 16561 16565 28
13253 16566 16567 28
13254 16566 16568 28
13255 16566 16569 28
13256 16566 16570 28
13257 16571 16572 28
13258 16571 16573 28
13259 16571 16574 28
13260 16571 16575 28
13261 16576 16577 28
13262 16576 16578 28
13263 16576 16579 28
13264 16576 16580 28
13265 16581 16582 28
13266 16581 16583 28
13267 16581 16584 28
13268 16581 16585 28
13269 16586 16587 28
13270 16586 16588 28
13271 16586 16589 28
13272 16586 16590 28
13273 16591 16592 28
13274 16591 16593 28
13275 16591 16594 28
13276 16591 16595 28
13277 16596 16597 28
13278 16596 16598 28
13279 16596 16599 28
13280 16596 16600 28
13281 16601 16602 28
13282 16601 16603 28
13283 16601 16604 28
13284 16601 16605 28
13285 16606 16607 28
13286 16606 16608 28
13287 16606 16609 28
13288 16606 16610 28
13289 16611 16612 28
13290 16611 16613 28
13291 16611 16614 28
13292 16611 16615 28
13293 16616 16617 28
13294 16616 16618 28
13295 16616 16619 28
13296 16616 16620 28
13297 16621 16622 28
13298 16621 16623 28
13299 16621 16624 28
13300 16621 16625 28
13301 16626 16627 28
13302 16626 16628 28
13303 16626 16629 28
13304 16626 16630 28
13305 16631 16632 28
13306 16631 16633 28
13307 16631 16634 28
13308 16631 16635 28
13309 16636 16637 28
13310 16636 16638 28
13311 16636 16639 28
13312 16636 16640 28
13313 16641 16642 28
13314 16641 16643 28
13315 16641 16644 28
13316 16641 16645 28
13317 16646 16647 28
13318 16646 16648 28
13319 16646 16649 28
13320 16646 16650 28
13321 16651 16652 28
13322 16651 16653 28
13323 16651 16654 28
13324 16651 16655 28
13325 16656 16657 28
13326 16656 16658 28
13327 16656 16659 28
13328 16656 16660 28
13329 16661 16662 28
13330 16661 16663 28
13331 16661 16664 28
13332 16661 16665 28
13333 16666 16667 28
13334 16666 16668 28
13335 16666 16669 28
13336 16666 16670 28
13337 16671 16672 28
13338 16671 16673 28
13339 16671 16674 28
13340 16671 16675 28
13341 16676 16677 28
13342 16676 16678 28
13343 16676 16679 28
13344 16676 16680 28
13345 16681 16682 28
13346 16681 16683 28
13347 16681 16684 28
13348 16681 16685 28
13349 16686 16687 28
13350 16686 16688 28
13351 16686 16689 28
13352 16686 16690 28
13353 16691 16692 28
13354 16691 16693 28
13355 16691 16694 28
13356 16691 16695 28
13357 16696 16697 28
13358 16696 16698 28
13359 16696 16699 28
13360 16696 16700 28
13361 16701 16702 28
13362 16701 16703 28
13363 16701 16704 28
13364 16701 16705 28
13365 16706 16707 28
13366 16706 16708 28
13367 16706 16709 28
13368 16706 16710 28
13369 16711 16712 28
13370 16711 16713 28
13371 16711 16714 28
13372 16711 16715 28
13373 16716 16717 28
13374 16716 16718 28
13375 16716 16719 28
13376 16716 16720 28
13377 16721 16722 28
13378 16721 16723 28
13379 16721 16724 28
13380 16721 16725 28
13381 16726 16727 28
13382 16726 16728 28
13383 16726 16729 28
13384 16726 16730 28
13385 16731 16732 28
13386 16731 16733 28
13387 16731 16734 28
13388 16731 16735 28
13389 16736 16737 28
13390 16736 16738 28
13391 16736 16739 28
13392 16736 16740 28
13393 16741 16742 28
13394 16741 16743 28
13395 16741 16744 28
13396 16741 16745 28
13397 16746 16747 28
13398 16746 16748 28
13399 16746 16749 28
13400 16746 16750 28
13401 16751 16752 28
13402 16751 16753 28
13403 16751 16754 28
13404 16751 16755 28
13405 16756 16757 28
13406 16756 16758 28
13407 16756 16759 28
13408 16756 16760 28
13409 16761 16762 28
13410 16761 16763 28
13411 16761 16764 28
13412 16761 16765 28
13413 16766 16767 28
13414 16766 16768 28
13415 16766 16769 28
13416 16766 16770 28
13417 16771 16772 28
13418 16771 16773 28
13419 16771 16774 28
13420 16771 16775 28
13421 16776 16777 28
13422 16776 16778 28
13423 16776 16779 28
13424 16776 16780 28
13425 16781 16782 28
13426 16781 16783 28
13427 16781 16784 28
13428 16781 16785 28
13429 16786 16787 28
13430 16786 16788 28
13431 16786 16789 28
13432 16786 16790 28
13433 16791 16792 28
13434 16791 16793 28
13435 16791 16794 28
13436 16791 16795 28
13437 16796 16797 28
13438 16796 16798 28
13439 16796 16799 28
13440 16796 16800 28
13441 16801 16802 28
13442 16801 16803 28
13443 16801 16804 28
13444 16801 16805 28
13445 16806 16807 28
13446 16806 16808 28
13447 16806 16809 28
13448 16806 16810 28
13449 16811 16812 28
13450 16811 16813 28
13451 16811 16814 28
13452 16811 16815 28
13453 16816 16817 28
13454 16816 16818 28
13455 16816 16819 28
13456 16816 16820 28
13457 16821 16822 28
13458 16821 16823 28
13459 16821 16824 28
13460 16821 16825 28
13461 16826 16827 28
13462 16826 16828 28
13463 16826 16829 28
13464 16826 16830 28
13465 16831 16832 28
13466 16831 16833 28
13467 16831 16834 28
13468 16831 16835 28
13469 16836 16837 28
13470 16836 16838 28
13471 16836 16839 28
13472 16836 16840 28
13473 16841 16842 28
13474 16841 16843 28
13475 16841 16844 28
13476 16841 16845 28
13477 16846 16847 28
13478 16846 16848 28
13479 16846 16849 28
13480 16846 16850 28
13481 16851 16852 28
13482 16851 16853 28
13483 16851 16854 28
13484 16851 16855 28
13485 16856 16857 28
13486 16856 16858 28
13487 16856 16859 28
13488 16856 16860 28
13489 16861 16862 28
13490 16861 16863 28
13491 16861 16864 28
13492 16861 16865 28
13493 16866 16867 28
13494 16866 16868 28
13495 16866 16869 28
13496 16866 16870 28
13497 16871 16872 28
13498 16871 16873 28
13499 16871 16874 28
13500 16871 16875 28
13501 16876 16877 28
13502 16876 16878 28
13503 16876 16879 28
13504 16876 16880 28
13505 16881 16882 28
13506 16881 16883 28
13507 16881 16884 28
13508 16881 16885 28
13509 16886 16887 28
13510 16886 16888 28
13511 16886 16889 28
13512 16886 16890 28
13513 16891 16892 28
13514 16891 16893 28
13515 16891 16894 28
13516 16891 16895 28
13517 16896 16897 28
13518 16896 16898 28
13519 16896 16899 28
13520 16896 16900 28
13521 16901 16902 28
13522 16901 16903 28
13523 16901 16904 28
13524 16901 16905 28
13525 16906 16907 28
13526 16906 16908 28
13527 16906 16909 28
13528 16906 16910 28
13529 16911 16912 28
13530 16911 16913 28
13531 16911 16914 28
13532 16911 16915 28
13533 16916 16917 28
13534 16916 16918 28
13535 16916 16919 28
13536 16916 16920 28
13537 16921 16922 28
13538 16921 16923 28
13539 16921 16924 28
13540 16921 16925 28
13541 16926 16927 28
13542 16926 16928 28
13543 16926 16929 28
13544 16926 16930 28
13545 16931 16932 28
13546 16931 16933 28
13547 16931 16934 28
13548 16931 16935 28
13549 16936 16937 28
13550 16936 16938 28
13551 16936 16939 28
13552 16936 16940 28
13553 16941 16942 28
13554 16941 16943 28
13555 16941 16944 28
13556 16941 16945 28
13557 16946 16947 28
13558 16946 16948 28
13559 16946 16949 28
13560 16946 16950 28
13561 16951 16952 28
13562 16951 16953 28
13563 16951 16954 28
13564 16951 16955 28
13565 16956 16957 28
13566 16956 16958 28
13567 16956 16959 28
13568 16956 16960 28
13569 16961 16962 28
13570 16961 16963 28
13571 16961 16964 28
13572 16961 16965 28
13573 16966 16967 28
13574 16966 16968 28
13575 16966 16969 28
13576 16966 16970 28
13577 16971 16972 28
13578 16971 16973 28
13579 16971 16974 28
13580 16971 16975 28
13581 16976 16977 28
13582 16976 16978 28
13583 16976 16979 28
13584 16976 16980 28
13585 16981 16982 28
13586 16981 16983 28
13587 16981 16984 28
13588 16981 16985 28
13589 16986 16987 28
13590 16986 16988 28
13591 16986 16989 28
13592 16986 16990 28
13593 16991 16992 28
13594 16991 16993 28
13595 16991 16994 28
13596 16991 16995 28
13597 16996 16997 28
13598 16996 16998 28
13599 16996 16999 28
13600 16996 17000 28
13601 17001 17002 28
13602 17001 17003 28
13603 17001 17004 28
13604 17001 17005 28
13605 17006 17007 28
13606 17006 17008 28
13607 17006 17009 28
13608 17006 17010 28
13609 17011 17012 28
13610 17011 17013 28
13611 17011 17014 28
13612 17011 17015 28
13613 17016 17017 28
13614 17016 17018 28
13615 17016 17019 28
13616 17016 17020 28
13617 17021 17022 28
13618 17021 17023 28
13619 17021 17024 28
13620 17021 17025 28
13621 17026 17027 28
13622 17026 17028 28
13623 17026 17029 28
13624 17026 17030 28
13625 17031 17032 28
13626 17031 17033 28
13627 17031 17034 28
13628 17031 17035 28
13629 17036 17037 28
13630 17036 17038 28
13631 17036 17039 28
13632 17036 17040 28
13633 17041 17042 28
13634 17041 17043 28
13635 17041 17044 28
13636 17041 17045 28
13637 17046 17047 28
13638 17046 17048 28
13639 17046 17049 28
13640 17046 17050 28
13641 17051 17052 28
13642 17051 17053 28
13643 17051 17054 28
13644 17051 17055 28
13645 17056 17057 28
13646 17056 17058 28
13647 17056 17059 28
13648 17056 17060 28
13649 17061 17062 28
13650 17061 17063 28
13651 17061 17064 28
13652 17061 17065 28
13653 17066 17067 28
13654 17066 17068 28
13655 17066 17069 28
13656 17066 17070 28
13657 17071 17072 28
13658 17071 17073 28
13659 17071 17074 28
13660 17071 17075 28
13661 17076 17077 28
13662 17076 17078 28
13663 17076 17079 28
13664 17076 17080 28
13665 17081 17082 28
13666 17081 17083 28
13667 17081 17084 28
13668 17081 17085 28
13669 17086 17087 28
13670 17086 17088 28
13671 17086 17089 28
13672 17086 17090 28
13673 17091 17092 28
13674 17091 17093 28
13675 17091 17094 28
13676 17091 17095 28
13677 17096 17097 28
13678 17096 17098 28
13679 17096 17099 28
13680 17096 17100 28
13681 17101 17102 28
13682 17101 17103 28
13683 17101 17104 28
13684 17101 17105 28
13685 17106 17107 28
13686 17106 17108 28
13687 17106 17109 28
13688 17106 17110 28
13689 17111 17112 28
13690 17111 17113 28
13691 17111 17114 28
13692 17111 17115 28
13693 17116 17117 28
13694 17116 17118 28
13695 17116 17119 28
13696 17116 17120 28
13697 17121 17122 28
13698 17121 17123 28
13699 17121 17124 28
13700 17121 17125 28
13701 17126 17127 28
13702 17126 17128 28
13703 17126 17129 28
13704 17126 17130 28
13705 17131 17132 28
13706 17131 17133 28
13707 17131 17134 28
13708 17131 17135 28
13709 17136 17137 28
13710 17136 17138 28
13711 17136 17139 28
13712 17136 17140 28
13713 17141 17142 28
13714 17141 17143 28
13715 17141 17144 28
13716 17141 17145 28
13717 17146 17147 28
13718 17146 17148 28
13719 17146 17149 28
13720 17146 17150 28
13721 17151 17152 28
13722 17151 17153 28
13723 17151 17154 28
13724 17151 17155 28
13725 17156 17157 28
13726 17156 17158 28
13727 17156 17159 28
13728 17156 17160 28
13729 17161 17162 28
13730 17161 17163 28
13731 17161 17164 28
13732 17161 17165 28
13733 17166 17167 28
13734 17166 17168 28
13735 17166 17169 28
13736 17166 17170 28
13737 17171 17172 28
13738 17171 17173 28
13739 17171 17174 28
13740 17171 17175 28
13741 17176 17177 28
13742 17176 17178 28
13743 17176 17179 28
13744 17176 17180 28
13745 17181 17182 28
13746 17181 17183 28
13747 17181 17184 28
13748 17181 17185 28
13749 17186 17187 28
13750 17186 17188 28
13751 17186 17189 28
13752 17186 17190 28
13753 17191 17192 28
13754 17191 17193 28
13755 17191 17194 28
13756 17191 17195 28
13757 17196 17197 28
13758 17196 17198 28
13759 17196 17199 28
13760 17196 17200 28
13761 17201 17202 28
13762 17201 17203 28
13763 17201 17204 28
13764 17201 17205 28
13765 17206 17207 28
13766 17206 17208 28
13767 17206 17209 28
13768 17206 17210 28
13769 17211 17212 28
13770 17211 17213 28
13771 17211 17214 28
13772 17211 17215 28
13773 17216 17217 28
13774 17216 17218 28
13775 17216 17219 28
13776 17216 17220 28
13777 17221 17222 28
13778 17221 17223 28
13779 17221 17224 28
13780 17221 17225 28
13781 17226 17227 28
13782 17226 17228 28
13783 17226 17229 28
13784 17226 17230 28
13785 17231 17232 28
13786 17231 17233 28
13787 17231 17234 28
13788 17231 17235 28
13789 17236 17237 28
13790 17236 17238 28
13791 17236 17239 28
13792 17236 17240 28
13793 17241 17242 28
13794 17241 17243 28
13795 17241 17244 28
13796 17241 17245 28
13797 17246 17247 28
13798 17246 17248 28
13799 17246 17249 28
13800 17246 17250 28
13801 17251 17252 28
13802 17251 17253 28
13803 17251 17254 28
13804 17251 17255 28
13805 17256 17257 28
13806 17256 17258 28
13807 17256 17259 28
13808 17256 17260 28
13809 17261 17262 28
13810 17261 17263 28
13811 17261 17264 28
13812 17261 17265 28
13813 17266 17267 28
13814 17266 17268 28
13815 17266 17269 28
13816 17266 17270 28
13817 17271 17272 28
13818 17271 17273 28
13819 17271 17274 28
13820 17271 17275 28
13821 17276 17277 28
13822 17276 17278 28
13823 17276 17279 28
13824 17276 17280 28
13825 17281 17282 28
13826 17281 17283 28
13827 17281 17284 28
13828 17281 17285 28
13829 17286 17287 28
13830 17286 17288 28
13831 17286 17289 28
13832 17286 17290 28
13833 17291 17292 28
13834 17291 17293 28
13835 17291 17294 28
13836 17291 17295 28
13837 17296 17297 28
13838 17296 17298 28
13839 17296 17299 28
13840 17296 17300 28
13841 17301 17302 28
13842 17301 17303 28
13843 17301 17304 28
13844 17301 17305 28
13845 17306 17307 28
13846 17306 17308 28
13847 17306 17309 28
13848 17306 17310 28
13849 17311 17312 28
13850 17311 17313 28
13851 17311 17314 28
13852 17311 17315 28
13853 17316 17317 28
13854 17316 17318 28
13855 17316 17319 28
13856 17316 17320 28
13857 17321 17322 28
13858 17321 17323 28
13859 17321 17324 28
13860 17321 17325 28
13861 17326 17327 28
13862 17326 17328 28
13863 17326 17329 28
13864 17326 17330 28
13865 17331 17332 28
13866 17331 17333 28
13867 17331 17334 28
13868 17331 17335 28
13869 17336 17337 28
13870 17336 17338 28
13871 17336 17339 28
13872 17336 17340 28
13873 17341 17342 28
13874 17341 17343 28
13875 17341 17344 28
13876 17341 17345 28
13877 17346 17347 28
13878 17346 17348 28
13879 17346 17349 28
13880 17346 17350 28
13881 17351 17352 28
13882 17351 17353 28
13883 17351 17354 28
13884 17351 17355 28
13885 17356 17357 28
13886 17356 17358 28
13887 17356 17359 28
13888 17356 17360 28
13889 17361 17362 28
13890 17361 17363 28
13891 17361 17364 28
13892 17361 17365 28
13893 17366 17367 28
13894 17366 17368 28
13895 17366 17369 28
13896 17366 17370 28
13897 17371 17372 28
13898 17371 17373 28
13899 17371 17374 28
13900 17371 17375 28
13901 17376 17377 28
13902 17376 17378 28
13903 17376 17379 28
13904 17376 17380 28
13905 17381 17382 28
13906 17381 17383 28
13907 17381 17384 28
13908 17381 17385 28
13909 17386 17387 28
13910 17386 17388 28
13911 17386 17389 28
13912 17386 17390 28
13913 17391 17392 28
13914 17391 17393 28
13915 17391 17394 28
13916 17391 17395 28
13917 17396 17397 28
13918 17396 17398 28
13919 17396 17399 28
13920 17396 17400 28
13921 17401 17402 28
13922 17401 17403 28
13923 17401 17404 28
13924 17401 17405 28
13925 17406 17407 28
13926 17406 17408 28
13927 17406 17409 28
13928 17406 17410 28
13929 17411 17412 28
13930 17411 17413 28
13931 17411 17414 28
13932 17411 17415 28
13933 17416 17417 28
13934 17416 17418 28
13935 17416 17419 28
13936 17416 17420 28
13937 17421 17422 28
13938 17421 17423 28
13939 17421 17424 28
13940 17421 17425 28
13941 17426 17427 28
13942 17426 17428 28
13943 17426 17429 28
13944 17426 17430 28
13945 17431 17432 28
13946 17431 17433 28
13947 17431 17434 28
13948 17431 17435 28
13949 17436 17437 28
13950 17436 17438 28
13951 17436 17439 28
13952 17436 17440 28
13953 17441 17442 28
13954 17441 17443 28
13955 17441 17444 28
13956 17441 17445 28
13957 17446 17447 28
13958 17446 17448 28
13959 17446 17449 28
13960 17446 17450 28
13961 17451 17452 28
13962 17451 17453 28
13963 17451 17454 28
13964 17451 17455 28
13965 17456 17457 28
13966 17456 17458 28
13967 17456 17459 28
13968 17456 17460 28
13969 17461 17462 28
13970 17461 17463 28
13971 17461 17464 28
13972 17461 17465 28
13973 17466 17467 28
13974 17466 17468 28
13975 17466 17469 28
13976 17466 17470 28
13977 17471 17472 28
13978 17471 17473 28
13979 17471 17474 28
13980 17471 17475 28
13981 17476 17477 28
13982 17476 17478 28
13983 17476 17479 28
13984 17476 17480 28
13985 17481 17482 28
13986 17481 17483 28
13987 17481 17484 28
13988 17481 17485 28
13989 17486 17487 28
13990 17486 17488 28
13991 17486 17489 28
13992 17486 17490 28
13993 17491 17492 28
13994 17491 17493 28
13995 17491 17494 28
13996 17491 17495 28
13997 17496 17497 28
13998 17496 17498 28
13999 17496 17499 28
14000 17496 17500 28
14001 17501 17502 28
14002 17501 17503 28
14003 17501 17504 28
14004 17501 17505 28
14005 17506 17507 28
14006 17506 17508 28
14007 17506 17509 28
14008 17506 17510 28
14009 17511 17512 28
14010 17511 17513 28
14011 17511 17514 28
14012 17511 17515 28
14013 17516 17517 28
14014 17516 17518 28
14015 17516 17519 28
14016 17516 17520 28
14017 17521 17522 28
14018 17521 17523 28
14019 17521 17524 28
14020 17521 17525 28
14021 17526 17527 28
14022 17526 17528 28
14023 17526 17529 28
14024 17526 17530 28
14025 17531 17532 28
14026 17531 17533 28
14027 17531 17534 28
14028 17531 17535 28
14029 17536 17537 28
14030 17536 17538 28
14031 17536 17539 28
14032 17536 17540 28
14033 17541 17542 28
14034 17541 17543 28
14035 17541 17544 28
14036 17541 17545 28
14037 17546 17547 28
14038 17546 17548 28
14039 17546 17549 28
14040 17546 17550 28
14041 17551 17552 28
14042 17551 17553 28
14043 17551 17554 28
14044 17551 17555 28
14045 17556 17557 28
14046 17556 17558 28
14047 17556 17559 28
14048 17556 17560 28
14049 17561 17562 28
14050 17561 17563 28
14051 17561 17564 28
14052 17561 17565 28
14053 17566 17567 28
14054 17566 17568 28
14055 17566 17569 28
14056 17566 17570 28
14057 17571 17572 28
14058 17571 17573 28
14059 17571 17574 28
14060 17571 17575 28
14061 17576 17577 28
14062 17576 17578 28
14063 17576 17579 28
14064 17576 17580 28
14065 17581 17582 28
14066 17581 17583 28
14067 17581 17584 28
14068 17581 17585 28
14069 17586 17587 28
14070 17586 17588 28
14071 17586 17589 28
14072 17586 17590 28
14073 17591 17592 28
14074 17591 17593 28
14075 17591 17594 28
14076 17591 17595 28
14077 17596 17597 28
14078 17596 17598 28
14079 17596 17599 28
14080 17596 17600 28
14081 17601 17602 28
14082 17601 17603 28
14083 17601 17604 28
14084 17601 17605 28
14085 17606 17607 28
14086 17606 17608 28
14087 17606 17609 28
14088 17606 17610 28
14089 17611 17612 28
14090 17611 17613 28
14091 17611 17614 28
14092 17611 17615 28
14093 17616 17617 28
14094 17616 17618 28
14095 17616 17619 28
14096 17616 17620 28
14097 17621 17622 28
14098 17621 17623 28
14099 17621 17624 28
14100 17621 17625 28
14101 17626 17627 28
14102 17626 17628 28
14103 17626 17629 28
14104 17626 17630 28
14105 17631 17632 28
14106 17631 17633 28
14107 17631 17634 28
14108 17631 17635 28
14109 17636 17637 28
14110 17636 17638 28
14111 17636 17639 28
14112 17636 17640 28
14113 17641 17642 28
14114 17641 17643 28
14115 17641 17644 28
14116 17641 17645 28
14117 17646 17647 28
14118 17646 17648 28
14119 17646 17649 28
14120 17646 17650 28
14121 17651 17652 28
14122 17651 17653 28
14123 17651 17654 28
14124 17651 17655 28
14125 17656 17657 28
14126 17656 17658 28
14127 17656 17659 28
14128 17656 17660 28
14129 17661 17662 28
14130 17661 17663 28
14131 17661 17664 28
14132 17661 17665 28
14133 17666 17667 28
14134 17666 17668 28
14135 17666 17669 28
14136 17666 17670 28
14137 17671 17672 28
14138 17671 17673 28
14139 17671 17674 28
14140 17671 17675 28
14141 17676 17677 28
14142 17676 17678 28
14143 17676 17679 28
14144 17676 17680 28
14145 17681 17682 28
14146 17681 17683 28
14147 17681 17684 28
14148 17681 17685 28
14149 17686 17687 28
14150 17686 17688 28
14151 17686 17689 28
14152 17686 17690 28
14153 17691 17692 28
14154 17691 17693 28
14155 17691 17694 28
14156 17691 17695 28
14157 17696 17697 28
14158 17696 17698 28
14159 17696 17699 28
14160 17696 17700 28
14161 17701 17702 28
14162 17701 17703 28
14163 17701 17704 28
14164 17701 17705 28
14165 17706 17707 28
14166 17706 17708 28
14167 17706 17709 28
14168 17706 17710 28
14169 17711 17712 28
14170 17711 17713 28
14171 17711 17714 28
14172 17711 17715 28
14173 17716 17717 28
14174 17716 17718 28
14175 17716 17719 28
14176 17716 17720 28
14177 17721 17722 28
14178 17721 17723 28
14179 17721 17724 28
14180 17721 17725 28
14181 17726 17727 28
14182 17726 17728 28
14183 17726 17729 28
14184 17726 17730 28
14185 17731 17732 28
14186 17731 17733 28
14187 17731 17734 28
14188 17731 17735 28
14189 17736 17737 28
14190 17736 17738 28
14191 17736 17739 28
14192 17736 17740 28
14193 17741 17742 28
14194 17741 17743 28
14195 17741 17744 28
14196 17741 17745 28
14197 17746 17747 28
14198 17746 17748 28
14199 17746 17749 28
14200 17746 17750 28
14201 17751 17752 28
14202 17751 17753 28
14203 17751 17754 28
14204 17751 17755 28
14205 17756 17757 28
14206 17756 17758 28
14207 17756 17759 28
14208 17756 17760 28
14209 17761 17762 28
14210 17761 17763 28
14211 17761 17764 28
14212 17761 17765 28
14213 17766 17767 28
14214 17766 17768 28
14215 17766 17769 28
14216 17766 17770 28
14217 17771 17772 28
14218 17771 17773 28
14219 17771 17774 28
14220 17771 17775 28
14221 17776 17777 28
14222 17776 17778 28
14223 17776 17779 28
14224 17776 17780 28
14225 17781 17782 28
14226 17781 17783 28
14227 17781 17784 28
14228 17781 17785 28
14229 17786 17787 28
14230 17786 17788 28
14231 17786 17789 28
14232 17786 17790 28
14233 17791 17792 28
14234 17791 17793 28
14235 17791 17794 28
14236 17791 17795 28
14237 17796 17797 28
14238 17796 17798 28
14239 17796 17799 28
14240 17796 17800 28
14241 17801 17802 28
14242 17801 17803 28
14243 17801 17804 28
14244 17801 17805 28
14245 17806 17807 28
14246 17806 17808 28
14247 17806 17809 28
14248 17806 17810 28
14249 17811 17812 28
14250 17811 17813 28
14251 17811 17814 28
14252 17811 17815 28
14253 17816 17817 28
14254 17816 17818 28
14255 17816 17819 28
14256 17816 17820 28
14257 17821 17822 28
14258 17821 17823 28
14259 17821 17824 28
14260 17821 17825 28
14261 17826 17827 28
14262 17826 17828 28
14263 17826 17829 28
14264 17826 17830 28
14265 17831 17832 28
14266 17831 17833 28
14267 17831 17834 28
14268 17831 17835 28
14269 17836 17837 28
14270 17836 17838 28
14271 17836 17839 28
14272 17836 17840 28
14273 17841 17842 28
14274 17841 17843 28
14275 17841 17844 28
14276 17841 17845 28
14277 17846 17847 28
14278 17846 17848 28
14279 17846 17849 28
14280 17846 17850 28
14281 17851 17852 28
14282 17851 17853 28
14283 17851 17854 28
14284 17851 17855 28
14285 17856 17857 28
14286 17856 17858 28
14287 17856 17859 28
14288 17856 17860 28
14289 17861 17862 28
14290 17861 17863 28
14291 17861 17864 28
14292 17861 17865 28
14293 17866 17867 28
14294 17866 17868 28
14295 17866 17869 28
14296 17866 17870 28
14297 17871 17872 28
14298 17871 17873 28
14299 17871 17874 28
14300 17871 17875 28
14301 17876 17877 28
14302 17876 17878 28
14303 17876 17879 28
14304 17876 17880 28
14305 17881 17882 28
14306 17881 17883 28
14307 17881 17884 28
14308 17881 17885 28
14309 17886 17887 28
14310 17886 17888 28
14311 17886 17889 28
14312 17886 17890 28
14313 17891 17892 28
14314 17891 17893 28
14315 17891 17894 28
14316 17891 17895 28
14317 17896 17897 28
14318 17896 17898 28
14319 17896 17899 28
14320 17896 17900 28
14321 17901 17902 28
14322 17901 17903 28
14323 17901 17904 28
14324 17901 17905 28
14325 17906 17907 28
14326 17906 17908 28
14327 17906 17909 28
14328 17906 17910 28
14329 17911 17912 28
14330 17911 17913 28
14331 17911 17914 28
14332 17911 17915 28
14333 17916 17917 28
14334 17916 17918 28
14335 17916 17919 28
14336 17916 17920 28
14337 17921 17922 28
14338 17921 17923 28
14339 17921 17924 28
14340 17921 17925 28
14341 17926 17927 28
14342 17926 17928 28
14343 17926 17929 28
14344 17926 17930 28
14345 17931 17932 28
14346 17931 17933 28
14347 17931 17934 28
14348 17931 17935 28
14349 17936 17937 28
14350 17936 17938 28
14351 17936 17939 28
14352 17936 17940 28
14353 17941 17942 28
14354 17941 17943 28
14355 17941 17944 28
14356 17941 17945 28
14357 17946 17947 28
14358 17946 17948 28
14359 17946 17949 28
14360 17946 17950 28
14361 17951 17952 28
14362 17951 17953 28
14363 17951 17954 28
14364 17951 17955 28
14365 17956 17957 28
14366 17956 17958 28
14367 17956 17959 28
14368 17956 17960 28
14369 17961 17962 28
14370 17961 17963 28
14371 17961 17964 28
14372 17961 17965 28
14373 17966 17967 28
14374 17966 17968 28
14375 17966 17969 28
14376 17966 17970 28
14377 17971 17972 28
14378 17971 17973 28
14379 17971 17974 28
14380 17971 17975 28
14381 17976 17977 28
14382 17976 17978 28
14383 17976 17979 28
14384 17976 17980 28
14385 17981 17982 28
14386 17981 17983 28
14387 17981 17984 28
14388 17981 17985 28
14389 17986 17987 28
14390 17986 17988 28
14391 17986 17989 28
14392 17986 17990 28
14393 17991 17992 28
14394 17991 17993 28
14395 17991 17994 28
14396 17991 17995 28
14397 17996 17997 28
14398 17996 17998 28
14399 17996 17999 28
14400 17996 18000 28
14401 18001 18002 28
14402 18001 18003 28
14403 18001 18004 28
14404 18001 18005 28
14405 18006 18007 28
14406 18006 18008 28
14407 18006 18009 28
14408 18006 18010 28
14409 18011 18012 28
14410 18011 18013 28
14411 18011 18014 28
14412 18011 18015 28
14413 18016 18017 28
14414 18016 18018 28
14415 18016 18019 28
14416 18016 18020 28
14417 18021 18022 28
14418 18021 18023 28
14419 18021 18024 28
14420 18021 18025 28
14421 18026 18027 28
14422 18026 18028 28
14423 18026 18029 28
14424 18026 18030 28
14425 18031 18032 28
14426 18031 18033 28
14427 18031 18034 28
14428 18031 18035 28
14429 18036 18037 28
14430 18036 18038 28
14431 18036 18039 28
14432 18036 18040 28
14433 18041 18042 28
14434 18041 18043 28
14435 18041 18044 28
14436 18041 18045 28
14437 18046 18047 28
14438 18046 18048 28
14439 18046 18049 28
14440 18046 18050 28
14441 18051 18052 28
14442 18051 18053 28
14443 18051 18054 28
14444 18051 18055 28
14445 18056 18057 28
14446 18056 18058 28
14447 18056 18059 28
14448 18056 18060 28
14449 18061 18062 28
14450 18061 18063 28
14451 18061 18064 28
14452 18061 18065 28
14453 18066 18067 28
14454 18066 18068 28
14455 18066 18069 28
14456 18066 18070 28
14457 18071 18072 28
14458 18071 18073 28
14459 18071 18074 28
14460 18071 18075 28
14461 18076 18077 28
14462 18076 18078 28
14463 18076 18079 28
14464 18076 18080 28
14465 18081 18082 28
14466 18081 18083 28
14467 18081 18084 28
14468 18081 18085 28
14469 18086 18087 28
14470 18086 18088 28
14471 18086 18089 28
14472 18086 18090 28
14473 18091 18092 28
14474 18091 18093 28
14475 18091 18094 28
14476 18091 18095 28
14477 18096 18097 28
14478 18096 18098 28
14479 18096 18099 28
14480 18096 18100 28
14481 18101 18102 28
14482 18101 18103 28
14483 18101 18104 28
14484 18101 18105 28
14485 18106 18107 28
14486 18106 18108 28
14487 18106 18109 28
14488 18106 18110 28
14489 18111 18112 28
14490 18111 18113 28
14491 18111 18114 28
14492 18111 18115 28
14493 18116 18117 28
14494 18116 18118 28
14495 18116 18119 28
14496 18116 18120 28
14497 18121 18122 28
14498 18121 18123 28
14499 18121 18124 28
14500 18121 18125 28
14501 18126 18127 28
14502 18126 18128 28
14503 18126 18129 28
14504 18126 18130 28
14505 18131 18132 28
14506 18131 18133 28
14507 18131 18134 28
14508 18131 18135 28
14509 18136 18137 28
14510 18136 18138 28
14511 18136 18139 28
14512 18136 18140 28
14513 18141 18142 28
14514 18141 18143 28
14515 18141 18144 28
14516 18141 18145 28
14517 18146 18147 28
14518 18146 18148 28
14519 18146 18149 28
14520 18146 18150 28
14521 18151 18152 28
14522 18151 18153 28
14523 18151 18154 28
14524 18151 18155 28
14525 18156 18157 28
14526 18156 18158 28
14527 18156 18159 28
14528 18156 18160 28
14529 18161 18162 28
14530 18161 18163 28
14531 18161 18164 28
14532 18161 18165 28
14533 18166 18167 28
14534 18166 18168 28
14535 18166 18169 28
14536 18166 18170 28
14537 18171 18172 28
14538 18171 18173 28
14539 18171 18174 28
14540 18171 18175 28
14541 18176 18177 28
14542 18176 18178 28
14543 18176 18179 28
14544 18176 18180 28
14545 18181 18182 28
14546 18181 18183 28
14547 18181 18184 28
14548 18181 18185 28
14549 18186 18187 28
14550 18186 18188 28
14551 18186 18189 28
14552 18186 18190 28
14553 18191 18192 28
14554 18191 18193 28
14555 18191 18194 28
14556 18191 18195 28
14557 18196 18197 28
14558 18196 18198 28
14559 18196 18199 28
14560 18196 18200 28
14561 18201 18202 28
14562 18201 18203 28
14563 18201 18204 28
14564 18201 18205 28
14565 18206 18207 28
14566 18206 18208 28
14567 18206 18209 28
14568 18206 18210 28
14569 18211 18212 28
14570 18211 18213 28
14571 18211 18214 28
14572 18211 18215 28
14573 18216 18217 28
14574 18216 18218 28
14575 18216 18219 28
14576 18216 18220 28
14577 18221 18222 28
14578 18221 18223 28
14579 18221 18224 28
14580 18221 18225 28
14581 18226 18227 28
14582 18226 18228 28
14583 18226 18229 28
14584 18226 18230 28
14585 18231 18232 28
14586 18231 18233 28
14587 18231 18234 28
14588 18231 18235 28
14589 18236 18237 28
14590 18236 18238 28
14591 18236 18239 28
14592 18236 18240 28
14593 18241 18242 28
14594 18241 18243 28
14595 18241 18244 28
14596 18241 18245 28
14597 18246 18247 28
14598 18246 18248 28
14599 18246 18249 28
14600 18246 18250 28
14601 18251 18252 28
14602 18251 18253 28
14603 18251 18254 28
14604 18251 18255 28
14605 18256 18257 28
14606 18256 18258 28
14607 18256 18259 28
14608 18256 18260 28
14609 18261 18262 28
14610 18261 18263 28
14611 18261 18264 28
14612 18261 18265 28
14613 18266 18267 28
14614 18266 18268 28
14615 18266 18269 28
14616 18266 18270 28
14617 18271 18272 28
14618 18271 18273 28
14619 18271 18274 28
14620 18271 18275 28
14621 18276 18277 28
14622 18276 18278 28
14623 18276 18279 28
14624 18276 18280 28
14625 18281 18282 28
14626 18281 18283 28
14627 18281 18284 28
14628 18281 18285 28
14629 18286 18287 28
14630 18286 18288 28
14631 18286 18289 28
14632 18286 18290 28
14633 18291 18292 28
14634 18291 18293 28
14635 18291 18294 28
14636 18291 18295 28
14637 18296 18297 28
14638 18296 18298 28
14639 18296 18299 28
14640 18296 18300 28
14641 18301 18302 28
14642 18301 18303 28
14643 18301 18304 28
14644 18301 18305 28
14645 18306 18307 28
14646 18306 18308 28
14647 18306 18309 28
14648 18306 18310 28
14649 18311 18312 28
14650 18311 18313 28
14651 18311 18314 28
14652 18311 18315 28
14653 18316 18317 28
14654 18316 18318 28
14655 18316 18319 28
14656 18316 18320 28
14657 18321 18322 28
14658 18321 18323 28
14659 18321 18324 28
14660 18321 18325 28
14661 18326 18327 28
14662 18326 18328 28
14663 18326 18329 28
14664 18326 18330 28
14665 18331 18332 28
14666 18331 18333 28
14667 18331 18334 28
14668 18331 18335 28
14669 18336 18337 28
14670 18336 18338 28
14671 18336 18339 28
14672 18336 18340 28
14673 18341 18342 28
14674 18341 18343 28
14675 18341 18344 28
14676 18341 18345 28
14677 18346 18347 28
14678 18346 18348 28
14679 18346 18349 28
14680 18346 18350 28
14681 18351 18352 28
14682 18351 18353 28
14683 18351 18354 28
14684 18351 18355 28
14685 18356 18357 28
14686 18356 18358 28
14687 18356 18359 28
14688 18356 18360 28
14689 18361 18362 28
14690 18361 18363 28
14691 18361 18364 28
14692 18361 18365 28
14693 18366 18367 28
14694 18366 18368 28
14695 18366 18369 28
14696 18366 18370 28
14697 18371 18372 28
14698 18371 18373 28
14699 18371 18374 28
14700 18371 18375 28
14701 18376 18377 28
14702 18376 18378 28
14703 18376 18379 28
14704 18376 18380 28
14705 18381 18382 28
14706 18381 18383 28
14707 18381 18384 28
14708 18381 18385 28
14709 18386 18387 28
14710 18386 18388 28
14711 18386 18389 28
14712 18386 18390 28
14713 18391 18392 28
14714 18391 18393 28
14715 18391 18394 28
14716 18391 18395 28
14717 18396 18397 28
14718 18396 18398 28
14719 18396 18399 28
14720 18396 18400 28
14721 18401 18402 28
14722 18401 18403 28
14723 18401 18404 28
14724 18401 18405 28
14725 18406 18407 28
14726 18406 18408 28
14727 18406 18409 28
14728 18406 18410 28
14729 18411 18412 28
14730 18411 18413 28
14731 18411 18414 28
14732 18411 18415 28
14733 18416 18417 28
14734 18416 18418 28
14735 18416 18419 28
14736 18416 18420 28
14737 18421 18422 28
14738 18421 18423 28
14739 18421 18424 28
14740 18421 18425 28
14741 18426 18427 28
14742 18426 18428 28
14743 18426 18429 28
14744 18426 18430 28
14745 18431 18432 28
14746 18431 18433 28
14747 18431 18434 28
14748 18431 18435 28
14749 18436 18437 28
14750 18436 18438 28
14751 18436 18439 28
14752 18436 18440 28
14753 18441 18442 28
14754 18441 18443 28
14755 18441 18444 28
14756 18441 18445 28
14757 18446 18447 28
14758 18446 18448 28
14759 18446 18449 28
14760 18446 18450 28
14761 18451 18452 28
14762 18451 18453 28
14763 18451 18454 28
14764 18451 18455 28
14765 18456 18457 28
14766 18456 18458 28
14767 18456 18459 28
14768 18456 18460 28
14769 18461 18462 28
14770 18461 18463 28
14771 18461 18464 28
14772 18461 18465 28
14773 18466 18467 28
14774 18466 18468 28
14775 18466 18469 28
14776 18466 18470 28
14777 18471 18472 28
14778 18471 18473 28
14779 18471 18474 28
14780 18471 18475 28
14781 18476 18477 28
14782 18476 18478 28
14783 18476 18479 28
14784 18476 18480 28
14785 18481 18482 28
14786 18481 18483 28
14787 18481 18484 28
14788 18481 18485 28
14789 18486 18487 28
14790 18486 18488 28
14791 18486 18489 28
14792 18486 18490 28
14793 18491 18492 28
14794 18491 18493 28
14795 18491 18494 28
14796 18491 18495 28
14797 18496 18497 28
14798 18496 18498 28
14799 18496 18499 28
14800 18496 18500 28
14801 18501 18502 28
14802 18501 18503 28
14803 18501 18504 28
14804 18501 18505 28
14805 18506 18507 28
14806 18506 18508 28
14807 18506 18509 28
14808 18506 18510 28
14809 18511 18512 28
14810 18511 18513 28
14811 18511 18514 28
14812 18511 18515 28
14813 18516 18517 28
14814 18516 18518 28
14815 18516 18519 28
14816 18516 18520 28
14817 18521 18522 28
14818 18521 18523 28
14819 18521 18524 28
14820 18521 18525 28
14821 18526 18527 28
14822 18526 18528 28
14823 18526 18529 28
14824 18526 18530 28
14825 18531 18532 28
14826 18531 18533 28
14827 18531 18534 28
14828 18531 18535 28
14829 18536 18537 28
14830 18536 18538 28
14831 18536 18539 28
14832 18536 18540 28
14833 18541 18542 28
14834 18541 18543 28
14835 18541 18544 28
14836 18541 18545 28
14837 18546 18547 28
14838 18546 18548 28
14839 18546 18549 28
14840 18546 18550 28
14841 18551 18552 28
14842 18551 18553 28
14843 18551 18554 28
14844 18551 18555 28
14845 18556 18557 28
14846 18556 18558 28
14847 18556 18559 28
14848 18556 18560 28
14849 18561 18562 28
14850 18561 18563 28
14851 18561 18564 28
14852 18561 18565 28
14853 18566 18567 28
14854 18566 18568 28
14855 18566 18569 28
14856 18566 18570 28
14857 18571 18572 28
14858 18571 18573 28
14859 18571 18574 28
14860 18571 18575 28
14861 18576 18577 28
14862 18576 18578 28
14863 18576 18579 28
14864 18576 18580 28
14865 18581 18582 28
14866 18581 18583 28
14867 18581 18584 28
14868 18581 18585 28
14869 18586 18587 28
14870 18586 18588 28
14871 18586 18589 28
14872 18586 18590 28
14873 18591 18592 28
14874 18591 18593 28
14875 18591 18594 28
14876 18591 18595 28
14877 18596 18597 28
14878 18596 18598 28
14879 18596 18599 28
14880 18596 18600 28
14881 18601 18602 28
14882 18601 18603 28
14883 18601 18604 28
14884 18601 18605 28
14885 18606 18607 28
14886 18606 18608 28
14887 18606 18609 28
14888 18606 18610 28
14889 18611 18612 28
14890 18611 18613 28
14891 18611 18614 28
14892 18611 18615 28
14893 18616 18617 28
14894 18616 18618 28
14895 18616 18619 28
14896 18616 18620 28
14897 18621 18622 28
14898 18621 18623 28
14899 18621 18624 28
14900 18621 18625 28
14901 18626 18627 28
14902 18626 18628 28
14903 18626 18629 28
14904 18626 18630 28
14905 18631 18632 28
14906 18631 18633 28
14907 18631 18634 28
14908 18631 18635 28
14909 18636 18637 28
14910 18636 18638 28
14911 18636 18639 28
14912 18636 18640 28
14913 18641 18642 28
14914 18641 18643 28
14915 18641 18644 28
14916 18641 18645 28
14917 18646 18647 28
14918 18646 18648 28
14919 18646 18649 28
14920 18646 18650 28
14921 18651 18652 28
14922 18651 18653 28
14923 18651 18654 28
14924 18651 18655 28
14925 18656 18657 28
14926 18656 18658 28
14927 18656 18659 28
14928 18656 18660 28
14929 18661 18662 28
14930 18661 18663 28
14931 18661 18664 28
14932 18661 18665 28
14933 18666 18667 28
14934 18666 18668 28
14935 18666 18669 28
14936 18666 18670 28
14937 18671 18672 28
14938 18671 18673 28
14939 18671 18674 28
14940 18671 18675 28
14941 18676 18677 28
14942 18676 18678 28
14943 18676 18679 28
14944 18676 18680 28
14945 18681 18682 28
14946 18681 18683 28
14947 18681 18684 28
14948 18681 18685 28
14949 18686 18687 28
14950 18686 18688 28
14951 18686 18689 28
14952 18686 18690 28
14953 18691 18692 28
14954 18691 18693 28
14955 18691 18694 28
14956 18691 18695 28
14957 18696 18697 28
14958 18696 18698 28
14959 18696 18699 28
14960 18696 18700 28
14961 18701 18702 28
14962 18701 18703 28
14963 18701 18704 28
14964 18701 18705 28
14965 18706 18707 28
14966 18706 18708 28
14967 18706 18709 28
14968 18706 18710 28
14969 18711 18712 28
14970 18711 18713 28
14971 18711 18714 28
14972 18711 18715 28
14973 18716 18717 28
14974 18716 18718 28
14975 18716 18719 28
14976 18716 18720 28
14977 18721 18722 28
14978 18721 18723 28
14979 18721 18724 28
14980 18721 18725 28
14981 18726 18727 28
14982 18726 18728 28
14983 18726 18729 28
14984 18726 18730 28
14985 18731 18732 28
14986 18731 18733 28
14987 18731 18734 28
14988 18731 18735 28
14989 18736 18737 28
14990 18736 18738 28
14991 18736 18739 28
14992 18736 18740 28
14993 18741 18742 28
14994 18741 18743 28
14995 18741 18744 28
14996 18741 18745 28
14997 18746 18747 28
14998 18746 18748 28
14999 18746 18749 28
15000 18746 18750 28
15001 18751 18752 28
15002 18751 18753 28
15003 18751 18754 28
15004 18751 18755 28
15005 18756 18757 28
15006 18756 18758 28
15007 18756 18759 28
15008 18756 18760 28
15009 18761 18762 28
15010 18761 18763 28
15011 18761 18764 28
15012 18761 18765 28
15013 18766 18767 28
15014 18766 18768 28
15015 18766 18769 28
15016 18766 18770 28
15017 18771 18772 28
15018 18771 18773 28
15019 18771 18774 28
15020 18771 18775 28
15021 18776 18777 28
15022 18776 18778 28
15023 18776 18779 28
15024 18776 18780 28
15025 18781 18782 28
15026 18781 18783 28
15027 18781 18784 28
15028 18781 18785 28
15029 18786 18787 28
15030 18786 18788 28
15031 18786 18789 28
15032 18786 18790 28
15033 18791 18792 28
15034 18791 18793 28
15035 18791 18794 28
15036 18791 18795 28
15037 18796 18797 28
15038 18796 18798 28
15039 18796 18799 28
15040 18796 18800 28
15041 18801 18802 28
15042 18801 18803 28
15043 18801 18804 28
15044 18801 18805 28
15045 18806 18807 28
15046 18806 18808 28
15047 18806 18809 28
15048 18806 18810 28
15049 18811 18812 28
15050 18811 18813 28
15051 18811 18814 28
15052 18811 18815 28
15053 18816 18817 28
15054 18816 18818 28
15055 18816 18819 28
15056 18816 18820 28
15057 18821 18822 28
15058 18821 18823 28
15059 18821 18824 28
15060 18821 18825 28
15061 18826 18827 28
15062 18826 18828 28
15063 18826 18829 28
15064 18826 18830 28
15065 18831 18832 28
15066 18831 18833 28
15067 18831 18834 28
15068 18831 18835 28
15069 18836 18837 28
15070 18836 18838 28
15071 18836 18839 28
15072 18836 18840 28
15073 18841 18842 28
15074 18841 18843 28
15075 18841 18844 28
15076 18841 18845 28
15077 18846 18847 28
15078 18846 18848 28
15079 18846 18849 28
15080 18846 18850 28
15081 18851 18852 28
15082 18851 18853 28
15083 18851 18854 28
15084 18851 18855 28
15085 18856 18857 28
15086 18856 18858 28
15087 18856 18859 28
15088 18856 18860 28
15089 18861 18862 28
15090 18861 18863 28
15091 18861 18864 28
15092 18861 18865 28
15093 18866 18867 28
15094 18866 18868 28
15095 18866 18869 28
15096 18866 18870 28
15097 18871 18872 28
15098 18871 18873 28
15099 18871 18874 28
15100 18871 18875 28
15101 18876 18877 28
15102 18876 18878 28
15103 18876 18879 28
15104 18876 18880 28
15105 18881 18882 28
15106 18881 18883 28
15107 18881 18884 28
15108 18881 18885 28
15109 18886 18887 28
15110 18886 18888 28
15111 18886 18889 28
15112 18886 18890 28
15113 18891 18892 28
15114 18891 18893 28
15115 18891 18894 28
15116 18891 18895 28
15117 18896 18897 28
15118 18896 18898 28
15119 18896 18899 28
15120 18896 18900 28
15121 18901 18902 28
15122 18901 18903 28
15123 18901 18904 28
15124 18901 18905 28
15125 18906 18907 28
15126 18906 18908 28
15127 18906 18909 28
15128 18906 18910 28
15129 18911 18912 28
15130 18911 18913 28
15131 18911 18914 28
15132 18911 18915 28
15133 18916 18917 28
15134 18916 18918 28
15135 18916 18919 28
15136 18916 18920 28
15137 18921 18922 28
15138 18921 18923 28
15139 18921 18924 28
15140 18921 18925 28
15141 18926 18927 28
15142 18926 18928 28
15143 18926 18929 28
15144 18926 18930 28
15145 18931 18932 28
15146 18931 18933 28
15147 18931 18934 28
15148 18931 18935 28
15149 18936 18937 28
15150 18936 18938 28
15151 18936 18939 28
15152 18936 18940 28
15153 18941 18942 28
15154 18941 18943 28
15155 18941 18944 28
15156 18941 18945 28
15157 18946 18947 28
15158 18946 18948 28
15159 18946 18949 28
15160 18946 18950 28
15161 18951 18952 28
15162 18951 18953 28
15163 18951 18954 28
15164 18951 18955 28
15165 18956 18957 28
15166 18956 18958 28
15167 18956 18959 28
15168 18956 18960 28
15169 18961 18962 28
15170 18961 18963 28
15171 18961 18964 28
15172 18961 18965 28
15173 18966 18967 28
15174 18966 18968 28
15175 18966 18969 28
15176 18966 18970 28
15177 18971 18972 28
15178 18971 18973 28
15179 18971 18974 28
15180 18971 18975 28
15181 18976 18977 28
15182 18976 18978 28
15183 18976 18979 28
15184 18976 18980 28
15185 18981 18982 28
15186 18981 18983 28
15187 18981 18984 28
15188 18981 18985 28
15189 18986 18987 28
15190 18986 18988 28
15191 18986 18989 28
15192 18986 18990 28
15193 18991 18992 28
15194 18991 18993 28
15195 18991 18994 28
15196 18991 18995 28
15197 18996 18997 28
15198 18996 18998 28
15199 18996 18999 28
15200 18996 19000 28
15201 19001 19002 28
15202 19001 19003 28
15203 19001 19004 28
15204 19001 19005 28
15205 19006 19007 28
15206 19006 19008 28
15207 19006 19009 28
15208 19006 19010 28
15209 19011 19012 28
15210 19011 19013 28
15211 19011 19014 28
15212 19011 19015 28
15213 19016 19017 28
15214 19016 19018 28
15215 19016 19019 28
15216 19016 19020 28
15217 19021 19022 28
15218 19021 19023 28
15219 19021 19024 28
15220 19021 19025 28
15221 19026 19027 28
15222 19026 19028 28
15223 19026 19029 28
15224 19026 19030 28
15225 19031 19032 28
15226 19031 19033 28
15227 19031 19034 28
15228 19031 19035 28
15229 19036 19037 28
15230 19036 19038 28
15231 19036 19039 28
15232 19036 19040 28
15233 19041 19042 28
15234 19041 19043 28
15235 19041 19044 28
15236 19041 19045 28
15237 19046 19047 28
15238 19046 19048 28
15239 19046 19049 28
15240 19046 19050 28
15241 19051 19052 28
15242 19051 19053 28
15243 19051 19054 28
15244 19051 19055 28
15245 19056 19057 28
15246 19056 19058 28
15247 19056 19059 28
15248 19056 19060 28
15249 19061 19062 28
15250 19061 19063 28
15251 19061 19064 28
15252 19061 19065 28
15253 19066 19067 28
15254 19066 19068 28
15255 19066 19069 28
15256 19066 19070 28
15257 19071 19072 28
15258 19071 19073 28
15259 19071 19074 28
15260 19071 19075 28
15261 19076 19077 28
15262 19076 19078 28
15263 19076 19079 28
15264 19076 19080 28
15265 19081 19082 28
15266 19081 19083 28
15267 19081 19084 28
15268 19081 19085 28
15269 19086 19087 28
15270 19086 19088 28
15271 19086 19089 28
15272 19086 19090 28
15273 19091 19092 28
15274 19091 19093 28
15275 19091 19094 28
15276 19091 19095 28
15277 19096 19097 28
15278 19096 19098 28
15279 19096 19099 28
15280 19096 19100 28
15281 19101 19102 28
15282 19101 19103 28
15283 19101 19104 28
15284 19101 19105 28
15285 19106 19107 28
15286 19106 19108 28
15287 19106 19109 28
15288 19106 19110 28
15289 19111 19112 28
15290 19111 19113 28
15291 19111 19114 28
15292 19111 19115 28
15293 19116 19117 28
15294 19116 19118 28
15295 19116 19119 28
15296 19116 19120 28
15297 19121 19122 28
15298 19121 19123 28
15299 19121 19124 28
15300 19121 19125 28
15301 19126 19127 28
15302 19126 19128 28
15303 19126 19129 28
15304 19126 19130 28
15305 19131 19132 28
15306 19131 19133 28
15307 19131 19134 28
15308 19131 19135 28
15309 19136 19137 28
15310 19136 19138 28
15311 19136 19139 28
15312 19136 19140 28
15313 19141 19142 28
15314 19141 19143 28
15315 19141 19144 28
15316 19141 19145 28
15317 19146 19147 28
15318 19146 19148 28
15319 19146 19149 28
15320 19146 19150 28
15321 19151 19152 28
15322 19151 19153 28
15323 19151 19154 28
15324 19151 19155 28
15325 19156 19157 28
15326 19156 19158 28
15327 19156 19159 28
15328 19156 19160 28
15329 19161 19162 28
15330 19161 19163 28
15331 19161 19164 28
15332 19161 19165 28
15333 19166 19167 28
15334 19166 19168 28
15335 19166 19169 28
15336 19166 19170 28
15337 19171 19172 28
15338 19171 19173 28
15339 19171 19174 28
15340 19171 19175 28
15341 19176 19177 28
15342 19176 19178 28
15343 19176 19179 28
15344 19176 19180 28
15345 19181 19182 28
15346 19181 19183 28
15347 19181 19184 28
15348 19181 19185 28
15349 19186 19187 28
15350 19186 19188 28
15351 19186 19189 28
15352 19186 19190 28
15353 19191 19192 28
15354 19191 19193 28
15355 19191 19194 28
15356 19191 19195 28
15357 19196 19197 28
15358 19196 19198 28
15359 19196 19199 28
15360 19196 19200 28
15361 19201 19202 28
15362 19201 19203 28
15363 19201 19204 28
15364 19201 19205 28
15365 19206 19207 28
15366 19206 19208 28
15367 19206 19209 28
15368 19206 19210 28
15369 19211 19212 28
15370 19211 19213 28
15371 19211 19214 28
15372 19211 19215 28
15373 19216 19217 28
15374 19216 19218 28
15375 19216 19219 28
15376 19216 19220 28
15377 19221 19222 28
15378 19221 19223 28
15379 19221 19224 28
15380 19221 19225 28
15381 19226 19227 28
15382 19226 19228 28
15383 19226 19229 28
15384 19226 19230 28
15385 19231 19232 28
15386 19231 19233 28
15387 19231 19234 28
15388 19231 19235 28
15389 19236 19237 28
15390 19236 19238 28
15391 19236 19239 28
15392 19236 19240 28
15393 19241 19242 28
15394 19241 19243 28
15395 19241 19244 28
15396 19241 19245 28
15397 19246 19247 28
15398 19246 19248 28
15399 19246 19249 28
15400 19246 19250 28
15401 19251 19252 28
15402 19251 19253 28
15403 19251 19254 28
15404 19251 19255 28
15405 19256 19257 28
15406 19256 19258 28
15407 19256 19259 28
15408 19256 19260 28
15409 19261 19262 28
15410 19261 19263 28
15411 19261 19264 28
15412 19261 19265 28
15413 19266 19267 28
15414 19266 19268 28
15415 19266 19269 28
15416 19266 19270 28
15417 19271 19272 28
15418 19271 19273 28
15419 19271 19274 28
15420 19271 19275 28
15421 19276 19277 28
15422 19276 19278 28
15423 19276 19279 28
15424 19276 19280 28
15425 19281 19282 28
15426 19281 19283 28
15427 19281 19284 28
15428 19281 19285 28
15429 19286 19287 28
15430 19286 19288 28
15431 19286 19289 28
15432 19286 19290 28
15433 19291 19292 28
15434 19291 19293 28
15435 19291 19294 28
15436 19291 19295 28
15437 19296 19297 28
15438 19296 19298 28
15439 19296 19299 28
15440 19296 19300 28
15441 19301 19302 28
15442 19301 19303 28
15443 19301 19304 28
15444 19301 19305 28
15445 19306 19307 28
15446 19306 19308 28
15447 19306 19309 28
15448 19306 19310 28
15449 19311 19312 28
15450 19311 19313 28
15451 19311 19314 28
15452 19311 19315 28
15453 19316 19317 28
15454 19316 19318 28
15455 19316 19319 28
15456 19316 19320 28
15457 19321 19322 28
15458 19321 19323 28
15459 19321 19324 28
15460 19321 19325 28
15461 19326 19327 28
15462 19326 19328 28
15463 19326 19329 28
15464 19326 19330 28
15465 19331 19332 28
15466 19331 19333 28
15467 19331 19334 28
15468 19331 19335 28
15469 19336 19337 28
15470 19336 19338 28
15471 19336 19339 28
15472 19336 19340 28
15473 19341 19342 28
15474 19341 19343 28
15475 19341 19344 28
15476 19341 19345 28
15477 19346 19347 28
15478 19346 19348 28
15479 19346 19349 28
15480 19346 19350 28
15481 19351 19352 28
15482 19351 19353 28
15483 19351 19354 28
15484 19351 19355 28
15485 19356 19357 28
15486 19356 19358 28
15487 19356 19359 28
15488 19356 19360 28
15489 19361 19362 28
15490 19361 19363 28
15491 19361 19364 28
15492 19361 19365 28
15493 19366 19367 28
15494 19366 19368 28
15495 19366 19369 28
15496 19366 19370 28
15497 19371 19372 28
15498 19371 19373 28
15499 19371 19374 28
15500 19371 19375 28
15501 19376 19377 28
15502 19376 19378 28
15503 19376 19379 28
15504 19376 19380 28
15505 19381 19382 28
15506 19381 19383 28
15507 19381 19384 28
15508 19381 19385 28
15509 19386 19387 28
15510 19386 19388 28
15511 19386 19389 28
15512 19386 19390 28
15513 19391 19392 28
15514 19391 19393 28
15515 19391 19394 28
15516 19391 19395 28
15517 19396 19397 28
15518 19396 19398 28
15519 19396 19399 28
15520 19396 19400 28
15521 19401 19402 28
15522 19401 19403 28
15523 19401 19404 28
15524 19401 19405 28
15525 19406 19407 28
15526 19406 19408 28
15527 19406 19409 28
15528 19406 19410 28
15529 19411 19412 28
15530 19411 19413 28
15531 19411 19414 28
15532 19411 19415 28
15533 19416 19417 28
15534 19416 19418 28
15535 19416 19419 28
15536 19416 19420 28
15537 19421 19422 28
15538 19421 19423 28
15539 19421 19424 28
15540 19421 19425 28
15541 19426 19427 28
15542 19426 19428 28
15543 19426 19429 28
15544 19426 19430 28
15545 19431 19432 28
15546 19431 19433 28
15547 19431 19434 28
15548 19431 19435 28
15549 19436 19437 28
15550 19436 19438 28
15551 19436 19439 28
15552 19436 19440 28
15553 19441 19442 28
15554 19441 19443 28
15555 19441 19444 28
15556 19441 19445 28
15557 19446 19447 28
15558 19446 19448 28
15559 19446 19449 28
15560 19446 19450 28
15561 19451 19452 28
15562 19451 19453 28
15563 19451 19454 28
15564 19451 19455 28
15565 19456 19457 28
15566 19456 19458 28
15567 19456 19459 28
15568 19456 19460 28
15569 19461 19462 28
15570 19461 19463 28
15571 19461 19464 28
15572 19461 19465 28
15573 19466 19467 28
15574 19466 19468 28
15575 19466 19469 28
15576 19466 19470 28
15577 19471 19472 28
15578 19471 19473 28
15579 19471 19474 28
15580 19471 19475 28
15581 19476 19477 28
15582 19476 19478 28
15583 19476 19479 28
15584 19476 19480 28
15585 19481 19482 28
15586 19481 19483 28
15587 19481 19484 28
15588 19481 19485 28
15589 19486 19487 28
15590 19486 19488 28
15591 19486 19489 28
15592 19486 19490 28
15593 19491 19492 28
15594 19491 19493 28
15595 19491 19494 28
15596 19491 19495 28
15597 19496 19497 28
15598 19496 19498 28
15599 19496 19499 28
15600 19496 19500 28
15601 19501 19502 28
15602 19501 19503 28
15603 19501 19504 28
15604 19501 19505 28
15605 19506 19507 28
15606 19506 19508 28
15607 19506 19509 28
15608 19506 19510 28
15609 19511 19512 28
15610 19511 19513 28
15611 19511 19514 28
15612 19511 19515 28
15613 19516 19517 28
15614 19516 19518 28
15615 19516 19519 28
15616 19516 19520 28
15617 19521 19522 28
15618 19521 19523 28
15619 19521 19524 28
15620 19521 19525 28
15621 19526 19527 28
15622 19526 19528 28
15623 19526 19529 28
15624 19526 19530 28
15625 19531 19532 28
15626 19531 19533 28
15627 19531 19534 28
15628 19531 19535 28
15629 19536 19537 28
15630 19536 19538 28
15631 19536 19539 28
15632 19536 19540 28
15633 19541 19542 28
15634 19541 19543 28
15635 19541 19544 28
15636 19541 19545 28
15637 19546 19547 28
15638 19546 19548 28
15639 19546 19549 28
15640 19546 19550 28
15641 19551 19552 28
15642 19551 19553 28
15643 19551 19554 28
15644 19551 19555 28
15645 19556 19557 28
15646 19556 19558 28
15647 19556 19559 28
15648 19556 19560 28
15649 19561 19562 28
15650 19561 19563 28
15651 19561 19564 28
15652 19561 19565 28
15653 19566 19567 28
15654 19566 19568 28
15655 19566 19569 28
15656 19566 19570 28
15657 19571 19572 28
15658 19571 19573 28
15659 19571 19574 28
15660 19571 19575 28
15661 19576 19577 28
15662 19576 19578 28
15663 19576 19579 28
15664 19576 19580 28
15665 19581 19582 28
15666 19581 19583 28
15667 19581 19584 28
15668 19581 19585 28
15669 19586 19587 28
15670 19586 19588 28
15671 19586 19589 28
15672 19586 19590 28
15673 19591 19592 28
15674 19591 19593 28
15675 19591 19594 28
15676 19591 19595 28
15677 19596 19597 28
15678 19596 19598 28
15679 19596 19599 28
15680 19596 19600 28
15681 19601 19602 28
15682 19601 19603 28
15683 19601 19604 28
15684 19601 19605 28
15685 19606 19607 28
15686 19606 19608 28
15687 19606 19609 28
15688 19606 19610 28
15689 19611 19612 28
15690 19611 19613 28
15691 19611 19614 28
15692 19611 19615 28
15693 19616 19617 28
15694 19616 19618 28
15695 19616 19619 28
15696 19616 19620 28
15697 19621 19622 28
15698 19621 19623 28
15699 19621 19624 28
15700 19621 19625 28
15701 19626 19627 28
15702 19626 19628 28
15703 19626 19629 28
15704 19626 19630 28
15705 19631 19632 28
15706 19631 19633 28
15707 19631 19634 28
15708 19631 19635 28
15709 19636 19637 28
15710 19636 19638 28
15711 19636 19639 28
15712 19636 19640 28
15713 19641 19642 28
15714 19641 19643 28
15715 19641 19644 28
15716 19641 19645 28
15717 19646 19647 28
15718 19646 19648 28
15719 19646 19649 28
15720 19646 19650 28
15721 19651 19652 28
15722 19651 19653 28
15723 19651 19654 28
15724 19651 19655 28
15725 19656 19657 28
15726 19656 19658 28
15727 19656 19659 28
15728 19656 19660 28
15729 19661 19662 28
15730 19661 19663 28
15731 19661 19664 28
15732 19661 19665 28
15733 19666 19667 28
15734 19666 19668 28
15735 19666 19669 28
15736 19666 19670 28
15737 19671 19672 28
15738 19671 19673 28
15739 19671 19674 28
15740 19671 19675 28
15741 19676 19677 28
15742 19676 19678 28
15743 19676 19679 28
15744 19676 19680 28
15745 19681 19682 28
15746 19681 19683 28
15747 19681 19684 28
15748 19681 19685 28
15749 19686 19687 28
15750 19686 19688 28
15751 19686 19689 28
15752 19686 19690 28
15753 19691 19692 28
15754 19691 19693 28
15755 19691 19694 28
15756 19691 19695 28
15757 19696 19697 28
15758 19696 19698 28
15759 19696 19699 28
15760 19696 19700 28
15761 19701 19702 28
15762 19701 19703 28
15763 19701 19704 28
15764 19701 19705 28
15765 19706 19707 28
15766 19706 19708 28
15767 19706 19709 28
15768 19706 19710 28
15769 19711 19712 28
15770 19711 19713 28
15771 19711 19714 28
15772 19711 19715 28
15773 19716 19717 28
15774 19716 19718 28
15775 19716 19719 28
15776 19716 19720 28
15777 19721 19722 28
15778 19721 19723 28
15779 19721 19724 28
15780 19721 19725 28
15781 19726 19727 28
15782 19726 19728 28
15783 19726 19729 28
15784 19726 19730 28
15785 19731 19732 28
15786 19731 19733 28
15787 19731 19734 28
15788 19731 19735 28
15789 19736 19737 28
15790 19736 19738 28
15791 19736 19739 28
15792 19736 19740 28
15793 19741 19742 28
15794 19741 19743 28
15795 19741 19744 28
15796 19741 19745 28
15797 19746 19747 28
15798 19746 19748 28
15799 19746 19749 28
15800 19746 19750 28
15801 19751 19752 28
15802 19751 19753 28
15803 19751 19754 28
15804 19751 19755 28
15805 19756 19757 28
15806 19756 19758 28
15807 19756 19759 28
15808 19756 19760 28
15809 19761 19762 28
15810 19761 19763 28
15811 19761 19764 28
15812 19761 19765 28
15813 19766 19767 28
15814 19766 19768 28
15815 19766 19769 28
15816 19766 19770 28
15817 19771 19772 28
15818 19771 19773 28
15819 19771 19774 28
15820 19771 19775 28
15821 19776 19777 28
15822 19776 19778 28
15823 19776 19779 28
15824 19776 19780 28
15825 19781 19782 28
15826 19781 19783 28
15827 19781 19784 28
15828 19781 19785 28
15829 19786 19787 28
15830 19786 19788 28
15831 19786 19789 28
15832 19786 19790 28
15833 19791 19792 28
15834 19791 19793 28
15835 19791 19794 28
15836 19791 19795 28
15837 19796 19797 28
15838 19796 19798 28
15839 19796 19799 28
15840 19796 19800 28
15841 19801 19802 28
15842 19801 19803 28
15843 19801 19804 28
15844 19801 19805 28
15845 19806 19807 28
15846 19806 19808 28
15847 19806 19809 28
15848 19806 19810 28
15849 19811 19812 28
15850 19811 19813 28
15851 19811 19814 28
15852 19811 19815 28
15853 19816 19817 28
15854 19816 19818 28
15855 19816 19819 28
15856 19816 19820 28
15857 19821 19822 28
15858 19821 19823 28
15859 19821 19824 28
15860 19821 19825 28
15861 19826 19827 28
15862 19826 19828 28
15863 19826 19829 28
15864 19826 19830 28
15865 19831 19832 28
15866 19831 19833 28
15867 19831 19834 28
15868 19831 19835 28
15869 19836 19837 28
15870 19836 19838 28
15871 19836 19839 28
15872 19836 19840 28
15873 19841 19842 28
15874 19841 19843 28
15875 19841 19844 28
15876 19841 19845 28
15877 19846 19847 28
15878 19846 19848 28
15879 19846 19849 28
15880 19846 19850 28
15881 19851 19852 28
15882 19851 19853 28
15883 19851 19854 28
15884 19851 19855 28
15885 19856 19857 28
15886 19856 19858 28
15887 19856 19859 28
15888 19856 19860 28
15889 19861 19862 28
15890 19861 19863 28
15891 19861 19864 28
15892 19861 19865 28
15893 19866 19867 28
15894 19866 19868 28
15895 19866 19869 28
15896 19866 19870 28
15897 19871 19872 28
15898 19871 19873 28
15899 19871 19874 28
15900 19871 19875 28
15901 19876 19877 28
15902 19876 19878 28
15903 19876 19879 28
15904 19876 19880 28
15905 19881 19882 28
15906 19881 19883 28
15907 19881 19884 28
15908 19881 19885 28
15909 19886 19887 28
15910 19886 19888 28
15911 19886 19889 28
15912 19886 19890 28
15913 19891 19892 28
15914 19891 19893 28
15915 19891 19894 28
15916 19891 19895 28
15917 19896 19897 28
15918 19896 19898 28
15919 19896 19899 28
15920 19896 19900 28
15921 19901 19902 28
15922 19901 19903 28
15923 19901 19904 28
15924 19901 19905 28
15925 19906 19907 28
15926 19906 19908 28
15927 19906 19909 28
15928 19906 19910 28
15929 19911 19912 28
15930 19911 19913 28
15931 19911 19914 28
15932 19911 19915 28
15933 19916 19917 28
15934 19916 19918 28
15935 19916 19919 28
15936 19916 19920 28
15937 19921 19922 28
15938 19921 19923 28
15939 19921 19924 28
15940 19921 19925 28
15941 19926 19927 28
15942 19926 19928 28
15943 19926 19929 28
15944 19926 19930 28
15945 19931 19932 28
15946 19931 19933 28
15947 19931 19934 28
15948 19931 19935 28
15949 19936 19937 28
15950 19936 19938 28
15951 19936 19939 28
15952 19936 19940 28
15953 19941 19942 28
15954 19941 19943 28
15955 19941 19944 28
15956 19941 19945 28
15957 19946 19947 28
15958 19946 19948 28
15959 19946 19949 28
15960 19946 19950 28
15961 19951 19952 28
15962 19951 19953 28
15963 19951 19954 28
15964 19951 19955 28
15965 19956 19957 28
15966 19956 19958 28
15967 19956 19959 28
15968 19956 19960 28
15969 19961 19962 28
15970 19961 19963 28
15971 19961 19964 28
15972 19961 19965 28
15973 19966 19967 28
15974 19966 19968 28
15975 19966 19969 28
15976 19966 19970 28
15977 19971 19972 28
15978 19971 19973 28
15979 19971 19974 28
15980 19971 19975 28
15981 19976 19977 28
15982 19976 19978 28
15983 19976 19979 28
15984 19976 19980 28
15985 19981 19982 28
15986 19981 19983 28
15987 19981 19984 28
15988 19981 19985 28
15989 19986 19987 28
15990 19986 19988 28
15991 19986 19989 28
15992 19986 19990 28
15993 19991 19992 28
15994 19991 19993 28
15995 19991 19994 28
15996 19991 19995 28
15997 19996 19997 28
15998 19996 19998 28
15999 19996 19999 28
16000 19996 20000 28
16001 20001 20002 28
16002 20001 20003 28
16003 20001 20004 28
16004 20001 20005 28
16005 20006 20007 28
16006 20006 20008 28
16007 20006 20009 28
16008 20006 20010 28
16009 20011 20012 28
16010 20011 20013 28
16011 20011 20014 28
16012 20011 20015 28
16013 20016 20017 28
16014 20016 20018 28
16015 20016 20019 28
16016 20016 20020 28
16017 20021 20022 28
16018 20021 20023 28
16019 20021 20024 28
16020 20021 20025 28
16021 20026 20027 28
16022 20026 20028 28
16023 20026 20029 28
16024 20026 20030 28
16025 20031 20032 28
16026 20031 20033 28
16027 20031 20034 28
16028 20031 20035 28
16029 20036 20037 28
16030 20036 20038 28
16031 20036 20039 28
16032 20036 20040 28
16033 20041 20042 28
16034 20041 20043 28
16035 20041 20044 28
16036 20041 20045 28
16037 20046 20047 28
16038 20046 20048 28
16039 20046 20049 28
16040 20046 20050 28
16041 20051 20052 28
16042 20051 20053 28
16043 20051 20054 28
16044 20051 20055 28
16045 20056 20057 28
16046 20056 20058 28
16047 20056 20059 28
16048 20056 20060 28
16049 20061 20062 28
16050 20061 20063 28
16051 20061 20064 28
16052 20061 20065 28
16053 20066 20067 28
16054 20066 20068 28
16055 20066 20069 28
16056 20066 20070 28
16057 20071 20072 28
16058 20071 20073 28
16059 20071 20074 28
16060 20071 20075 28
16061 20076 20077 28
16062 20076 20078 28
16063 20076 20079 28
16064 20076 20080 28
16065 20081 20082 28
16066 20081 20083 28
16067 20081 20084 28
16068 20081 20085 28
16069 20086 20087 28
16070 20086 20088 28
16071 20086 20089 28
16072 20086 20090 28
16073 20091 20092 28
16074 20091 20093 28
16075 20091 20094 28
16076 20091 20095 28
16077 20096 20097 28
16078 20096 20098 28
16079 20096 20099 28
16080 20096 20100 28
16081 20101 20102 28
16082 20101 20103 28
16083 20101 20104 28
16084 20101 20105 28
16085 20106 20107 28
16086 20106 20108 28
16087 20106 20109 28
16088 20106 20110 28
16089 20111 20112 28
16090 20111 20113 28
16091 20111 20114 28
16092 20111 20115 28
16093 20116 20117 28
16094 20116 20118 28
16095 20116 20119 28
16096 20116 20120 28
16097 20121 20122 28
16098 20121 20123 28
16099 20121 20124 28
16100 20121 20125 28
16101 20126 20127 28
16102 20126 20128 28
16103 20126 20129 28
16104 20126 20130 28
16105 20131 20132 28
16106 20131 20133 28
16107 20131 20134 28
16108 20131 20135 28
16109 20136 20137 28
16110 20136 20138 28
16111 20136 20139 28
16112 20136 20140 28
16113 20141 20142 28
16114 20141 20143 28
16115 20141 20144 28
16116 20141 20145 28
16117 20146 20147 28
16118 20146 20148 28
16119 20146 20149 28
16120 20146 20150 28
16121 20151 20152 28
16122 20151 20153 28
16123 20151 20154 28
16124 20151 20155 28
16125 20156 20157 28
16126 20156 20158 28
16127 20156 20159 28
16128 20156 20160 28
16129 20161 20162 28
16130 20161 20163 28
16131 20161 20164 28
16132 20161 20165 28
16133 20166 20167 28
16134 20166 20168 28
16135 20166 20169 28
16136 20166 20170 28
16137 20171 20172 28
16138 20171 20173 28
16139 20171 20174 28
16140 20171 20175 28
16141 20176 20177 28
16142 20176 20178 28
16143 20176 20179 28
16144 20176 20180 28
16145 20181 20182 28
16146 20181 20183 28
16147 20181 20184 28
16148 20181 20185 28
16149 20186 20187 28
16150 20186 20188 28
16151 20186 20189 28
16152 20186 20190 28
16153 20191 20192 28
16154 20191 20193 28
16155 20191 20194 28
16156 20191 20195 28
16157 20196 20197 28
16158 20196 20198 28
16159 20196 20199 28
16160 20196 20200 28
16161 20201 20202 28
16162 20201 20203 28
16163 20201 20204 28
16164 20201 20205 28
16165 20206 20207 28
16166 20206 20208 28
16167 20206 20209 28
16168 20206 20210 28
16169 20211 20212 28
16170 20211 20213 28
16171 20211 20214 28
16172 20211 20215 28
16173 20216 20217 28
16174 20216 20218 28
16175 20216 20219 28
16176 20216 20220 28
16177 20221 20222 28
16178 20221 20223 28
16179 20221 20224 28
16180 20221 20225 28
16181 20226 20227 28
16182 20226 20228 28
16183 20226 20229 28
16184 20226 20230 28
16185 20231 20232 28
16186 20231 20233 28
16187 20231 20234 28
16188 20231 20235 28
16189 20236 20237 28
16190 20236 20238 28
16191 20236 20239 28
16192 20236 20240 28
16193 20241 20242 28
16194 20241 20243 28
16195 20241 20244 28
16196 20241 20245 28
16197 20246 20247 28
16198 20246 20248 28
16199 20246 20249 28
16200 20246 20250 28
16201 20251 20252 28
16202 20251 20253 28
16203 20251 20254 28
16204 20251 20255 28
16205 20256 20257 28
16206 20256 20258 28
16207 20256 20259 28
16208 20256 20260 28
16209 20261 20262 28
16210 20261 20263 28
16211 20261 20264 28
16212 20261 20265 28
16213 20266 20267 28
16214 20266 20268 28
16215 20266 20269 28
16216 20266 20270 28
16217 20271 20272 28
16218 20271 20273 28
16219 20271 20274 28
16220 20271 20275 28
16221 20276 20277 28
16222 20276 20278 28
16223 20276 20279 28
16224 20276 20280 28
16225 20281 20282 28
16226 20281 20283 28
16227 20281 20284 28
16228 20281 20285 28
16229 20286 20287 28
16230 20286 20288 28
16231 20286 20289 28
16232 20286 20290 28
16233 20291 20292 28
16234 20291 20293 28
16235 20291 20294 28
16236 20291 20295 28
16237 20296 20297 28
16238 20296 20298 28
16239 20296 20299 28
16240 20296 20300 28
16241 20301 20302 28
16242 20301 20303 28
16243 20301 20304 28
16244 20301 20305 28
16245 20306 20307 28
16246 20306 20308 28
16247 20306 20309 28
16248 20306 20310 28
16249 20311 20312 28
16250 20311 20313 28
16251 20311 20314 28
16252 20311 20315 28
16253 20316 20317 28
16254 20316 20318 28
16255 20316 20319 28
16256 20316 20320 28
16257 20321 20322 28
16258 20321 20323 28
16259 20321 20324 28
16260 20321 20325 28
16261 20326 20327 28
16262 20326 20328 28
16263 20326 20329 28
16264 20326 20330 28
16265 20331 20332 28
16266 20331 20333 28
16267 20331 20334 28
16268 20331 20335 28
16269 20336 20337 28
16270 20336 20338 28
16271 20336 20339 28
16272 20336 20340 28
16273 20341 20342 28
16274 20341 20343 28
16275 20341 20344 28
16276 20341 20345 28
16277 20346 20347 28
16278 20346 20348 28
16279 20346 20349 28
16280 20346 20350 28
16281 20351 20352 28
16282 20351 20353 28
16283 20351 20354 28
16284 20351 20355 28
16285 20356 20357 28
16286 20356 20358 28
16287 20356 20359 28
16288 20356 20360 28
16289 20361 20362 28
16290 20361 20363 28
16291 20361 20364 28
16292 20361 20365 28
16293 20366 20367 28
16294 20366 20368 28
16295 20366 20369 28
16296 20366 20370 28
16297 20371 20372 28
16298 20371 20373 28
16299 20371 20374 28
16300 20371 20375 28
16301 20376 20377 28
16302 20376 20378 28
16303 20376 20379 28
16304 20376 20380 28
16305 20381 20382 28
16306 20381 20383 28
16307 20381 20384 28
16308 20381 20385 28
16309 20386 20387 28
16310 20386 20388 28
16311 20386 20389 28
16312 20386 20390 28
16313 20391 20392 28
16314 20391 20393 28
16315 20391 20394 28
16316 20391 20395 28
16317 20396 20397 28
16318 20396 20398 28
16319 20396 20399 28
16320 20396 20400 28
16321 20401 20402 28
16322 20401 20403 28
16323 20401 20404 28
16324 20401 20405 28
16325 20406 20407 28
16326 20406 20408 28
16327 20406 20409 28
16328 20406 20410 28
16329 20411 20412 28
16330 20411 20413 28
16331 20411 20414 28
16332 20411 20415 28
16333 20416 20417 28
16334 20416 20418 28
16335 20416 20419 28
16336 20416 20420 28
16337 20421 20422 28
16338 20421 20423 28
16339 20421 20424 28
16340 20421 20425 28
16341 20426 20427 28
16342 20426 20428 28
16343 20426 20429 28
16344 20426 20430 28
16345 20431 20432 28
16346 20431 20433 28
16347 20431 20434 28
16348 20431 20435 28
16349 20436 20437 28
16350 20436 20438 28
16351 20436 20439 28
16352 20436 20440 28
16353 20441 20442 28
16354 20441 20443 28
16355 20441 20444 28
16356 20441 20445 28
16357 20446 20447 28
16358 20446 20448 28
16359 20446 20449 28
16360 20446 20450 28
16361 20451 20452 28
16362 20451 20453 28
16363 20451 20454 28
16364 20451 20455 28
16365 20456 20457 28
16366 20456 20458 28
16367 20456 20459 28
16368 20456 20460 28
16369 20461 20462 28
16370 20461 20463 28
16371 20461 20464 28
16372 20461 20465 28
16373 20466 20467 28
16374 20466 20468 28
16375 20466 20469 28
16376 20466 20470 28
16377 20471 20472 28
16378 20471 20473 28
16379 20471 20474 28
16380 20471 20475 28
16381 20476 20477 28
16382 20476 20478 28
16383 20476 20479 28
16384 20476 20480 28
16385 20481 20482 28
16386 20481 20483 28
16387 20481 20484 28
16388 20481 20485 28
16389 20486 20487 28
16390 20486 20488 28
16391 20486 20489 28
16392 20486 20490 28
16393 20491 20492 28
16394 20491 20493 28
16395 20491 20494 28
16396 20491 20495 28
16397 20496 20497 28
16398 20496 20498 28
16399 20496 20499 28
16400 20496 20500 28
16401 20501 20502 28
16402 20501 20503 28
16403 20501 20504 28
16404 20501 20505 28
16405 20506 20507 28
16406 20506 20508 28
16407 20506 20509 28
16408 20506 20510 28
16409 20511 20512 28
16410 20511 20513 28
16411 20511 20514 28
16412 20511 20515 28
16413 20516 20517 28
16414 20516 20518 28
16415 20516 20519 28
16416 20516 20520 28
16417 20521 20522 28
16418 20521 20523 28
16419 20521 20524 28
16420 20521 20525 28
16421 20526 20527 28
16422 20526 20528 28
16423 20526 20529 28
16424 20526 20530 28
16425 20531 20532 28
16426 20531 20533 28
16427 20531 20534 28
16428 20531 20535 28
16429 20536 20537 28
16430 20536 20538 28
16431 20536 20539 28
16432 20536 20540 28
16433 20541 20542 28
16434 20541 20543 28
16435 20541 20544 28
16436 20541 20545 28
16437 20546 20547 28
16438 20546 20548 28
16439 20546 20549 28
16440 20546 20550 28
16441 20551 20552 28
16442 20551 20553 28
16443 20551 20554 28
16444 20551 20555 28
16445 20556 20557 28
16446 20556 20558 28
16447 20556 20559 28
16448 20556 20560 28
16449 20561 20562 28
16450 20561 20563 28
16451 20561 20564 28
16452 20561 20565 28
16453 20566 20567 28
16454 20566 20568 28
16455 20566 20569 28
16456 20566 20570 28
16457 20571 20572 28
16458 20571 20573 28
16459 20571 20574 28
16460 20571 20575 28
16461 20576 20577 28
16462 20576 20578 28
16463 20576 20579 28
16464 20576 20580 28
16465 20581 20582 28
16466 20581 20583 28
16467 20581 20584 28
16468 20581 20585 28
16469 20586 20587 28
16470 20586 20588 28
16471 20586 20589 28
16472 20586 20590 28
16473 20591 20592 28
16474 20591 20593 28
16475 20591 20594 28
16476 20591 20595 28
16477 20596 20597 28
16478 20596 20598 28
16479 20596 20599 28
16480 20596 20600 28
16481 20601 20602 28
16482 20601 20603 28
16483 20601 20604 28
16484 20601 20605 28
16485 20606 20607 28
16486 20606 20608 28
16487 20606 20609 28
16488 20606 20610 28
16489 20611 20612 28
16490 20611 20613 28
16491 20611 20614 28
16492 20611 20615 28
16493 20616 20617 28
16494 20616 20618 28
16495 20616 20619 28
16496 20616 20620 28
16497 20621 20622 28
16498 20621 20623 28
16499 20621 20624 28
16500 20621 20625 28
16501 20626 20627 28
16502 20626 20628 28
16503 20626 20629 28
16504 20626 20630 28
16505 20631 20632 28
16506 20631 20633 28
16507 20631 20634 28
16508 20631 20635 28
16509 20636 20637 28
16510 20636 20638 28
16511 20636 20639 28
16512 20636 20640 28
16513 20641 20642 28
16514 20641 20643 28
16515 20641 20644 28
16516 20641 20645 28
16517 20646 20647 28
16518 20646 20648 28
16519 20646 20649 28
16520 20646 20650 28
16521 20651 20652 28
16522 20651 20653 28
16523 20651 20654 28
16524 20651 20655 28
16525 20656 20657 28
16526 20656 20658 28
16527 20656 20659 28
16528 20656 20660 28
16529 20661 20662 28
16530 20661 20663 28
16531 20661 20664 28
16532 20661 20665 28
16533 20666 20667 28
16534 20666 20668 28
16535 20666 20669 28
16536 20666 20670 28
16537 20671 20672 28
16538 20671 20673 28
16539 20671 20674 28
16540 20671 20675 28
16541 20676 20677 28
16542 20676 20678 28
16543 20676 20679 28
16544 20676 20680 28
16545 20681 20682 28
16546 20681 20683 28
16547 20681 20684 28
16548 20681 20685 28
16549 20686 20687 28
16550 20686 20688 28
16551 20686 20689 28
16552 20686 20690 28
16553 20691 20692 28
16554 20691 20693 28
16555 20691 20694 28
16556 20691 20695 28
16557 20696 20697 28
16558 20696 20698 28
16559 20696 20699 28
16560 20696 20700 28
16561 20701 20702 28
16562 20701 20703 28
16563 20701 20704 28
16564 20701 20705 28
16565 20706 20707 28
16566 20706 20708 28
16567 20706 20709 28
16568 20706 20710 28
16569 20711 20712 28
16570 20711 20713 28
16571 20711 20714 28
16572 20711 20715 28
16573 20716 20717 28
16574 20716 20718 28
16575 20716 20719 28
16576 20716 20720 28
16577 20721 20722 28
16578 20721 20723 28
16579 20721 20724 28
16580 20721 20725 28
16581 20726 20727 28
16582 20726 20728 28
16583 20726 20729 28
16584 20726 20730 28
16585 20731 20732 28
16586 20731 20733 28
16587 20731 20734 28
16588 20731 20735 28
16589 20736 20737 28
16590 20736 20738 28
16591 20736 20739 28
16592 20736 20740 28
16593 20741 20742 28
16594 20741 20743 28
16595 20741 20744 28
16596 20741 20745 28
16597 20746 20747 28
16598 20746 20748 28
16599 20746 20749 28
16600 20746 20750 28
16601 20751 20752 28
16602 20751 20753 28
16603 20751 20754 28
16604 20751 20755 28
16605 20756 20757 28
16606 20756 20758 28
16607 20756 20759 28
16608 20756 20760 28
16609 20761 20762 28
16610 20761 20763 28
16611 20761 20764 28
16612 20761 20765 28
16613 20766 20767 28
16614 20766 20768 28
16615 20766 20769 28
16616 20766 20770 28
16617 20771 20772 28
16618 20771 20773 28
16619 20771 20774 28
16620 20771 20775 28
16621 20776 20777 28
16622 20776 20778 28
16623 20776 20779 28
16624 20776 20780 28
16625 20781 20782 28
16626 20781 20783 28
16627 20781 20784 28
16628 20781 20785 28
16629 20786 20787 28
16630 20786 20788 28
16631 20786 20789 28
16632 20786 20790 28
16633 20791 20792 28
16634 20791 20793 28
16635 20791 20794 28
16636 20791 20795 28
16637 20796 20797 28
16638 20796 20798 28
16639 20796 20799 28
16640 20796 20800 28
16641 20801 20802 28
16642 20801 20803 28
16643 20801 20804 28
16644 20801 20805 28
16645 20806 20807 28
16646 20806 20808 28
16647 20806 20809 28
16648 20806 20810 28
16649 20811 20812 28
16650 20811 20813 28
16651 20811 20814 28
16652 20811 20815 28
16653 20816 20817 28
16654 20816 20818 28
16655 20816 20819 28
16656 20816 20820 28
16657 20821 20822 28
16658 20821 20823 28
16659 20821 20824 28
16660 20821 20825 28
16661 20826 20827 28
16662 20826 20828 28
16663 20826 20829 28
16664 20826 20830 28
16665 20831 20832 28
16666 20831 20833 28
16667 20831 20834 28
16668 20831 20835 28
16669 20836 20837 28
16670 20836 20838 28
16671 20836 20839 28
16672 20836 20840 28
16673 20841 20842 28
16674 20841 20843 28
16675 20841 20844 28
16676 20841 20845 28
16677 20846 20847 28
16678 20846 20848 28
16679 20846 20849 28
16680 20846 20850 28
16681 20851 20852 28
16682 20851 20853 28
16683 20851 20854 28
16684 20851 20855 28
16685 20856 20857 28
16686 20856 20858 28
16687 20856 20859 28
16688 20856 20860 28
16689 20861 20862 28
16690 20861 20863 28
16691 20861 20864 28
16692 20861 20865 28
16693 20866 20867 28
16694 20866 20868 28
16695 20866 20869 28
16696 20866 20870 28
16697 20871 20872 28
16698 20871 20873 28
16699 20871 20874 28
16700 20871 20875 28
16701 20876 20877 28
16702 20876 20878 28
16703 20876 20879 28
16704 20876 20880 28
16705 20881 20882 28
16706 20881 20883 28
16707 20881 20884 28
16708 20881 20885 28
16709 20886 20887 28
16710 20886 20888 28
16711 20886 20889 28
16712 20886 20890 28
16713 20891 20892 28
16714 20891 20893 28
16715 20891 20894 28
16716 20891 20895 28
16717 20896 20897 28
16718 20896 20898 28
16719 20896 20899 28
16720 20896 20900 28
16721 20901 20902 28
16722 20901 20903 28
16723 20901 20904 28
16724 20901 20905 28
16725 20906 20907 28
16726 20906 20908 28
16727 20906 20909 28
16728 20906 20910 28
16729 20911 20912 28
16730 20911 20913 28
16731 20911 20914 28
16732 20911 20915 28
16733 20916 20917 28
16734 20916 20918 28
16735 20916 20919 28
16736 20916 20920 28
16737 20921 20922 28
16738 20921 20923 28
16739 20921 20924 28
16740 20921 20925 28
16741 20926 20927 28
16742 20926 20928 28
16743 20926 20929 28
16744 20926 20930 28
16745 20931 20932 28
16746 20931 20933 28
16747 20931 20934 28
16748 20931 20935 28
16749 20936 20937 28
16750 20936 20938 28
16751 20936 20939 28
16752 20936 20940 28
16753 20941 20942 28
16754 20941 20943 28
16755 20941 20944 28
16756 20941 20945 28
16757 20946 20947 28
16758 20946 20948 28
16759 20946 20949 28
16760 20946 20950 28
16761 20951 20952 28
16762 20951 20953 28
16763 20951 20954 28
16764 20951 20955 28
16765 20956 20957 28
16766 20956 20958 28
16767 20956 20959 28
16768 20956 20960 28
16769 20961 20962 28
16770 20961 20963 28
16771 20961 20964 28
16772 20961 20965 28
16773 20966 20967 28
16774 20966 20968 28
16775 20966 20969 28
16776 20966 20970 28
16777 20971 20972 28
16778 20971 20973 28
16779 20971 20974 28
16780 20971 20975 28
16781 20976 20977 28
16782 20976 20978 28
16783 20976 20979 28
16784 20976 20980 28
16785 20981 20982 28
16786 20981 20983 28
16787 20981 20984 28
16788 20981 20985 28
16789 20986 20987 28
16790 20986 20988 28
16791 20986 20989 28
16792 20986 20990 28
16793 20991 20992 28
16794 20991 20993 28
16795 20991 20994 28
16796 20991 20995 28
16797 20996 20997 28
16798 20996 20998 28
16799 20996 20999 28
16800 20996 21000 28
16801 21001 21002 28
16802 21001 21003 28
16803 21001 21004 28
16804 21001 21005 28
16805 21006 21007 28
16806 21006 21008 28
16807 21006 21009 28
16808 21006 21010 28
16809 21011 21012 28
16810 21011 21013 28
16811 21011 21014 28
16812 21011 21015 28
16813 21016 21017 28
16814 21016 21018 28
16815 21016 21019 28
16816 21016 21020 28
16817 21021 21022 28
16818 21021 21023 28
16819 21021 21024 28
16820 21021 21025 28
16821 21026 21027 28
16822 21026 21028 28
16823 21026 21029 28
16824 21026 21030 28
16825 21031 21032 28
16826 21031 21033 28
16827 21031 21034 28
16828 21031 21035 28
16829 21036 21037 28
16830 21036 21038 28
16831 21036 21039 28
16832 21036 21040 28
16833 21041 21042 28
16834 21041 21043 28
16835 21041 21044 28
16836 21041 21045 28
16837 21046 21047 28
16838 21046 21048 28
16839 21046 21049 28
16840 21046 21050 28
16841 21051 21052 28
16842 21051 21053 28
16843 21051 21054 28
16844 21051 21055 28
16845 21056 21057 28
16846 21056 21058 28
16847 21056 21059 28
16848 21056 21060 28
16849 21061 21062 28
16850 21061 21063 28
16851 21061 21064 28
16852 21061 21065 28
16853 21066 21067 28
16854 21066 21068 28
16855 21066 21069 28
16856 21066 21070 28
16857 21071 21072 28
16858 21071 21073 28
16859 21071 21074 28
16860 21071 21075 28
16861 21076 21077 28
16862 21076 21078 28
16863 21076 21079 28
16864 21076 21080 28
16865 21081 21082 28
16866 21081 21083 28
16867 21081 21084 28
16868 21081 21085 28
16869 21086 21087 28
16870 21086 21088 28
16871 21086 21089 28
16872 21086 21090 28
16873 21091 21092 28
16874 21091 21093 28
16875 21091 21094 28
16876 21091 21095 28
16877 21096 21097 28
16878 21096 21098 28
16879 21096 21099 28
16880 21096 21100 28
16881 21101 21102 28
16882 21101 21103 28
16883 21101 21104 28
16884 21101 21105 28
16885 21106 21107 28
16886 21106 21108 28
16887 21106 21109 28
16888 21106 21110 28
16889 21111 21112 28
16890 21111 21113 28
16891 21111 21114 28
16892 21111 21115 28
16893 21116 21117 28
16894 21116 21118 28
16895 21116 21119 28
16896 21116 21120 28
16897 21121 21122 28
16898 21121 21123 28
16899 21121 21124 28
16900 21121 21125 28
16901 21126 21127 28
16902 21126 21128 28
16903 21126 21129 28
16904 21126 21130 28
16905 21131 21132 28
16906 21131 21133 28
16907 21131 21134 28
16908 21131 21135 28
16909 21136 21137 28
16910 21136 21138 28
16911 21136 21139 28
16912 21136 21140 28
16913 21141 21142 28
16914 21141 21143 28
16915 21141 21144 28
16916 21141 21145 28
16917 21146 21147 28
16918 21146 21148 28
16919 21146 21149 28
16920 21146 21150 28
16921 21151 21152 28
16922 21151 21153 28
16923 21151 21154 28
16924 21151 21155 28
16925 21156 21157 28
16926 21156 21158 28
16927 21156 21159 28
16928 21156 21160 28
16929 21161 21162 28
16930 21161 21163 28
16931 21161 21164 28
16932 21161 21165 28
16933 21166 21167 28
16934 21166 21168 28
16935 21166 21169 28
16936 21166 21170 28
16937 21171 21172 28
16938 21171 21173 28
16939 21171 21174 28
16940 21171 21175 28
16941 21176 21177 28
16942 21176 21178 28
16943 21176 21179 28
16944 21176 21180 28
16945 21181 21182 28
16946 21181 21183 28
16947 21181 21184 28
16948 21181 21185 28
16949 21186 21187 28
16950 21186 21188 28
16951 21186 21189 28
16952 21186 21190 28
16953 21191 21192 28
16954 21191 21193 28
16955 21191 21194 28
16956 21191 21195 28
16957 21196 21197 28
16958 21196 21198 28
16959 21196 21199 28
16960 21196 21200 28
16961 21201 21202 28
16962 21201 21203 28
16963 21201 21204 28
16964 21201 21205 28
16965 21206 21207 28
16966 21206 21208 28
16967 21206 21209 28
16968 21206 21210 28
16969 21211 21212 28
16970 21211 21213 28
16971 21211 21214 28
16972 21211 21215 28
16973 21216 21217 28
16974 21216 21218 28
16975 21216 21219 28
16976 21216 21220 28
16977 21221 21222 28
16978 21221 21223 28
16979 21221 21224 28
16980 21221 21225 28
16981 21226 21227 28
16982 21226 21228 28
16983 21226 21229 28
16984 21226 21230 28
16985 21231 21232 28
16986 21231 21233 28
16987 21231 21234 28
16988 21231 21235 28
16989 21236 21237 28
16990 21236 21238 28
16991 21236 21239 28
16992 21236 21240 28
16993 21241 21242 28
16994 21241 21243 28
16995 21241 21244 28
16996 21241 21245 28
16997 21246 21247 28
16998 21246 21248 28
16999 21246 21249 28
17000 21246 21250 28
17001 21251 21252 28
17002 21251 21253 28
17003 21251 21254 28
17004 21251 21255 28
17005 21256 21257 28
17006 21256 21258 28
17007 21256 21259 28
17008 21256 21260 28
17009 21261 21262 28
17010 21261 21263 28
17011 21261 21264 28
17012 21261 21265 28
17013 21266 21267 28
17014 21266 21268 28
17015 21266 21269 28
17016 21266 21270 28
17017 21271 21272 28
17018 21271 21273 28
17019 21271 21274 28
17020 21271 21275 28
17021 21276 21277 28
17022 21276 21278 28
17023 21276 21279 28
17024 21276 21280 28
17025 21281 21282 28
17026 21281 21283 28
17027 21281 21284 28
17028 21281 21285 28
17029 21286 21287 28
17030 21286 21288 28
17031 21286 21289 28
17032 21286 21290 28
17033 21291 21292 28
17034 21291 21293 28
17035 21291 21294 28
17036 21291 21295 28
17037 21296 21297 28
17038 21296 21298 28
17039 21296 21299 28
17040 21296 21300 28
17041 21301 21302 28
17042 21301 21303 28
17043 21301 21304 28
17044 21301 21305 28
17045 21306 21307 28
17046 21306 21308 28
17047 21306 21309 28
17048 21306 21310 28
17049 21311 21312 28
17050 21311 21313 28
17051 21311 21314 28
17052 21311 21315 28
17053 21316 21317 28
17054 21316 21318 28
17055 21316 21319 28
17056 21316 21320 28
17057 21321 21322 28
17058 21321 21323 28
17059 21321 21324 28
17060 21321 21325 28
17061 21326 21327 28
17062 21326 21328 28
17063 21326 21329 28
17064 21326 21330 28
17065 21331 21332 28
17066 21331 21333 28
17067 21331 21334 28
17068 21331 21335 28
17069 21336 21337 28
17070 21336 21338 28
17071 21336 21339 28
17072 21336 21340 28
17073 21341 21342 28
17074 21341 21343 28
17075 21341 21344 28
17076 21341 21345 28
17077 21346 21347 28
17078 21346 21348 28
17079 21346 21349 28
17080 21346 21350 28
17081 21351 21352 28
17082 21351 21353 28
17083 21351 21354 28
17084 21351 21355 28
17085 21356 21357 28
17086 21356 21358 28
17087 21356 21359 28
17088 21356 21360 28
17089 21361 21362 28
17090 21361 21363 28
17091 21361 21364 28
17092 21361 21365 28
17093 21366 21367 28
17094 21366 21368 28
17095 21366 21369 28
17096 21366 21370 28
17097 21371 21372 28
17098 21371 21373 28
17099 21371 21374 28
17100 21371 21375 28
17101 21376 21377 28
17102 21376 21378 28
17103 21376 21379 28
17104 21376 21380 28
17105 21381 21382 28
17106 21381 21383 28
17107 21381 21384 28
17108 21381 21385 28
17109 21386 21387 28
17110 21386 21388 28
17111 21386 21389 28
17112 21386 21390 28
17113 21391 21392 28
17114 21391 21393 28
17115 21391 21394 28
17116 21391 21395 28
17117 21396 21397 28
17118 21396 21398 28
17119 21396 21399 28
17120 21396 21400 28
17121 21401 21402 28
17122 21401 21403 28
17123 21401 21404 28
17124 21401 21405 28
17125 21406 21407 28
17126 21406 21408 28
17127 21406 21409 28
17128 21406 21410 28
17129 21411 21412 28
17130 21411 21413 28
17131 21411 21414 28
17132 21411 21415 28
17133 21416 21417 28
17134 21416 21418 28
17135 21416 21419 28
17136 21416 21420 28
17137 21421 21422 28
17138 21421 21423 28
17139 21421 21424 28
17140 21421 21425 28
17141 21426 21427 28
17142 21426 21428 28
17143 21426 21429 28
17144 21426 21430 28
17145 21431 21432 28
17146 21431 21433 28
17147 21431 21434 28
17148 21431 21435 28
17149 21436 21437 28
17150 21436 21438 28
17151 21436 21439 28
17152 21436 21440 28
17153 21441 21442 28
17154 21441 21443 28
17155 21441 21444 28
17156 21441 21445 28
17157 21446 21447 28
17158 21446 21448 28
17159 21446 21449 28
17160 21446 21450 28
17161 21451 21452 28
17162 21451 21453 28
17163 21451 21454 28
17164 21451 21455 28
17165 21456 21457 28
17166 21456 21458 28
17167 21456 21459 28
17168 21456 21460 28
17169 21461 21462 28
17170 21461 21463 28
17171 21461 21464 28
17172 21461 21465 28
17173 21466 21467 28
17174 21466 21468 28
17175 21466 21469 28
17176 21466 21470 28
17177 21471 21472 28
17178 21471 21473 28
17179 21471 21474 28
17180 21471 21475 28
17181 21476 21477 28
17182 21476 21478 28
17183 21476 21479 28
17184 21476 21480 28
17185 21481 21482 28
17186 21481 21483 28
17187 21481 21484 28
17188 21481 21485 28
17189 21486 21487 28
17190 21486 21488 28
17191 21486 21489 28
17192 21486 21490 28
17193 21491 21492 28
17194 21491 21493 28
17195 21491 21494 28
17196 21491 21495 28
17197 21496 21497 28
17198 21496 21498 28
17199 21496 21499 28
17200 21496 21500 28
17201 21501 21502 28
17202 21501 21503 28
17203 21501 21504 28
17204 21501 21505 28
17205 21506 21507 28
17206 21506 21508 28
17207 21506 21509 28
17208 21506 21510 28
17209 21511 21512 28
17210 21511 21513 28
17211 21511 21514 28
17212 21511 21515 28
17213 21516 21517 28
17214 21516 21518 28
17215 21516 21519 28
17216 21516 21520 28
17217 21521 21522 28
17218 21521 21523 28
17219 21521 21524 28
17220 21521 21525 28
17221 21526 21527 28
17222 21526 21528 28
17223 21526 21529 28
17224 21526 21530 28
17225 21531 21532 28
17226 21531 21533 28
17227 21531 21534 28
17228 21531 21535 28
17229 21536 21537 28
17230 21536 21538 28
17231 21536 21539 28
17232 21536 21540 28
17233 21541 21542 28
17234 21541 21543 28
17235 21541 21544 28
17236 21541 21545 28
17237 21546 21547 28
17238 21546 21548 28
17239 21546 21549 28
17240 21546 21550 28
17241 21551 21552 28
17242 21551 21553 28
17243 21551 21554 28
17244 21551 21555 28
17245 21556 21557 28
17246 21556 21558 28
17247 21556 21559 28
17248 21556 21560 28
17249 21561 21562 28
17250 21561 21563 28
17251 21561 21564 28
17252 21561 21565 28
17253 21566 21567 28
17254 21566 21568 28
17255 21566 21569 28
17256 21566 21570 28
17257 21571 21572 28
17258 21571 21573 28
17259 21571 21574 28
17260 21571 21575 28
17261 21576 21577 28
17262 21576 21578 28
17263 21576 21579 28
17264 21576 21580 28
17265 21581 21582 28
17266 21581 21583 28
17267 21581 21584 28
17268 21581 21585 28
17269 21586 21587 28
17270 21586 21588 28
17271 21586 21589 28
17272 21586 21590 28
17273 21591 21592 28
17274 21591 21593 28
17275 21591 21594 28
17276 21591 21595 28
17277 21596 21597 28
17278 21596 21598 28
17279 21596 21599 28
17280 21596 21600 28
17281 21601 21602 28
17282 21601 21603 28
17283 21601 21604 28
17284 21601 21605 28
17285 21606 21607 28
17286 21606 21608 28
17287 21606 21609 28
17288 21606 21610 28
17289 21611 21612 28
17290 21611 21613 28
17291 21611 21614 28
17292 21611 21615 28
17293 21616 21617 28
17294 21616 21618 28
17295 21616 21619 28
17296 21616 21620 28
17297 21621 21622 28
17298 21621 21623 28
17299 21621 21624 28
17300 21621 21625 28
17301 21626 21627 28
17302 21626 21628 28
17303 21626 21629 28
17304 21626 21630 28
17305 21631 21632 28
17306 21631 21633 28
17307 21631 21634 28
17308 21631 21635 28
17309 21636 21637 28
17310 21636 21638 28
17311 21636 21639 28
17312 21636 21640 28
17313 21641 21642 28
17314 21641 21643 28
17315 21641 21644 28
17316 21641 21645 28
17317 21646 21647 28
17318 21646 21648 28
17319 21646 21649 28
17320 21646 21650 28
17321 21651 21652 28
17322 21651 21653 28
17323 21651 21654 28
17324 21651 21655 28
17325 21656 21657 28
17326 21656 21658 28
17327 21656 21659 28
17328 21656 21660 28
17329 21661 21662 28
17330 21661 21663 28
17331 21661 21664 28
17332 21661 21665 28
17333 21666 21667 28
17334 21666 21668 28
17335 21666 21669 28
17336 21666 21670 28
17337 21671 21672 28
17338 21671 21673 28
17339 21671 21674 28
17340 21671 21675 28
17341 21676 21677 28
17342 21676 21678 28
17343 21676 21679 28
17344 21676 21680 28
17345 21681 21682 28
17346 21681 21683 28
17347 21681 21684 28
17348 21681 21685 28
17349 21686 21687 28
17350 21686 21688 28
17351 21686 21689 28
17352 21686 21690 28
17353 21691 21692 28
17354 21691 21693 28
17355 21691 21694 28
17356 21691 21695 28
17357 21696 21697 28
17358 21696 21698 28
17359 21696 21699 28
17360 21696 21700 28
17361 21701 21702 28
17362 21701 21703 28
17363 21701 21704 28
17364 21701 21705 28
17365 21706 21707 28
17366 21706 21708 28
17367 21706 21709 28
17368 21706 21710 28
17369 21711 21712 28
17370 21711 21713 28
17371 21711 21714 28
17372 21711 21715 28
17373 21716 21717 28
17374 21716 21718 28
17375 21716 21719 28
17376 21716 21720 28
17377 21721 21722 28
17378 21721 21723 28
17379 21721 21724 28
17380 21721 21725 28
17381 21726 21727 28
17382 21726 21728 28
17383 21726 21729 28
17384 21726 21730 28
17385 21731 21732 28
17386 21731 21733 28
17387 21731 21734 28
17388 21731 21735 28
17389 21736 21737 28
17390 21736 21738 28
17391 21736 21739 28
17392 21736 21740 28
17393 21741 21742 28
17394 21741 21743 28
17395 21741 21744 28
17396 21741 21745 28
17397 21746 21747 28
17398 21746 21748 28
17399 21746 21749 28
17400 21746 21750 28
17401 21751 21752 28
17402 21751 21753 28
17403 21751 21754 28
17404 21751 21755 28
17405 21756 21757 28
17406 21756 21758 28
17407 21756 21759 28
17408 21756 21760 28
17409 21761 21762 28
17410 21761 21763 28
17411 21761 21764 28
17412 21761 21765 28
17413 21766 21767 28
17414 21766 21768 28
17415 21766 21769 28
17416 21766 21770 28
17417 21771 21772 28
17418 21771 21773 28
17419 21771 21774 28
17420 21771 21775 28
17421 21776 21777 28
17422 21776 21778 28
17423 21776 21779 28
17424 21776 21780 28
17425 21781 21782 28
17426 21781 21783 28
17427 21781 21784 28
17428 21781 21785 28
17429 21786 21787 28
17430 21786 21788 28
17431 21786 21789 28
17432 21786 21790 28
17433 21791 21792 28
17434 21791 21793 28
17435 21791 21794 28
17436 21791 21795 28
17437 21796 21797 28
17438 21796 21798 28
17439 21796 21799 28
17440 21796 21800 28
17441 21801 21802 28
17442 21801 21803 28
17443 21801 21804 28
17444 21801 21805 28
17445 21806 21807 28
17446 21806 21808 28
17447 21806 21809 28
17448 21806 21810 28
17449 21811 21812 28
17450 21811 21813 28
17451 21811 21814 28
17452 21811 21815 28
17453 21816 21817 28
17454 21816 21818 28
17455 21816 21819 28
17456 21816 21820 28
17457 21821 21822 28
17458 21821 21823 28
17459 21821 21824 28
17460 21821 21825 28
17461 21826 21827 28
17462 21826 21828 28
17463 21826 21829 28
17464 21826 21830 28
17465 21831 21832 28
17466 21831 21833 28
17467 21831 21834 28
17468 21831 21835 28
17469 21836 21837 28
17470 21836 21838 28
17471 21836 21839 28
17472 21836 21840 28
17473 21841 21842 28
17474 21841 21843 28
17475 21841 21844 28
17476 21841 21845 28
17477 21846 21847 28
17478 21846 21848 28
17479 21846 21849 28
17480 21846 21850 28
17481 21851 21852 28
17482 21851 21853 28
17483 21851 21854 28
17484 21851 21855 28
17485 21856 21857 28
17486 21856 21858 28
17487 21856 21859 28
17488 21856 21860 28
17489 21861 21862 28
17490 21861 21863 28
17491 21861 21864 28
17492 21861 21865 28
17493 21866 21867 28
17494 21866 21868 28
17495 21866 21869 28
17496 21866 21870 28
17497 21871 21872 28
17498 21871 21873 28
17499 21871 21874 28
17500 21871 21875 28
17501 21876 21877 28
17502 21876 21878 28
17503 21876 21879 28
17504 21876 21880 28
17505 21881 21882 28
17506 21881 21883 28
17507 21881 21884 28
17508 21881 21885 28
17509 21886 21887 28
17510 21886 21888 28
17511 21886 21889 28
17512 21886 21890 28
17513 21891 21892 28
17514 21891 21893 28
17515 21891 21894 28
17516 21891 21895 28
17517 21896 21897 28
17518 21896 21898 28
17519 21896 21899 28
17520 21896 21900 28
17521 21901 21902 28
17522 21901 21903 28
17523 21901 21904 28
17524 21901 21905 28
17525 21906 21907 28
17526 21906 21908 28
17527 21906 21909 28
17528 21906 21910 28
17529 21911 21912 28
17530 21911 21913 28
17531 21911 21914 28
17532 21911 21915 28
17533 21916 21917 28
17534 21916 21918 28
17535 21916 21919 28
17536 21916 21920 28
17537 21921 21922 28
17538 21921 21923 28
17539 21921 21924 28
17540 21921 21925 28
17541 21926 21927 28
17542 21926 21928 28
17543 21926 21929 28
17544 21926 21930 28
17545 21931 21932 28
17546 21931 21933 28
17547 21931 21934 28
17548 21931 21935 28
17549 21936 21937 28
17550 21936 21938 28
17551 21936 21939 28
17552 21936 21940 28
17553 21941 21942 28
17554 21941 21943 28
17555 21941 21944 28
17556 21941 21945 28
17557 21946 21947 28
17558 21946 21948 28
17559 21946 21949 28
17560 21946 21950 28
17561 21951 21952 28
17562 21951 21953 28
17563 21951 21954 28
17564 21951 21955 28
17565 21956 21957 28
17566 21956 21958 28
17567 21956 21959 28
17568 21956 21960 28
17569 21961 21962 28
17570 21961 21963 28
17571 21961 21964 28
17572 21961 21965 28
17573 21966 21967 28
17574 21966 21968 28
17575 21966 21969 28
17576 21966 21970 28
17577 21971 21972 28
17578 21971 21973 28
17579 21971 21974 28
17580 21971 21975 28
17581 21976 21977 28
17582 21976 21978 28
17583 21976 21979 28
17584 21976 21980 28
17585 21981 21982 28
17586 21981 21983 28
17587 21981 21984 28
17588 21981 21985 28
17589 21986 21987 28
17590 21986 21988 28
17591 21986 21989 28
17592 21986 21990 28
17593 21991 21992 28
17594 21991 21993 28
17595 21991 21994 28
17596 21991 21995 28
17597 21996 21997 28
17598 21996 21998 28
17599 21996 21999 28
17600 21996 22000 28
17601 22001 22002 28
17602 22001 22003 28
17603 22001 22004 28
17604 22001 22005 28
17605 22006 22007 28
17606 22006 22008 28
17607 22006 22009 28
17608 22006 22010 28
17609 22011 22012 28
17610 22011 22013 28
17611 22011 22014 28
17612 22011 22015 28
17613 22016 22017 28
17614 22016 22018 28
17615 22016 22019 28
17616 22016 22020 28
17617 22021 22022 28
17618 22021 22023 28
17619 22021 22024 28
17620 22021 22025 28
17621 22026 22027 28
17622 22026 22028 28
17623 22026 22029 28
17624 22026 22030 28
17625 22031 22032 28
17626 22031 22033 28
17627 22031 22034 28
17628 22031 22035 28
17629 22036 22037 28
17630 22036 22038 28
17631 22036 22039 28
17632 22036 22040 28
17633 22041 22042 28
17634 22041 22043 28
17635 22041 22044 28
17636 22041 22045 28
17637 22046 22047 28
17638 22046 22048 28
17639 22046 22049 28
17640 22046 22050 28
17641 22051 22052 28
17642 22051 22053 28
17643 22051 22054 28
17644 22051 22055 28
17645 22056 22057 28
17646 22056 22058 28
17647 22056 22059 28
17648 22056 22060 28
17649 22061 22062 28
17650 22061 22063 28
17651 22061 22064 28
17652 22061 22065 28
17653 22066 22067 28
17654 22066 22068 28
17655 22066 22069 28
17656 22066 22070 28
17657 22071 22072 28
17658 22071 22073 28
17659 22071 22074 28
17660 22071 22075 28
17661 22076 22077 28
17662 22076 22078 28
17663 22076 22079 28
17664 22076 22080 28
17665 22081 22082 28
17666 22081 22083 28
17667 22081 22084 28
17668 22081 22085 28
17669 22086 22087 28
17670 22086 22088 28
17671 22086 22089 28
17672 22086 22090 28
17673 22091 22092 28
17674 22091 22093 28
17675 22091 22094 28
17676 22091 22095 28
17677 22096 22097 28
17678 22096 22098 28
17679 22096 22099 28
17680 22096 22100 28
17681 22101 22102 28
17682 22101 22103 28
17683 22101 22104 28
17684 22101 22105 28
17685 22106 22107 28
17686 22106 22108 28
17687 22106 22109 28
17688 22106 22110 28
17689 22111 22112 28
17690 22111 22113 28
17691 22111 22114 28
17692 22111 22115 28
17693 22116 22117 28
17694 22116 22118 28
17695 22116 22119 28
17696 22116 22120 28
17697 22121 22122 28
17698 22121 22123 28
17699 22121 22124 28
17700 22121 22125 28
17701 22126 22127 28
17702 22126 22128 28
17703 22126 22129 28
17704 22126 22130 28
17705 22131 22132 28
17706 22131 22133 28
17707 22131 22134 28
17708 22131 22135 28
17709 22136 22137 28
17710 22136 22138 28
17711 22136 22139 28
17712 22136 22140 28
17713 22141 22142 28
17714 22141 22143 28
17715 22141 22144 28
17716 22141 22145 28
17717 22146 22147 28
17718 22146 22148 28
17719 22146 22149 28
17720 22146 22150 28
17721 22151 22152 28
17722 22151 22153 28
17723 22151 22154 28
17724 22151 22155 28
17725 22156 22157 28
17726 22156 22158 28
17727 22156 22159 28
17728 22156 22160 28
17729 22161 22162 28
17730 22161 22163 28
17731 22161 22164 28
17732 22161 22165 28
17733 22166 22167 28
17734 22166 22168 28
17735 22166 22169 28
17736 22166 22170 28
17737 22171 22172 28
17738 22171 22173 28
17739 22171 22174 28
17740 22171 22175 28
17741 22176 22177 28
17742 22176 22178 28
17743 22176 22179 28
17744 22176 22180 28
17745 22181 22182 28
17746 22181 22183 28
17747 22181 22184 28
17748 22181 22185 28
17749 22186 22187 28
17750 22186 22188 28
17751 22186 22189 28
17752 22186 22190 28
17753 22191 22192 28
17754 22191 22193 28
17755 22191 22194 28
17756 22191 22195 28
17757 22196 22197 28
17758 22196 22198 28
17759 22196 22199 28
17760 22196 22200 28
17761 22201 22202 28
17762 22201 22203 28
17763 22201 22204 28
17764 22201 22205 28
17765 22206 22207 28
17766 22206 22208 28
17767 22206 22209 28
17768 22206 22210 28
17769 22211 22212 28
17770 22211 22213 28
17771 22211 22214 28
17772 22211 22215 28
17773 22216 22217 28
17774 22216 22218 28
17775 22216 22219 28
17776 22216 22220 28
17777 22221 22222 28
17778 22221 22223 28
17779 22221 22224 28
17780 22221 22225 28
17781 22226 22227 28
17782 22226 22228 28
17783 22226 22229 28
17784 22226 22230 28
17785 22231 22232 28
17786 22231 22233 28
17787 22231 22234 28
17788 22231 22235 28
17789 22236 22237 28
17790 22236 22238 28
17791 22236 22239 28
17792 22236 22240 28
17793 22241 22242 28
17794 22241 22243 28
17795 22241 22244 28
17796 22241 22245 28
17797 22246 22247 28
17798 22246 22248 28
17799 22246 22249 28
17800 22246 22250 28
17801 22251 22252 28
17802 22251 22253 28
17803 22251 22254 28
17804 22251 22255 28
17805 22256 22257 28
17806 22256 22258 28
17807 22256 22259 28
17808 22256 22260 28
17809 22261 22262 28
17810 22261 22263 28
17811 22261 22264 28
17812 22261 22265 28
17813 22266 22267 28
17814 22266 22268 28
17815 22266 22269 28
17816 22266 22270 28
17817 22271 22272 28
17818 22271 22273 28
17819 22271 22274 28
17820 22271 22275 28
17821 22276 22277 28
17822 22276 22278 28
17823 22276 22279 28
17824 22276 22280 28
17825 22281 22282 28
17826 22281 22283 28
17827 22281 22284 28
17828 22281 22285 28
17829 22286 22287 28
17830 22286 22288 28
17831 22286 22289 28
17832 22286 22290 28
17833 22291 22292 28
17834 22291 22293 28
17835 22291 22294 28
17836 22291 22295 28
17837 22296 22297 28
17838 22296 22298 28
17839 22296 22299 28
17840 22296 22300 28
17841 22301 22302 28
17842 22301 22303 28
17843 22301 22304 28
17844 22301 22305 28
17845 22306 22307 28
17846 22306 22308 28
17847 22306 22309 28
17848 22306 22310 28
17849 22311 22312 28
17850 22311 22313 28
17851 22311 22314 28
17852 22311 22315 28
17853 22316 22317 28
17854 22316 22318 28
17855 22316 22319 28
17856 22316 22320 28
17857 22321 22322 28
17858 22321 22323 28
17859 22321 22324 28
17860 22321 22325 28
17861 22326 22327 28
17862 22326 22328 28
17863 22326 22329 28
17864 22326 22330 28
17865 22331 22332 28
17866 22331 22333 28
17867 22331 22334 28
17868 22331 22335 28
17869 22336 22337 28
17870 22336 22338 28
17871 22336 22339 28
17872 22336 22340 28
17873 22341 22342 28
17874 22341 22343 28
17875 22341 22344 28
17876 22341 22345 28
17877 22346 22347 28
17878 22346 22348 28
17879 22346 22349 28
17880 22346 22350 28
17881 22351 22352 28
17882 22351 22353 28
17883 22351 22354 28
17884 22351 22355 28
17885 22356 22357 28
17886 22356 22358 28
17887 22356 22359 28
17888 22356 22360 28
17889 22361 22362 28
17890 22361 22363 28
17891 22361 22364 28
17892 22361 22365 28
17893 22366 22367 28
17894 22366 22368 28
17895 22366 22369 28
17896 22366 22370 28
17897 22371 22372 28
17898 22371 22373 28
17899 22371 22374 28
17900 22371 22375 28
17901 22376 22377 28
17902 22376 22378 28
17903 22376 22379 28
17904 22376 22380 28
17905 22381 22382 28
17906 22381 22383 28
17907 22381 22384 28
17908 22381 22385 28
17909 22386 22387 28
17910 22386 22388 28
17911 22386 22389 28
17912 22386 22390 28
17913 22391 22392 28
17914 22391 22393 28
17915 22391 22394 28
17916 22391 22395 28
17917 22396 22397 28
17918 22396 22398 28
17919 22396 22399 28
17920 22396 22400 28
17921 22401 22402 28
17922 22401 22403 28
17923 22401 22404 28
17924 22401 22405 28
17925 22406 22407 28
17926 22406 22408 28
17927 22406 22409 28
17928 22406 22410 28
17929 22411 22412 28
17930 22411 22413 28
17931 22411 22414 28
17932 22411 22415 28
17933 22416 22417 28
17934 22416 22418 28
17935 22416 22419 28
17936 22416 22420 28
17937 22421 22422 28
17938 22421 22423 28
17939 22421 22424 28
17940 22421 22425 28
17941 22426 22427 28
17942 22426 22428 28
17943 22426 22429 28
17944 22426 22430 28
17945 22431 22432 28
17946 22431 22433 28
17947 22431 22434 28
17948 22431 22435 28
17949 22436 22437 28
17950 22436 22438 28
17951 22436 22439 28
17952 22436 22440 28
17953 22441 22442 28
17954 22441 22443 28
17955 22441 22444 28
17956 22441 22445 28
17957 22446 22447 28
17958 22446 22448 28
17959 22446 22449 28
17960 22446 22450 28
17961 22451 22452 28
17962 22451 22453 28
17963 22451 22454 28
17964 22451 22455 28
17965 22456 22457 28
17966 22456 22458 28
17967 22456 22459 28
17968 22456 22460 28
17969 22461 22462 28
17970 22461 22463 28
17971 22461 22464 28
17972 22461 22465 28
17973 22466 22467 28
17974 22466 22468 28
17975 22466 22469 28
17976 22466 22470 28
17977 22471 22472 28
17978 22471 22473 28
17979 22471 22474 28
17980 22471 22475 28
17981 22476 22477 28
17982 22476 22478 28
17983 22476 22479 28
17984 22476 22480 28
17985 22481 22482 28
17986 22481 22483 28
17987 22481 22484 28
17988 22481 22485 28
17989 22486 22487 28
17990 22486 22488 28
17991 22486 22489 28
17992 22486 22490 28
17993 22491 22492 28
17994 22491 22493 28
17995 22491 22494 28
17996 22491 22495 28
17997 22496 22497 28
17998 22496 22498 28
17999 22496 22499 28
18000 22496 22500 28
18001 22501 22502 28
18002 22501 22503 28
18003 22501 22504 28
18004 22501 22505 28
18005 22506 22507 28
18006 22506 22508 28
18007 22506 22509 28
18008 22506 22510 28
18009 22511 22512 28
18010 22511 22513 28
18011 22511 22514 28
18012 22511 22515 28
18013 22516 22517 28
18014 22516 22518 28
18015 22516 22519 28
18016 22516 22520 28
18017 22521 22522 28
18018 22521 22523 28
18019 22521 22524 28
18020 22521 22525 28
18021 22526 22527 28
18022 22526 22528 28
18023 22526 22529 28
18024 22526 22530 28
18025 22531 22532 28
18026 22531 22533 28
18027 22531 22534 28
18028 22531 22535 28
18029 22536 22537 28
18030 22536 22538 28
18031 22536 22539 28
18032 22536 22540 28
18033 22541 22542 28
18034 22541 22543 28
18035 22541 22544 28
18036 22541 22545 28
18037 22546 22547 28
18038 22546 22548 28
18039 22546 22549 28
18040 22546 22550 28
18041 22551 22552 28
18042 22551 22553 28
18043 22551 22554 28
18044 22551 22555 28
18045 22556 22557 28
18046 22556 22558 28
18047 22556 22559 28
18048 22556 22560 28
18049 22561 22562 28
18050 22561 22563 28
18051 22561 22564 28
18052 22561 22565 28
18053 22566 22567 28
18054 22566 22568 28
18055 22566 22569 28
18056 22566 22570 28
18057 22571 22572 28
18058 22571 22573 28
18059 22571 22574 28
18060 22571 22575 28
18061 22576 22577 28
18062 22576 22578 28
18063 22576 22579 28
18064 22576 22580 28
18065 22581 22582 28
18066 22581 22583 28
18067 22581 22584 28
18068 22581 22585 28
18069 22586 22587 28
18070 22586 22588 28
18071 22586 22589 28
18072 22586 22590 28
18073 22591 22592 28
18074 22591 22593 28
18075 22591 22594 28
18076 22591 22595 28
18077 22596 22597 28
18078 22596 22598 28
18079 22596 22599 28
18080 22596 22600 28
18081 22601 22602 28
18082 22601 22603 28
18083 22601 22604 28
18084 22601 22605 28
18085 22606 22607 28
18086 22606 22608 28
18087 22606 22609 28
18088 22606 22610 28
18089 22611 22612 28
18090 22611 22613 28
18091 22611 22614 28
18092 22611 22615 28
18093 22616 22617 28
18094 22616 22618 28
18095 22616 22619 28
18096 22616 22620 28
18097 22621 22622 28
18098 22621 22623 28
18099 22621 22624 28
18100 22621 22625 28
18101 22626 22627 28
18102 22626 22628 28
18103 22626 22629 28
18104 22626 22630 28
18105 22631 22632 28
18106 22631 22633 28
18107 22631 22634 28
18108 22631 22635 28
18109 22636 22637 28
18110 22636 22638 28
18111 22636 22639 28
18112 22636 22640 28
18113 22641 22642 28
18114 22641 22643 28
18115 22641 22644 28
18116 22641 22645 28
18117 22646 22647 28
18118 22646 22648 28
18119 22646 22649 28
18120 22646 22650 28
18121 22651 22652 28
18122 22651 22653 28
18123 22651 22654 28
18124 22651 22655 28
18125 22656 22657 28
18126 22656 22658 28
18127 22656 22659 28
18128 22656 22660 28
18129 22661 22662 28
18130 22661 22663 28
18131 22661 22664 28
18132 22661 22665 28
18133 22666 22667 28
18134 22666 22668 28
18135 22666 22669 28
18136 22666 22670 28
18137 22671 22672 28
18138 22671 22673 28
18139 22671 22674 28
18140 22671 22675 28
18141 22676 22677 28
18142 22676 22678 28
18143 22676 22679 28
18144 22676 22680 28
18145 22681 22682 28
18146 22681 22683 28
18147 22681 22684 28
18148 22681 22685 28
18149 22686 22687 28
18150 22686 22688 28
18151 22686 22689 28
18152 22686 22690 28
18153 22691 22692 28
18154 22691 22693 28
18155 22691 22694 28
18156 22691 22695 28
18157 22696 22697 28
18158 22696 22698 28
18159 22696 22699 28
18160 22696 22700 28
18161 22701 22702 28
18162 22701 22703 28
18163 22701 22704 28
18164 22701 22705 28
18165 22706 22707 28
18166 22706 22708 28
18167 22706 22709 28
18168 22706 22710 28
18169 22711 22712 28
18170 22711 22713 28
18171 22711 22714 28
18172 22711 22715 28
18173 22716 22717 28
18174 22716 22718 28
18175 22716 22719 28
18176 22716 22720 28
18177 22721 22722 28
18178 22721 22723 28
18179 22721 22724 28
18180 22721 22725 28
18181 22726 22727 28
18182 22726 22728 28
18183 22726 22729 28
18184 22726 22730 28
18185 22731 22732 28
18186 22731 22733 28
18187 22731 22734 28
18188 22731 22735 28
18189 22736 22737 28
18190 22736 22738 28
18191 22736 22739 28
18192 22736 22740 28
18193 22741 22742 28
18194 22741 22743 28
18195 22741 22744 28
18196 22741 22745 28
18197 22746 22747 28
18198 22746 22748 28
18199 22746 22749 28
18200 22746 22750 28
18201 22751 22752 28
18202 22751 22753 28
18203 22751 22754 28
18204 22751 22755 28
18205 22756 22757 28
18206 22756 22758 28
18207 22756 22759 28
18208 22756 22760 28
18209 22761 22762 28
18210 22761 22763 28
18211 22761 22764 28
18212 22761 22765 28
18213 22766 22767 28
18214 22766 22768 28
18215 22766 22769 28
18216 22766 22770 28
18217 22771 22772 28
18218 22771 22773 28
18219 22771 22774 28
18220 22771 22775 28
18221 22776 22777 28
18222 22776 22778 28
18223 22776 22779 28
18224 22776 22780 28
18225 22781 22782 28
18226 22781 22783 28
18227 22781 22784 28
18228 22781 22785 28
18229 22786 22787 28
18230 22786 22788 28
18231 22786 22789 28
18232 22786 22790 28
18233 22791 22792 28
18234 22791 22793 28
18235 22791 22794 28
18236 22791 22795 28
18237 22796 22797 28
18238 22796 22798 28
18239 22796 22799 28
18240 22796 22800 28
18241 22801 22802 28
18242 22801 22803 28
18243 22801 22804 28
18244 22801 22805 28
18245 22806 22807 28
18246 22806 22808 28
18247 22806 22809 28
18248 22806 22810 28
18249 22811 22812 28
18250 22811 22813 28
18251 22811 22814 28
18252 22811 22815 28
18253 22816 22817 28
18254 22816 22818 28
18255 22816 22819 28
18256 22816 22820 28
18257 22821 22822 28
18258 22821 22823 28
18259 22821 22824 28
18260 22821 22825 28
18261 22826 22827 28
18262 22826 22828 28
18263 22826 22829 28
18264 22826 22830 28
18265 22831 22832 28
18266 22831 22833 28
18267 22831 22834 28
18268 22831 22835 28
18269 22836 22837 28
18270 22836 22838 28
18271 22836 22839 28
18272 22836 22840 28
18273 22841 22842 28
18274 22841 22843 28
18275 22841 22844 28
18276 22841 22845 28
18277 22846 22847 28
18278 22846 22848 28
18279 22846 22849 28
18280 22846 22850 28
18281 22851 22852 28
18282 22851 22853 28
18283 22851 22854 28
18284 22851 22855 28
18285 22856 22857 28
18286 22856 22858 28
18287 22856 22859 28
18288 22856 22860 28
18289 22861 22862 28
18290 22861 22863 28
18291 22861 22864 28
18292 22861 22865 28
18293 22866 22867 28
18294 22866 22868 28
18295 22866 22869 28
18296 22866 22870 28
18297 22871 22872 28
18298 22871 22873 28
18299 22871 22874 28
18300 22871 22875 28
18301 22876 22877 28
18302 22876 22878 28
18303 22876 22879 28
18304 22876 22880 28
18305 22881 22882 28
18306 22881 22883 28
18307 22881 22884 28
18308 22881 22885 28
18309 22886 22887 28
18310 22886 22888 28
18311 22886 22889 28
18312 22886 22890 28
18313 22891 22892 28
18314 22891 22893 28
18315 22891 22894 28
18316 22891 22895 28
18317 22896 22897 28
18318 22896 22898 28
18319 22896 22899 28
18320 22896 22900 28
18321 22901 22902 28
18322 22901 22903 28
18323 22901 22904 28
18324 22901 22905 28
18325 22906 22907 28
18326 22906 22908 28
18327 22906 22909 28
18328 22906 22910 28
18329 22911 22912 28
18330 22911 22913 28
18331 22911 22914 28
18332 22911 22915 28
18333 22916 22917 28
18334 22916 22918 28
18335 22916 22919 28
18336 22916 22920 28
18337 22921 22922 28
18338 22921 22923 28
18339 22921 22924 28
18340 22921 22925 28
18341 22926 22927 28
18342 22926 22928 28
18343 22926 22929 28
18344 22926 22930 28
18345 22931 22932 28
18346 22931 22933 28
18347 22931 22934 28
18348 22931 22935 28
18349 22936 22937 28
18350 22936 22938 28
18351 22936 22939 28
18352 22936 22940 28
18353 22941 22942 28
18354 22941 22943 28
18355 22941 22944 28
18356 22941 22945 28
18357 22946 22947 28
18358 22946 22948 28
18359 22946 22949 28
18360 22946 22950 28
18361 22951 22952 28
18362 22951 22953 28
18363 22951 22954 28
18364 22951 22955 28
18365 22956 22957 28
18366 22956 22958 28
18367 22956 22959 28
18368 22956 22960 28
18369 22961 22962 28
18370 22961 22963 28
18371 22961 22964 28
18372 22961 22965 28
18373 22966 22967 28
18374 22966 22968 28
18375 22966 22969 28
18376 22966 22970 28
18377 22971 22972 28
18378 22971 22973 28
18379 22971 22974 28
18380 22971 22975 28
18381 22976 22977 28
18382 22976 22978 28
18383 22976 22979 28
18384 22976 22980 28
18385 22981 22982 28
18386 22981 22983 28
18387 22981 22984 28
18388 22981 22985 28
18389 22986 22987 28
18390 22986 22988 28
18391 22986 22989 28
18392 22986 22990 28
18393 22991 22992 28
18394 22991 22993 28
18395 22991 22994 28
18396 22991 22995 28
18397 22996 22997 28
18398 22996 22998 28
18399 22996 22999 28
18400 22996 23000 28
18401 23001 23002 28
18402 23001 23003 28
18403 23001 23004 28
18404 23001 23005 28
18405 23006 23007 28
18406 23006 23008 28
18407 23006 23009 28
18408 23006 23010 28
18409 23011 23012 28
18410 23011 23013 28
18411 23011 23014 28
18412 23011 23015 28
18413 23016 23017 28
18414 23016 23018 28
18415 23016 23019 28
18416 23016 23020 28
18417 23021 23022 28
18418 23021 23023 28
18419 23021 23024 28
18420 23021 23025 28
18421 23026 23027 28
18422 23026 23028 28
18423 23026 23029 28
18424 23026 23030 28
18425 23031 23032 28
18426 23031 23033 28
18427 23031 23034 28
18428 23031 23035 28
18429 23036 23037 28
18430 23036 23038 28
18431 23036 23039 28
18432 23036 23040 28
18433 23041 23042 28
18434 23041 23043 28
18435 23041 23044 28
18436 23041 23045 28
18437 23046 23047 28
18438 23046 23048 28
18439 23046 23049 28
18440 23046 23050 28
18441 23051 23052 28
18442 23051 23053 28
18443 23051 23054 28
18444 23051 23055 28
18445 23056 23057 28
18446 23056 23058 28
18447 23056 23059 28
18448 23056 23060 28
18449 23061 23062 28
18450 23061 23063 28
18451 23061 23064 28
18452 23061 23065 28
18453 23066 23067 28
18454 23066 23068 28
18455 23066 23069 28
18456 23066 23070 28
18457 23071 23072 28
18458 23071 23073 28
18459 23071 23074 28
18460 23071 23075 28
18461 23076 23077 28
18462 23076 23078 28
18463 23076 23079 28
18464 23076 23080 28
18465 23081 23082 28
18466 23081 23083 28
18467 23081 23084 28
18468 23081 23085 28
18469 23086 23087 28
18470 23086 23088 28
18471 23086 23089 28
18472 23086 23090 28
18473 23091 23092 28
18474 23091 23093 28
18475 23091 23094 28
18476 23091 23095 28
18477 23096 23097 28
18478 23096 23098 28
18479 23096 23099 28
18480 23096 23100 28
18481 23101 23102 28
18482 23101 23103 28
18483 23101 23104 28
18484 23101 23105 28
18485 23106 23107 28
18486 23106 23108 28
18487 23106 23109 28
18488 23106 23110 28
18489 23111 23112 28
18490 23111 23113 28
18491 23111 23114 28
18492 23111 23115 28
18493 23116 23117 28
18494 23116 23118 28
18495 23116 23119 28
18496 23116 23120 28
18497 23121 23122 28
18498 23121 23123 28
18499 23121 23124 28
18500 23121 23125 28
18501 23126 23127 28
18502 23126 23128 28
18503 23126 23129 28
18504 23126 23130 28
18505 23131 23132 28
18506 23131 23133 28
18507 23131 23134 28
18508 23131 23135 28
18509 23136 23137 28
18510 23136 23138 28
18511 23136 23139 28
18512 23136 23140 28
18513 23141 23142 28
18514 23141 23143 28
18515 23141 23144 28
18516 23141 23145 28
18517 23146 23147 28
18518 23146 23148 28
18519 23146 23149 28
18520 23146 23150 28
18521 23151 23152 28
18522 23151 23153 28
18523 23151 23154 28
18524 23151 23155 28
18525 23156 23157 28
18526 23156 23158 28
18527 23156 23159 28
18528 23156 23160 28
18529 23161 23162 28
18530 23161 23163 28
18531 23161 23164 28
18532 23161 23165 28
18533 23166 23167 28
18534 23166 23168 28
18535 23166 23169 28
18536 23166 23170 28
18537 23171 23172 28
18538 23171 23173 28
18539 23171 23174 28
18540 23171 23175 28
18541 23176 23177 28
18542 23176 23178 28
18543 23176 23179 28
18544 23176 23180 28
18545 23181 23182 28
18546 23181 23183 28
18547 23181 23184 28
18548 23181 23185 28
18549 23186 23187 28
18550 23186 23188 28
18551 23186 23189 28
18552 23186 23190 28
18553 23191 23192 28
18554 23191 23193 28
18555 23191 23194 28
18556 23191 23195 28
18557 23196 23197 28
18558 23196 23198 28
18559 23196 23199 28
18560 23196 23200 28
18561 23201 23202 28
18562 23201 23203 28
18563 23201 23204 28
18564 23201 23205 28
18565 23206 23207 28
18566 23206 23208 28
18567 23206 23209 28
18568 23206 23210 28
18569 23211 23212 28
18570 23211 23213 28
18571 23211 23214 28
18572 23211 23215 28
18573 23216 23217 28
18574 23216 23218 28
18575 23216 23219 28
18576 23216 23220 28
18577 23221 23222 28
18578 23221 23223 28
18579 23221 23224 28
18580 23221 23225 28
18581 23226 23227 28
18582 23226 23228 28
18583 23226 23229 28
18584 23226 23230 28
18585 23231 23232 28
18586 23231 23233 28
18587 23231 23234 28
18588 23231 23235 28
18589 23236 23237 28
18590 23236 23238 28
18591 23236 23239 28
18592 23236 23240 28
18593 23241 23242 28
18594 23241 23243 28
18595 23241 23244 28
18596 23241 23245 28
18597 23246 23247 28
18598 23246 23248 28
18599 23246 23249 28
18600 23246 23250 28
18601 23251 23252 28
18602 23251 23253 28
18603 23251 23254 28
18604 23251 23255 28
18605 23256 23257 28
18606 23256 23258 28
18607 23256 23259 28
18608 23256 23260 28
18609 23261 23262 28
18610 23261 23263 28
18611 23261 23264 28
18612 23261 23265 28
18613 23266 23267 28
18614 23266 23268 28
18615 23266 23269 28
18616 23266 23270 28
18617 23271 23272 28
18618 23271 23273 28
18619 23271 23274 28
18620 23271 23275 28
18621 23276 23277 28
18622 23276 23278 28
18623 23276 23279 28
18624 23276 23280 28
18625 23281 23282 28
18626 23281 23283 28
18627 23281 23284 28
18628 23281 23285 28
18629 23286 23287 28
18630 23286 23288 28
18631 23286 23289 28
18632 23286 23290 28
18633 23291 23292 28
18634 23291 23293 28
18635 23291 23294 28
18636 23291 23295 28
18637 23296 23297 28
18638 23296 23298 28
18639 23296 23299 28
18640 23296 23300 28
18641 23301 23302 28
18642 23301 23303 28
18643 23301 23304 28
18644 23301 23305 28
18645 23306 23307 28
18646 23306 23308 28
18647 23306 23309 28
18648 23306 23310 28
18649 23311 23312 28
18650 23311 23313 28
18651 23311 23314 28
18652 23311 23315 28
18653 23316 23317 28
18654 23316 23318 28
18655 23316 23319 28
18656 23316 23320 28
18657 23321 23322 28
18658 23321 23323 28
18659 23321 23324 28
18660 23321 23325 28
18661 23326 23327 28
18662 23326 23328 28
18663 23326 23329 28
18664 23326 23330 28
18665 23331 23332 28
18666 23331 23333 28
18667 23331 23334 28
18668 23331 23335 28
18669 23336 23337 28
18670 23336 23338 28
18671 23336 23339 28
18672 23336 23340 28
18673 23341 23342 28
18674 23341 23343 28
18675 23341 23344 28
18676 23341 23345 28
18677 23346 23347 28
18678 23346 23348 28
18679 23346 23349 28
18680 23346 23350 28
18681 23351 23352 28
18682 23351 23353 28
18683 23351 23354 28
18684 23351 23355 28
18685 23356 23357 28
18686 23356 23358 28
18687 23356 23359 28
18688 23356 23360 28
18689 23361 23362 28
18690 23361 23363 28
18691 23361 23364 28
18692 23361 23365 28
18693 23366 23367 28
18694 23366 23368 28
18695 23366 23369 28
18696 23366 23370 28
18697 23371 23372 28
18698 23371 23373 28
18699 23371 23374 28
18700 23371 23375 28
18701 23376 23377 28
18702 23376 23378 28
18703 23376 23379 28
18704 23376 23380 28
18705 23381 23382 28
18706 23381 23383 28
18707 23381 23384 28
18708 23381 23385 28
18709 23386 23387 28
18710 23386 23388 28
18711 23386 23389 28
18712 23386 23390 28
18713 23391 23392 28
18714 23391 23393 28
18715 23391 23394 28
18716 23391 23395 28
18717 23396 23397 28
18718 23396 23398 28
18719 23396 23399 28
18720 23396 23400 28
18721 23401 23402 28
18722 23401 23403 28
18723 23401 23404 28
18724 23401 23405 28
18725 23406 23407 28
18726 23406 23408 28
18727 23406 23409 28
18728 23406 23410 28
18729 23411 23412 28
18730 23411 23413 28
18731 23411 23414 28
18732 23411 23415 28
18733 23416 23417 28
18734 23416 23418 28
18735 23416 23419 28
18736 23416 23420 28
18737 23421 23422 28
18738 23421 23423 28
18739 23421 23424 28
18740 23421 23425 28
18741 23426 23427 28
18742 23426 23428 28
18743 23426 23429 28
18744 23426 23430 28
18745 23431 23432 28
18746 23431 23433 28
18747 23431 23434 28
18748 23431 23435 28
18749 23436 23437 28
18750 23436 23438 28
18751 23436 23439 28
18752 23436 23440 28
18753 23441 23442 28
18754 23441 23443 28
18755 23441 23444 28
18756 23441 23445 28
18757 23446 23447 28
18758 23446 23448 28
18759 23446 23449 28
18760 23446 23450 28
18761 23451 23452 28
18762 23451 23453 28
18763 23451 23454 28
18764 23451 23455 28
18765 23456 23457 28
18766 23456 23458 28
18767 23456 23459 28
18768 23456 23460 28
18769 23461 23462 28
18770 23461 23463 28
18771 23461 23464 28
18772 23461 23465 28
18773 23466 23467 28
18774 23466 23468 28
18775 23466 23469 28
18776 23466 23470 28
18777 23471 23472 28
18778 23471 23473 28
18779 23471 23474 28
18780 23471 23475 28
18781 23476 23477 28
18782 23476 23478 28
18783 23476 23479 28
18784 23476 23480 28
18785 23481 23482 28
18786 23481 23483 28
18787 23481 23484 28
18788 23481 23485 28
18789 23486 23487 28
18790 23486 23488 28
18791 23486 23489 28
18792 23486 23490 28
18793 23491 23492 28
18794 23491 23493 28
18795 23491 23494 28
18796 23491 23495 28
18797 23496 23497 28
18798 23496 23498 28
18799 23496 23499 28
18800 23496 23500 28
18801 23501 23502 28
18802 23501 23503 28
18803 23501 23504 28
18804 23501 23505 28
18805 23506 23507 28
18806 23506 23508 28
18807 23506 23509 28
18808 23506 23510 28
18809 23511 23512 28
18810 23511 23513 28
18811 23511 23514 28
18812 23511 23515 28
18813 23516 23517 28
18814 23516 23518 28
18815 23516 23519 28
18816 23516 23520 28
18817 23521 23522 28
18818 23521 23523 28
18819 23521 23524 28
18820 23521 23525 28
18821 23526 23527 28
18822 23526 23528 28
18823 23526 23529 28
18824 23526 23530 28
18825 23531 23532 28
18826 23531 23533 28
18827 23531 23534 28
18828 23531 23535 28
18829 23536 23537 28
18830 23536 23538 28
18831 23536 23539 28
18832 23536 23540 28
18833 23541 23542 28
18834 23541 23543 28
18835 23541 23544 28
18836 23541 23545 28
18837 23546 23547 28
18838 23546 23548 28
18839 23546 23549 28
18840 23546 23550 28
18841 23551 23552 28
18842 23551 23553 28
18843 23551 23554 28
18844 23551 23555 28
18845 23556 23557 28
18846 23556 23558 28
18847 23556 23559 28
18848 23556 23560 28
18849 23561 23562 28
18850 23561 23563 28
18851 23561 23564 28
18852 23561 23565 28
18853 23566 23567 28
18854 23566 23568 28
18855 23566 23569 28
18856 23566 23570 28
18857 23571 23572 28
18858 23571 23573 28
18859 23571 23574 28
18860 23571 23575 28
18861 23576 23577 28
18862 23576 23578 28
18863 23576 23579 28
18864 23576 23580 28
18865 23581 23582 28
18866 23581 23583 28
18867 23581 23584 28
18868 23581 23585 28
18869 23586 23587 28
18870 23586 23588 28
18871 23586 23589 28
18872 23586 23590 28
18873 23591 23592 28
18874 23591 23593 28
18875 23591 23594 28
18876 23591 23595 28
18877 23596 23597 28
18878 23596 23598 28
18879 23596 23599 28
18880 23596 23600 28
18881 23601 23602 28
18882 23601 23603 28
18883 23601 23604 28
18884 23601 23605 28
18885 23606 23607 28
18886 23606 23608 28
18887 23606 23609 28
18888 23606 23610 28
18889 23611 23612 28
18890 23611 23613 28
18891 23611 23614 28
18892 23611 23615 28
18893 23616 23617 28
18894 23616 23618 28
18895 23616 23619 28
18896 23616 23620 28
18897 23621 23622 28
18898 23621 23623 28
18899 23621 23624 28
18900 23621 23625 28
18901 23626 23627 28
18902 23626 23628 28
18903 23626 23629 28
18904 23626 23630 28
18905 23631 23632 28
18906 23631 23633 28
18907 23631 23634 28
18908 23631 23635 28
18909 23636 23637 28
18910 23636 23638 28
18911 23636 23639 28
18912 23636 23640 28
18913 23641 23642 28
18914 23641 23643 28
18915 23641 23644 28
18916 23641 23645 28
18917 23646 23647 28
18918 23646 23648 28
18919 23646 23649 28
18920 23646 23650 28
18921 23651 23652 28
18922 23651 23653 28
18923 23651 23654 28
18924 23651 23655 28
18925 23656 23657 28
18926 23656 23658 28
18927 23656 23659 28
18928 23656 23660 28
18929 23661 23662 28
18930 23661 23663 28
18931 23661 23664 28
18932 23661 23665 28
18933 23666 23667 28
18934 23666 23668 28
18935 23666 23669 28
18936 23666 23670 28
18937 23671 23672 28
18938 23671 23673 28
18939 23671 23674 28
18940 23671 23675 28
18941 23676 23677 28
18942 23676 23678 28
18943 23676 23679 28
18944 23676 23680 28
18945 23681 23682 28
18946 23681 23683 28
18947 23681 23684 28
18948 23681 23685 28
18949 23686 23687 28
18950 23686 23688 28
18951 23686 23689 28
18952 23686 23690 28
18953 23691 23692 28
18954 23691 23693 28
18955 23691 23694 28
18956 23691 23695 28
18957 23696 23697 28
18958 23696 23698 28
18959 23696 23699 28
18960 23696 23700 28
18961 23701 23702 28
18962 23701 23703 28
18963 23701 23704 28
18964 23701 23705 28
18965 23706 23707 28
18966 23706 23708 28
18967 23706 23709 28
18968 23706 23710 28
18969 23711 23712 28
18970 23711 23713 28
18971 23711 23714 28
18972 23711 23715 28
18973 23716 23717 28
18974 23716 23718 28
18975 23716 23719 28
18976 23716 23720 28
18977 23721 23722 28
18978 23721 23723 28
18979 23721 23724 28
18980 23721 23725 28
18981 23726 23727 28
18982 23726 23728 28
18983 23726 23729 28
18984 23726 23730 28
18985 23731 23732 28
18986 23731 23733 28
18987 23731 23734 28
18988 23731 23735 28
18989 23736 23737 28
18990 23736 23738 28
18991 23736 23739 28
18992 23736 23740 28
18993 23741 23742 28
18994 23741 23743 28
18995 23741 23744 28
18996 23741 23745 28
18997 23746 23747 28
18998 23746 23748 28
18999 23746 23749 28
19000 23746 23750 28
19001 23751 23752 28
19002 23751 23753 28
19003 23751 23754 28
19004 23751 23755 28
19005 23756 23757 28
19006 23756 23758 28
19007 23756 23759 28
19008 23756 23760 28
19009 23761 23762 28
19010 23761 23763 28
19011 23761 23764 28
19012 23761 23765 28
19013 23766 23767 28
19014 23766 23768 28
19015 23766 23769 28
19016 23766 23770 28
19017 23771 23772 28
19018 23771 23773 28
19019 23771 23774 28
19020 23771 23775 28
19021 23776 23777 28
19022 23776 23778 28
19023 23776 23779 28
19024 23776 23780 28
19025 23781 23782 28
19026 23781 23783 28
19027 23781 23784 28
19028 23781 23785 28
19029 23786 23787 28
19030 23786 23788 28
19031 23786 23789 28
19032 23786 23790 28
19033 23791 23792 28
19034 23791 23793 28
19035 23791 23794 28
19036 23791 23795 28
19037 23796 23797 28
19038 23796 23798 28
19039 23796 23799 28
19040 23796 23800 28
19041 23801 23802 28
19042 23801 23803 28
19043 23801 23804 28
19044 23801 23805 28
19045 23806 23807 28
19046 23806 23808 28
19047 23806 23809 28
19048 23806 23810 28
19049 23811 23812 28
19050 23811 23813 28
19051 23811 23814 28
19052 23811 23815 28
19053 23816 23817 28
19054 23816 23818 28
19055 23816 23819 28
19056 23816 23820 28
19057 23821 23822 28
19058 23821 23823 28
19059 23821 23824 28
19060 23821 23825 28
19061 23826 23827 28
19062 23826 23828 28
19063 23826 23829 28
19064 23826 23830 28
19065 23831 23832 28
19066 23831 23833 28
19067 23831 23834 28
19068 23831 23835 28
19069 23836 23837 28
19070 23836 23838 28
19071 23836 23839 28
19072 23836 23840 28
19073 23841 23842 28
19074 23841 23843 28
19075 23841 23844 28
19076 23841 23845 28
19077 23846 23847 28
19078 23846 23848 28
19079 23846 23849 28
19080 23846 23850 28
19081 23851 23852 28
19082 23851 23853 28
19083 23851 23854 28
19084 23851 23855 28
19085 23856 23857 28
19086 23856 23858 28
19087 23856 23859 28
19088 23856 23860 28
19089 23861 23862 28
19090 23861 23863 28
19091 23861 23864 28
19092 23861 23865 28
19093 23866 23867 28
19094 23866 23868 28
19095 23866 23869 28
19096 23866 23870 28
19097 23871 23872 28
19098 23871 23873 28
19099 23871 23874 28
19100 23871 23875 28
19101 23876 23877 28
19102 23876 23878 28
19103 23876 23879 28
19104 23876 23880 28
19105 23881 23882 28
19106 23881 23883 28
19107 23881 23884 28
19108 23881 23885 28
19109 23886 23887 28
19110 23886 23888 28
19111 23886 23889 28
19112 23886 23890 28
19113 23891 23892 28
19114 23891 23893 28
19115 23891 23894 28
19116 23891 23895 28
19117 23896 23897 28
19118 23896 23898 28
19119 23896 23899 28
19120 23896 23900 28
19121 23901 23902 28
19122 23901 23903 28
19123 23901 23904 28
19124 23901 23905 28
19125 23906 23907 28
19126 23906 23908 28
19127 23906 23909 28
19128 23906 23910 28
19129 23911 23912 28
19130 23911 23913 28
19131 23911 23914 28
19132 23911 23915 28
19133 23916 23917 28
19134 23916 23918 28
19135 23916 23919 28
19136 23916 23920 28
19137 23921 23922 28
19138 23921 23923 28
19139 23921 23924 28
19140 23921 23925 28
19141 23926 23927 28
19142 23926 23928 28
19143 23926 23929 28
19144 23926 23930 28
19145 23931 23932 28
19146 23931 23933 28
19147 23931 23934 28
19148 23931 23935 28
19149 23936 23937 28
19150 23936 23938 28
19151 23936 23939 28
19152 23936 23940 28
19153 23941 23942 28
19154 23941 23943 28
19155 23941 23944 28
19156 23941 23945 28
19157 23946 23947 28
19158 23946 23948 28
19159 23946 23949 28
19160 23946 23950 28
19161 23951 23952 28
19162 23951 23953 28
19163 23951 23954 28
19164 23951 23955 28
19165 23956 23957 28
19166 23956 23958 28
19167 23956 23959 28
19168 23956 23960 28
19169 23961 23962 28
19170 23961 23963 28
19171 23961 23964 28
19172 23961 23965 28
19173 23966 23967 28
19174 23966 23968 28
19175 23966 23969 28
19176 23966 23970 28
19177 23971 23972 28
19178 23971 23973 28
19179 23971 23974 28
19180 23971 23975 28
19181 23976 23977 28
19182 23976 23978 28
19183 23976 23979 28
19184 23976 23980 28
19185 23981 23982 28
19186 23981 23983 28
19187 23981 23984 28
19188 23981 23985 28
19189 23986 23987 28
19190 23986 23988 28
19191 23986 23989 28
19192 23986 23990 28
19193 23991 23992 28
19194 23991 23993 28
19195 23991 23994 28
19196 23991 23995 28
19197 23996 23997 28
19198 23996 23998 28
19199 23996 23999 28
19200 23996 24000 28
19201 24001 24002 28
19202 24001 24003 28
19203 24001 24004 28
19204 24001 24005 28
19205 24006 24007 28
19206 24006 24008 28
19207 24006 24009 28
19208 24006 24010 28
19209 24011 24012 28
19210 24011 24013 28
19211 24011 24014 28
19212 24011 24015 28
19213 24016 24017 28
19214 24016 24018 28
19215 24016 24019 28
19216 24016 24020 28
19217 24021 24022 28
19218 24021 24023 28
19219 24021 24024 28
19220 24021 24025 28
19221 24026 24027 28
19222 24026 24028 28
19223 24026 24029 28
19224 24026 24030 28
19225 24031 24032 28
19226 24031 24033 28
19227 24031 24034 28
19228 24031 24035 28
19229 24036 24037 28
19230 24036 24038 28
19231 24036 24039 28
19232 24036 24040 28
19233 24041 24042 28
19234 24041 24043 28
19235 24041 24044 28
19236 24041 24045 28
19237 24046 24047 28
19238 24046 24048 28
19239 24046 24049 28
19240 24046 24050 28
19241 24051 24052 28
19242 24051 24053 28
19243 24051 24054 28
19244 24051 24055 28
19245 24056 24057 28
19246 24056 24058 28
19247 24056 24059 28
19248 24056 24060 28
19249 24061 24062 28
19250 24061 24063 28
19251 24061 24064 28
19252 24061 24065 28
19253 24066 24067 28
19254 24066 24068 28
19255 24066 24069 28
19256 24066 24070 28
19257 24071 24072 28
19258 24071 24073 28
19259 24071 24074 28
19260 24071 24075 28
19261 24076 24077 28
19262 24076 24078 28
19263 24076 24079 28
19264 24076 24080 28
19265 24081 24082 28
19266 24081 24083 28
19267 24081 24084 28
19268 24081 24085 28
19269 24086 24087 28
19270 24086 24088 28
19271 24086 24089 28
19272 24086 24090 28
19273 24091 24092 28
19274 24091 24093 28
19275 24091 24094 28
19276 24091 24095 28
19277 24096 24097 28
19278 24096 24098 28
19279 24096 24099 28
19280 24096 24100 28
19281 24101 24102 28
19282 24101 24103 28
19283 24101 24104 28
19284 24101 24105 28
19285 24106 24107 28
19286 24106 24108 28
19287 24106 24109 28
19288 24106 24110 28
19289 24111 24112 28
19290 24111 24113 28
19291 24111 24114 28
19292 24111 24115 28
19293 24116 24117 28
19294 24116 24118 28
19295 24116 24119 28
19296 24116 24120 28
19297 24121 24122 28
19298 24121 24123 28
19299 24121 24124 28
19300 24121 24125 28
19301 24126 24127 28
19302 24126 24128 28
19303 24126 24129 28
19304 24126 24130 28
19305 24131 24132 28
19306 24131 24133 28
19307 24131 24134 28
19308 24131 24135 28
19309 24136 24137 28
19310 24136 24138 28
19311 24136 24139 28
19312 24136 24140 28
19313 24141 24142 28
19314 24141 24143 28
19315 24141 24144 28
19316 24141 24145 28
19317 24146 24147 28
19318 24146 24148 28
19319 24146 24149 28
19320 24146 24150 28
19321 24151 24152 28
19322 24151 24153 28
19323 24151 24154 28
19324 24151 24155 28
19325 24156 24157 28
19326 24156 24158 28
19327 24156 24159 28
19328 24156 24160 28
19329 24161 24162 28
19330 24161 24163 28
19331 24161 24164 28
19332 24161 24165 28
19333 24166 24167 28
19334 24166 24168 28
19335 24166 24169 28
19336 24166 24170 28
19337 24171 24172 28
19338 24171 24173 28
19339 24171 24174 28
19340 24171 24175 28
19341 24176 24177 28
19342 24176 24178 28
19343 24176 24179 28
19344 24176 24180 28
19345 24181 24182 28
19346 24181 24183 28
19347 24181 24184 28
19348 24181 24185 28
19349 24186 24187 28
19350 24186 24188 28
19351 24186 24189 28
19352 24186 24190 28
19353 24191 24192 28
19354 24191 24193 28
19355 24191 24194 28
19356 24191 24195 28
19357 24196 24197 28
19358 24196 24198 28
19359 24196 24199 28
19360 24196 24200 28
19361 24201 24202 28
19362 24201 24203 28
19363 24201 24204 28
19364 24201 24205 28
19365 24206 24207 28
19366 24206 24208 28
19367 24206 24209 28
19368 24206 24210 28
19369 24211 24212 28
19370 24211 24213 28
19371 24211 24214 28
19372 24211 24215 28
19373 24216 24217 28
19374 24216 24218 28
19375 24216 24219 28
19376 24216 24220 28
19377 24221 24222 28
19378 24221 24223 28
19379 24221 24224 28
19380 24221 24225 28
19381 24226 24227 28
19382 24226 24228 28
19383 24226 24229 28
19384 24226 24230 28
19385 24231 24232 28
19386 24231 24233 28
19387 24231 24234 28
19388 24231 24235 28
19389 24236 24237 28
19390 24236 24238 28
19391 24236 24239 28
19392 24236 24240 28
19393 24241 24242 28
19394 24241 24243 28
19395 24241 24244 28
19396 24241 24245 28
19397 24246 24247 28
19398 24246 24248 28
19399 24246 24249 28
19400 24246 24250 28
19401 24251 24252 28
19402 24251 24253 28
19403 24251 24254 28
19404 24251 24255 28
19405 24256 24257 28
19406 24256 24258 28
19407 24256 24259 28
19408 24256 24260 28
19409 24261 24262 28
19410 24261 24263 28
19411 24261 24264 28
19412 24261 24265 28
19413 24266 24267 28
19414 24266 24268 28
19415 24266 24269 28
19416 24266 24270 28
19417 24271 24272 28
19418 24271 24273 28
19419 24271 24274 28
19420 24271 24275 28
19421 24276 24277 28
19422 24276 24278 28
19423 24276 24279 28
19424 24276 24280 28
19425 24281 24282 28
19426 24281 24283 28
19427 24281 24284 28
19428 24281 24285 28
19429 24286 24287 28
19430 24286 24288 28
19431 24286 24289 28
19432 24286 24290 28
19433 24291 24292 28
19434 24291 24293 28
19435 24291 24294 28
19436 24291 24295 28
19437 24296 24297 28
19438 24296 24298 28
19439 24296 24299 28
19440 24296 24300 28
19441 24301 24302 28
19442 24301 24303 28
19443 24301 24304 28
19444 24301 24305 28
19445 24306 24307 28
19446 24306 24308 28
19447 24306 24309 28
19448 24306 24310 28
19449 24311 24312 28
19450 24311 24313 28
19451 24311 24314 28
19452 24311 24315 28
19453 24316 24317 28
19454 24316 24318 28
19455 24316 24319 28
19456 24316 24320 28
19457 24321 24322 28
19458 24321 24323 28
19459 24321 24324 28
19460 24321 24325 28
19461 24326 24327 28
19462 24326 24328 28
19463 24326 24329 28
19464 24326 24330 28
19465 24331 24332 28
19466 24331 24333 28
19467 24331 24334 28
19468 24331 24335 28
19469 24336 24337 28
19470 24336 24338 28
19471 24336 24339 28
19472 24336 24340 28
19473 24341 24342 28
19474 24341 24343 28
19475 24341 24344 28
19476 24341 24345 28
19477 24346 24347 28
19478 24346 24348 28
19479 24346 24349 28
19480 24346 24350 28
19481 24351 24352 28
19482 24351 24353 28
19483 24351 24354 28
19484 24351 24355 28
19485 24356 24357 28
19486 24356 24358 28
19487 24356 24359 28
19488 24356 24360 28
19489 24361 24362 28
19490 24361 24363 28
19491 24361 24364 28
19492 24361 24365 28
19493 24366 24367 28
19494 24366 24368 28
19495 24366 24369 28
19496 24366 24370 28
19497 24371 24372 28
19498 24371 24373 28
19499 24371 24374 28
19500 24371 24375 28
19501 24376 24377 28
19502 24376 24378 28
19503 24376 24379 28
19504 24376 24380 28
19505 24381 24382 28
19506 24381 24383 28
19507 24381 24384 28
19508 24381 24385 28
19509 24386 24387 28
19510 24386 24388 28
19511 24386 24389 28
19512 24386 24390 28
19513 24391 24392 28
19514 24391 24393 28
19515 24391 24394 28
19516 24391 24395 28
19517 24396 24397 28
19518 24396 24398 28
19519 24396 24399 28
19520 24396 24400 28
19521 24401 24402 28
19522 24401 24403 28
19523 24401 24404 28
19524 24401 24405 28
19525 24406 24407 28
19526 24406 24408 28
19527 24406 24409 28
19528 24406 24410 28
19529 24411 24412 28
19530 24411 24413 28
19531 24411 24414 28
19532 24411 24415 28
19533 24416 24417 28
19534 24416 24418 28
19535 24416 24419 28
19536 24416 24420 28
19537 24421 24422 28
19538 24421 24423 28
19539 24421 24424 28
19540 24421 24425 28
19541 24426 24427 28
19542 24426 24428 28
19543 24426 24429 28
19544 24426 24430 28
19545 24431 24432 28
19546 24431 24433 28
19547 24431 24434 28
19548 24431 24435 28
19549 24436 24437 28
19550 24436 24438 28
19551 24436 24439 28
19552 24436 24440 28
19553 24441 24442 28
19554 24441 24443 28
19555 24441 24444 28
19556 24441 24445 28
19557 24446 24447 28
19558 24446 24448 28
19559 24446 24449 28
19560 24446 24450 28
19561 24451 24452 28
19562 24451 24453 28
19563 24451 24454 28
19564 24451 24455 28
19565 24456 24457 28
19566 24456 24458 28
19567 24456 24459 28
19568 24456 24460 28
19569 24461 24462 28
19570 24461 24463 28
19571 24461 24464 28
19572 24461 24465 28
19573 24466 24467 28
19574 24466 24468 28
19575 24466 24469 28
19576 24466 24470 28
19577 24471 24472 28
19578 24471 24473 28
19579 24471 24474 28
19580 24471 24475 28
19581 24476 24477 28
19582 24476 24478 28
19583 24476 24479 28
19584 24476 24480 28
19585 24481 24482 28
19586 24481 24483 28
19587 24481 24484 28
19588 24481 24485 28
19589 24486 24487 28
19590 24486 24488 28
19591 24486 24489 28
19592 24486 24490 28
19593 24491 24492 28
19594 24491 24493 28
19595 24491 24494 28
19596 24491 24495 28
19597 24496 24497 28
19598 24496 24498 28
19599 24496 24499 28
19600 24496 24500 28
19601 24501 24502 28
19602 24501 24503 28
19603 24501 24504 28
19604 24501 24505 28
19605 24506 24507 28
19606 24506 24508 28
19607 24506 24509 28
19608 24506 24510 28
19609 24511 24512 28
19610 24511 24513 28
19611 24511 24514 28
19612 24511 24515 28
19613 24516 24517 28
19614 24516 24518 28
19615 24516 24519 28
19616 24516 24520 28
19617 24521 24522 28
19618 24521 24523 28
19619 24521 24524 28
19620 24521 24525 28
19621 24526 24527 28
19622 24526 24528 28
19623 24526 24529 28
19624 24526 24530 28
19625 24531 24532 28
19626 24531 24533 28
19627 24531 24534 28
19628 24531 24535 28
19629 24536 24537 28
19630 24536 24538 28
19631 24536 24539 28
19632 24536 24540 28
19633 24541 24542 28
19634 24541 24543 28
19635 24541 24544 28
19636 24541 24545 28
19637 24546 24547 28
19638 24546 24548 28
19639 24546 24549 28
19640 24546 24550 28
19641 24551 24552 28
19642 24551 24553 28
19643 24551 24554 28
19644 24551 24555 28
19645 24556 24557 28
19646 24556 24558 28
19647 24556 24559 28
19648 24556 24560 28
19649 24561 24562 28
19650 24561 24563 28
19651 24561 24564 28
19652 24561 24565 28
19653 24566 24567 28
19654 24566 24568 28
19655 24566 24569 28
19656 24566 24570 28
19657 24571 24572 28
19658 24571 24573 28
19659 24571 24574 28
19660 24571 24575 28
19661 24576 24577 28
19662 24576 24578 28
19663 24576 24579 28
19664 24576 24580 28
19665 24581 24582 28
19666 24581 24583 28
19667 24581 24584 28
19668 24581 24585 28
19669 24586 24587 28
19670 24586 24588 28
19671 24586 24589 28
19672 24586 24590 28
19673 24591 24592 28
19674 24591 24593 28
19675 24591 24594 28
19676 24591 24595 28
19677 24596 24597 28
19678 24596 24598 28
19679 24596 24599 28
19680 24596 24600 28
19681 24601 24602 28
19682 24601 24603 28
19683 24601 24604 28
19684 24601 24605 28
19685 24606 24607 28
19686 24606 24608 28
19687 24606 24609 28
19688 24606 24610 28
19689 24611 24612 28
19690 24611 24613 28
19691 24611 24614 28
19692 24611 24615 28
19693 24616 24617 28
19694 24616 24618 28
19695 24616 24619 28
19696 24616 24620 28
19697 24621 24622 28
19698 24621 24623 28
19699 24621 24624 28
19700 24621 24625 28
19701 24626 24627 28
19702 24626 24628 28
19703 24626 24629 28
19704 24626 24630 28
19705 24631 24632 28
19706 24631 24633 28
19707 24631 24634 28
19708 24631 24635 28
19709 24636 24637 28
19710 24636 24638 28
19711 24636 24639 28
19712 24636 24640 28
19713 24641 24642 28
19714 24641 24643 28
19715 24641 24644 28
19716 24641 24645 28
19717 24646 24647 28
19718 24646 24648 28
19719 24646 24649 28
19720 24646 24650 28
19721 24651 24652 28
19722 24651 24653 28
19723 24651 24654 28
19724 24651 24655 28
19725 24656 24657 28
19726 24656 24658 28
19727 24656 24659 28
19728 24656 24660 28
19729 24661 24662 28
19730 24661 24663 28
19731 24661 24664 28
19732 24661 24665 28
19733 24666 24667 28
19734 24666 24668 28
19735 24666 24669 28
19736 24666 24670 28
19737 24671 24672 28
19738 24671 24673 28
19739 24671 24674 28
19740 24671 24675 28
19741 24676 24677 28
19742 24676 24678 28
19743 24676 24679 28
19744 24676 24680 28
19745 24681 24682 28
19746 24681 24683 28
19747 24681 24684 28
19748 24681 24685 28
19749 24686 24687 28
19750 24686 24688 28
19751 24686 24689 28
19752 24686 24690 28
19753 24691 24692 28
19754 24691 24693 28
19755 24691 24694 28
19756 24691 24695 28
19757 24696 24697 28
19758 24696 24698 28
19759 24696 24699 28
19760 24696 24700 28
19761 24701 24702 28
19762 24701 24703 28
19763 24701 24704 28
19764 24701 24705 28
19765 24706 24707 28
19766 24706 24708 28
19767 24706 24709 28
19768 24706 24710 28
19769 24711 24712 28
19770 24711 24713 28
19771 24711 24714 28
19772 24711 24715 28
19773 24716 24717 28
19774 24716 24718 28
19775 24716 24719 28
19776 24716 24720 28
19777 24721 24722 28
19778 24721 24723 28
19779 24721 24724 28
19780 24721 24725 28
19781 24726 24727 28
19782 24726 24728 28
19783 24726 24729 28
19784 24726 24730 28
19785 24731 24732 28
19786 24731 24733 28
19787 24731 24734 28
19788 24731 24735 28
19789 24736 24737 28
19790 24736 24738 28
19791 24736 24739 28
19792 24736 24740 28
19793 24741 24742 28
19794 24741 24743 28
19795 24741 24744 28
19796 24741 24745 28
19797 24746 24747 28
19798 24746 24748 28
19799 24746 24749 28
19800 24746 24750 28
19801 24751 24752 28
19802 24751 24753 28
19803 24751 24754 28
19804 24751 24755 28
19805 24756 24757 28
19806 24756 24758 28
19807 24756 24759 28
19808 24756 24760 28
19809 24761 24762 28
19810 24761 24763 28
19811 24761 24764 28
19812 24761 24765 28
19813 24766 24767 28
19814 24766 24768 28
19815 24766 24769 28
19816 24766 24770 28
19817 24771 24772 28
19818 24771 24773 28
19819 24771 24774 28
19820 24771 24775 28
19821 24776 24777 28
19822 24776 24778 28
19823 24776 24779 28
19824 24776 24780 28
19825 24781 24782 28
19826 24781 24783 28
19827 24781 24784 28
19828 24781 24785 28
19829 24786 24787 28
19830 24786 24788 28
19831 24786 24789 28
19832 24786 24790 28
19833 24791 24792 28
19834 24791 24793 28
19835 24791 24794 28
19836 24791 24795 28
19837 24796 24797 28
19838 24796 24798 28
19839 24796 24799 28
19840 24796 24800 28
19841 24801 24802 28
19842 24801 24803 28
19843 24801 24804 28
19844 24801 24805 28
19845 24806 24807 28
19846 24806 24808 28
19847 24806 24809 28
19848 24806 24810 28
19849 24811 24812 28
19850 24811 24813 28
19851 24811 24814 28
19852 24811 24815 28
19853 24816 24817 28
19854 24816 24818 28
19855 24816 24819 28
19856 24816 24820 28
19857 24821 24822 28
19858 24821 24823 28
19859 24821 24824 28
19860 24821 24825 28
19861 24826 24827 28
19862 24826 24828 28
19863 24826 24829 28
19864 24826 24830 28
19865 24831 24832 28
19866 24831 24833 28
19867 24831 24834 28
19868 24831 24835 28
19869 24836 24837 28
19870 24836 24838 28
19871 24836 24839 28
19872 24836 24840 28
19873 24841 24842 28
19874 24841 24843 28
19875 24841 24844 28
19876 24841 24845 28
19877 24846 24847 28
19878 24846 24848 28
19879 24846 24849 28
19880 24846 24850 28
19881 24851 24852 28
19882 24851 24853 28
19883 24851 24854 28
19884 24851 24855 28
19885 24856 24857 28
19886 24856 24858 28
19887 24856 24859 28
19888 24856 24860 28
19889 24861 24862 28
19890 24861 24863 28
19891 24861 24864 28
19892 24861 24865 28
19893 24866 24867 28
19894 24866 24868 28
19895 24866 24869 28
19896 24866 24870 28
19897 24871 24872 28
19898 24871 24873 28
19899 24871 24874 28
19900 24871 24875 28
19901 24876 24877 28
19902 24876 24878 28
19903 24876 24879 28
19904 24876 24880 28
19905 24881 24882 28
19906 24881 24883 28
19907 24881 24884 28
19908 24881 24885 28
19909 24886 24887 28
19910 24886 24888 28
19911 24886 24889 28
19912 24886 24890 28
19913 24891 24892 28
19914 24891 24893 28
19915 24891 24894 28
19916 24891 24895 28
19917 24896 24897 28
19918 24896 24898 28
19919 24896 24899 28
19920 24896 24900 28
19921 24901 24902 28
19922 24901 24903 28
19923 24901 24904 28
19924 24901 24905 28
19925 24906 24907 28
19926 24906 24908 28
19927 24906 24909 28
19928 24906 24910 28
19929 24911 24912 28
19930 24911 24913 28
19931 24911 24914 28
19932 24911 24915 28
19933 24916 24917 28
19934 24916 24918 28
19935 24916 24919 28
19936 24916 24920 28
19937 24921 24922 28
19938 24921 24923 28
19939 24921 24924 28
19940 24921 24925 28
19941 24926 24927 28
19942 24926 24928 28
19943 24926 24929 28
19944 24926 24930 28
19945 24931 24932 28
19946 24931 24933 28
19947 24931 24934 28
19948 24931 24935 28
19949 24936 24937 28
19950 24936 24938 28
19951 24936 24939 28
19952 24936 24940 28
19953 24941 24942 28
19954 24941 24943 28
19955 24941 24944 28
19956 24941 24945 28
19957 24946 24947 28
19958 24946 24948 28
19959 24946 24949 28
19960 24946 24950 28
19961 24951 24952 28
19962 24951 24953 28
19963 24951 24954 28
19964 24951 24955 28
19965 24956 24957 28
19966 24956 24958 28
19967 24956 24959 28
19968 24956 24960 28
19969 24961 24962 28
19970 24961 24963 28
19971 24961 24964 28
19972 24961 24965 28
19973 24966 24967 28
19974 24966 24968 28
19975 24966 24969 28
19976 24966 24970 28
19977 24971 24972 28
19978 24971 24973 28
19979 24971 24974 28
19980 24971 24975 28
19981 24976 24977 28
19982 24976 24978 28
19983 24976 24979 28
19984 24976 24980 28
19985 24981 24982 28
19986 24981 24983 28
19987 24981 24984 28
19988 24981 24985 28
19989 24986 24987 28
19990 24986 24988 28
19991 24986 24989 28
19992 24986 24990 28
19993 24991 24992 28
19994 24991 24993 28
19995 24991 24994 28
19996 24991 24995 28
19997 24996 24997 28
19998 24996 24998 28
19999 24996 24999 28
20000 24996 25000 28
20001 25001 25002 28
20002 25001 25003 28
20003 25001 25004 28
20004 25001 25005 28
20005 25006 25007 28
20006 25006 25008 28
20007 25006 25009 28
20008 25006 25010 28
20009 25011 25012 28
20010 25011 25013 28
20011 25011 25014 28
20012 25011 25015 28
20013 25016 25017 28
20014 25016 25018 28
20015 25016 25019 28
20016 25016 25020 28
20017 25021 25022 28
20018 25021 25023 28
20019 25021 25024 28
20020 25021 25025 28
20021 25026 25027 28
20022 25026 25028 28
20023 25026 25029 28
20024 25026 25030 28
20025 25031 25032 28
20026 25031 25033 28
20027 25031 25034 28
20028 25031 25035 28
20029 25036 25037 28
20030 25036 25038 28
20031 25036 25039 28
20032 25036 25040 28
20033 25041 25042 28
20034 25041 25043 28
20035 25041 25044 28
20036 25041 25045 28
20037 25046 25047 28
20038 25046 25048 28
20039 25046 25049 28
20040 25046 25050 28
20041 25051 25052 28
20042 25051 25053 28
20043 25051 25054 28
20044 25051 25055 28
20045 25056 25057 28
20046 25056 25058 28
20047 25056 25059 28
20048 25056 25060 28
20049 25061 25062 28
20050 25061 25063 28
20051 25061 25064 28
20052 25061 25065 28
20053 25066 25067 28
20054 25066 25068 28
20055 25066 25069 28
20056 25066 25070 28
20057 25071 25072 28
20058 25071 25073 28
20059 25071 25074 28
20060 25071 25075 28
20061 25076 25077 28
20062 25076 25078 28
20063 25076 25079 28
20064 25076 25080 28
20065 25081 25082 28
20066 25081 25083 28
20067 25081 25084 28
20068 25081 25085 28
20069 25086 25087 28
20070 25086 25088 28
20071 25086 25089 28
20072 25086 25090 28
20073 25091 25092 28
20074 25091 25093 28
20075 25091 25094 28
20076 25091 25095 28
20077 25096 25097 28
20078 25096 25098 28
20079 25096 25099 28
20080 25096 25100 28
20081 25101 25102 28
20082 25101 25103 28
20083 25101 25104 28
20084 25101 25105 28
20085 25106 25107 28
20086 25106 25108 28
20087 25106 25109 28
20088 25106 25110 28
20089 25111 25112 28
20090 25111 25113 28
20091 25111 25114 28
20092 25111 25115 28
20093 25116 25117 28
20094 25116 25118 28
20095 25116 25119 28
20096 25116 25120 28
20097 25121 25122 28
20098 25121 25123 28
20099 25121 25124 28
20100 25121 25125 28
20101 25126 25127 28
20102 25126 25128 28
20103 25126 25129 28
20104 25126 25130 28
20105 25131 25132 28
20106 25131 25133 28
20107 25131 25134 28
20108 25131 25135 28
20109 25136 25137 28
20110 25136 25138 28
20111 25136 25139 28
20112 25136 25140 28
20113 25141 25142 28
20114 25141 25143 28
20115 25141 25144 28
20116 25141 25145 28
20117 25146 25147 28
20118 25146 25148 28
20119 25146 25149 28
20120 25146 25150 28
20121 25151 25152 28
20122 25151 25153 28
20123 25151 25154 28
20124 25151 25155 28
20125 25156 25157 28
20126 25156 25158 28
20127 25156 25159 28
20128 25156 25160 28
20129 25161 25162 28
20130 25161 25163 28
20131 25161 25164 28
20132 25161 25165 28
20133 25166 25167 28
20134 25166 25168 28
20135 25166 25169 28
20136 25166 25170 28
20137 25171 25172 28
20138 25171 25173 28
20139 25171 25174 28
20140 25171 25175 28
20141 25176 25177 28
20142 25176 25178 28
20143 25176 25179 28
20144 25176 25180 28
20145 25181 25182 28
20146 25181 25183 28
20147 25181 25184 28
20148 25181 25185 28
20149 25186 25187 28
20150 25186 25188 28
20151 25186 25189 28
20152 25186 25190 28
20153 25191 25192 28
20154 25191 25193 28
20155 25191 25194 28
20156 25191 25195 28
20157 25196 25197 28
20158 25196 25198 28
20159 25196 25199 28
20160 25196 25200 28
20161 25201 25202 28
20162 25201 25203 28
20163 25201 25204 28
20164 25201 25205 28
20165 25206 25207 28
20166 25206 25208 28
20167 25206 25209 28
20168 25206 25210 28
20169 25211 25212 28
20170 25211 25213 28
20171 25211 25214 28
20172 25211 25215 28
20173 25216 25217 28
20174 25216 25218 28
20175 25216 25219 28
20176 25216 25220 28
20177 25221 25222 28
20178 25221 25223 28
20179 25221 25224 28
20180 25221 25225 28
20181 25226 25227 28
20182 25226 25228 28
20183 25226 25229 28
20184 25226 25230 28
20185 25231 25232 28
20186 25231 25233 28
20187 25231 25234 28
20188 25231 25235 28
20189 25236 25237 28
20190 25236 25238 28
20191 25236 25239 28
20192 25236 25240 28
20193 25241 25242 28
20194 25241 25243 28
20195 25241 25244 28
20196 25241 25245 28
20197 25246 25247 28
20198 25246 25248 28
20199 25246 25249 28
20200 25246 25250 28
20201 25251 25252 28
20202 25251 25253 28
20203 25251 25254 28
20204 25251 25255 28
20205 25256 25257 28
20206 25256 25258 28
20207 25256 25259 28
20208 25256 25260 28
20209 25261 25262 28
20210 25261 25263 28
20211 25261 25264 28
20212 25261 25265 28
20213 25266 25267 28
20214 25266 25268 28
20215 25266 25269 28
20216 25266 25270 28
20217 25271 25272 28
20218 25271 25273 28
20219 25271 25274 28
20220 25271 25275 28
20221 25276 25277 28
20222 25276 25278 28
20223 25276 25279 28
20224 25276 25280 28
20225 25281 25282 28
20226 25281 25283 28
20227 25281 25284 28
20228 25281 25285 28
20229 25286 25287 28
20230 25286 25288 28
20231 25286 25289 28
20232 25286 25290 28
20233 25291 25292 28
20234 25291 25293 28
20235 25291 25294 28
20236 25291 25295 28
20237 25296 25297 28
20238 25296 25298 28
20239 25296 25299 28
20240 25296 25300 28
20241 25301 25302 28
20242 25301 25303 28
20243 25301 25304 28
20244 25301 25305 28
20245 25306 25307 28
20246 25306 25308 28
20247 25306 25309 28
20248 25306 25310 28
20249 25311 25312 28
20250 25311 25313 28
20251 25311 25314 28
20252 25311 25315 28
20253 25316 25317 28
20254 25316 25318 28
20255 25316 25319 28
20256 25316 25320 28
20257 25321 25322 28
20258 25321 25323 28
20259 25321 25324 28
20260 25321 25325 28
20261 25326 25327 28
20262 25326 25328 28
20263 25326 25329 28
20264 25326 25330 28
20265 25331 25332 28
20266 25331 25333 28
20267 25331 25334 28
20268 25331 25335 28
20269 25336 25337 28
20270 25336 25338 28
20271 25336 25339 28
20272 25336 25340 28
20273 25341 25342 28
20274 25341 25343 28
20275 25341 25344 28
20276 25341 25345 28
20277 25346 25347 28
20278 25346 25348 28
20279 25346 25349 28
20280 25346 25350 28
20281 25351 25352 28
20282 25351 25353 28
20283 25351 25354 28
20284 25351 25355 28
20285 25356 25357 28
20286 25356 25358 28
20287 25356 25359 28
20288 25356 25360 28
20289 25361 25362 28
20290 25361 25363 28
20291 25361 25364 28
20292 25361 25365 28
20293 25366 25367 28
20294 25366 25368 28
20295 25366 25369 28
20296 25366 25370 28
20297 25371 25372 28
20298 25371 25373 28
20299 25371 25374 28
20300 25371 25375 28
20301 25376 25377 28
20302 25376 25378 28
20303 25376 25379 28
20304 25376 25380 28
20305 25381 25382 28
20306 25381 25383 28
20307 25381 25384 28
20308 25381 25385 28
20309 25386 25387 28
20310 25386 25388 28
20311 25386 25389 28
20312 25386 25390 28
20313 25391 25392 28
20314 25391 25393 28
20315 25391 25394 28
20316 25391 25395 28
20317 25396 25397 28
20318 25396 25398 28
20319 25396 25399 28
20320 25396 25400 28
20321 25401 25402 28
20322 25401 25403 28
20323 25401 25404 28
20324 25401 25405 28
20325 25406 25407 28
20326 25406 25408 28
20327 25406 25409 28
20328 25406 25410 28
20329 25411 25412 28
20330 25411 25413 28
20331 25411 25414 28
20332 25411 25415 28
20333 25416 25417 28
20334 25416 25418 28
20335 25416 25419 28
20336 25416 25420 28
20337 25421 25422 28
20338 25421 25423 28
20339 25421 25424 28
20340 25421 25425 28
20341 25426 25427 28
20342 25426 25428 28
20343 25426 25429 28
20344 25426 25430 28
20345 25431 25432 28
20346 25431 25433 28
20347 25431 25434 28
20348 25431 25435 28
20349 25436 25437 28
20350 25436 25438 28
20351 25436 25439 28
20352 25436 25440 28
20353 25441 25442 28
20354 25441 25443 28
20355 25441 25444 28
20356 25441 25445 28
20357 25446 25447 28
20358 25446 25448 28
20359 25446 25449 28
20360 25446 25450 28
20361 25451 25452 28
20362 25451 25453 28
20363 25451 25454 28
20364 25451 25455 28
20365 25456 25457 28
20366 25456 25458 28
20367 25456 25459 28
20368 25456 25460 28
20369 25461 25462 28
20370 25461 25463 28
20371 25461 25464 28
20372 25461 25465 28
20373 25466 25467 28
20374 25466 25468 28
20375 25466 25469 28
20376 25466 25470 28
20377 25471 25472 28
20378 25471 25473 28
20379 25471 25474 28
20380 25471 25475 28
20381 25476 25477 28
20382 25476 25478 28
20383 25476 25479 28
20384 25476 25480 28
20385 25481 25482 28
20386 25481 25483 28
20387 25481 25484 28
20388 25481 25485 28
20389 25486 25487 28
20390 25486 25488 28
20391 25486 25489 28
20392 25486 25490 28
20393 25491 25492 28
20394 25491 25493 28
20395 25491 25494 28
20396 25491 25495 28
20397 25496 25497 28
20398 25496 25498 28
20399 25496 25499 28
20400 25496 25500 28
20401 25501 25502 28
20402 25501 25503 28
20403 25501 25504 28
20404 25501 25505 28
20405 25506 25507 28
20406 25506 25508 28
20407 25506 25509 28
20408 25506 25510 28
20409 25511 25512 28
20410 25511 25513 28
20411 25511 25514 28
20412 25511 25515 28
20413 25516 25517 28
20414 25516 25518 28
20415 25516 25519 28
20416 25516 25520 28
20417 25521 25522 28
20418 25521 25523 28
20419 25521 25524 28
20420 25521 25525 28
20421 25526 25527 28
20422 25526 25528 28
20423 25526 25529 28
20424 25526 25530 28
20425 25531 25532 28
20426 25531 25533 28
20427 25531 25534 28
20428 25531 25535 28
20429 25536 25537 28
20430 25536 25538 28
20431 25536 25539 28
20432 25536 25540 28
20433 25541 25542 28
20434 25541 25543 28
20435 25541 25544 28
20436 25541 25545 28
20437 25546 25547 28
20438 25546 25548 28
20439 25546 25549 28
20440 25546 25550 28
20441 25551 25552 28
20442 25551 25553 28
20443 25551 25554 28
20444 25551 25555 28
20445 25556 25557 28
20446 25556 25558 28
20447 25556 25559 28
20448 25556 25560 28
20449 25561 25562 28
20450 25561 25563 28
20451 25561 25564 28
20452 25561 25565 28
20453 25566 25567 28
20454 25566 25568 28
20455 25566 25569 28
20456 25566 25570 28
20457 25571 25572 28
20458 25571 25573 28
20459 25571 25574 28
20460 25571 25575 28
20461 25576 25577 28
20462 25576 25578 28
20463 25576 25579 28
20464 25576 25580 28
20465 25581 25582 28
20466 25581 25583 28
20467 25581 25584 28
20468 25581 25585 28
20469 25586 25587 28
20470 25586 25588 28
20471 25586 25589 28
20472 25586 25590 28
20473 25591 25592 28
20474 25591 25593 28
20475 25591 25594 28
20476 25591 25595 28
20477 25596 25597 28
20478 25596 25598 28
20479 25596 25599 28
20480 25596 25600 28
20481 25601 25602 28
20482 25601 25603 28
20483 25601 25604 28
20484 25601 25605 28
20485 25606 25607 28
20486 25606 25608 28
20487 25606 25609 28
20488 25606 25610 28
20489 25611 25612 28
20490 25611 25613 28
20491 25611 25614 28
20492 25611 25615 28
20493 25616 25617 28
20494 25616 25618 28
20495 25616 25619 28
20496 25616 25620 28
20497 25621 25622 28
20498 25621 25623 28
20499 25621 25624 28
20500 25621 25625 28
20501 25626 25627 28
20502 25626 25628 28
20503 25626 25629 28
20504 25626 25630 28
20505 25631 25632 28
20506 25631 25633 28
20507 25631 25634 28
20508 25631 25635 28
20509 25636 25637 28
20510 25636 25638 28
20511 25636 25639 28
20512 25636 25640 28
20513 25641 25642 28
20514 25641 25643 28
20515 25641 25644 28
20516 25641 25645 28
20517 25646 25647 28
20518 25646 25648 28
20519 25646 25649 28
20520 25646 25650 28
20521 25651 25652 28
20522 25651 25653 28
20523 25651 25654 28
20524 25651 25655 28
20525 25656 25657 28
20526 25656 25658 28
20527 25656 25659 28
20528 25656 25660 28
20529 25661 25662 28
20530 25661 25663 28
20531 25661 25664 28
20532 25661 25665 28
20533 25666 25667 28
20534 25666 25668 28
20535 25666 25669 28
20536 25666 25670 28
20537 25671 25672 28
20538 25671 25673 28
20539 25671 25674 28
20540 25671 25675 28
20541 25676 25677 28
20542 25676 25678 28
20543 25676 25679 28
20544 25676 25680 28
20545 25681 25682 28
20546 25681 25683 28
20547 25681 25684 28
20548 25681 25685 28
20549 25686 25687 28
20550 25686 25688 28
20551 25686 25689 28
20552 25686 25690 28
20553 25691 25692 28
20554 25691 25693 28
20555 25691 25694 28
20556 25691 25695 28
20557 25696 25697 28
20558 25696 25698 28
20559 25696 25699 28
20560 25696 25700 28
20561 25701 25702 28
20562 25701 25703 28
20563 25701 25704 28
20564 25701 25705 28
20565 25706 25707 28
20566 25706 25708 28
20567 25706 25709 28
20568 25706 25710 28
20569 25711 25712 28
20570 25711 25713 28
20571 25711 25714 28
20572 25711 25715 28
20573 25716 25717 28
20574 25716 25718 28
20575 25716 25719 28
20576 25716 25720 28
20577 25721 25722 28
20578 25721 25723 28
20579 25721 25724 28
20580 25721 25725 28
20581 25726 25727 28
20582 25726 25728 28
20583 25726 25729 28
20584 25726 25730 28
20585 25731 25732 28
20586 25731 25733 28
20587 25731 25734 28
20588 25731 25735 28
20589 25736 25737 28
20590 25736 25738 28
20591 25736 25739 28
20592 25736 25740 28
20593 25741 25742 28
20594 25741 25743 28
20595 25741 25744 28
20596 25741 25745 28
20597 25746 25747 28
20598 25746 25748 28
20599 25746 25749 28
20600 25746 25750 28
20601 25751 25752 28
20602 25751 25753 28
20603 25751 25754 28
20604 25751 25755 28
20605 25756 25757 28
20606 25756 25758 28
20607 25756 25759 28
20608 25756 25760 28
20609 25761 25762 28
20610 25761 25763 28
20611 25761 25764 28
20612 25761 25765 28
20613 25766 25767 28
20614 25766 25768 28
20615 25766 25769 28
20616 25766 25770 28
20617 25771 25772 28
20618 25771 25773 28
20619 25771 25774 28
20620 25771 25775 28
20621 25776 25777 28
20622 25776 25778 28
20623 25776 25779 28
20624 25776 25780 28
20625 25781 25782 28
20626 25781 25783 28
20627 25781 25784 28
20628 25781 25785 28
20629 25786 25787 28
20630 25786 25788 28
20631 25786 25789 28
20632 25786 25790 28
20633 25791 25792 28
20634 25791 25793 28
20635 25791 25794 28
20636 25791 25795 28
20637 25796 25797 28
20638 25796 25798 28
20639 25796 25799 28
20640 25796 25800 28
20641 25801 25802 28
20642 25801 25803 28
20643 25801 25804 28
20644 25801 25805 28
20645 25806 25807 28
20646 25806 25808 28
20647 25806 25809 28
20648 25806 25810 28
20649 25811 25812 28
20650 25811 25813 28
20651 25811 25814 28
20652 25811 25815 28
20653 25816 25817 28
20654 25816 25818 28
20655 25816 25819 28
20656 25816 25820 28
20657 25821 25822 28
20658 25821 25823 28
20659 25821 25824 28
20660 25821 25825 28
20661 25826 25827 28
20662 25826 25828 28
20663 25826 25829 28
20664 25826 25830 28
20665 25831 25832 28
20666 25831 25833 28
20667 25831 25834 28
20668 25831 25835 28
20669 25836 25837 28
20670 25836 25838 28
20671 25836 25839 28
20672 25836 25840 28
20673 25841 25842 28
20674 25841 25843 28
20675 25841 25844 28
20676 25841 25845 28
20677 25846 25847 28
20678 25846 25848 28
20679 25846 25849 28
20680 25846 25850 28
20681 25851 25852 28
20682 25851 25853 28
20683 25851 25854 28
20684 25851 25855 28
20685 25856 25857 28
20686 25856 25858 28
20687 25856 25859 28
20688 25856 25860 28
20689 25861 25862 28
20690 25861 25863 28
20691 25861 25864 28
20692 25861 25865 28
20693 25866 25867 28
20694 25866 25868 28
20695 25866 25869 28
20696 25866 25870 28
20697 25871 25872 28
20698 25871 25873 28
20699 25871 25874 28
20700 25871 25875 28
20701 25876 25877 28
20702 25876 25878 28
20703 25876 25879 28
20704 25876 25880 28
20705 25881 25882 28
20706 25881 25883 28
20707 25881 25884 28
20708 25881 25885 28
20709 25886 25887 28
20710 25886 25888 28
20711 25886 25889 28
20712 25886 25890 28
20713 25891 25892 28
20714 25891 25893 28
20715 25891 25894 28
20716 25891 25895 28
20717 25896 25897 28
20718 25896 25898 28
20719 25896 25899 28
20720 25896 25900 28
20721 25901 25902 28
20722 25901 25903 28
20723 25901 25904 28
20724 25901 25905 28
20725 25906 25907 28
20726 25906 25908 28
20727 25906 25909 28
20728 25906 25910 28
20729 25911 25912 28
20730 25911 25913 28
20731 25911 25914 28
20732 25911 25915 28
20733 25916 25917 28
20734 25916 25918 28
20735 25916 25919 28
20736 25916 25920 28
20737 25921 25922 28
20738 25921 25923 28
20739 25921 25924 28
20740 25921 25925 28
20741 25926 25927 28
20742 25926 25928 28
20743 25926 25929 28
20744 25926 25930 28
20745 25931 25932 28
20746 25931 25933 28
20747 25931 25934 28
20748 25931 25935 28
20749 25936 25937 28
20750 25936 25938 28
20751 25936 25939 28
20752 25936 25940 28
20753 25941 25942 28
20754 25941 25943 28
20755 25941 25944 28
20756 25941 25945 28
20757 25946 25947 28
20758 25946 25948 28
20759 25946 25949 28
20760 25946 25950 28
20761 25951 25952 28
20762 25951 25953 28
20763 25951 25954 28
20764 25951 25955 28
20765 25956 25957 28
20766 25956 25958 28
20767 25956 25959 28
20768 25956 25960 28
20769 25961 25962 28
20770 25961 25963 28
20771 25961 25964 28
20772 25961 25965 28
20773 25966 25967 28
20774 25966 25968 28
20775 25966 25969 28
20776 25966 25970 28
20777 25971 25972 28
20778 25971 25973 28
20779 25971 25974 28
20780 25971 25975 28
20781 25976 25977 28
20782 25976 25978 28
20783 25976 25979 28
20784 25976 25980 28
20785 25981 25982 28
20786 25981 25983 28
20787 25981 25984 28
20788 25981 25985 28
20789 25986 25987 28
20790 25986 25988 28
20791 25986 25989 28
20792 25986 25990 28
20793 25991 25992 28
20794 25991 25993 28
20795 25991 25994 28
20796 25991 25995 28
20797 25996 25997 28
20798 25996 25998 28
20799 25996 25999 28
20800 25996 26000 28
20801 26001 26002 28
20802 26001 26003 28
20803 26001 26004 28
20804 26001 26005 28
20805 26006 26007 28
20806 26006 26008 28
20807 26006 26009 28
20808 26006 26010 28
20809 26011 26012 28
20810 26011 26013 28
20811 26011 26014 28
20812 26011 26015 28
20813 26016 26017 28
20814 26016 26018 28
20815 26016 26019 28
20816 26016 26020 28
20817 26021 26022 28
20818 26021 26023 28
20819 26021 26024 28
20820 26021 26025 28
20821 26026 26027 28
20822 26026 26028 28
20823 26026 26029 28
20824 26026 26030 28
20825 26031 26032 28
20826 26031 26033 28
20827 26031 26034 28
20828 26031 26035 28
20829 26036 26037 28
20830 26036 26038 28
20831 26036 26039 28
20832 26036 26040 28
20833 26041 26042 28
20834 26041 26043 28
20835 26041 26044 28
20836 26041 26045 28
20837 26046 26047 28
20838 26046 26048 28
20839 26046 26049 28
20840 26046 26050 28
20841 26051 26052 28
20842 26051 26053 28
20843 26051 26054 28
20844 26051 26055 28
20845 26056 26057 28
20846 26056 26058 28
20847 26056 26059 28
20848 26056 26060 28
20849 26061 26062 28
20850 26061 26063 28
20851 26061 26064 28
20852 26061 26065 28
20853 26066 26067 28
20854 26066 26068 28
20855 26066 26069 28
20856 26066 26070 28
20857 26071 26072 28
20858 26071 26073 28
20859 26071 26074 28
20860 26071 26075 28
20861 26076 26077 28
20862 26076 26078 28
20863 26076 26079 28
20864 26076 26080 28
20865 26081 26082 28
20866 26081 26083 28
20867 26081 26084 28
20868 26081 26085 28
20869 26086 26087 28
20870 26086 26088 28
20871 26086 26089 28
20872 26086 26090 28
20873 26091 26092 28
20874 26091 26093 28
20875 26091 26094 28
20876 26091 26095 28
20877 26096 26097 28
20878 26096 26098 28
20879 26096 26099 28
20880 26096 26100 28
20881 26101 26102 28
20882 26101 26103 28
20883 26101 26104 28
20884 26101 26105 28
20885 26106 26107 28
20886 26106 26108 28
20887 26106 26109 28
20888 26106 26110 28
20889 26111 26112 28
20890 26111 26113 28
20891 26111 26114 28
20892 26111 26115 28
20893 26116 26117 28
20894 26116 26118 28
20895 26116 26119 28
20896 26116 26120 28
20897 26121 26122 28
20898 26121 26123 28
20899 26121 26124 28
20900 26121 26125 28
20901 26126 26127 28
20902 26126 26128 28
20903 26126 26129 28
20904 26126 26130 28
20905 26131 26132 28
20906 26131 26133 28
20907 26131 26134 28
20908 26131 26135 28
20909 26136 26137 28
20910 26136 26138 28
20911 26136 26139 28
20912 26136 26140 28
20913 26141 26142 28
20914 26141 26143 28
20915 26141 26144 28
20916 26141 26145 28
20917 26146 26147 28
20918 26146 26148 28
20919 26146 26149 28
20920 26146 26150 28
20921 26151 26152 28
20922 26151 26153 28
20923 26151 26154 28
20924 26151 26155 28
20925 26156 26157 28
20926 26156 26158 28
20927 26156 26159 28
20928 26156 26160 28
20929 26161 26162 28
20930 26161 26163 28
20931 26161 26164 28
20932 26161 26165 28
20933 26166 26167 28
20934 26166 26168 28
20935 26166 26169 28
20936 26166 26170 28
20937 26171 26172 28
20938 26171 26173 28
20939 26171 26174 28
20940 26171 26175 28
20941 26176 26177 28
20942 26176 26178 28
20943 26176 26179 28
20944 26176 26180 28
20945 26181 26182 28
20946 26181 26183 28
20947 26181 26184 28
20948 26181 26185 28
20949 26186 26187 28
20950 26186 26188 28
20951 26186 26189 28
20952 26186 26190 28
20953 26191 26192 28
20954 26191 26193 28
20955 26191 26194 28
20956 26191 26195 28
20957 26196 26197 28
20958 26196 26198 28
20959 26196 26199 28
20960 26196 26200 28
20961 26201 26202 28
20962 26201 26203 28
20963 26201 26204 28
20964 26201 26205 28
20965 26206 26207 28
20966 26206 26208 28
20967 26206 26209 28
20968 26206 26210 28
20969 26211 26212 28
20970 26211 26213 28
20971 26211 26214 28
20972 26211 26215 28
20973 26216 26217 28
20974 26216 26218 28
20975 26216 26219 28
20976 26216 26220 28
20977 26221 26222 28
20978 26221 26223 28
20979 26221 26224 28
20980 26221 26225 28
20981 26226 26227 28
20982 26226 26228 28
20983 26226 26229 28
20984 26226 26230 28
20985 26231 26232 28
20986 26231 26233 28
20987 26231 26234 28
20988 26231 26235 28
20989 26236 26237 28
20990 26236 26238 28
20991 26236 26239 28
20992 26236 26240 28
20993 26241 26242 28
20994 26241 26243 28
20995 26241 26244 28
20996 26241 26245 28
20997 26246 26247 28
20998 26246 26248 28
20999 26246 26249 28
21000 26246 26250 28
21001 26251 26252 28
21002 26251 26253 28
21003 26251 26254 28
21004 26251 26255 28
21005 26256 26257 28
21006 26256 26258 28
21007 26256 26259 28
21008 26256 26260 28
21009 26261 26262 28
21010 26261 26263 28
21011 26261 26264 28
21012 26261 26265 28
21013 26266 26267 28
21014 26266 26268 28
21015 26266 26269 28
21016 26266 26270 28
21017 26271 26272 28
21018 26271 26273 28
21019 26271 26274 28
21020 26271 26275 28
21021 26276 26277 28
21022 26276 26278 28
21023 26276 26279 28
21024 26276 26280 28
21025 26281 26282 28
21026 26281 26283 28
21027 26281 26284 28
21028 26281 26285 28
21029 26286 26287 28
21030 26286 26288 28
21031 26286 26289 28
21032 26286 26290 28
21033 26291 26292 28
21034 26291 26293 28
21035 26291 26294 28
21036 26291 26295 28
21037 26296 26297 28
21038 26296 26298 28
21039 26296 26299 28
21040 26296 26300 28
21041 26301 26302 28
21042 26301 26303 28
21043 26301 26304 28
21044 26301 26305 28
21045 26306 26307 28
21046 26306 26308 28
21047 26306 26309 28
21048 26306 26310 28
21049 26311 26312 28
21050 26311 26313 28
21051 26311 26314 28
21052 26311 26315 28
21053 26316 26317 28
21054 26316 26318 28
21055 26316 26319 28
21056 26316 26320 28
21057 26321 26322 28
21058 26321 26323 28
21059 26321 26324 28
21060 26321 26325 28
21061 26326 26327 28
21062 26326 26328 28
21063 26326 26329 28
21064 26326 26330 28
21065 26331 26332 28
21066 26331 26333 28
21067 26331 26334 28
21068 26331 26335 28
21069 26336 26337 28
21070 26336 26338 28
21071 26336 26339 28
21072 26336 26340 28
21073 26341 26342 28
21074 26341 26343 28
21075 26341 26344 28
21076 26341 26345 28
21077 26346 26347 28
21078 26346 26348 28
21079 26346 26349 28
21080 26346 26350 28
21081 26351 26352 28
21082 26351 26353 28
21083 26351 26354 28
21084 26351 26355 28
21085 26356 26357 28
21086 26356 26358 28
21087 26356 26359 28
21088 26356 26360 28
21089 26361 26362 28
21090 26361 26363 28
21091 26361 26364 28
21092 26361 26365 28
21093 26366 26367 28
21094 26366 26368 28
21095 26366 26369 28
21096 26366 26370 28
21097 26371 26372 28
21098 26371 26373 28
21099 26371 26374 28
21100 26371 26375 28
21101 26376 26377 28
21102 26376 26378 28
21103 26376 26379 28
21104 26376 26380 28
21105 26381 26382 28
21106 26381 26383 28
21107 26381 26384 28
21108 26381 26385 28
21109 26386 26387 28
21110 26386 26388 28
21111 26386 26389 28
21112 26386 26390 28
21113 26391 26392 28
21114 26391 26393 28
21115 26391 26394 28
21116 26391 26395 28
21117 26396 26397 28
21118 26396 26398 28
21119 26396 26399 28
21120 26396 26400 28
21121 26401 26402 28
21122 26401 26403 28
21123 26401 26404 28
21124 26401 26405 28
21125 26406 26407 28
21126 26406 26408 28
21127 26406 26409 28
21128 26406 26410 28
21129 26411 26412 28
21130 26411 26413 28
21131 26411 26414 28
21132 26411 26415 28
21133 26416 26417 28
21134 26416 26418 28
21135 26416 26419 28
21136 26416 26420 28
21137 26421 26422 28
21138 26421 26423 28
21139 26421 26424 28
21140 26421 26425 28
21141 26426 26427 28
21142 26426 26428 28
21143 26426 26429 28
21144 26426 26430 28
21145 26431 26432 28
21146 26431 26433 28
21147 26431 26434 28
21148 26431 26435 28
21149 26436 26437 28
21150 26436 26438 28
21151 26436 26439 28
21152 26436 26440 28
21153 26441 26442 28
21154 26441 26443 28
21155 26441 26444 28
21156 26441 26445 28
21157 26446 26447 28
21158 26446 26448 28
21159 26446 26449 28
21160 26446 26450 28
21161 26451 26452 28
21162 26451 26453 28
21163 26451 26454 28
21164 26451 26455 28
21165 26456 26457 28
21166 26456 26458 28
21167 26456 26459 28
21168 26456 26460 28
21169 26461 26462 28
21170 26461 26463 28
21171 26461 26464 28
21172 26461 26465 28
21173 26466 26467 28
21174 26466 26468 28
21175 26466 26469 28
21176 26466 26470 28
21177 26471 26472 28
21178 26471 26473 28
21179 26471 26474 28
21180 26471 26475 28
21181 26476 26477 28
21182 26476 26478 28
21183 26476 26479 28
21184 26476 26480 28
21185 26481 26482 28
21186 26481 26483 28
21187 26481 26484 28
21188 26481 26485 28
21189 26486 26487 28
21190 26486 26488 28
21191 26486 26489 28
21192 26486 26490 28
21193 26491 26492 28
21194 26491 26493 28
21195 26491 26494 28
21196 26491 26495 28
21197 26496 26497 28
21198 26496 26498 28
21199 26496 26499 28
21200 26496 26500 28
21201 26501 26502 28
21202 26501 26503 28
21203 26501 26504 28
21204 26501 26505 28
21205 26506 26507 28
21206 26506 26508 28
21207 26506 26509 28
21208 26506 26510 28
21209 26511 26512 28
21210 26511 26513 28
21211 26511 26514 28
21212 26511 26515 28
21213 26516 26517 28
21214 26516 26518 28
21215 26516 26519 28
21216 26516 26520 28
21217 26521 26522 28
21218 26521 26523 28
21219 26521 26524 28
21220 26521 26525 28
21221 26526 26527 28
21222 26526 26528 28
21223 26526 26529 28
21224 26526 26530 28
21225 26531 26532 28
21226 26531 26533 28
21227 26531 26534 28
21228 26531 26535 28
21229 26536 26537 28
21230 26536 26538 28
21231 26536 26539 28
21232 26536 26540 28
21233 26541 26542 28
21234 26541 26543 28
21235 26541 26544 28
21236 26541 26545 28
21237 26546 26547 28
21238 26546 26548 28
21239 26546 26549 28
21240 26546 26550 28
21241 26551 26552 28
21242 26551 26553 28
21243 26551 26554 28
21244 26551 26555 28
21245 26556 26557 28
21246 26556 26558 28
21247 26556 26559 28
21248 26556 26560 28
21249 26561 26562 28
21250 26561 26563 28
21251 26561 26564 28
21252 26561 26565 28
21253 26566 26567 28
21254 26566 26568 28
21255 26566 26569 28
21256 26566 26570 28
21257 26571 26572 28
21258 26571 26573 28
21259 26571 26574 28
21260 26571 26575 28
21261 26576 26577 28
21262 26576 26578 28
21263 26576 26579 28
21264 26576 26580 28
21265 26581 26582 28
21266 26581 26583 28
21267 26581 26584 28
21268 26581 26585 28
21269 26586 26587 28
21270 26586 26588 28
21271 26586 26589 28
21272 26586 26590 28
21273 26591 26592 28
21274 26591 26593 28
21275 26591 26594 28
21276 26591 26595 28
21277 26596 26597 28
21278 26596 26598 28
21279 26596 26599 28
21280 26596 26600 28
21281 26601 26602 28
21282 26601 26603 28
21283 26601 26604 28
21284 26601 26605 28
21285 26606 26607 28
21286 26606 26608 28
21287 26606 26609 28
21288 26606 26610 28
21289 26611 26612 28
21290 26611 26613 28
21291 26611 26614 28
21292 26611 26615 28
21293 26616 26617 28
21294 26616 26618 28
21295 26616 26619 28
21296 26616 26620 28
21297 26621 26622 28
21298 26621 26623 28
21299 26621 26624 28
21300 26621 26625 28
21301 26626 26627 28
21302 26626 26628 28
21303 26626 26629 28
21304 26626 26630 28
21305 26631 26632 28
21306 26631 26633 28
21307 26631 26634 28
21308 26631 26635 28
21309 26636 26637 28
21310 26636 26638 28
21311 26636 26639 28
21312 26636 26640 28
21313 26641 26642 28
21314 26641 26643 28
21315 26641 26644 28
21316 26641 26645 28
21317 26646 26647 28
21318 26646 26648 28
21319 26646 26649 28
21320 26646 26650 28
21321 26651 26652 28
21322 26651 26653 28
21323 26651 26654 28
21324 26651 26655 28
21325 26656 26657 28
21326 26656 26658 28
21327 26656 26659 28
21328 26656 26660 28
21329 26661 26662 28
21330 26661 26663 28
21331 26661 26664 28
21332 26661 26665 28
21333 26666 26667 28
21334 26666 26668 28
21335 26666 26669 28
21336 26666 26670 28
21337 26671 26672 28
21338 26671 26673 28
21339 26671 26674 28
21340 26671 26675 28
21341 26676 26677 28
21342 26676 26678 28
21343 26676 26679 28
21344 26676 26680 28
21345 26681 26682 28
21346 26681 26683 28
21347 26681 26684 28
21348 26681 26685 28
21349 26686 26687 28
21350 26686 26688 28
21351 26686 26689 28
21352 26686 26690 28
21353 26691 26692 28
21354 26691 26693 28
21355 26691 26694 28
21356 26691 26695 28
21357 26696 26697 28
21358 26696 26698 28
21359 26696 26699 28
21360 26696 26700 28
21361 26701 26702 28
21362 26701 26703 28
21363 26701 26704 28
21364 26701 26705 28
21365 26706 26707 28
21366 26706 26708 28
21367 26706 26709 28
21368 26706 26710 28
21369 26711 26712 28
21370 26711 26713 28
21371 26711 26714 28
21372 26711 26715 28
21373 26716 26717 28
21374 26716 26718 28
21375 26716 26719 28
21376 26716 26720 28
21377 26721 26722 28
21378 26721 26723 28
21379 26721 26724 28
21380 26721 26725 28
21381 26726 26727 28
21382 26726 26728 28
21383 26726 26729 28
21384 26726 26730 28
21385 26731 26732 28
21386 26731 26733 28
21387 26731 26734 28
21388 26731 26735 28
21389 26736 26737 28
21390 26736 26738 28
21391 26736 26739 28
21392 26736 26740 28
21393 26741 26742 28
21394 26741 26743 28
21395 26741 26744 28
21396 26741 26745 28
21397 26746 26747 28
21398 26746 26748 28
21399 26746 26749 28
21400 26746 26750 28
21401 26751 26752 28
21402 26751 26753 28
21403 26751 26754 28
21404 26751 26755 28
21405 26756 26757 28
21406 26756 26758 28
21407 26756 26759 28
21408 26756 26760 28
21409 26761 26762 28
21410 26761 26763 28
21411 26761 26764 28
21412 26761 26765 28
21413 26766 26767 28
21414 26766 26768 28
21415 26766 26769 28
21416 26766 26770 28
21417 26771 26772 28
21418 26771 26773 28
21419 26771 26774 28
21420 26771 26775 28
21421 26776 26777 28
21422 26776 26778 28
21423 26776 26779 28
21424 26776 26780 28
21425 26781 26782 28
21426 26781 26783 28
21427 26781 26784 28
21428 26781 26785 28
21429 26786 26787 28
21430 26786 26788 28
21431 26786 26789 28
21432 26786 26790 28
21433 26791 26792 28
21434 26791 26793 28
21435 26791 26794 28
21436 26791 26795 28
21437 26796 26797 28
21438 26796 26798 28
21439 26796 26799 28
21440 26796 26800 28
21441 26801 26802 28
21442 26801 26803 28
21443 26801 26804 28
21444 26801 26805 28
21445 26806 26807 28
21446 26806 26808 28
21447 26806 26809 28
21448 26806 26810 28
21449 26811 26812 28
21450 26811 26813 28
21451 26811 26814 28
21452 26811 26815 28
21453 26816 26817 28
21454 26816 26818 28
21455 26816 26819 28
21456 26816 26820 28
21457 26821 26822 28
21458 26821 26823 28
21459 26821 26824 28
21460 26821 26825 28
21461 26826 26827 28
21462 26826 26828 28
21463 26826 26829 28
21464 26826 26830 28
21465 26831 26832 28
21466 26831 26833 28
21467 26831 26834 28
21468 26831 26835 28
21469 26836 26837 28
21470 26836 26838 28
21471 26836 26839 28
21472 26836 26840 28
21473 26841 26842 28
21474 26841 26843 28
21475 26841 26844 28
21476 26841 26845 28
21477 26846 26847 28
21478 26846 26848 28
21479 26846 26849 28
21480 26846 26850 28
21481 26851 26852 28
21482 26851 26853 28
21483 26851 26854 28
21484 26851 26855 28
21485 26856 26857 28
21486 26856 26858 28
21487 26856 26859 28
21488 26856 26860 28
21489 26861 26862 28
21490 26861 26863 28
21491 26861 26864 28
21492 26861 26865 28
21493 26866 26867 28
21494 26866 26868 28
21495 26866 26869 28
21496 26866 26870 28
21497 26871 26872 28
21498 26871 26873 28
21499 26871 26874 28
21500 26871 26875 28
21501 26876 26877 28
21502 26876 26878 28
21503 26876 26879 28
21504 26876 26880 28
21505 26881 26882 28
21506 26881 26883 28
21507 26881 26884 28
21508 26881 26885 28
21509 26886 26887 28
21510 26886 26888 28
21511 26886 26889 28
21512 26886 26890 28
21513 26891 26892 28
21514 26891 26893 28
21515 26891 26894 28
21516 26891 26895 28
21517 26896 26897 28
21518 26896 26898 28
21519 26896 26899 28
21520 26896 26900 28
21521 26901 26902 28
21522 26901 26903 28
21523 26901 26904 28
21524 26901 26905 28
21525 26906 26907 28
21526 26906 26908 28
21527 26906 26909 28
21528 26906 26910 28
21529 26911 26912 28
21530 26911 26913 28
21531 26911 26914 28
21532 26911 26915 28
21533 26916 26917 28
21534 26916 26918 28
21535 26916 26919 28
21536 26916 26920 28
21537 26921 26922 28
21538 26921 26923 28
21539 26921 26924 28
21540 26921 26925 28
21541 26926 26927 28
21542 26926 26928 28
21543 26926 26929 28
21544 26926 26930 28
21545 26931 26932 28
21546 26931 26933 28
21547 26931 26934 28
21548 26931 26935 28
21549 26936 26937 28
21550 26936 26938 28
21551 26936 26939 28
21552 26936 26940 28
21553 26941 26942 28
21554 26941 26943 28
21555 26941 26944 28
21556 26941 26945 28
21557 26946 26947 28
21558 26946 26948 28
21559 26946 26949 28
21560 26946 26950 28
21561 26951 26952 28
21562 26951 26953 28
21563 26951 26954 28
21564 26951 26955 28
21565 26956 26957 28
21566 26956 26958 28
21567 26956 26959 28
21568 26956 26960 28
21569 26961 26962 28
21570 26961 26963 28
21571 26961 26964 28
21572 26961 26965 28
21573 26966 26967 28
21574 26966 26968 28
21575 26966 26969 28
21576 26966 26970 28
21577 26971 26972 28
21578 26971 26973 28
21579 26971 26974 28
21580 26971 26975 28
21581 26976 26977 28
21582 26976 26978 28
21583 26976 26979 28
21584 26976 26980 28
21585 26981 26982 28
21586 26981 26983 28
21587 26981 26984 28
21588 26981 26985 28
21589 26986 26987 28
21590 26986 26988 28
21591 26986 26989 28
21592 26986 26990 28
21593 26991 26992 28
21594 26991 26993 28
21595 26991 26994 28
21596 26991 26995 28
21597 26996 26997 28
21598 26996 26998 28
21599 26996 26999 28
21600 26996 27000 28
21601 27001 27002 28
21602 27001 27003 28
21603 27001 27004 28
21604 27001 27005 28
21605 27006 27007 28
21606 27006 27008 28
21607 27006 27009 28
21608 27006 27010 28
21609 27011 27012 28
21610 27011 27013 28
21611 27011 27014 28
21612 27011 27015 28
21613 27016 27017 28
21614 27016 27018 28
21615 27016 27019 28
21616 27016 27020 28
21617 27021 27022 28
21618 27021 27023 28
21619 27021 27024 28
21620 27021 27025 28
21621 27026 27027 28
21622 27026 27028 28
21623 27026 27029 28
21624 27026 27030 28
21625 27031 27032 28
21626 27031 27033 28
21627 27031 27034 28
21628 27031 27035 28
21629 27036 27037 28
21630 27036 27038 28
21631 27036 27039 28
21632 27036 27040 28
21633 27041 27042 28
21634 27041 27043 28
21635 27041 27044 28
21636 27041 27045 28
21637 27046 27047 28
21638 27046 27048 28
21639 27046 27049 28
21640 27046 27050 28
21641 27051 27052 28
21642 27051 27053 28
21643 27051 27054 28
21644 27051 27055 28
21645 27056 27057 28
21646 27056 27058 28
21647 27056 27059 28
21648 27056 27060 28
21649 27061 27062 28
21650 27061 27063 28
21651 27061 27064 28
21652 27061 27065 28
21653 27066 27067 28
21654 27066 27068 28
21655 27066 27069 28
21656 27066 27070 28
21657 27071 27072 28
21658 27071 27073 28
21659 27071 27074 28
21660 27071 27075 28
21661 27076 27077 28
21662 27076 27078 28
21663 27076 27079 28
21664 27076 27080 28
21665 27081 27082 28
21666 27081 27083 28
21667 27081 27084 28
21668 27081 27085 28
21669 27086 27087 28
21670 27086 27088 28
21671 27086 27089 28
21672 27086 27090 28
21673 27091 27092 28
21674 27091 27093 28
21675 27091 27094 28
21676 27091 27095 28
21677 27096 27097 28
21678 27096 27098 28
21679 27096 27099 28
21680 27096 27100 28
21681 27101 27102 28
21682 27101 27103 28
21683 27101 27104 28
21684 27101 27105 28
21685 27106 27107 28
21686 27106 27108 28
21687 27106 27109 28
21688 27106 27110 28
21689 27111 27112 28
21690 27111 27113 28
21691 27111 27114 28
21692 27111 27115 28
21693 27116 27117 28
21694 27116 27118 28
21695 27116 27119 28
21696 27116 27120 28
21697 27121 27122 28
21698 27121 27123 28
21699 27121 27124 28
21700 27121 27125 28
21701 27126 27127 28
21702 27126 27128 28
21703 27126 27129 28
21704 27126 27130 28
21705 27131 27132 28
21706 27131 27133 28
21707 27131 27134 28
21708 27131 27135 28
21709 27136 27137 28
21710 27136 27138 28
21711 27136 27139 28
21712 27136 27140 28
21713 27141 27142 28
21714 27141 27143 28
21715 27141 27144 28
21716 27141 27145 28
21717 27146 27147 28
21718 27146 27148 28
21719 27146 27149 28
21720 27146 27150 28
21721 27151 27152 28
21722 27151 27153 28
21723 27151 27154 28
21724 27151 27155 28
21725 27156 27157 28
21726 27156 27158 28
21727 27156 27159 28
21728 27156 27160 28
21729 27161 27162 28
21730 27161 27163 28
21731 27161 27164 28
21732 27161 27165 28
21733 27166 27167 28
21734 27166 27168 28
21735 27166 27169 28
21736 27166 27170 28
21737 27171 27172 28
21738 27171 27173 28
21739 27171 27174 28
21740 27171 27175 28
21741 27176 27177 28
21742 27176 27178 28
21743 27176 27179 28
21744 27176 27180 28
21745 27181 27182 28
21746 27181 27183 28
21747 27181 27184 28
21748 27181 27185 28
21749 27186 27187 28
21750 27186 27188 28
21751 27186 27189 28
21752 27186 27190 28
21753 27191 27192 28
21754 27191 27193 28
21755 27191 27194 28
21756 27191 27195 28
21757 27196 27197 28
21758 27196 27198 28
21759 27196 27199 28
21760 27196 27200 28
21761 27201 27202 28
21762 27201 27203 28
21763 27201 27204 28
21764 27201 27205 28
21765 27206 27207 28
21766 27206 27208 28
21767 27206 27209 28
21768 27206 27210 28
21769 27211 27212 28
21770 27211 27213 28
21771 27211 27214 28
21772 27211 27215 28
21773 27216 27217 28
21774 27216 27218 28
21775 27216 27219 28
21776 27216 27220 28
21777 27221 27222 28
21778 27221 27223 28
21779 27221 27224 28
21780 27221 27225 28
21781 27226 27227 28
21782 27226 27228 28
21783 27226 27229 28
21784 27226 27230 28
21785 27231 27232 28
21786 27231 27233 28
21787 27231 27234 28
21788 27231 27235 28
21789 27236 27237 28
21790 27236 27238 28
21791 27236 27239 28
21792 27236 27240 28
21793 27241 27242 28
21794 27241 27243 28
21795 27241 27244 28
21796 27241 27245 28
21797 27246 27247 28
21798 27246 27248 28
21799 27246 27249 28
21800 27246 27250 28
21801 27251 27252 28
21802 27251 27253 28
21803 27251 27254 28
21804 27251 27255 28
21805 27256 27257 28
21806 27256 27258 28
21807 27256 27259 28
21808 27256 27260 28
21809 27261 27262 28
21810 27261 27263 28
21811 27261 27264 28
21812 27261 27265 28
21813 27266 27267 28
21814 27266 27268 28
21815 27266 27269 28
21816 27266 27270 28
21817 27271 27272 28
21818 27271 27273 28
21819 27271 27274 28
21820 27271 27275 28
21821 27276 27277 28
21822 27276 27278 28
21823 27276 27279 28
21824 27276 27280 28
21825 27281 27282 28
21826 27281 27283 28
21827 27281 27284 28
21828 27281 27285 28
21829 27286 27287 28
21830 27286 27288 28
21831 27286 27289 28
21832 27286 27290 28
21833 27291 27292 28
21834 27291 27293 28
21835 27291 27294 28
21836 27291 27295 28
21837 27296 27297 28
21838 27296 27298 28
21839 27296 27299 28
21840 27296 27300 28
21841 27301 27302 28
21842 27301 27303 28
21843 27301 27304 28
21844 27301 27305 28
21845 27306 27307 28
21846 27306 27308 28
21847 27306 27309 28
21848 27306 27310 28
21849 27311 27312 28
21850 27311 27313 28
21851 27311 27314 28
21852 27311 27315 28
21853 27316 27317 28
21854 27316 27318 28
21855 27316 27319 28
21856 27316 27320 28
21857 27321 27322 28
21858 27321 27323 28
21859 27321 27324 28
21860 27321 27325 28
21861 27326 27327 28
21862 27326 27328 28
21863 27326 27329 28
21864 27326 27330 28
21865 27331 27332 28
21866 27331 27333 28
21867 27331 27334 28
21868 27331 27335 28
21869 27336 27337 28
21870 27336 27338 28
21871 27336 27339 28
21872 27336 27340 28
21873 27341 27342 28
21874 27341 27343 28
21875 27341 27344 28
21876 27341 27345 28
21877 27346 27347 28
21878 27346 27348 28
21879 27346 27349 28
21880 27346 27350 28
21881 27351 27352 28
21882 27351 27353 28
21883 27351 27354 28
21884 27351 27355 28
21885 27356 27357 28
21886 27356 27358 28
21887 27356 27359 28
21888 27356 27360 28
21889 27361 27362 28
21890 27361 27363 28
21891 27361 27364 28
21892 27361 27365 28
21893 27366 27367 28
21894 27366 27368 28
21895 27366 27369 28
21896 27366 27370 28
21897 27371 27372 28
21898 27371 27373 28
21899 27371 27374 28
21900 27371 27375 28
21901 27376 27377 28
21902 27376 27378 28
21903 27376 27379 28
21904 27376 27380 28
21905 27381 27382 28
21906 27381 27383 28
21907 27381 27384 28
21908 27381 27385 28
21909 27386 27387 28
21910 27386 27388 28
21911 27386 27389 28
21912 27386 27390 28
21913 27391 27392 28
21914 27391 27393 28
21915 27391 27394 28
21916 27391 27395 28
21917 27396 27397 28
21918 27396 27398 28
21919 27396 27399 28
21920 27396 27400 28
21921 27401 27402 28
21922 27401 27403 28
21923 27401 27404 28
21924 27401 27405 28
21925 27406 27407 28
21926 27406 27408 28
21927 27406 27409 28
21928 27406 27410 28
21929 27411 27412 28
21930 27411 27413 28
21931 27411 27414 28
21932 27411 27415 28
21933 27416 27417 28
21934 27416 27418 28
21935 27416 27419 28
21936 27416 27420 28
21937 27421 27422 28
21938 27421 27423 28
21939 27421 27424 28
21940 27421 27425 28
21941 27426 27427 28
21942 27426 27428 28
21943 27426 27429 28
21944 27426 27430 28
21945 27431 27432 28
21946 27431 27433 28
21947 27431 27434 28
21948 27431 27435 28
21949 27436 27437 28
21950 27436 27438 28
21951 27436 27439 28
21952 27436 27440 28
21953 27441 27442 28
21954 27441 27443 28
21955 27441 27444 28
21956 27441 27445 28
21957 27446 27447 28
21958 27446 27448 28
21959 27446 27449 28
21960 27446 27450 28
21961 27451 27452 28
21962 27451 27453 28
21963 27451 27454 28
21964 27451 27455 28
21965 27456 27457 28
21966 27456 27458 28
21967 27456 27459 28
21968 27456 27460 28
21969 27461 27462 28
21970 27461 27463 28
21971 27461 27464 28
21972 27461 27465 28
21973 27466 27467 28
21974 27466 27468 28
21975 27466 27469 28
21976 27466 27470 28
21977 27471 27472 28
21978 27471 27473 28
21979 27471 27474 28
21980 27471 27475 28
21981 27476 27477 28
21982 27476 27478 28
21983 27476 27479 28
21984 27476 27480 28
21985 27481 27482 28
21986 27481 27483 28
21987 27481 27484 28
21988 27481 27485 28
21989 27486 27487 28
21990 27486 27488 28
21991 27486 27489 28
21992 27486 27490 28
21993 27491 27492 28
21994 27491 27493 28
21995 27491 27494 28
21996 27491 27495 28
21997 27496 27497 28
21998 27496 27498 28
21999 27496 27499 28
22000 27496 27500 28
22001 27501 27502 28
22002 27501 27503 28
22003 27501 27504 28
22004 27501 27505 28
22005 27506 27507 28
22006 27506 27508 28
22007 27506 27509 28
22008 27506 27510 28
22009 27511 27512 28
22010 27511 27513 28
22011 27511 27514 28
22012 27511 27515 28
22013 27516 27517 28
22014 27516 27518 28
22015 27516 27519 28
22016 27516 27520 28
22017 27521 27522 28
22018 27521 27523 28
22019 27521 27524 28
22020 27521 27525 28
22021 27526 27527 28
22022 27526 27528 28
22023 27526 27529 28
22024 27526 27530 28
22025 27531 27532 28
22026 27531 27533 28
22027 27531 27534 28
22028 27531 27535 28
22029 27536 27537 28
22030 27536 27538 28
22031 27536 27539 28
22032 27536 27540 28
22033 27541 27542 28
22034 27541 27543 28
22035 27541 27544 28
22036 27541 27545 28
22037 27546 27547 28
22038 27546 27548 28
22039 27546 27549 28
22040 27546 27550 28
22041 27551 27552 28
22042 27551 27553 28
22043 27551 27554 28
22044 27551 27555 28
22045 27556 27557 28
22046 27556 27558 28
22047 27556 27559 28
22048 27556 27560 28
22049 27561 27562 28
22050 27561 27563 28
22051 27561 27564 28
22052 27561 27565 28
22053 27566 27567 28
22054 27566 27568 28
22055 27566 27569 28
22056 27566 27570 28
22057 27571 27572 28
22058 27571 27573 28
22059 27571 27574 28
22060 27571 27575 28
22061 27576 27577 28
22062 27576 27578 28
22063 27576 27579 28
22064 27576 27580 28
22065 27581 27582 28
22066 27581 27583 28
22067 27581 27584 28
22068 27581 27585 28
22069 27586 27587 28
22070 27586 27588 28
22071 27586 27589 28
22072 27586 27590 28
22073 27591 27592 28
22074 27591 27593 28
22075 27591 27594 28
22076 27591 27595 28
22077 27596 27597 28
22078 27596 27598 28
22079 27596 27599 28
22080 27596 27600 28
22081 27601 27602 28
22082 27601 27603 28
22083 27601 27604 28
22084 27601 27605 28
22085 27606 27607 28
22086 27606 27608 28
22087 27606 27609 28
22088 27606 27610 28
22089 27611 27612 28
22090 27611 27613 28
22091 27611 27614 28
22092 27611 27615 28
22093 27616 27617 28
22094 27616 27618 28
22095 27616 27619 28
22096 27616 27620 28
22097 27621 27622 28
22098 27621 27623 28
22099 27621 27624 28
22100 27621 27625 28
22101 27626 27627 28
22102 27626 27628 28
22103 27626 27629 28
22104 27626 27630 28
22105 27631 27632 28
22106 27631 27633 28
22107 27631 27634 28
22108 27631 27635 28
22109 27636 27637 28
22110 27636 27638 28
22111 27636 27639 28
22112 27636 27640 28
22113 27641 27642 28
22114 27641 27643 28
22115 27641 27644 28
22116 27641 27645 28
22117 27646 27647 28
22118 27646 27648 28
22119 27646 27649 28
22120 27646 27650 28
22121 27651 27652 28
22122 27651 27653 28
22123 27651 27654 28
22124 27651 27655 28
22125 27656 27657 28
22126 27656 27658 28
22127 27656 27659 28
22128 27656 27660 28
22129 27661 27662 28
22130 27661 27663 28
22131 27661 27664 28
22132 27661 27665 28
22133 27666 27667 28
22134 27666 27668 28
22135 27666 27669 28
22136 27666 27670 28
22137 27671 27672 28
22138 27671 27673 28
22139 27671 27674 28
22140 27671 27675 28
22141 27676 27677 28
22142 27676 27678 28
22143 27676 27679 28
22144 27676 27680 28
22145 27681 27682 28
22146 27681 27683 28
22147 27681 27684 28
22148 27681 27685 28
22149 27686 27687 28
22150 27686 27688 28
22151 27686 27689 28
22152 27686 27690 28
22153 27691 27692 28
22154 27691 27693 28
22155 27691 27694 28
22156 27691 27695 28
22157 27696 27697 28
22158 27696 27698 28
22159 27696 27699 28
22160 27696 27700 28
22161 27701 27702 28
22162 27701 27703 28
22163 27701 27704 28
22164 27701 27705 28
22165 27706 27707 28
22166 27706 27708 28
22167 27706 27709 28
22168 27706 27710 28
22169 27711 27712 28
22170 27711 27713 28
22171 27711 27714 28
22172 27711 27715 28
22173 27716 27717 28
22174 27716 27718 28
22175 27716 27719 28
22176 27716 27720 28
22177 27721 27722 28
22178 27721 27723 28
22179 27721 27724 28
22180 27721 27725 28
22181 27726 27727 28
22182 27726 27728 28
22183 27726 27729 28
22184 27726 27730 28
22185 27731 27732 28
22186 27731 27733 28
22187 27731 27734 28
22188 27731 27735 28
22189 27736 27737 28
22190 27736 27738 28
22191 27736 27739 28
22192 27736 27740 28
22193 27741 27742 28
22194 27741 27743 28
22195 27741 27744 28
22196 27741 27745 28
22197 27746 27747 28
22198 27746 27748 28
22199 27746 27749 28
22200 27746 27750 28
22201 27751 27752 28
22202 27751 27753 28
22203 27751 27754 28
22204 27751 27755 28
22205 27756 27757 28
22206 27756 27758 28
22207 27756 27759 28
22208 27756 27760 28
22209 27761 27762 28
22210 27761 27763 28
22211 27761 27764 28
22212 27761 27765 28
22213 27766 27767 28
22214 27766 27768 28
22215 27766 27769 28
22216 27766 27770 28
22217 27771 27772 28
22218 27771 27773 28
22219 27771 27774 28
22220 27771 27775 28
22221 27776 27777 28
22222 27776 27778 28
22223 27776 27779 28
22224 27776 27780 28
22225 27781 27782 28
22226 27781 27783 28
22227 27781 27784 28
22228 27781 27785 28
22229 27786 27787 28
22230 27786 27788 28
22231 27786 27789 28
22232 27786 27790 28
22233 27791 27792 28
22234 27791 27793 28
22235 27791 27794 28
22236 27791 27795 28
22237 27796 27797 28
22238 27796 27798 28
22239 27796 27799 28
22240 27796 27800 28
22241 27801 27802 28
22242 27801 27803 28
22243 27801 27804 28
22244 27801 27805 28
22245 27806 27807 28
22246 27806 27808 28
22247 27806 27809 28
22248 27806 27810 28
22249 27811 27812 28
22250 27811 27813 28
22251 27811 27814 28
22252 27811 27815 28
22253 27816 27817 28
22254 27816 27818 28
22255 27816 27819 28
22256 27816 27820 28
22257 27821 27822 28
22258 27821 27823 28
22259 27821 27824 28
22260 27821 27825 28
22261 27826 27827 28
22262 27826 27828 28
22263 27826 27829 28
22264 27826 27830 28
22265 27831 27832 28
22266 27831 27833 28
22267 27831 27834 28
22268 27831 27835 28
22269 27836 27837 28
22270 27836 27838 28
22271 27836 27839 28
22272 27836 27840 28
22273 27841 27842 28
22274 27841 27843 28
22275 27841 27844 28
22276 27841 27845 28
22277 27846 27847 28
22278 27846 27848 28
22279 27846 27849 28
22280 27846 27850 28
22281 27851 27852 28
22282 27851 27853 28
22283 27851 27854 28
22284 27851 27855 28
22285 27856 27857 28
22286 27856 27858 28
22287 27856 27859 28
22288 27856 27860 28
22289 27861 27862 28
22290 27861 27863 28
22291 27861 27864 28
22292 27861 27865 28
22293 27866 27867 28
22294 27866 27868 28
22295 27866 27869 28
22296 27866 27870 28
22297 27871 27872 28
22298 27871 27873 28
22299 27871 27874 28
22300 27871 27875 28
22301 27876 27877 28
22302 27876 27878 28
22303 27876 27879 28
22304 27876 27880 28
22305 27881 27882 28
22306 27881 27883 28
22307 27881 27884 28
22308 27881 27885 28
22309 27886 27887 28
22310 27886 27888 28
22311 27886 27889 28
22312 27886 27890 28
22313 27891 27892 28
22314 27891 27893 28
22315 27891 27894 28
22316 27891 27895 28
22317 27896 27897 28
22318 27896 27898 28
22319 27896 27899 28
22320 27896 27900 28
22321 27901 27902 28
22322 27901 27903 28
22323 27901 27904 28
22324 27901 27905 28
22325 27906 27907 28
22326 27906 27908 28
22327 27906 27909 28
22328 27906 27910 28
22329 27911 27912 28
22330 27911 27913 28
22331 27911 27914 28
22332 27911 27915 28
22333 27916 27917 28
22334 27916 27918 28
22335 27916 27919 28
22336 27916 27920 28
22337 27921 27922 28
22338 27921 27923 28
22339 27921 27924 28
22340 27921 27925 28
22341 27926 27927 28
22342 27926 27928 28
22343 27926 27929 28
22344 27926 27930 28
22345 27931 27932 28
22346 27931 27933 28
22347 27931 27934 28
22348 27931 27935 28
22349 27936 27937 28
22350 27936 27938 28
22351 27936 27939 28
22352 27936 27940 28
22353 27941 27942 28
22354 27941 27943 28
22355 27941 27944 28
22356 27941 27945 28
22357 27946 27947 28
22358 27946 27948 28
22359 27946 27949 28
22360 27946 27950 28
22361 27951 27952 28
22362 27951 27953 28
22363 27951 27954 28
22364 27951 27955 28
22365 27956 27957 28
22366 27956 27958 28
22367 27956 27959 28
22368 27956 27960 28
22369 27961 27962 28
22370 27961 27963 28
22371 27961 27964 28
22372 27961 27965 28
22373 27966 27967 28
22374 27966 27968 28
22375 27966 27969 28
22376 27966 27970 28
22377 27971 27972 28
22378 27971 27973 28
22379 27971 27974 28
22380 27971 27975 28
22381 27976 27977 28
22382 27976 27978 28
22383 27976 27979 28
22384 27976 27980 28
22385 27981 27982 28
22386 27981 27983 28
22387 27981 27984 28
22388 27981 27985 28
22389 27986 27987 28
22390 27986 27988 28
22391 27986 27989 28
22392 27986 27990 28
22393 27991 27992 28
22394 27991 27993 28
22395 27991 27994 28
22396 27991 27995 28
22397 27996 27997 28
22398 27996 27998 28
22399 27996 27999 28
22400 27996 28000 28
22401 28001 28002 28
22402 28001 28003 28
22403 28001 28004 28
22404 28001 28005 28
22405 28006 28007 28
22406 28006 28008 28
22407 28006 28009 28
22408 28006 28010 28
22409 28011 28012 28
22410 28011 28013 28
22411 28011 28014 28
22412 28011 28015 28
22413 28016 28017 28
22414 28016 28018 28
22415 28016 28019 28
22416 28016 28020 28
22417 28021 28022 28
22418 28021 28023 28
22419 28021 28024 28
22420 28021 28025 28
22421 28026 28027 28
22422 28026 28028 28
22423 28026 28029 28
22424 28026 28030 28
22425 28031 28032 28
22426 28031 28033 28
22427 28031 28034 28
22428 28031 28035 28
22429 28036 28037 28
22430 28036 28038 28
22431 28036 28039 28
22432 28036 28040 28
22433 28041 28042 28
22434 28041 28043 28
22435 28041 28044 28
22436 28041 28045 28
22437 28046 28047 28
22438 28046 28048 28
22439 28046 28049 28
22440 28046 28050 28
22441 28051 28052 28
22442 28051 28053 28
22443 28051 28054 28
22444 28051 28055 28
22445 28056 28057 28
22446 28056 28058 28
22447 28056 28059 28
22448 28056 28060 28
22449 28061 28062 28
22450 28061 28063 28
22451 28061 28064 28
22452 28061 28065 28
22453 28066 28067 28
22454 28066 28068 28
22455 28066 28069 28
22456 28066 28070 28
22457 28071 28072 28
22458 28071 28073 28
22459 28071 28074 28
22460 28071 28075 28
22461 28076 28077 28
22462 28076 28078 28
22463 28076 28079 28
22464 28076 28080 28
22465 28081 28082 28
22466 28081 28083 28
22467 28081 28084 28
22468 28081 28085 28
22469 28086 28087 28
22470 28086 28088 28
22471 28086 28089 28
22472 28086 28090 28
22473 28091 28092 28
22474 28091 28093 28
22475 28091 28094 28
22476 28091 28095 28
22477 28096 28097 28
22478 28096 28098 28
22479 28096 28099 28
22480 28096 28100 28
22481 28101 28102 28
22482 28101 28103 28
22483 28101 28104 28
22484 28101 28105 28
22485 28106 28107 28
22486 28106 28108 28
22487 28106 28109 28
22488 28106 28110 28
22489 28111 28112 28
22490 28111 28113 28
22491 28111 28114 28
22492 28111 28115 28
22493 28116 28117 28
22494 28116 28118 28
22495 28116 28119 28
22496 28116 28120 28
22497 28121 28122 28
22498 28121 28123 28
22499 28121 28124 28
22500 28121 28125 28
22501 28126 28127 28
22502 28126 28128 28
22503 28126 28129 28
22504 28126 28130 28
22505 28131 28132 28
22506 28131 28133 28
22507 28131 28134 28
22508 28131 28135 28
22509 28136 28137 28
22510 28136 28138 28
22511 28136 28139 28
22512 28136 28140 28
22513 28141 28142 28
22514 28141 28143 28
22515 28141 28144 28
22516 28141 28145 28
22517 28146 28147 28
22518 28146 28148 28
22519 28146 28149 28
22520 28146 28150 28
22521 28151 28152 28
22522 28151 28153 28
22523 28151 28154 28
22524 28151 28155 28
22525 28156 28157 28
22526 28156 28158 28
22527 28156 28159 28
22528 28156 28160 28
22529 28161 28162 28
22530 28161 28163 28
22531 28161 28164 28
22532 28161 28165 28
22533 28166 28167 28
22534 28166 28168 28
22535 28166 28169 28
22536 28166 28170 28
22537 28171 28172 28
22538 28171 28173 28
22539 28171 28174 28
22540 28171 28175 28
22541 28176 28177 28
22542 28176 28178 28
22543 28176 28179 28
22544 28176 28180 28
22545 28181 28182 28
22546 28181 28183 28
22547 28181 28184 28
22548 28181 28185 28
22549 28186 28187 28
22550 28186 28188 28
22551 28186 28189 28
22552 28186 28190 28
22553 28191 28192 28
22554 28191 28193 28
22555 28191 28194 28
22556 28191 28195 28
22557 28196 28197 28
22558 28196 28198 28
22559 28196 28199 28
22560 28196 28200 28
22561 28201 28202 28
22562 28201 28203 28
22563 28201 28204 28
22564 28201 28205 28
22565 28206 28207 28
22566 28206 28208 28
22567 28206 28209 28
22568 28206 28210 28
22569 28211 28212 28
22570 28211 28213 28
22571 28211 28214 28
22572 28211 28215 28
22573 28216 28217 28
22574 28216 28218 28
22575 28216 28219 28
22576 28216 28220 28
22577 28221 28222 28
22578 28221 28223 28
22579 28221 28224 28
22580 28221 28225 28
22581 28226 28227 28
22582 28226 28228 28
22583 28226 28229 28
22584 28226 28230 28
22585 28231 28232 28
22586 28231 28233 28
22587 28231 28234 28
22588 28231 28235 28
22589 28236 28237 28
22590 28236 28238 28
22591 28236 28239 28
22592 28236 28240 28
22593 28241 28242 28
22594 28241 28243 28
22595 28241 28244 28
22596 28241 28245 28
22597 28246 28247 28
22598 28246 28248 28
22599 28246 28249 28
22600 28246 28250 28
22601 28251 28252 28
22602 28251 28253 28
22603 28251 28254 28
22604 28251 28255 28
22605 28256 28257 28
22606 28256 28258 28
22607 28256 28259 28
22608 28256 28260 28
22609 28261 28262 28
22610 28261 28263 28
22611 28261 28264 28
22612 28261 28265 28
22613 28266 28267 28
22614 28266 28268 28
22615 28266 28269 28
22616 28266 28270 28
22617 28271 28272 28
22618 28271 28273 28
22619 28271 28274 28
22620 28271 28275 28
22621 28276 28277 28
22622 28276 28278 28
22623 28276 28279 28
22624 28276 28280 28
22625 28281 28282 28
22626 28281 28283 28
22627 28281 28284 28
22628 28281 28285 28
22629 28286 28287 28
22630 28286 28288 28
22631 28286 28289 28
22632 28286 28290 28
22633 28291 28292 28
22634 28291 28293 28
22635 28291 28294 28
22636 28291 28295 28
22637 28296 28297 28
22638 28296 28298 28
22639 28296 28299 28
22640 28296 28300 28
22641 28301 28302 28
22642 28301 28303 28
22643 28301 28304 28
22644 28301 28305 28
22645 28306 28307 28
22646 28306 28308 28
22647 28306 28309 28
22648 28306 28310 28
22649 28311 28312 28
22650 28311 28313 28
22651 28311 28314 28
22652 28311 28315 28
22653 28316 28317 28
22654 28316 28318 28
22655 28316 28319 28
22656 28316 28320 28
22657 28321 28322 28
22658 28321 28323 28
22659 28321 28324 28
22660 28321 28325 28
22661 28326 28327 28
22662 28326 28328 28
22663 28326 28329 28
22664 28326 28330 28
22665 28331 28332 28
22666 28331 28333 28
22667 28331 28334 28
22668 28331 28335 28
22669 28336 28337 28
22670 28336 28338 28
22671 28336 28339 28
22672 28336 28340 28
22673 28341 28342 28
22674 28341 28343 28
22675 28341 28344 28
22676 28341 28345 28
22677 28346 28347 28
22678 28346 28348 28
22679 28346 28349 28
22680 28346 28350 28
22681 28351 28352 28
22682 28351 28353 28
22683 28351 28354 28
22684 28351 28355 28
22685 28356 28357 28
22686 28356 28358 28
22687 28356 28359 28
22688 28356 28360 28
22689 28361 28362 28
22690 28361 28363 28
22691 28361 28364 28
22692 28361 28365 28
22693 28366 28367 28
22694 28366 28368 28
22695 28366 28369 28
22696 28366 28370 28
22697 28371 28372 28
22698 28371 28373 28
22699 28371 28374 28
22700 28371 28375 28
22701 28376 28377 28
22702 28376 28378 28
22703 28376 28379 28
22704 28376 28380 28
22705 28381 28382 28
22706 28381 28383 28
22707 28381 28384 28
22708 28381 28385 28
22709 28386 28387 28
22710 28386 28388 28
22711 28386 28389 28
22712 28386 28390 28
22713 28391 28392 28
22714 28391 28393 28
22715 28391 28394 28
22716 28391 28395 28
22717 28396 28397 28
22718 28396 28398 28
22719 28396 28399 28
22720 28396 28400 28
22721 28401 28402 28
22722 28401 28403 28
22723 28401 28404 28
22724 28401 28405 28
22725 28406 28407 28
22726 28406 28408 28
22727 28406 28409 28
22728 28406 28410 28
22729 28411 28412 28
22730 28411 28413 28
22731 28411 28414 28
22732 28411 28415 28
22733 28416 28417 28
22734 28416 28418 28
22735 28416 28419 28
22736 28416 28420 28
22737 28421 28422 28
22738 28421 28423 28
22739 28421 28424 28
22740 28421 28425 28
22741 28426 28427 28
22742 28426 28428 28
22743 28426 28429 28
22744 28426 28430 28
22745 28431 28432 28
22746 28431 28433 28
22747 28431 28434 28
22748 28431 28435 28
22749 28436 28437 28
22750 28436 28438 28
22751 28436 28439 28
22752 28436 28440 28
22753 28441 28442 28
22754 28441 28443 28
22755 28441 28444 28
22756 28441 28445 28
22757 28446 28447 28
22758 28446 28448 28
22759 28446 28449 28
22760 28446 28450 28
22761 28451 28452 28
22762 28451 28453 28
22763 28451 28454 28
22764 28451 28455 28
22765 28456 28457 28
22766 28456 28458 28
22767 28456 28459 28
22768 28456 28460 28
22769 28461 28462 28
22770 28461 28463 28
22771 28461 28464 28
22772 28461 28465 28
22773 28466 28467 28
22774 28466 28468 28
22775 28466 28469 28
22776 28466 28470 28
22777 28471 28472 28
22778 28471 28473 28
22779 28471 28474 28
22780 28471 28475 28
22781 28476 28477 28
22782 28476 28478 28
22783 28476 28479 28
22784 28476 28480 28
22785 28481 28482 28
22786 28481 28483 28
22787 28481 28484 28
22788 28481 28485 28
22789 28486 28487 28
22790 28486 28488 28
22791 28486 28489 28
22792 28486 28490 28
22793 28491 28492 28
22794 28491 28493 28
22795 28491 28494 28
22796 28491 28495 28
22797 28496 28497 28
22798 28496 28498 28
22799 28496 28499 28
22800 28496 28500 28
22801 28501 28502 28
22802 28501 28503 28
22803 28501 28504 28
22804 28501 28505 28
22805 28506 28507 28
22806 28506 28508 28
22807 28506 28509 28
22808 28506 28510 28
22809 28511 28512 28
22810 28511 28513 28
22811 28511 28514 28
22812 28511 28515 28
22813 28516 28517 28
22814 28516 28518 28
22815 28516 28519 28
22816 28516 28520 28
22817 28521 28522 28
22818 28521 28523 28
22819 28521 28524 28
22820 28521 28525 28
22821 28526 28527 28
22822 28526 28528 28
22823 28526 28529 28
22824 28526 28530 28
22825 28531 28532 28
22826 28531 28533 28
22827 28531 28534 28
22828 28531 28535 28
22829 28536 28537 28
22830 28536 28538 28
22831 28536 28539 28
22832 28536 28540 28
22833 28541 28542 28
22834 28541 28543 28
22835 28541 28544 28
22836 28541 28545 28
22837 28546 28547 28
22838 28546 28548 28
22839 28546 28549 28
22840 28546 28550 28
22841 28551 28552 28
22842 28551 28553 28
22843 28551 28554 28
22844 28551 28555 28
22845 28556 28557 28
22846 28556 28558 28
22847 28556 28559 28
22848 28556 28560 28
22849 28561 28562 28
22850 28561 28563 28
22851 28561 28564 28
22852 28561 28565 28
22853 28566 28567 28
22854 28566 28568 28
22855 28566 28569 28
22856 28566 28570 28
22857 28571 28572 28
22858 28571 28573 28
22859 28571 28574 28
22860 28571 28575 28
22861 28576 28577 28
22862 28576 28578 28
22863 28576 28579 28
22864 28576 28580 28
22865 28581 28582 28
22866 28581 28583 28
22867 28581 28584 28
22868 28581 28585 28
22869 28586 28587 28
22870 28586 28588 28
22871 28586 28589 28
22872 28586 28590 28
22873 28591 28592 28
22874 28591 28593 28
22875 28591 28594 28
22876 28591 28595 28
22877 28596 28597 28
22878 28596 28598 28
22879 28596 28599 28
22880 28596 28600 28
22881 28601 28602 28
22882 28601 28603 28
22883 28601 28604 28
22884 28601 28605 28
22885 28606 28607 28
22886 28606 28608 28
22887 28606 28609 28
22888 28606 28610 28
22889 28611 28612 28
22890 28611 28613 28
22891 28611 28614 28
22892 28611 28615 28
22893 28616 28617 28
22894 28616 28618 28
22895 28616 28619 28
22896 28616 28620 28
22897 28621 28622 28
22898 28621 28623 28
22899 28621 28624 28
22900 28621 28625 28
22901 28626 28627 28
22902 28626 28628 28
22903 28626 28629 28
22904 28626 28630 28
22905 28631 28632 28
22906 28631 28633 28
22907 28631 28634 28
22908 28631 28635 28
22909 28636 28637 28
22910 28636 28638 28
22911 28636 28639 28
22912 28636 28640 28
22913 28641 28642 28
22914 28641 28643 28
22915 28641 28644 28
22916 28641 28645 28
22917 28646 28647 28
22918 28646 28648 28
22919 28646 28649 28
22920 28646 28650 28
22921 28651 28652 28
22922 28651 28653 28
22923 28651 28654 28
22924 28651 28655 28
22925 28656 28657 28
22926 28656 28658 28
22927 28656 28659 28
22928 28656 28660 28
22929 28661 28662 28
22930 28661 28663 28
22931 28661 28664 28
22932 28661 28665 28
22933 28666 28667 28
22934 28666 28668 28
22935 28666 28669 28
22936 28666 28670 28
22937 28671 28672 28
22938 28671 28673 28
22939 28671 28674 28
22940 28671 28675 28
22941 28676 28677 28
22942 28676 28678 28
22943 28676 28679 28
22944 28676 28680 28
22945 28681 28682 28
22946 28681 28683 28
22947 28681 28684 28
22948 28681 28685 28
22949 28686 28687 28
22950 28686 28688 28
22951 28686 28689 28
22952 28686 28690 28
22953 28691 28692 28
22954 28691 28693 28
22955 28691 28694 28
22956 28691 28695 28
22957 28696 28697 28
22958 28696 28698 28
22959 28696 28699 28
22960 28696 28700 28
22961 28701 28702 28
22962 28701 28703 28
22963 28701 28704 28
22964 28701 28705 28
22965 28706 28707 28
22966 28706 28708 28
22967 28706 28709 28
22968 28706 28710 28
22969 28711 28712 28
22970 28711 28713 28
22971 28711 28714 28
22972 28711 28715 28
22973 28716 28717 28
22974 28716 28718 28
22975 28716 28719 28
22976 28716 28720 28
22977 28721 28722 28
22978 28721 28723 28
22979 28721 28724 28
22980 28721 28725 28
22981 28726 28727 28
22982 28726 28728 28
22983 28726 28729 28
22984 28726 28730 28
22985 28731 28732 28
22986 28731 28733 28
22987 28731 28734 28
22988 28731 28735 28
22989 28736 28737 28
22990 28736 28738 28
22991 28736 28739 28
22992 28736 28740 28
22993 28741 28742 28
22994 28741 28743 28
22995 28741 28744 28
22996 28741 28745 28
22997 28746 28747 28
22998 28746 28748 28
22999 28746 28749 28
23000 28746 28750 28
23001 28751 28752 28
23002 28751 28753 28
23003 28751 28754 28
23004 28751 28755 28
23005 28756 28757 28
23006 28756 28758 28
23007 28756 28759 28
23008 28756 28760 28
23009 28761 28762 28
23010 28761 28763 28
23011 28761 28764 28
23012 28761 28765 28
23013 28766 28767 28
23014 28766 28768 28
23015 28766 28769 28
23016 28766 28770 28
23017 28771 28772 28
23018 28771 28773 28
23019 28771 28774 28
23020 28771 28775 28
23021 28776 28777 28
23022 28776 28778 28
23023 28776 28779 28
23024 28776 28780 28
23025 28781 28782 28
23026 28781 28783 28
23027 28781 28784 28
23028 28781 28785 28
23029 28786 28787 28
23030 28786 28788 28
23031 28786 28789 28
23032 28786 28790 28
23033 28791 28792 28
23034 28791 28793 28
23035 28791 28794 28
23036 28791 28795 28
23037 28796 28797 28
23038 28796 28798 28
23039 28796 28799 28
23040 28796 28800 28
23041 28801 28802 28
23042 28801 28803 28
23043 28801 28804 28
23044 28801 28805 28
23045 28806 28807 28
23046 28806 28808 28
23047 28806 28809 28
23048 28806 28810 28
23049 28811 28812 28
23050 28811 28813 28
23051 28811 28814 28
23052 28811 28815 28
23053 28816 28817 28
23054 28816 28818 28
23055 28816 28819 28
23056 28816 28820 28
23057 28821 28822 28
23058 28821 28823 28
23059 28821 28824 28
23060 28821 28825 28
23061 28826 28827 28
23062 28826 28828 28
23063 28826 28829 28
23064 28826 28830 28
23065 28831 28832 28
23066 28831 28833 28
23067 28831 28834 28
23068 28831 28835 28
23069 28836 28837 28
23070 28836 28838 28
23071 28836 28839 28
23072 28836 28840 28
23073 28841 28842 28
23074 28841 28843 28
23075 28841 28844 28
23076 28841 28845 28
23077 28846 28847 28
23078 28846 28848 28
23079 28846 28849 28
23080 28846 28850 28
23081 28851 28852 28
23082 28851 28853 28
23083 28851 28854 28
23084 28851 28855 28
23085 28856 28857 28
23086 28856 28858 28
23087 28856 28859 28
23088 28856 28860 28
23089 28861 28862 28
23090 28861 28863 28
23091 28861 28864 28
23092 28861 28865 28
23093 28866 28867 28
23094 28866 28868 28
23095 28866 28869 28
23096 28866 28870 28
23097 28871 28872 28
23098 28871 28873 28
23099 28871 28874 28
23100 28871 28875 28
23101 28876 28877 28
23102 28876 28878 28
23103 28876 28879 28
23104 28876 28880 28
23105 28881 28882 28
23106 28881 28883 28
23107 28881 28884 28
23108 28881 28885 28
23109 28886 28887 28
23110 28886 28888 28
23111 28886 28889 28
23112 28886 28890 28
23113 28891 28892 28
23114 28891 28893 28
23115 28891 28894 28
23116 28891 28895 28
23117 28896 28897 28
23118 28896 28898 28
23119 28896 28899 28
23120 28896 28900 28
23121 28901 28902 28
23122 28901 28903 28
23123 28901 28904 28
23124 28901 28905 28
23125 28906 28907 28
23126 28906 28908 28
23127 28906 28909 28
23128 28906 28910 28
23129 28911 28912 28
23130 28911 28913 28
23131 28911 28914 28
23132 28911 28915 28
23133 28916 28917 28
23134 28916 28918 28
23135 28916 28919 28
23136 28916 28920 28
23137 28921 28922 28
23138 28921 28923 28
23139 28921 28924 28
23140 28921 28925 28
23141 28926 28927 28
23142 28926 28928 28
23143 28926 28929 28
23144 28926 28930 28
23145 28931 28932 28
23146 28931 28933 28
23147 28931 28934 28
23148 28931 28935 28
23149 28936 28937 28
23150 28936 28938 28
23151 28936 28939 28
23152 28936 28940 28
23153 28941 28942 28
23154 28941 28943 28
23155 28941 28944 28
23156 28941 28945 28
23157 28946 28947 28
23158 28946 28948 28
23159 28946 28949 28
23160 28946 28950 28
23161 28951 28952 28
23162 28951 28953 28
23163 28951 28954 28
23164 28951 28955 28
23165 28956 28957 28
23166 28956 28958 28
23167 28956 28959 28
23168 28956 28960 28
23169 28961 28962 28
23170 28961 28963 28
23171 28961 28964 28
23172 28961 28965 28
23173 28966 28967 28
23174 28966 28968 28
23175 28966 28969 28
23176 28966 28970 28
23177 28971 28972 28
23178 28971 28973 28
23179 28971 28974 28
23180 28971 28975 28
23181 28976 28977 28
23182 28976 28978 28
23183 28976 28979 28
23184 28976 28980 28
23185 28981 28982 28
23186 28981 28983 28
23187 28981 28984 28
23188 28981 28985 28
23189 28986 28987 28
23190 28986 28988 28
23191 28986 28989 28
23192 28986 28990 28
23193 28991 28992 28
23194 28991 28993 28
23195 28991 28994 28
23196 28991 28995 28
23197 28996 28997 28
23198 28996 28998 28
23199 28996 28999 28
23200 28996 29000 28
23201 29001 29002 28
23202 29001 29003 28
23203 29001 29004 28
23204 29001 29005 28
23205 29006 29007 28
23206 29006 29008 28
23207 29006 29009 28
23208 29006 29010 28
23209 29011 29012 28
23210 29011 29013 28
23211 29011 29014 28
23212 29011 29015 28
23213 29016 29017 28
23214 29016 29018 28
23215 29016 29019 28
23216 29016 29020 28
23217 29021 29022 28
23218 29021 29023 28
23219 29021 29024 28
23220 29021 29025 28
23221 29026 29027 28
23222 29026 29028 28
23223 29026 29029 28
23224 29026 29030 28
23225 29031 29032 28
23226 29031 29033 28
23227 29031 29034 28
23228 29031 29035 28
23229 29036 29037 28
23230 29036 29038 28
23231 29036 29039 28
23232 29036 29040 28
23233 29041 29042 28
23234 29041 29043 28
23235 29041 29044 28
23236 29041 29045 28
23237 29046 29047 28
23238 29046 29048 28
23239 29046 29049 28
23240 29046 29050 28
23241 29051 29052 28
23242 29051 29053 28
23243 29051 29054 28
23244 29051 29055 28
23245 29056 29057 28
23246 29056 29058 28
23247 29056 29059 28
23248 29056 29060 28
23249 29061 29062 28
23250 29061 29063 28
23251 29061 29064 28
23252 29061 29065 28
23253 29066 29067 28
23254 29066 29068 28
23255 29066 29069 28
23256 29066 29070 28
23257 29071 29072 28
23258 29071 29073 28
23259 29071 29074 28
23260 29071 29075 28
23261 29076 29077 28
23262 29076 29078 28
23263 29076 29079 28
23264 29076 29080 28
23265 29081 29082 28
23266 29081 29083 28
23267 29081 29084 28
23268 29081 29085 28
23269 29086 29087 28
23270 29086 29088 28
23271 29086 29089 28
23272 29086 29090 28
23273 29091 29092 28
23274 29091 29093 28
23275 29091 29094 28
23276 29091 29095 28
23277 29096 29097 28
23278 29096 29098 28
23279 29096 29099 28
23280 29096 29100 28
23281 29101 29102 28
23282 29101 29103 28
23283 29101 29104 28
23284 29101 29105 28
23285 29106 29107 28
23286 29106 29108 28
23287 29106 29109 28
23288 29106 29110 28
23289 29111 29112 28
23290 29111 29113 28
23291 29111 29114 28
23292 29111 29115 28
23293 29116 29117 28
23294 29116 29118 28
23295 29116 29119 28
23296 29116 29120 28
23297 29121 29122 28
23298 29121 29123 28
23299 29121 29124 28
23300 29121 29125 28
23301 29126 29127 28
23302 29126 29128 28
23303 29126 29129 28
23304 29126 29130 28
23305 29131 29132 28
23306 29131 29133 28
23307 29131 29134 28
23308 29131 29135 28
23309 29136 29137 28
23310 29136 29138 28
23311 29136 29139 28
23312 29136 29140 28
23313 29141 29142 28
23314 29141 29143 28
23315 29141 29144 28
23316 29141 29145 28
23317 29146 29147 28
23318 29146 29148 28
23319 29146 29149 28
23320 29146 29150 28
23321 29151 29152 28
23322 29151 29153 28
23323 29151 29154 28
23324 29151 29155 28
23325 29156 29157 28
23326 29156 29158 28
23327 29156 29159 28
23328 29156 29160 28
23329 29161 29162 28
23330 29161 29163 28
23331 29161 29164 28
23332 29161 29165 28
23333 29166 29167 28
23334 29166 29168 28
23335 29166 29169 28
23336 29166 29170 28
23337 29171 29172 28
23338 29171 29173 28
23339 29171 29174 28
23340 29171 29175 28
23341 29176 29177 28
23342 29176 29178 28
23343 29176 29179 28
23344 29176 29180 28
23345 29181 29182 28
23346 29181 29183 28
23347 29181 29184 28
23348 29181 29185 28
23349 29186 29187 28
23350 29186 29188 28
23351 29186 29189 28
23352 29186 29190 28
23353 29191 29192 28
23354 29191 29193 28
23355 29191 29194 28
23356 29191 29195 28
23357 29196 29197 28
23358 29196 29198 28
23359 29196 29199 28
23360 29196 29200 28
23361 29201 29202 28
23362 29201 29203 28
23363 29201 29204 28
23364 29201 29205 28
23365 29206 29207 28
23366 29206 29208 28
23367 29206 29209 28
23368 29206 29210 28
23369 29211 29212 28
23370 29211 29213 28
23371 29211 29214 28
23372 29211 29215 28
23373 29216 29217 28
23374 29216 29218 28
23375 29216 29219 28
23376 29216 29220 28
23377 29221 29222 28
23378 29221 29223 28
23379 29221 29224 28
23380 29221 29225 28
23381 29226 29227 28
23382 29226 29228 28
23383 29226 29229 28
23384 29226 29230 28
23385 29231 29232 28
23386 29231 29233 28
23387 29231 29234 28
23388 29231 29235 28
23389 29236 29237 28
23390 29236 29238 28
23391 29236 29239 28
23392 29236 29240 28
23393 29241 29242 28
23394 29241 29243 28
23395 29241 29244 28
23396 29241 29245 28
23397 29246 29247 28
23398 29246 29248 28
23399 29246 29249 28
23400 29246 29250 28
23401 29251 29252 28
23402 29251 29253 28
23403 29251 29254 28
23404 29251 29255 28
23405 29256 29257 28
23406 29256 29258 28
23407 29256 29259 28
23408 29256 29260 28
23409 29261 29262 28
23410 29261 29263 28
23411 29261 29264 28
23412 29261 29265 28
23413 29266 29267 28
23414 29266 29268 28
23415 29266 29269 28
23416 29266 29270 28
23417 29271 29272 28
23418 29271 29273 28
23419 29271 29274 28
23420 29271 29275 28
23421 29276 29277 28
23422 29276 29278 28
23423 29276 29279 28
23424 29276 29280 28
23425 29281 29282 28
23426 29281 29283 28
23427 29281 29284 28
23428 29281 29285 28
23429 29286 29287 28
23430 29286 29288 28
23431 29286 29289 28
23432 29286 29290 28
23433 29291 29292 28
23434 29291 29293 28
23435 29291 29294 28
23436 29291 29295 28
23437 29296 29297 28
23438 29296 29298 28
23439 29296 29299 28
23440 29296 29300 28
23441 29301 29302 28
23442 29301 29303 28
23443 29301 29304 28
23444 29301 29305 28
23445 29306 29307 28
23446 29306 29308 28
23447 29306 29309 28
23448 29306 29310 28
23449 29311 29312 28
23450 29311 29313 28
23451 29311 29314 28
23452 29311 29315 28
23453 29316 29317 28
23454 29316 29318 28
23455 29316 29319 28
23456 29316 29320 28
23457 29321 29322 28
23458 29321 29323 28
23459 29321 29324 28
23460 29321 29325 28
23461 29326 29327 28
23462 29326 29328 28
23463 29326 29329 28
23464 29326 29330 28
23465 29331 29332 28
23466 29331 29333 28
23467 29331 29334 28
23468 29331 29335 28
23469 29336 29337 28
23470 29336 29338 28
23471 29336 29339 28
23472 29336 29340 28
23473 29341 29342 28
23474 29341 29343 28
23475 29341 29344 28
23476 29341 29345 28
23477 29346 29347 28
23478 29346 29348 28
23479 29346 29349 28
23480 29346 29350 28
23481 29351 29352 28
23482 29351 29353 28
23483 29351 29354 28
23484 29351 29355 28
23485 29356 29357 28
23486 29356 29358 28
23487 29356 29359 28
23488 29356 29360 28
23489 29361 29362 28
23490 29361 29363 28
23491 29361 29364 28
23492 29361 29365 28
23493 29366 29367 28
23494 29366 29368 28
23495 29366 29369 28
23496 29366 29370 28
23497 29371 29372 28
23498 29371 29373 28
23499 29371 29374 28
23500 29371 29375 28
23501 29376 29377 28
23502 29376 29378 28
23503 29376 29379 28
23504 29376 29380 28
23505 29381 29382 28
23506 29381 29383 28
23507 29381 29384 28
23508 29381 29385 28
23509 29386 29387 28
23510 29386 29388 28
23511 29386 29389 28
23512 29386 29390 28
23513 29391 29392 28
23514 29391 29393 28
23515 29391 29394 28
23516 29391 29395 28
23517 29396 29397 28
23518 29396 29398 28
23519 29396 29399 28
23520 29396 29400 28
23521 29401 29402 28
23522 29401 29403 28
23523 29401 29404 28
23524 29401 29405 28
23525 29406 29407 28
23526 29406 29408 28
23527 29406 29409 28
23528 29406 29410 28
23529 29411 29412 28
23530 29411 29413 28
23531 29411 29414 28
23532 29411 29415 28
23533 29416 29417 28
23534 29416 29418 28
23535 29416 29419 28
23536 29416 29420 28
23537 29421 29422 28
23538 29421 29423 28
23539 29421 29424 28
23540 29421 29425 28
23541 29426 29427 28
23542 29426 29428 28
23543 29426 29429 28
23544 29426 29430 28
23545 29431 29432 28
23546 29431 29433 28
23547 29431 29434 28
23548 29431 29435 28
23549 29436 29437 28
23550 29436 29438 28
23551 29436 29439 28
23552 29436 29440 28
23553 29441 29442 28
23554 29441 29443 28
23555 29441 29444 28
23556 29441 29445 28
23557 29446 29447 28
23558 29446 29448 28
23559 29446 29449 28
23560 29446 29450 28
23561 29451 29452 28
23562 29451 29453 28
23563 29451 29454 28
23564 29451 29455 28
23565 29456 29457 28
23566 29456 29458 28
23567 29456 29459 28
23568 29456 29460 28
23569 29461 29462 28
23570 29461 29463 28
23571 29461 29464 28
23572 29461 29465 28
23573 29466 29467 28
23574 29466 29468 28
23575 29466 29469 28
23576 29466 29470 28
23577 29471 29472 28
23578 29471 29473 28
23579 29471 29474 28
23580 29471 29475 28
23581 29476 29477 28
23582 29476 29478 28
23583 29476 29479 28
23584 29476 29480 28
23585 29481 29482 28
23586 29481 29483 28
23587 29481 29484 28
23588 29481 29485 28
23589 29486 29487 28
23590 29486 29488 28
23591 29486 29489 28
23592 29486 29490 28
23593 29491 29492 28
23594 29491 29493 28
23595 29491 29494 28
23596 29491 29495 28
23597 29496 29497 28
23598 29496 29498 28
23599 29496 29499 28
23600 29496 29500 28
23601 29501 29502 28
23602 29501 29503 28
23603 29501 29504 28
23604 29501 29505 28
23605 29506 29507 28
23606 29506 29508 28
23607 29506 29509 28
23608 29506 29510 28
23609 29511 29512 28
23610 29511 29513 28
23611 29511 29514 28
23612 29511 29515 28
23613 29516 29517 28
23614 29516 29518 28
23615 29516 29519 28
23616 29516 29520 28
23617 29521 29522 28
23618 29521 29523 28
23619 29521 29524 28
23620 29521 29525 28
23621 29526 29527 28
23622 29526 29528 28
23623 29526 29529 28
23624 29526 29530 28
23625 29531 29532 28
23626 29531 29533 28
23627 29531 29534 28
23628 29531 29535 28
23629 29536 29537 28
23630 29536 29538 28
23631 29536 29539 28
23632 29536 29540 28
23633 29541 29542 28
23634 29541 29543 28
23635 29541 29544 28
23636 29541 29545 28
23637 29546 29547 28
23638 29546 29548 28
23639 29546 29549 28
23640 29546 29550 28
23641 29551 29552 28
23642 29551 29553 28
23643 29551 29554 28
23644 29551 29555 28
23645 29556 29557 28
23646 29556 29558 28
23647 29556 29559 28
23648 29556 29560 28
23649 29561 29562 28
23650 29561 29563 28
23651 29561 29564 28
23652 29561 29565 28
23653 29566 29567 28
23654 29566 29568 28
23655 29566 29569 28
23656 29566 29570 28
23657 29571 29572 28
23658 29571 29573 28
23659 29571 29574 28
23660 29571 29575 28
23661 29576 29577 28
23662 29576 29578 28
23663 29576 29579 28
23664 29576 29580 28
23665 29581 29582 28
23666 29581 29583 28
23667 29581 29584 28
23668 29581 29585 28
23669 29586 29587 28
23670 29586 29588 28
23671 29586 29589 28
23672 29586 29590 28
23673 29591 29592 28
23674 29591 29593 28
23675 29591 29594 28
23676 29591 29595 28
23677 29596 29597 28
23678 29596 29598 28
23679 29596 29599 28
23680 29596 29600 28
23681 29601 29602 28
23682 29601 29603 28
23683 29601 29604 28
23684 29601 29605 28
23685 29606 29607 28
23686 29606 29608 28
23687 29606 29609 28
23688 29606 29610 28
23689 29611 29612 28
23690 29611 29613 28
23691 29611 29614 28
23692 29611 29615 28
23693 29616 29617 28
23694 29616 29618 28
23695 29616 29619 28
23696 29616 29620 28
23697 29621 29622 28
23698 29621 29623 28
23699 29621 29624 28
23700 29621 29625 28
23701 29626 29627 28
23702 29626 29628 28
23703 29626 29629 28
23704 29626 29630 28
23705 29631 29632 28
23706 29631 29633 28
23707 29631 29634 28
23708 29631 29635 28
23709 29636 29637 28
23710 29636 29638 28
23711 29636 29639 28
23712 29636 29640 28
23713 29641 29642 28
23714 29641 29643 28
23715 29641 29644 28
23716 29641 29645 28
23717 29646 29647 28
23718 29646 29648 28
23719 29646 29649 28
23720 29646 29650 28
23721 29651 29652 28
23722 29651 29653 28
23723 29651 29654 28
23724 29651 29655 28
23725 29656 29657 28
23726 29656 29658 28
23727 29656 29659 28
23728 29656 29660 28
23729 29661 29662 28
23730 29661 29663 28
23731 29661 29664 28
23732 29661 29665 28
23733 29666 29667 28
23734 29666 29668 28
23735 29666 29669 28
23736 29666 29670 28
23737 29671 29672 28
23738 29671 29673 28
23739 29671 29674 28
23740 29671 29675 28
23741 29676 29677 28
23742 29676 29678 28
23743 29676 29679 28
23744 29676 29680 28
23745 29681 29682 28
23746 29681 29683 28
23747 29681 29684 28
23748 29681 29685 28
23749 29686 29687 28
23750 29686 29688 28
23751 29686 29689 28
23752 29686 29690 28
23753 29691 29692 28
23754 29691 29693 28
23755 29691 29694 28
23756 29691 29695 28
23757 29696 29697 28
23758 29696 29698 28
23759 29696 29699 28
23760 29696 29700 28
23761 29701 29702 28
23762 29701 29703 28
23763 29701 29704 28
23764 29701 29705 28
23765 29706 29707 28
23766 29706 29708 28
23767 29706 29709 28
23768 29706 29710 28
23769 29711 29712 28
23770 29711 29713 28
23771 29711 29714 28
23772 29711 29715 28
23773 29716 29717 28
23774 29716 29718 28
23775 29716 29719 28
23776 29716 29720 28
23777 29721 29722 28
23778 29721 29723 28
23779 29721 29724 28
23780 29721 29725 28
23781 29726 29727 28
23782 29726 29728 28
23783 29726 29729 28
23784 29726 29730 28
23785 29731 29732 28
23786 29731 29733 28
23787 29731 29734 28
23788 29731 29735 28
23789 29736 29737 28
23790 29736 29738 28
23791 29736 29739 28
23792 29736 29740 28
23793 29741 29742 28
23794 29741 29743 28
23795 29741 29744 28
23796 29741 29745 28
23797 29746 29747 28
23798 29746 29748 28
23799 29746 29749 28
23800 29746 29750 28
23801 29751 29752 28
23802 29751 29753 28
23803 29751 29754 28
23804 29751 29755 28
23805 29756 29757 28
23806 29756 29758 28
23807 29756 29759 28
23808 29756 29760 28
23809 29761 29762 28
23810 29761 29763 28
23811 29761 29764 28
23812 29761 29765 28
23813 29766 29767 28
23814 29766 29768 28
23815 29766 29769 28
23816 29766 29770 28
23817 29771 29772 28
23818 29771 29773 28
23819 29771 29774 28
23820 29771 29775 28
23821 29776 29777 28
23822 29776 29778 28
23823 29776 29779 28
23824 29776 29780 28
23825 29781 29782 28
23826 29781 29783 28
23827 29781 29784 28
23828 29781 29785 28
23829 29786 29787 28
23830 29786 29788 28
23831 29786 29789 28
23832 29786 29790 28
23833 29791 29792 28
23834 29791 29793 28
23835 29791 29794 28
23836 29791 29795 28
23837 29796 29797 28
23838 29796 29798 28
23839 29796 29799 28
23840 29796 29800 28
23841 29801 29802 28
23842 29801 29803 28
23843 29801 29804 28
23844 29801 29805 28
23845 29806 29807 28
23846 29806 29808 28
23847 29806 29809 28
23848 29806 29810 28
23849 29811 29812 28
23850 29811 29813 28
23851 29811 29814 28
23852 29811 29815 28
23853 29816 29817 28
23854 29816 29818 28
23855 29816 29819 28
23856 29816 29820 28
23857 29821 29822 28
23858 29821 29823 28
23859 29821 29824 28
23860 29821 29825 28
23861 29826 29827 28
23862 29826 29828 28
23863 29826 29829 28
23864 29826 29830 28
23865 29831 29832 28
23866 29831 29833 28
23867 29831 29834 28
23868 29831 29835 28
23869 29836 29837 28
23870 29836 29838 28
23871 29836 29839 28
23872 29836 29840 28
23873 29841 29842 28
23874 29841 29843 28
23875 29841 29844 28
23876 29841 29845 28
23877 29846 29847 28
23878 29846 29848 28
23879 29846 29849 28
23880 29846 29850 28
23881 29851 29852 28
23882 29851 29853 28
23883 29851 29854 28
23884 29851 29855 28
23885 29856 29857 28
23886 29856 29858 28
23887 29856 29859 28
23888 29856 29860 28
23889 29861 29862 28
23890 29861 29863 28
23891 29861 29864 28
23892 29861 29865 28
23893 29866 29867 28
23894 29866 29868 28
23895 29866 29869 28
23896 29866 29870 28
23897 29871 29872 28
23898 29871 29873 28
23899 29871 29874 28
23900 29871 29875 28
23901 29876 29877 28
23902 29876 29878 28
23903 29876 29879 28
23904 29876 29880 28
23905 29881 29882 28
23906 29881 29883 28
23907 29881 29884 28
23908 29881 29885 28
23909 29886 29887 28
23910 29886 29888 28
23911 29886 29889 28
23912 29886 29890 28
23913 29891 29892 28
23914 29891 29893 28
23915 29891 29894 28
23916 29891 29895 28
23917 29896 29897 28
23918 29896 29898 28
23919 29896 29899 28
23920 29896 29900 28
23921 29901 29902 28
23922 29901 29903 28
23923 29901 29904 28
23924 29901 29905 28
23925 29906 29907 28
23926 29906 29908 28
23927 29906 29909 28
23928 29906 29910 28
23929 29911 29912 28
23930 29911 29913 28
23931 29911 29914 28
23932 29911 29915 28
23933 29916 29917 28
23934 29916 29918 28
23935 29916 29919 28
23936 29916 29920 28
23937 29921 29922 28
23938 29921 29923 28
23939 29921 29924 28
23940 29921 29925 28
23941 29926 29927 28
23942 29926 29928 28
23943 29926 29929 28
23944 29926 29930 28
23945 29931 29932 28
23946 29931 29933 28
23947 29931 29934 28
23948 29931 29935 28
23949 29936 29937 28
23950 29936 29938 28
23951 29936 29939 28
23952 29936 29940 28
23953 29941 29942 28
23954 29941 29943 28
23955 29941 29944 28
23956 29941 29945 28
23957 29946 29947 28
23958 29946 29948 28
23959 29946 29949 28
23960 29946 29950 28
23961 29951 29952 28
23962 29951 29953 28
23963 29951 29954 28
23964 29951 29955 28
23965 29956 29957 28
23966 29956 29958 28
23967 29956 29959 28
23968 29956 29960 28
23969 29961 29962 28
23970 29961 29963 28
23971 29961 29964 28
23972 29961 29965 28
23973 29966 29967 28
23974 29966 29968 28
23975 29966 29969 28
23976 29966 29970 28
23977 29971 29972 28
23978 29971 29973 28
23979 29971 29974 28
23980 29971 29975 28
23981 29976 29977 28
23982 29976 29978 28
23983 29976 29979 28
23984 29976 29980 28
23985 29981 29982 28
23986 29981 29983 28
23987 29981 29984 28
23988 29981 29985 28
23989 29986 29987 28
23990 29986 29988 28
23991 29986 29989 28
23992 29986 29990 28
23993 29991 29992 28
23994 29991 29993 28
23995 29991 29994 28
23996 29991 29995 28
23997 29996 29997 28
23998 29996 29998 28
23999 29996 29999 28
24000 29996 30000 28
24001 30001 30002 28
24002 30001 30003 28
24003 30001 30004 28
24004 30001 30005 28
24005 30006 30007 28
24006 30006 30008 28
24007 30006 30009 28
24008 30006 30010 28
24009 30011 30012 28
24010 30011 30013 28
24011 30011 30014 28
24012 30011 30015 28
24013 30016 30017 28
24014 30016 30018 28
24015 30016 30019 28
24016 30016 30020 28
24017 30021 30022 28
24018 30021 30023 28
24019 30021 30024 28
24020 30021 30025 28
24021 30026 30027 28
24022 30026 30028 28
24023 30026 30029 28
24024 30026 30030 28
24025 30031 30032 28
24026 30031 30033 28
24027 30031 30034 28
24028 30031 30035 28
24029 30036 30037 28
24030 30036 30038 28
24031 30036 30039 28
24032 30036 30040 28
24033 30041 30042 28
24034 30041 30043 28
24035 30041 30044 28
24036 30041 30045 28
24037 30046 30047 28
24038 30046 30048 28
24039 30046 30049 28
24040 30046 30050 28
24041 30051 30052 28
24042 30051 30053 28
24043 30051 30054 28
24044 30051 30055 28
24045 30056 30057 28
24046 30056 30058 28
24047 30056 30059 28
24048 30056 30060 28
24049 30061 30062 28
24050 30061 30063 28
24051 30061 30064 28
24052 30061 30065 28
24053 30066 30067 28
24054 30066 30068 28
24055 30066 30069 28
24056 30066 30070 28
24057 30071 30072 28
24058 30071 30073 28
24059 30071 30074 28
24060 30071 30075 28
24061 30076 30077 28
24062 30076 30078 28
24063 30076 30079 28
24064 30076 30080 28
24065 30081 30082 28
24066 30081 30083 28
24067 30081 30084 28
24068 30081 30085 28
24069 30086 30087 28
24070 30086 30088 28
24071 30086 30089 28
24072 30086 30090 28
24073 30091 30092 28
24074 30091 30093 28
24075 30091 30094 28
24076 30091 30095 28
24077 30096 30097 28
24078 30096 30098 28
24079 30096 30099 28
24080 30096 30100 28
24081 30101 30102 28
24082 30101 30103 28
24083 30101 30104 28
24084 30101 30105 28
24085 30106 30107 28
24086 30106 30108 28
24087 30106 30109 28
24088 30106 30110 28
24089 30111 30112 28
24090 30111 30113 28
24091 30111 30114 28
24092 30111 30115 28
24093 30116 30117 28
24094 30116 30118 28
24095 30116 30119 28
24096 30116 30120 28
24097 30121 30122 28
24098 30121 30123 28
24099 30121 30124 28
24100 30121 30125 28
24101 30126 30127 28
24102 30126 30128 28
24103 30126 30129 28
24104 30126 30130 28
24105 30131 30132 28
24106 30131 30133 28
24107 30131 30134 28
24108 30131 30135 28
24109 30136 30137 28
24110 30136 30138 28
24111 30136 30139 28
24112 30136 30140 28
24113 30141 30142 28
24114 30141 30143 28
24115 30141 30144 28
24116 30141 30145 28
24117 30146 30147 28
24118 30146 30148 28
24119 30146 30149 28
24120 30146 30150 28
24121 30151 30152 28
24122 30151 30153 28
24123 30151 30154 28
24124 30151 30155 28
24125 30156 30157 28
24126 30156 30158 28
24127 30156 30159 28
24128 30156 30160 28
24129 30161 30162 28
24130 30161 30163 28
24131 30161 30164 28
24132 30161 30165 28
24133 30166 30167 28
24134 30166 30168 28
24135 30166 30169 28
24136 30166 30170 28
24137 30171 30172 28
24138 30171 30173 28
24139 30171 30174 28
24140 30171 30175 28
24141 30176 30177 28
24142 30176 30178 28
24143 30176 30179 28
24144 30176 30180 28
24145 30181 30182 28
24146 30181 30183 28
24147 30181 30184 28
24148 30181 30185 28
24149 30186 30187 28
24150 30186 30188 28
24151 30186 30189 28
24152 30186 30190 28
24153 30191 30192 28
24154 30191 30193 28
24155 30191 30194 28
24156 30191 30195 28
24157 30196 30197 28
24158 30196 30198 28
24159 30196 30199 28
24160 30196 30200 28
24161 30201 30202 28
24162 30201 30203 28
24163 30201 30204 28
24164 30201 30205 28
24165 30206 30207 28
24166 30206 30208 28
24167 30206 30209 28
24168 30206 30210 28
24169 30211 30212 28
24170 30211 30213 28
24171 30211 30214 28
24172 30211 30215 28
24173 30216 30217 28
24174 30216 30218 28
24175 30216 30219 28
24176 30216 30220 28
24177 30221 30222 28
24178 30221 30223 28
24179 30221 30224 28
24180 30221 30225 28
24181 30226 30227 28
24182 30226 30228 28
24183 30226 30229 28
24184 30226 30230 28
24185 30231 30232 28
24186 30231 30233 28
24187 30231 30234 28
24188 30231 30235 28
24189 30236 30237 28
24190 30236 30238 28
24191 30236 30239 28
24192 30236 30240 28
24193 30241 30242 28
24194 30241 30243 28
24195 30241 30244 28
24196 30241 30245 28
24197 30246 30247 28
24198 30246 30248 28
24199 30246 30249 28
24200 30246 30250 28
24201 30251 30252 28
24202 30251 30253 28
24203 30251 30254 28
24204 30251 30255 28
24205 30256 30257 28
24206 30256 30258 28
24207 30256 30259 28
24208 30256 30260 28
24209 30261 30262 28
24210 30261 30263 28
24211 30261 30264 28
24212 30261 30265 28
24213 30266 30267 28
24214 30266 30268 28
24215 30266 30269 28
24216 30266 30270 28
24217 30271 30272 28
24218 30271 30273 28
24219 30271 30274 28
24220 30271 30275 28
24221 30276 30277 28
24222 30276 30278 28
24223 30276 30279 28
24224 30276 30280 28
24225 30281 30282 28
24226 30281 30283 28
24227 30281 30284 28
24228 30281 30285 28
24229 30286 30287 28
24230 30286 30288 28
24231 30286 30289 28
24232 30286 30290 28
24233 30291 30292 28
24234 30291 30293 28
24235 30291 30294 28
24236 30291 30295 28
24237 30296 30297 28
24238 30296 30298 28
24239 30296 30299 28
24240 30296 30300 28
24241 30301 30302 28
24242 30301 30303 28
24243 30301 30304 28
24244 30301 30305 28
24245 30306 30307 28
24246 30306 30308 28
24247 30306 30309 28
24248 30306 30310 28
24249 30311 30312 28
24250 30311 30313 28
24251 30311 30314 28
24252 30311 30315 28
24253 30316 30317 28
24254 30316 30318 28
24255 30316 30319 28
24256 30316 30320 28
24257 30321 30322 28
24258 30321 30323 28
24259 30321 30324 28
24260 30321 30325 28
24261 30326 30327 28
24262 30326 30328 28
24263 30326 30329 28
24264 30326 30330 28
24265 30331 30332 28
24266 30331 30333 28
24267 30331 30334 28
24268 30331 30335 28
24269 30336 30337 28
24270 30336 30338 28
24271 30336 30339 28
24272 30336 30340 28
24273 30341 30342 28
24274 30341 30343 28
24275 30341 30344 28
24276 30341 30345 28
24277 30346 30347 28
24278 30346 30348 28
24279 30346 30349 28
24280 30346 30350 28
24281 30351 30352 28
24282 30351 30353 28
24283 30351 30354 28
24284 30351 30355 28
24285 30356 30357 28
24286 30356 30358 28
24287 30356 30359 28
24288 30356 30360 28
24289 30361 30362 28
24290 30361 30363 28
24291 30361 30364 28
24292 30361 30365 28
24293 30366 30367 28
24294 30366 30368 28
24295 30366 30369 28
24296 30366 30370 28
24297 30371 30372 28
24298 30371 30373 28
24299 30371 30374 28
24300 30371 30375 28
24301 30376 30377 28
24302 30376 30378 28
24303 30376 30379 28
24304 30376 30380 28
24305 30381 30382 28
24306 30381 30383 28
24307 30381 30384 28
24308 30381 30385 28
24309 30386 30387 28
24310 30386 30388 28
24311 30386 30389 28
24312 30386 30390 28
24313 30391 30392 28
24314 30391 30393 28
24315 30391 30394 28
24316 30391 30395 28
24317 30396 30397 28
24318 30396 30398 28
24319 30396 30399 28
24320 30396 30400 28
24321 30401 30402 28
24322 30401 30403 28
24323 30401 30404 28
24324 30401 30405 28
24325 30406 30407 28
24326 30406 30408 28
24327 30406 30409 28
24328 30406 30410 28
24329 30411 30412 28
24330 30411 30413 28
24331 30411 30414 28
24332 30411 30415 28
24333 30416 30417 28
24334 30416 30418 28
24335 30416 30419 28
24336 30416 30420 28
24337 30421 30422 28
24338 30421 30423 28
24339 30421 30424 28
24340 30421 30425 28
24341 30426 30427 28
24342 30426 30428 28
24343 30426 30429 28
24344 30426 30430 28
24345 30431 30432 28
24346 30431 30433 28
24347 30431 30434 28
24348 30431 30435 28
24349 30436 30437 28
24350 30436 30438 28
24351 30436 30439 28
24352 30436 30440 28
24353 30441 30442 28
24354 30441 30443 28
24355 30441 30444 28
24356 30441 30445 28
24357 30446 30447 28
24358 30446 30448 28
24359 30446 30449 28
24360 30446 30450 28
24361 30451 30452 28
24362 30451 30453 28
24363 30451 30454 28
24364 30451 30455 28
24365 30456 30457 28
24366 30456 30458 28
24367 30456 30459 28
24368 30456 30460 28
24369 30461 30462 28
24370 30461 30463 28
24371 30461 30464 28
24372 30461 30465 28
24373 30466 30467 28
24374 30466 30468 28
24375 30466 30469 28
24376 30466 30470 28
24377 30471 30472 28
24378 30471 30473 28
24379 30471 30474 28
24380 30471 30475 28
24381 30476 30477 28
24382 30476 30478 28
24383 30476 30479 28
24384 30476 30480 28
24385 30481 30482 28
24386 30481 30483 28
24387 30481 30484 28
24388 30481 30485 28
24389 30486 30487 28
24390 30486 30488 28
24391 30486 30489 28
24392 30486 30490 28
24393 30491 30492 28
24394 30491 30493 28
24395 30491 30494 28
24396 30491 30495 28
24397 30496 30497 28
24398 30496 30498 28
24399 30496 30499 28
24400 30496 30500 28
24401 30501 30502 28
24402 30501 30503 28
24403 30501 30504 28
24404 30501 30505 28
24405 30506 30507 28
24406 30506 30508 28
24407 30506 30509 28
24408 30506 30510 28
24409 30511 30512 28
24410 30511 30513 28
24411 30511 30514 28
24412 30511 30515 28
24413 30516 30517 28
24414 30516 30518 28
24415 30516 30519 28
24416 30516 30520 28
24417 30521 30522 28
24418 30521 30523 28
24419 30521 30524 28
24420 30521 30525 28
24421 30526 30527 28
24422 30526 30528 28
24423 30526 30529 28
24424 30526 30530 28
24425 30531 30532 28
24426 30531 30533 28
24427 30531 30534 28
24428 30531 30535 28
24429 30536 30537 28
24430 30536 30538 28
24431 30536 30539 28
24432 30536 30540 28
24433 30541 30542 28
24434 30541 30543 28
24435 30541 30544 28
24436 30541 30545 28
24437 30546 30547 28
24438 30546 30548 28
24439 30546 30549 28
24440 30546 30550 28
24441 30551 30552 28
24442 30551 30553 28
24443 30551 30554 28
24444 30551 30555 28
24445 30556 30557 28
24446 30556 30558 28
24447 30556 30559 28
24448 30556 30560 28
24449 30561 30562 28
24450 30561 30563 28
24451 30561 30564 28
24452 30561 30565 28
24453 30566 30567 28
24454 30566 30568 28
24455 30566 30569 28
24456 30566 30570 28
24457 30571 30572 28
24458 30571 30573 28
24459 30571 30574 28
24460 30571 30575 28
24461 30576 30577 28
24462 30576 30578 28
24463 30576 30579 28
24464 30576 30580 28
24465 30581 30582 28
24466 30581 30583 28
24467 30581 30584 28
24468 30581 30585 28
24469 30586 30587 28
24470 30586 30588 28
24471 30586 30589 28
24472 30586 30590 28
24473 30591 30592 28
24474 30591 30593 28
24475 30591 30594 28
24476 30591 30595 28
24477 30596 30597 28
24478 30596 30598 28
24479 30596 30599 28
24480 30596 30600 28
24481 30601 30602 28
24482 30601 30603 28
24483 30601 30604 28
24484 30601 30605 28
24485 30606 30607 28
24486 30606 30608 28
24487 30606 30609 28
24488 30606 30610 28
24489 30611 30612 28
24490 30611 30613 28
24491 30611 30614 28
24492 30611 30615 28
24493 30616 30617 28
24494 30616 30618 28
24495 30616 30619 28
24496 30616 30620 28
24497 30621 30622 28
24498 30621 30623 28
24499 30621 30624 28
24500 30621 30625 28
24501 30626 30627 28
24502 30626 30628 28
24503 30626 30629 28
24504 30626 30630 28
24505 30631 30632 28
24506 30631 30633 28
24507 30631 30634 28
24508 30631 30635 28
24509 30636 30637 28
24510 30636 30638 28
24511 30636 30639 28
24512 30636 30640 28
24513 30641 30642 28
24514 30641 30643 28
24515 30641 30644 28
24516 30641 30645 28
24517 30646 30647 28
24518 30646 30648 28
24519 30646 30649 28
24520 30646 30650 28
24521 30651 30652 28
24522 30651 30653 28
24523 30651 30654 28
24524 30651 30655 28
24525 30656 30657 28
24526 30656 30658 28
24527 30656 30659 28
24528 30656 30660 28
24529 30661 30662 28
24530 30661 30663 28
24531 30661 30664 28
24532 30661 30665 28
24533 30666 30667 28
24534 30666 30668 28
24535 30666 30669 28
24536 30666 30670 28
24537 30671 30672 28
24538 30671 30673 28
24539 30671 30674 28
24540 30671 30675 28
24541 30676 30677 28
24542 30676 30678 28
24543 30676 30679 28
24544 30676 30680 28
24545 30681 30682 28
24546 30681 30683 28
24547 30681 30684 28
24548 30681 30685 28
24549 30686 30687 28
24550 30686 30688 28
24551 30686 30689 28
24552 30686 30690 28
24553 30691 30692 28
24554 30691 30693 28
24555 30691 30694 28
24556 30691 30695 28
24557 30696 30697 28
24558 30696 30698 28
24559 30696 30699 28
24560 30696 30700 28
24561 30701 30702 28
24562 30701 30703 28
24563 30701 30704 28
24564 30701 30705 28
24565 30706 30707 28
24566 30706 30708 28
24567 30706 30709 28
24568 30706 30710 28
24569 30711 30712 28
24570 30711 30713 28
24571 30711 30714 28
24572 30711 30715 28
24573 30716 30717 28
24574 30716 30718 28
24575 30716 30719 28
24576 30716 30720 28
24577 30721 30722 28
24578 30721 30723 28
24579 30721 30724 28
24580 30721 30725 28
24581 30726 30727 28
24582 30726 30728 28
24583 30726 30729 28
24584 30726 30730 28
24585 30731 30732 28
24586 30731 30733 28
24587 30731 30734 28
24588 30731 30735 28
24589 30736 30737 28
24590 30736 30738 28
24591 30736 30739 28
24592 30736 30740 28
24593 30741 30742 28
24594 30741 30743 28
24595 30741 30744 28
24596 30741 30745 28
24597 30746 30747 28
24598 30746 30748 28
24599 30746 30749 28
24600 30746 30750 28
24601 30751 30752 28
24602 30751 30753 28
24603 30751 30754 28
24604 30751 30755 28
24605 30756 30757 28
24606 30756 30758 28
24607 30756 30759 28
24608 30756 30760 28
24609 30761 30762 28
24610 30761 30763 28
24611 30761 30764 28
24612 30761 30765 28
24613 30766 30767 28
24614 30766 30768 28
24615 30766 30769 28
24616 30766 30770 28
24617 30771 30772 28
24618 30771 30773 28
24619 30771 30774 28
24620 30771 30775 28
24621 30776 30777 28
24622 30776 30778 28
24623 30776 30779 28
24624 30776 30780 28
24625 30781 30782 28
24626 30781 30783 28
24627 30781 30784 28
24628 30781 30785 28
24629 30786 30787 28
24630 30786 30788 28
24631 30786 30789 28
24632 30786 30790 28
24633 30791 30792 28
24634 30791 30793 28
24635 30791 30794 28
24636 30791 30795 28
24637 30796 30797 28
24638 30796 30798 28
24639 30796 30799 28
24640 30796 30800 28
24641 30801 30802 28
24642 30801 30803 28
24643 30801 30804 28
24644 30801 30805 28
24645 30806 30807 28
24646 30806 30808 28
24647 30806 30809 28
24648 30806 30810 28
24649 30811 30812 28
24650 30811 30813 28
24651 30811 30814 28
24652 30811 30815 28
24653 30816 30817 28
24654 30816 30818 28
24655 30816 30819 28
24656 30816 30820 28
24657 30821 30822 28
24658 30821 30823 28
24659 30821 30824 28
24660 30821 30825 28
24661 30826 30827 28
24662 30826 30828 28
24663 30826 30829 28
24664 30826 30830 28
24665 30831 30832 28
24666 30831 30833 28
24667 30831 30834 28
24668 30831 30835 28
24669 30836 30837 28
24670 30836 30838 28
24671 30836 30839 28
24672 30836 30840 28
24673 30841 30842 28
24674 30841 30843 28
24675 30841 30844 28
24676 30841 30845 28
24677 30846 30847 28
24678 30846 30848 28
24679 30846 30849 28
24680 30846 30850 28
24681 30851 30852 28
24682 30851 30853 28
24683 30851 30854 28
24684 30851 30855 28
24685 30856 30857 28
24686 30856 30858 28
24687 30856 30859 28
24688 30856 30860 28
24689 30861 30862 28
24690 30861 30863 28
24691 30861 30864 28
24692 30861 30865 28
24693 30866 30867 28
24694 30866 30868 28
24695 30866 30869 28
24696 30866 30870 28
24697 30871 30872 28
24698 30871 30873 28
24699 30871 30874 28
24700 30871 30875 28
24701 30876 30877 28
24702 30876 30878 28
24703 30876 30879 28
24704 30876 30880 28
24705 30881 30882 28
24706 30881 30883 28
24707 30881 30884 28
24708 30881 30885 28
24709 30886 30887 28
24710 30886 30888 28
24711 30886 30889 28
24712 30886 30890 28
24713 30891 30892 28
24714 30891 30893 28
24715 30891 30894 28
24716 30891 30895 28
24717 30896 30897 28
24718 30896 30898 28
24719 30896 30899 28
24720 30896 30900 28
24721 30901 30902 28
24722 30901 30903 28
24723 30901 30904 28
24724 30901 30905 28
24725 30906 30907 28
24726 30906 30908 28
24727 30906 30909 28
24728 30906 30910 28
24729 30911 30912 28
24730 30911 30913 28
24731 30911 30914 28
24732 30911 30915 28
24733 30916 30917 28
24734 30916 30918 28
24735 30916 30919 28
24736 30916 30920 28
24737 30921 30922 28
24738 30921 30923 28
24739 30921 30924 28
24740 30921 30925 28
24741 30926 30927 28
24742 30926 30928 28
24743 30926 30929 28
24744 30926 30930 28
24745 30931 30932 28
24746 30931 30933 28
24747 30931 30934 28
24748 30931 30935 28
24749 30936 30937 28
24750 30936 30938 28
24751 30936 30939 28
24752 30936 30940 28
24753 30941 30942 28
24754 30941 30943 28
24755 30941 30944 28
24756 30941 30945 28
24757 30946 30947 28
24758 30946 30948 28
24759 30946 30949 28
24760 30946 30950 28
24761 30951 30952 28
24762 30951 30953 28
24763 30951 30954 28
24764 30951 30955 28
24765 30956 30957 28
24766 30956 30958 28
24767 30956 30959 28
24768 30956 30960 28
24769 30961 30962 28
24770 30961 30963 28
24771 30961 30964 28
24772 30961 30965 28
24773 30966 30967 28
24774 30966 30968 28
24775 30966 30969 28
24776 30966 30970 28
24777 30971 30972 28
24778 30971 30973 28
24779 30971 30974 28
24780 30971 30975 28
24781 30976 30977 28
24782 30976 30978 28
24783 30976 30979 28
24784 30976 30980 28
24785 30981 30982 28
24786 30981 30983 28
24787 30981 30984 28
24788 30981 30985 28
24789 30986 30987 28
24790 30986 30988 28
24791 30986 30989 28
24792 30986 30990 28
24793 30991 30992 28
24794 30991 30993 28
24795 30991 30994 28
24796 30991 30995 28
24797 30996 30997 28
24798 30996 30998 28
24799 30996 30999 28
24800 30996 31000 28
24801 31001 31002 28
24802 31001 31003 28
24803 31001 31004 28
24804 31001 31005 28
24805 31006 31007 28
24806 31006 31008 28
24807 31006 31009 28
24808 31006 31010 28
24809 31011 31012 28
24810 31011 31013 28
24811 31011 31014 28
24812 31011 31015 28
24813 31016 31017 28
24814 31016 31018 28
24815 31016 31019 28
24816 31016 31020 28
24817 31021 31022 28
24818 31021 31023 28
24819 31021 31024 28
24820 31021 31025 28
24821 31026 31027 28
24822 31026 31028 28
24823 31026 31029 28
24824 31026 31030 28
24825 31031 31032 28
24826 31031 31033 28
24827 31031 31034 28
24828 31031 31035 28
24829 31036 31037 28
24830 31036 31038 28
24831 31036 31039 28
24832 31036 31040 28
24833 31041 31042 28
24834 31041 31043 28
24835 31041 31044 28
24836 31041 31045 28
24837 31046 31047 28
24838 31046 31048 28
24839 31046 31049 28
24840 31046 31050 28
24841 31051 31052 28
24842 31051 31053 28
24843 31051 31054 28
24844 31051 31055 28
24845 31056 31057 28
24846 31056 31058 28
24847 31056 31059 28
24848 31056 31060 28
24849 31061 31062 28
24850 31061 31063 28
24851 31061 31064 28
24852 31061 31065 28
24853 31066 31067 28
24854 31066 31068 28
24855 31066 31069 28
24856 31066 31070 28
24857 31071 31072 28
24858 31071 31073 28
24859 31071 31074 28
24860 31071 31075 28
24861 31076 31077 28
24862 31076 31078 28
24863 31076 31079 28
24864 31076 31080 28
24865 31081 31082 28
24866 31081 31083 28
24867 31081 31084 28
24868 31081 31085 28
24869 31086 31087 28
24870 31086 31088 28
24871 31086 31089 28
24872 31086 31090 28
24873 31091 31092 28
24874 31091 31093 28
24875 31091 31094 28
24876 31091 31095 28
24877 31096 31097 28
24878 31096 31098 28
24879 31096 31099 28
24880 31096 31100 28
24881 31101 31102 28
24882 31101 31103 28
24883 31101 31104 28
24884 31101 31105 28
24885 31106 31107 28
24886 31106 31108 28
24887 31106 31109 28
24888 31106 31110 28
24889 31111 31112 28
24890 31111 31113 28
24891 31111 31114 28
24892 31111 31115 28
24893 31116 31117 28
24894 31116 31118 28
24895 31116 31119 28
24896 31116 31120 28
24897 31121 31122 28
24898 31121 31123 28
24899 31121 31124 28
24900 31121 31125 28
24901 31126 31127 28
24902 31126 31128 28
24903 31126 31129 28
24904 31126 31130 28
24905 31131 31132 28
24906 31131 31133 28
24907 31131 31134 28
24908 31131 31135 28
24909 31136 31137 28
24910 31136 31138 28
24911 31136 31139 28
24912 31136 31140 28
24913 31141 31142 28
24914 31141 31143 28
24915 31141 31144 28
24916 31141 31145 28
24917 31146 31147 28
24918 31146 31148 28
24919 31146 31149 28
24920 31146 31150 28
24921 31151 31152 28
24922 31151 31153 28
24923 31151 31154 28
24924 31151 31155 28
24925 31156 31157 28
24926 31156 31158 28
24927 31156 31159 28
24928 31156 31160 28
24929 31161 31162 28
24930 31161 31163 28
24931 31161 31164 28
24932 31161 31165 28
24933 31166 31167 28
24934 31166 31168 28
24935 31166 31169 28
24936 31166 31170 28
24937 31171 31172 28
24938 31171 31173 28
24939 31171 31174 28
24940 31171 31175 28
24941 31176 31177 28
24942 31176 31178 28
24943 31176 31179 28
24944 31176 31180 28
24945 31181 31182 28
24946 31181 31183 28
24947 31181 31184 28
24948 31181 31185 28
24949 31186 31187 28
24950 31186 31188 28
24951 31186 31189 28
24952 31186 31190 28
24953 31191 31192 28
24954 31191 31193 28
24955 31191 31194 28
24956 31191 31195 28
24957 31196 31197 28
24958 31196 31198 28
24959 31196 31199 28
24960 31196 31200 28
24961 31201 31202 28
24962 31201 31203 28
24963 31201 31204 28
24964 31201 31205 28
24965 31206 31207 28
24966 31206 31208 28
24967 31206 31209 28
24968 31206 31210 28
24969 31211 31212 28
24970 31211 31213 28
24971 31211 31214 28
24972 31211 31215 28
24973 31216 31217 28
24974 31216 31218 28
24975 31216 31219 28
24976 31216 31220 28
24977 31221 31222 28
24978 31221 31223 28
24979 31221 31224 28
24980 31221 31225 28
24981 31226 31227 28
24982 31226 31228 28
24983 31226 31229 28
24984 31226 31230 28
24985 31231 31232 28
24986 31231 31233 28
24987 31231 31234 28
24988 31231 31235 28
24989 31236 31237 28
24990 31236 31238 28
24991 31236 31239 28
24992 31236 31240 28
24993 31241 31242 28
24994 31241 31243 28
24995 31241 31244 28
24996 31241 31245 28
24997 31246 31247 28
24998 31246 31248 28
24999 31246 31249 28
25000 31246 31250 28
25001 31251 31252 28
25002 31251 31253 28
25003 31251 31254 28
25004 31251 31255 28
25005 31256 31257 28
25006 31256 31258 28
25007 31256 31259 28
25008 31256 31260 28
25009 31261 31262 28
25010 31261 31263 28
25011 31261 31264 28
25012 31261 31265 28
25013 31266 31267 28
25014 31266 31268 28
25015 31266 31269 28
25016 31266 31270 28
25017 31271 31272 28
25018 31271 31273 28
25019 31271 31274 28
25020 31271 31275 28
25021 31276 31277 28
25022 31276 31278 28
25023 31276 31279 28
25024 31276 31280 28
25025 31281 31282 28
25026 31281 31283 28
25027 31281 31284 28
25028 31281 31285 28
25029 31286 31287 28
25030 31286 31288 28
25031 31286 31289 28
25032 31286 31290 28
25033 31291 31292 28
25034 31291 31293 28
25035 31291 31294 28
25036 31291 31295 28
25037 31296 31297 28
25038 31296 31298 28
25039 31296 31299 28
25040 31296 31300 28
25041 31301 31302 28
25042 31301 31303 28
25043 31301 31304 28
25044 31301 31305 28
25045 31306 31307 28
25046 31306 31308 28
25047 31306 31309 28
25048 31306 31310 28
25049 31311 31312 28
25050 31311 31313 28
25051 31311 31314 28
25052 31311 31315 28
25053 31316 31317 28
25054 31316 31318 28
25055 31316 31319 28
25056 31316 31320 28
25057 31321 31322 28
25058 31321 31323 28
25059 31321 31324 28
25060 31321 31325 28
25061 31326 31327 28
25062 31326 31328 28
25063 31326 31329 28
25064 31326 31330 28
25065 31331 31332 28
25066 31331 31333 28
25067 31331 31334 28
25068 31331 31335 28
25069 31336 31337 28
25070 31336 31338 28
25071 31336 31339 28
25072 31336 31340 28
25073 31341 31342 28
25074 31341 31343 28
25075 31341 31344 28
25076 31341 31345 28
25077 31346 31347 28
25078 31346 31348 28
25079 31346 31349 28
25080 31346 31350 28
25081 31351 31352 28
25082 31351 31353 28
25083 31351 31354 28
25084 31351 31355 28
25085 31356 31357 28
25086 31356 31358 28
25087 31356 31359 28
25088 31356 31360 28
25089 31361 31362 28
25090 31361 31363 28
25091 31361 31364 28
25092 31361 31365 28
25093 31366 31367 28
25094 31366 31368 28
25095 31366 31369 28
25096 31366 31370 28
25097 31371 31372 28
25098 31371 31373 28
25099 31371 31374 28
25100 31371 31375 28
25101 31376 31377 28
25102 31376 31378 28
25103 31376 31379 28
25104 31376 31380 28
25105 31381 31382 28
25106 31381 31383 28
25107 31381 31384 28
25108 31381 31385 28
25109 31386 31387 28
25110 31386 31388 28
25111 31386 31389 28
25112 31386 31390 28
25113 31391 31392 28
25114 31391 31393 28
25115 31391 31394 28
25116 31391 31395 28
25117 31396 31397 28
25118 31396 31398 28
25119 31396 31399 28
25120 31396 31400 28
25121 31401 31402 28
25122 31401 31403 28
25123 31401 31404 28
25124 31401 31405 28
25125 31406 31407 28
25126 31406 31408 28
25127 31406 31409 28
25128 31406 31410 28
25129 31411 31412 28
25130 31411 31413 28
25131 31411 31414 28
25132 31411 31415 28
25133 31416 31417 28
25134 31416 31418 28
25135 31416 31419 28
25136 31416 31420 28
25137 31421 31422 28
25138 31421 31423 28
25139 31421 31424 28
25140 31421 31425 28
25141 31426 31427 28
25142 31426 31428 28
25143 31426 31429 28
25144 31426 31430 28
25145 31431 31432 28
25146 31431 31433 28
25147 31431 31434 28
25148 31431 31435 28
25149 31436 31437 28
25150 31436 31438 28
25151 31436 31439 28
25152 31436 31440 28
25153 31441 31442 28
25154 31441 31443 28
25155 31441 31444 28
25156 31441 31445 28
25157 31446 31447 28
25158 31446 31448 28
25159 31446 31449 28
25160 31446 31450 28
25161 31451 31452 28
25162 31451 31453 28
25163 31451 31454 28
25164 31451 31455 28
25165 31456 31457 28
25166 31456 31458 28
25167 31456 31459 28
25168 31456 31460 28
25169 31461 31462 28
25170 31461 31463 28
25171 31461 31464 28
25172 31461 31465 28
25173 31466 31467 28
25174 31466 31468 28
25175 31466 31469 28
25176 31466 31470 28
25177 31471 31472 28
25178 31471 31473 28
25179 31471 31474 28
25180 31471 31475 28
25181 31476 31477 28
25182 31476 31478 28
25183 31476 31479 28
25184 31476 31480 28
25185 31481 31482 28
25186 31481 31483 28
25187 31481 31484 28
25188 31481 31485 28
25189 31486 31487 28
25190 31486 31488 28
25191 31486 31489 28
25192 31486 31490 28
25193 31491 31492 28
25194 31491 31493 28
25195 31491 31494 28
25196 31491 31495 28
25197 31496 31497 28
25198 31496 31498 28
25199 31496 31499 28
25200 31496 31500 28
25201 31501 31502 28
25202 31501 31503 28
25203 31501 31504 28
25204 31501 31505 28
25205 31506 31507 28
25206 31506 31508 28
25207 31506 31509 28
25208 31506 31510 28
25209 31511 31512 28
25210 31511 31513 28
25211 31511 31514 28
25212 31511 31515 28
25213 31516 31517 28
25214 31516 31518 28
25215 31516 31519 28
25216 31516 31520 28
25217 31521 31522 28
25218 31521 31523 28
25219 31521 31524 28
25220 31521 31525 28
25221 31526 31527 28
25222 31526 31528 28
25223 31526 31529 28
25224 31526 31530 28
25225 31531 31532 28
25226 31531 31533 28
25227 31531 31534 28
25228 31531 31535 28
25229 31536 31537 28
25230 31536 31538 28
25231 31536 31539 28
25232 31536 31540 28
25233 31541 31542 28
25234 31541 31543 28
25235 31541 31544 28
25236 31541 31545 28
25237 31546 31547 28
25238 31546 31548 28
25239 31546 31549 28
25240 31546 31550 28
25241 31551 31552 28
25242 31551 31553 28
25243 31551 31554 28
25244 31551 31555 28
25245 31556 31557 28
25246 31556 31558 28
25247 31556 31559 28
25248 31556 31560 28
25249 31561 31562 28
25250 31561 31563 28
25251 31561 31564 28
25252 31561 31565 28
25253 31566 31567 28
25254 31566 31568 28
25255 31566 31569 28
25256 31566 31570 28
25257 31571 31572 28
25258 31571 31573 28
25259 31571 31574 28
25260 31571 31575 28
25261 31576 31577 28
25262 31576 31578 28
25263 31576 31579 28
25264 31576 31580 28
25265 31581 31582 28
25266 31581 31583 28
25267 31581 31584 28
25268 31581 31585 28
25269 31586 31587 28
25270 31586 31588 28
25271 31586 31589 28
25272 31586 31590 28
25273 31591 31592 28
25274 31591 31593 28
25275 31591 31594 28
25276 31591 31595 28
25277 31596 31597 28
25278 31596 31598 28
25279 31596 31599 28
25280 31596 31600 28
25281 31601 31602 28
25282 31601 31603 28
25283 31601 31604 28
25284 31601 31605 28
25285 31606 31607 28
25286 31606 31608 28
25287 31606 31609 28
25288 31606 31610 28
25289 31611 31612 28
25290 31611 31613 28
25291 31611 31614 28
25292 31611 31615 28
25293 31616 31617 28
25294 31616 31618 28
25295 31616 31619 28
25296 31616 31620 28
25297 31621 31622 28
25298 31621 31623 28
25299 31621 31624 28
25300 31621 31625 28
25301 31626 31627 28
25302 31626 31628 28
25303 31626 31629 28
25304 31626 31630 28
25305 31631 31632 28
25306 31631 31633 28
25307 31631 31634 28
25308 31631 31635 28
25309 31636 31637 28
25310 31636 31638 28
25311 31636 31639 28
25312 31636 31640 28
25313 31641 31642 28
25314 31641 31643 28
25315 31641 31644 28
25316 31641 31645 28
25317 31646 31647 28
25318 31646 31648 28
25319 31646 31649 28
25320 31646 31650 28
25321 31651 31652 28
25322 31651 31653 28
25323 31651 31654 28
25324 31651 31655 28
25325 31656 31657 28
25326 31656 31658 28
25327 31656 31659 28
25328 31656 31660 28
25329 31661 31662 28
25330 31661 31663 28
25331 31661 31664 28
25332 31661 31665 28
25333 31666 31667 28
25334 31666 31668 28
25335 31666 31669 28
25336 31666 31670 28
25337 31671 31672 28
25338 31671 31673 28
25339 31671 31674 28
25340 31671 31675 28
25341 31676 31677 28
25342 31676 31678 28
25343 31676 31679 28
25344 31676 31680 28
25345 31681 31682 28
25346 31681 31683 28
25347 31681 31684 28
25348 31681 31685 28
25349 31686 31687 28
25350 31686 31688 28
25351 31686 31689 28
25352 31686 31690 28
25353 31691 31692 28
25354 31691 31693 28
25355 31691 31694 28
25356 31691 31695 28
25357 31696 31697 28
25358 31696 31698 28
25359 31696 31699 28
25360 31696 31700 28
25361 31701 31702 28
25362 31701 31703 28
25363 31701 31704 28
25364 31701 31705 28
25365 31706 31707 28
25366 31706 31708 28
25367 31706 31709 28
25368 31706 31710 28
25369 31711 31712 28
25370 31711 31713 28
25371 31711 31714 28
25372 31711 31715 28
25373 31716 31717 28
25374 31716 31718 28
25375 31716 31719 28
25376 31716 31720 28
25377 31721 31722 28
25378 31721 31723 28
25379 31721 31724 28
25380 31721 31725 28
25381 31726 31727 28
25382 31726 31728 28
25383 31726 31729 28
25384 31726 31730 28
25385 31731 31732 28
25386 31731 31733 28
25387 31731 31734 28
25388 31731 31735 28
25389 31736 31737 28
25390 31736 31738 28
25391 31736 31739 28
25392 31736 31740 28
25393 31741 31742 28
25394 31741 31743 28
25395 31741 31744 28
25396 31741 31745 28
25397 31746 31747 28
25398 31746 31748 28
25399 31746 31749 28
25400 31746 31750 28
25401 31751 31752 28
25402 31751 31753 28
25403 31751 31754 28
25404 31751 31755 28
25405 31756 31757 28
25406 31756 31758 28
25407 31756 31759 28
25408 31756 31760 28
25409 31761 31762 28
25410 31761 31763 28
25411 31761 31764 28
25412 31761 31765 28
25413 31766 31767 28
25414 31766 31768 28
25415 31766 31769 28
25416 31766 31770 28
25417 31771 31772 28
25418 31771 31773 28
25419 31771 31774 28
25420 31771 31775 28
25421 31776 31777 28
25422 31776 31778 28
25423 31776 31779 28
25424 31776 31780 28
25425 31781 31782 28
25426 31781 31783 28
25427 31781 31784 28
25428 31781 31785 28
25429 31786 31787 28
25430 31786 31788 28
25431 31786 31789 28
25432 31786 31790 28
25433 31791 31792 28
25434 31791 31793 28
25435 31791 31794 28
25436 31791 31795 28
25437 31796 31797 28
25438 31796 31798 28
25439 31796 31799 28
25440 31796 31800 28
25441 31801 31802 28
25442 31801 31803 28
25443 31801 31804 28
25444 31801 31805 28
25445 31806 31807 28
25446 31806 31808 28
25447 31806 31809 28
25448 31806 31810 28
25449 31811 31812 28
25450 31811 31813 28
25451 31811 31814 28
25452 31811 31815 28
25453 31816 31817 28
25454 31816 31818 28
25455 31816 31819 28
25456 31816 31820 28
25457 31821 31822 28
25458 31821 31823 28
25459 31821 31824 28
25460 31821 31825 28
25461 31826 31827 28
25462 31826 31828 28
25463 31826 31829 28
25464 31826 31830 28
25465 31831 31832 28
25466 31831 31833 28
25467 31831 31834 28
25468 31831 31835 28
25469 31836 31837 28
25470 31836 31838 28
25471 31836 31839 28
25472 31836 31840 28
25473 31841 31842 28
25474 31841 31843 28
25475 31841 31844 28
25476 31841 31845 28
25477 31846 31847 28
25478 31846 31848 28
25479 31846 31849 28
25480 31846 31850 28
25481 31851 31852 28
25482 31851 31853 28
25483 31851 31854 28
25484 31851 31855 28
25485 31856 31857 28
25486 31856 31858 28
25487 31856 31859 28
25488 31856 31860 28
25489 31861 31862 28
25490 31861 31863 28
25491 31861 31864 28
25492 31861 31865 28
25493 31866 31867 28
25494 31866 31868 28
25495 31866 31869 28
25496 31866 31870 28
25497 31871 31872 28
25498 31871 31873 28
25499 31871 31874 28
25500 31871 31875 28
25501 31876 31877 28
25502 31876 31878 28
25503 31876 31879 28
25504 31876 31880 28
25505 31881 31882 28
25506 31881 31883 28
25507 31881 31884 28
25508 31881 31885 28
25509 31886 31887 28
25510 31886 31888 28
25511 31886 31889 28
25512 31886 31890 28
25513 31891 31892 28
25514 31891 31893 28
25515 31891 31894 28
25516 31891 31895 28
25517 31896 31897 28
25518 31896 31898 28
25519 31896 31899 28
25520 31896 31900 28
25521 31901 31902 28
25522 31901 31903 28
25523 31901 31904 28
25524 31901 31905 28
25525 31906 31907 28
25526 31906 31908 28
25527 31906 31909 28
25528 31906 31910 28
25529 31911 31912 28
25530 31911 31913 28
25531 31911 31914 28
25532 31911 31915 28
25533 31916 31917 28
25534 31916 31918 28
25535 31916 31919 28
25536 31916 31920 28
25537 31921 31922 28
25538 31921 31923 28
25539 31921 31924 28
25540 31921 31925 28
25541 31926 31927 28
25542 31926 31928 28
25543 31926 31929 28
25544 31926 31930 28
25545 31931 31932 28
25546 31931 31933 28
25547 31931 31934 28
25548 31931 31935 28
25549 31936 31937 28
25550 31936 31938 28
25551 31936 31939 28
25552 31936 31940 28
25553 31941 31942 28
25554 31941 31943 28
25555 31941 31944 28
25556 31941 31945 28
25557 31946 31947 28
25558 31946 31948 28
25559 31946 31949 28
25560 31946 31950 28
25561 31951 31952 28
25562 31951 31953 28
25563 31951 31954 28
25564 31951 31955 28
25565 31956 31957 28
25566 31956 31958 28
25567 31956 31959 28
25568 31956 31960 28
25569 31961 31962 28
25570 31961 31963 28
25571 31961 31964 28
25572 31961 31965 28
25573 31966 31967 28
25574 31966 31968 28
25575 31966 31969 28
25576 31966 31970 28
25577 31971 31972 28
25578 31971 31973 28
25579 31971 31974 28
25580 31971 31975 28
25581 31976 31977 28
25582 31976 31978 28
25583 31976 31979 28
25584 31976 31980 28
25585 31981 31982 28
25586 31981 31983 28
25587 31981 31984 28
25588 31981 31985 28
25589 31986 31987 28
25590 31986 31988 28
25591 31986 31989 28
25592 31986 31990 28
25593 31991 31992 28
25594 31991 31993 28
25595 31991 31994 28
25596 31991 31995 28
25597 31996 31997 28
25598 31996 31998 28
25599 31996 31999 28
25600 31996 32000 28
25601 32001 32002 28
25602 32001 32003 28
25603 32001 32004 28
25604 32001 32005 28
25605 32006 32007 28
25606 32006 32008 28
25607 32006 32009 28
25608 32006 32010 28
25609 32011 32012 28
25610 32011 32013 28
25611 32011 32014 28
25612 32011 32015 28
25613 32016 32017 28
25614 32016 32018 28
25615 32016 32019 28
25616 32016 32020 28
25617 32021 32022 28
25618 32021 32023 28
25619 32021 32024 28
25620 32021 32025 28
25621 32026 32027 28
25622 32026 32028 28
25623 32026 32029 28
25624 32026 32030 28
25625 32031 32032 28
25626 32031 32033 28
25627 32031 32034 28
25628 32031 32035 28
25629 32036 32037 28
25630 32036 32038 28
25631 32036 32039 28
25632 32036 32040 28
25633 32041 32042 28
25634 32041 32043 28
25635 32041 32044 28
25636 32041 32045 28
25637 32046 32047 28
25638 32046 32048 28
25639 32046 32049 28
25640 32046 32050 28
25641 32051 32052 28
25642 32051 32053 28
25643 32051 32054 28
25644 32051 32055 28
25645 32056 32057 28
25646 32056 32058 28
25647 32056 32059 28
25648 32056 32060 28
25649 32061 32062 28
25650 32061 32063 28
25651 32061 32064 28
25652 32061 32065 28
25653 32066 32067 28
25654 32066 32068 28
25655 32066 32069 28
25656 32066 32070 28
25657 32071 32072 28
25658 32071 32073 28
25659 32071 32074 28
25660 32071 32075 28
25661 32076 32077 28
25662 32076 32078 28
25663 32076 32079 28
25664 32076 32080 28
25665 32081 32082 28
25666 32081 32083 28
25667 32081 32084 28
25668 32081 32085 28
25669 32086 32087 28
25670 32086 32088 28
25671 32086 32089 28
25672 32086 32090 28
25673 32091 32092 28
25674 32091 32093 28
25675 32091 32094 28
25676 32091 32095 28
25677 32096 32097 28
25678 32096 32098 28
25679 32096 32099 28
25680 32096 32100 28
25681 32101 32102 28
25682 32101 32103 28
25683 32101 32104 28
25684 32101 32105 28
25685 32106 32107 28
25686 32106 32108 28
25687 32106 32109 28
25688 32106 32110 28
25689 32111 32112 28
25690 32111 32113 28
25691 32111 32114 28
25692 32111 32115 28
25693 32116 32117 28
25694 32116 32118 28
25695 32116 32119 28
25696 32116 32120 28
25697 32121 32122 28
25698 32121 32123 28
25699 32121 32124 28
25700 32121 32125 28
25701 32126 32127 28
25702 32126 32128 28
25703 32126 32129 28
25704 32126 32130 28
25705 32131 32132 28
25706 32131 32133 28
25707 32131 32134 28
25708 32131 32135 28
25709 32136 32137 28
25710 32136 32138 28
25711 32136 32139 28
25712 32136 32140 28
25713 32141 32142 28
25714 32141 32143 28
25715 32141 32144 28
25716 32141 32145 28
25717 32146 32147 28
25718 32146 32148 28
25719 32146 32149 28
25720 32146 32150 28
25721 32151 32152 28
25722 32151 32153 28
25723 32151 32154 28
25724 32151 32155 28
25725 32156 32157 28
25726 32156 32158 28
25727 32156 32159 28
25728 32156 32160 28
25729 32161 32162 28
25730 32161 32163 28
25731 32161 32164 28
25732 32161 32165 28
25733 32166 32167 28
25734 32166 32168 28
25735 32166 32169 28
25736 32166 32170 28
25737 32171 32172 28
25738 32171 32173 28
25739 32171 32174 28
25740 32171 32175 28
25741 32176 32177 28
25742 32176 32178 28
25743 32176 32179 28
25744 32176 32180 28
25745 32181 32182 28
25746 32181 32183 28
25747 32181 32184 28
25748 32181 32185 28
25749 32186 32187 28
25750 32186 32188 28
25751 32186 32189 28
25752 32186 32190 28
25753 32191 32192 28
25754 32191 32193 28
25755 32191 32194 28
25756 32191 32195 28
25757 32196 32197 28
25758 32196 32198 28
25759 32196 32199 28
25760 32196 32200 28
25761 32201 32202 28
25762 32201 32203 28
25763 32201 32204 28
25764 32201 32205 28
25765 32206 32207 28
25766 32206 32208 28
25767 32206 32209 28
25768 32206 32210 28
25769 32211 32212 28
25770 32211 32213 28
25771 32211 32214 28
25772 32211 32215 28
25773 32216 32217 28
25774 32216 32218 28
25775 32216 32219 28
25776 32216 32220 28
25777 32221 32222 28
25778 32221 32223 28
25779 32221 32224 28
25780 32221 32225 28
25781 32226 32227 28
25782 32226 32228 28
25783 32226 32229 28
25784 32226 32230 28
25785 32231 32232 28
25786 32231 32233 28
25787 32231 32234 28
25788 32231 32235 28
25789 32236 32237 28
25790 32236 32238 28
25791 32236 32239 28
25792 32236 32240 28
25793 32241 32242 28
25794 32241 32243 28
25795 32241 32244 28
25796 32241 32245 28
25797 32246 32247 28
25798 32246 32248 28
25799 32246 32249 28
25800 32246 32250 28
25801 32251 32252 28
25802 32251 32253 28
25803 32251 32254 28
25804 32251 32255 28
25805 32256 32257 28
25806 32256 32258 28
25807 32256 32259 28
25808 32256 32260 28
25809 32261 32262 28
25810 32261 32263 28
25811 32261 32264 28
25812 32261 32265 28
25813 32266 32267 28
25814 32266 32268 28
25815 32266 32269 28
25816 32266 32270 28
25817 32271 32272 28
25818 32271 32273 28
25819 32271 32274 28
25820 32271 32275 28
25821 32276 32277 28
25822 32276 32278 28
25823 32276 32279 28
25824 32276 32280 28
25825 32281 32282 28
25826 32281 32283 28
25827 32281 32284 28
25828 32281 32285 28
25829 32286 32287 28
25830 32286 32288 28
25831 32286 32289 28
25832 32286 32290 28
25833 32291 32292 28
25834 32291 32293 28
25835 32291 32294 28
25836 32291 32295 28
25837 32296 32297 28
25838 32296 32298 28
25839 32296 32299 28
25840 32296 32300 28
25841 32301 32302 28
25842 32301 32303 28
25843 32301 32304 28
25844 32301 32305 28
25845 32306 32307 28
25846 32306 32308 28
25847 32306 32309 28
25848 32306 32310 28
25849 32311 32312 28
25850 32311 32313 28
25851 32311 32314 28
25852 32311 32315 28
25853 32316 32317 28
25854 32316 32318 28
25855 32316 32319 28
25856 32316 32320 28
25857 32321 32322 28
25858 32321 32323 28
25859 32321 32324 28
25860 32321 32325 28
25861 32326 32327 28
25862 32326 32328 28
25863 32326 32329 28
25864 32326 32330 28
25865 32331 32332 28
25866 32331 32333 28
25867 32331 32334 28
25868 32331 32335 28
25869 32336 32337 28
25870 32336 32338 28
25871 32336 32339 28
25872 32336 32340 28
25873 32341 32342 28
25874 32341 32343 28
25875 32341 32344 28
25876 32341 32345 28
25877 32346 32347 28
25878 32346 32348 28
25879 32346 32349 28
25880 32346 32350 28
25881 32351 32352 28
25882 32351 32353 28
25883 32351 32354 28
25884 32351 32355 28
25885 32356 32357 28
25886 32356 32358 28
25887 32356 32359 28
25888 32356 32360 28
25889 32361 32362 28
25890 32361 32363 28
25891 32361 32364 28
25892 32361 32365 28
25893 32366 32367 28
25894 32366 32368 28
25895 32366 32369 28
25896 32366 32370 28
25897 32371 32372 28
25898 32371 32373 28
25899 32371 32374 28
25900 32371 32375 28
25901 32376 32377 28
25902 32376 32378 28
25903 32376 32379 28
25904 32376 32380 28
25905 32381 32382 28
25906 32381 32383 28
25907 32381 32384 28
25908 32381 32385 28
25909 32386 32387 28
25910 32386 32388 28
25911 32386 32389 28
25912 32386 32390 28
25913 32391 32392 28
25914 32391 32393 28
25915 32391 32394 28
25916 32391 32395 28
25917 32396 32397 28
25918 32396 32398 28
25919 32396 32399 28
25920 32396 32400 28
25921 32401 32402 28
25922 32401 32403 28
25923 32401 32404 28
25924 32401 32405 28
25925 32406 32407 28
25926 32406 32408 28
25927 32406 32409 28
25928 32406 32410 28
25929 32411 32412 28
25930 32411 32413 28
25931 32411 32414 28
25932 32411 32415 28
25933 32416 32417 28
25934 32416 32418 28
25935 32416 32419 28
25936 32416 32420 28
25937 32421 32422 28
25938 32421 32423 28
25939 32421 32424 28
25940 32421 32425 28
25941 32426 32427 28
25942 32426 32428 28
25943 32426 32429 28
25944 32426 32430 28
25945 32431 32432 28
25946 32431 32433 28
25947 32431 32434 28
25948 32431 32435 28
25949 32436 32437 28
25950 32436 32438 28
25951 32436 32439 28
25952 32436 32440 28
25953 32441 32442 28
25954 32441 32443 28
25955 32441 32444 28
25956 32441 32445 28
25957 32446 32447 28
25958 32446 32448 28
25959 32446 32449 28
25960 32446 32450 28
25961 32451 32452 28
25962 32451 32453 28
25963 32451 32454 28
25964 32451 32455 28
25965 32456 32457 28
25966 32456 32458 28
25967 32456 32459 28
25968 32456 32460 28
25969 32461 32462 28
25970 32461 32463 28
25971 32461 32464 28
25972 32461 32465 28
25973 32466 32467 28
25974 32466 32468 28
25975 32466 32469 28
25976 32466 32470 28
25977 32471 32472 28
25978 32471 32473 28
25979 32471 32474 28
25980 32471 32475 28
25981 32476 32477 28
25982 32476 32478 28
25983 32476 32479 28
25984 32476 32480 28
25985 32481 32482 28
25986 32481 32483 28
25987 32481 32484 28
25988 32481 32485 28
25989 32486 32487 28
25990 32486 32488 28
25991 32486 32489 28
25992 32486 32490 28
25993 32491 32492 28
25994 32491 32493 28
25995 32491 32494 28
25996 32491 32495 28
25997 32496 32497 28
25998 32496 32498 28
25999 32496 32499 28
26000 32496 32500 28
26001 32501 32502 28
26002 32501 32503 28
26003 32501 32504 28
26004 32501 32505 28
26005 32506 32507 28
26006 32506 32508 28
26007 32506 32509 28
26008 32506 32510 28
26009 32511 32512 28
26010 32511 32513 28
26011 32511 32514 28
26012 32511 32515 28
26013 32516 32517 28
26014 32516 32518 28
26015 32516 32519 28
26016 32516 32520 28
26017 32521 32522 28
26018 32521 32523 28
26019 32521 32524 28
26020 32521 32525 28
26021 32526 32527 28
26022 32526 32528 28
26023 32526 32529 28
26024 32526 32530 28
26025 32531 32532 28
26026 32531 32533 28
26027 32531 32534 28
26028 32531 32535 28
26029 32536 32537 28
26030 32536 32538 28
26031 32536 32539 28
26032 32536 32540 28
26033 32541 32542 28
26034 32541 32543 28
26035 32541 32544 28
26036 32541 32545 28
26037 32546 32547 28
26038 32546 32548 28
26039 32546 32549 28
26040 32546 32550 28
26041 32551 32552 28
26042 32551 32553 28
26043 32551 32554 28
26044 32551 32555 28
26045 32556 32557 28
26046 32556 32558 28
26047 32556 32559 28
26048 32556 32560 28
26049 32561 32562 28
26050 32561 32563 28
26051 32561 32564 28
26052 32561 32565 28
26053 32566 32567 28
26054 32566 32568 28
26055 32566 32569 28
26056 32566 32570 28
26057 32571 32572 28
26058 32571 32573 28
26059 32571 32574 28
26060 32571 32575 28
26061 32576 32577 28
26062 32576 32578 28
26063 32576 32579 28
26064 32576 32580 28
26065 32581 32582 28
26066 32581 32583 28
26067 32581 32584 28
26068 32581 32585 28
26069 32586 32587 28
26070 32586 32588 28
26071 32586 32589 28
26072 32586 32590 28
26073 32591 32592 28
26074 32591 32593 28
26075 32591 32594 28
26076 32591 32595 28
26077 32596 32597 28
26078 32596 32598 28
26079 32596 32599 28
26080 32596 32600 28
26081 32601 32602 28
26082 32601 32603 28
26083 32601 32604 28
26084 32601 32605 28
26085 32606 32607 28
26086 32606 32608 28
26087 32606 32609 28
26088 32606 32610 28
26089 32611 32612 28
26090 32611 32613 28
26091 32611 32614 28
26092 32611 32615 28
26093 32616 32617 28
26094 32616 32618 28
26095 32616 32619 28
26096 32616 32620 28
26097 32621 32622 28
26098 32621 32623 28
26099 32621 32624 28
26100 32621 32625 28
26101 32626 32627 28
26102 32626 32628 28
26103 32626 32629 28
26104 32626 32630 28
26105 32631 32632 28
26106 32631 32633 28
26107 32631 32634 28
26108 32631 32635 28
26109 32636 32637 28
26110 32636 32638 28
26111 32636 32639 28
26112 32636 32640 28
26113 32641 32642 28
26114 32641 32643 28
26115 32641 32644 28
26116 32641 32645 28
26117 32646 32647 28
26118 32646 32648 28
26119 32646 32649 28
26120 32646 32650 28
26121 32651 32652 28
26122 32651 32653 28
26123 32651 32654 28
26124 32651 32655 28
26125 32656 32657 28
26126 32656 32658 28
26127 32656 32659 28
26128 32656 32660 28
26129 32661 32662 28
26130 32661 32663 28
26131 32661 32664 28
26132 32661 32665 28
26133 32666 32667 28
26134 32666 32668 28
26135 32666 32669 28
26136 32666 32670 28
26137 32671 32672 28
26138 32671 32673 28
26139 32671 32674 28
26140 32671 32675 28
26141 32676 32677 28
26142 32676 32678 28
26143 32676 32679 28
26144 32676 32680 28
26145 32681 32682 28
26146 32681 32683 28
26147 32681 32684 28
26148 32681 32685 28
26149 32686 32687 28
26150 32686 32688 28
26151 32686 32689 28
26152 32686 32690 28
26153 32691 32692 28
26154 32691 32693 28
26155 32691 32694 28
26156 32691 32695 28
26157 32696 32697 28
26158 32696 32698 28
26159 32696 32699 28
26160 32696 32700 28
26161 32701 32702 28
26162 32701 32703 28
26163 32701 32704 28
26164 32701 32705 28
26165 32706 32707 28
26166 32706 32708 28
26167 32706 32709 28
26168 32706 32710 28
26169 32711 32712 28
26170 32711 32713 28
26171 32711 32714 28
26172 32711 32715 28
26173 32716 32717 28
26174 32716 32718 28
26175 32716 32719 28
26176 32716 32720 28
26177 32721 32722 28
26178 32721 32723 28
26179 32721 32724 28
26180 32721 32725 28
26181 32726 32727 28
26182 32726 32728 28
26183 32726 32729 28
26184 32726 32730 28
26185 32731 32732 28
26186 32731 32733 28
26187 32731 32734 28
26188 32731 32735 28
26189 32736 32737 28
26190 32736 32738 28
26191 32736 32739 28
26192 32736 32740 28
26193 32741 32742 28
26194 32741 32743 28
26195 32741 32744 28
26196 32741 32745 28
26197 32746 32747 28
26198 32746 32748 28
26199 32746 32749 28
26200 32746 32750 28
26201 32751 32752 28
26202 32751 32753 28
26203 32751 32754 28
26204 32751 32755 28
26205 32756 32757 28
26206 32756 32758 28
26207 32756 32759 28
26208 32756 32760 28
26209 32761 32762 28
26210 32761 32763 28
26211 32761 32764 28
26212 32761 32765 28
26213 32766 32767 28
26214 32766 32768 28
26215 32766 32769 28
26216 32766 32770 28
26217 32771 32772 28
26218 32771 32773 28
26219 32771 32774 28
26220 32771 32775 28
26221 32776 32777 28
26222 32776 32778 28
26223 32776 32779 28
26224 32776 32780 28
26225 32781 32782 28
26226 32781 32783 28
26227 32781 32784 28
26228 32781 32785 28
26229 32786 32787 28
26230 32786 32788 28
26231 32786 32789 28
26232 32786 32790 28
26233 32791 32792 28
26234 32791 32793 28
26235 32791 32794 28
26236 32791 32795 28
26237 32796 32797 28
26238 32796 32798 28
26239 32796 32799 28
26240 32796 32800 28
26241 32801 32802 28
26242 32801 32803 28
26243 32801 32804 28
26244 32801 32805 28
26245 32806 32807 28
26246 32806 32808 28
26247 32806 32809 28
26248 32806 32810 28
26249 32811 32812 28
26250 32811 32813 28
26251 32811 32814 28
26252 32811 32815 28
26253 32816 32817 28
26254 32816 32818 28
26255 32816 32819 28
26256 32816 32820 28
26257 32821 32822 28
26258 32821 32823 28
26259 32821 32824 28
26260 32821 32825 28
26261 32826 32827 28
26262 32826 32828 28
26263 32826 32829 28
26264 32826 32830 28
26265 32831 32832 28
26266 32831 32833 28
26267 32831 32834 28
26268 32831 32835 28
26269 32836 32837 28
26270 32836 32838 28
26271 32836 32839 28
26272 32836 32840 28
26273 32841 32842 28
26274 32841 32843 28
26275 32841 32844 28
26276 32841 32845 28
26277 32846 32847 28
26278 32846 32848 28
26279 32846 32849 28
26280 32846 32850 28
26281 32851 32852 28
26282 32851 32853 28
26283 32851 32854 28
26284 32851 32855 28
26285 32856 32857 28
26286 32856 32858 28
26287 32856 32859 28
26288 32856 32860 28
26289 32861 32862 28
26290 32861 32863 28
26291 32861 32864 28
26292 32861 32865 28
26293 32866 32867 28
26294 32866 32868 28
26295 32866 32869 28
26296 32866 32870 28
26297 32871 32872 28
26298 32871 32873 28
26299 32871 32874 28
26300 32871 32875 28
26301 32876 32877 28
26302 32876 32878 28
26303 32876 32879 28
26304 32876 32880 28
26305 32881 32882 28
26306 32881 32883 28
26307 32881 32884 28
26308 32881 32885 28
26309 32886 32887 28
26310 32886 32888 28
26311 32886 32889 28
26312 32886 32890 28
26313 32891 32892 28
26314 32891 32893 28
26315 32891 32894 28
26316 32891 32895 28
26317 32896 32897 28
26318 32896 32898 28
26319 32896 32899 28
26320 32896 32900 28
26321 32901 32902 28
26322 32901 32903 28
26323 32901 32904 28
26324 32901 32905 28
26325 32906 32907 28
26326 32906 32908 28
26327 32906 32909 28
26328 32906 32910 28
26329 32911 32912 28
26330 32911 32913 28
26331 32911 32914 28
26332 32911 32915 28
26333 32916 32917 28
26334 32916 32918 28
26335 32916 32919 28
26336 32916 32920 28
26337 32921 32922 28
26338 32921 32923 28
26339 32921 32924 28
26340 32921 32925 28
26341 32926 32927 28
26342 32926 32928 28
26343 32926 32929 28
26344 32926 32930 28
26345 32931 32932 28
26346 32931 32933 28
26347 32931 32934 28
26348 32931 32935 28
26349 32936 32937 28
26350 32936 32938 28
26351 32936 32939 28
26352 32936 32940 28
26353 32941 32942 28
26354 32941 32943 28
26355 32941 32944 28
26356 32941 32945 28
26357 32946 32947 28
26358 32946 32948 28
26359 32946 32949 28
26360 32946 32950 28
26361 32951 32952 28
26362 32951 32953 28
26363 32951 32954 28
26364 32951 32955 28
26365 32956 32957 28
26366 32956 32958 28
26367 32956 32959 28
26368 32956 32960 28
26369 32961 32962 28
26370 32961 32963 28
26371 32961 32964 28
26372 32961 32965 28
26373 32966 32967 28
26374 32966 32968 28
26375 32966 32969 28
26376 32966 32970 28
26377 32971 32972 28
26378 32971 32973 28
26379 32971 32974 28
26380 32971 32975 28
26381 32976 32977 28
26382 32976 32978 28
26383 32976 32979 28
26384 32976 32980 28
26385 32981 32982 28
26386 32981 32983 28
26387 32981 32984 28
26388 32981 32985 28
26389 32986 32987 28
26390 32986 32988 28
26391 32986 32989 28
26392 32986 32990 28
26393 32991 32992 28
26394 32991 32993 28
26395 32991 32994 28
26396 32991 32995 28
26397 32996 32997 28
26398 32996 32998 28
26399 32996 32999 28
26400 32996 33000 28
26401 33001 33002 28
26402 33001 33003 28
26403 33001 33004 28
26404 33001 33005 28
26405 33006 33007 28
26406 33006 33008 28
26407 33006 33009 28
26408 33006 33010 28
26409 33011 33012 28
26410 33011 33013 28
26411 33011 33014 28
26412 33011 33015 28
26413 33016 33017 28
26414 33016 33018 28
26415 33016 33019 28
26416 33016 33020 28
26417 33021 33022 28
26418 33021 33023 28
26419 33021 33024 28
26420 33021 33025 28
26421 33026 33027 28
26422 33026 33028 28
26423 33026 33029 28
26424 33026 33030 28
26425 33031 33032 28
26426 33031 33033 28
26427 33031 33034 28
26428 33031 33035 28
26429 33036 33037 28
26430 33036 33038 28
26431 33036 33039 28
26432 33036 33040 28
26433 33041 33042 28
26434 33041 33043 28
26435 33041 33044 28
26436 33041 33045 28
26437 33046 33047 28
26438 33046 33048 28
26439 33046 33049 28
26440 33046 33050 28
26441 33051 33052 28
26442 33051 33053 28
26443 33051 33054 28
26444 33051 33055 28
26445 33056 33057 28
26446 33056 33058 28
26447 33056 33059 28
26448 33056 33060 28
26449 33061 33062 28
26450 33061 33063 28
26451 33061 33064 28
26452 33061 33065 28
26453 33066 33067 28
26454 33066 33068 28
26455 33066 33069 28
26456 33066 33070 28
26457 33071 33072 28
26458 33071 33073 28
26459 33071 33074 28
26460 33071 33075 28
26461 33076 33077 28
26462 33076 33078 28
26463 33076 33079 28
26464 33076 33080 28
26465 33081 33082 28
26466 33081 33083 28
26467 33081 33084 28
26468 33081 33085 28
26469 33086 33087 28
26470 33086 33088 28
26471 33086 33089 28
26472 33086 33090 28
26473 33091 33092 28
26474 33091 33093 28
26475 33091 33094 28
26476 33091 33095 28
26477 33096 33097 28
26478 33096 33098 28
26479 33096 33099 28
26480 33096 33100 28
26481 33101 33102 28
26482 33101 33103 28
26483 33101 33104 28
26484 33101 33105 28
26485 33106 33107 28
26486 33106 33108 28
26487 33106 33109 28
26488 33106 33110 28
26489 33111 33112 28
26490 33111 33113 28
26491 33111 33114 28
26492 33111 33115 28
26493 33116 33117 28
26494 33116 33118 28
26495 33116 33119 28
26496 33116 33120 28
26497 33121 33122 28
26498 33121 33123 28
26499 33121 33124 28
26500 33121 33125 28
26501 33126 33127 28
26502 33126 33128 28
26503 33126 33129 28
26504 33126 33130 28
26505 33131 33132 28
26506 33131 33133 28
26507 33131 33134 28
26508 33131 33135 28
26509 33136 33137 28
26510 33136 33138 28
26511 33136 33139 28
26512 33136 33140 28
26513 33141 33142 28
26514 33141 33143 28
26515 33141 33144 28
26516 33141 33145 28
26517 33146 33147 28
26518 33146 33148 28
26519 33146 33149 28
26520 33146 33150 28
26521 33151 33152 28
26522 33151 33153 28
26523 33151 33154 28
26524 33151 33155 28
26525 33156 33157 28
26526 33156 33158 28
26527 33156 33159 28
26528 33156 33160 28
26529 33161 33162 28
26530 33161 33163 28
26531 33161 33164 28
26532 33161 33165 28
26533 33166 33167 28
26534 33166 33168 28
26535 33166 33169 28
26536 33166 33170 28
26537 33171 33172 28
26538 33171 33173 28
26539 33171 33174 28
26540 33171 33175 28
26541 33176 33177 28
26542 33176 33178 28
26543 33176 33179 28
26544 33176 33180 28
26545 33181 33182 28
26546 33181 33183 28
26547 33181 33184 28
26548 33181 33185 28
26549 33186 33187 28
26550 33186 33188 28
26551 33186 33189 28
26552 33186 33190 28
26553 33191 33192 28
26554 33191 33193 28
26555 33191 33194 28
26556 33191 33195 28
26557 33196 33197 28
26558 33196 33198 28
26559 33196 33199 28
26560 33196 33200 28
26561 33201 33202 28
26562 33201 33203 28
26563 33201 33204 28
26564 33201 33205 28
26565 33206 33207 28
26566 33206 33208 28
26567 33206 33209 28
26568 33206 33210 28
26569 33211 33212 28
26570 33211 33213 28
26571 33211 33214 28
26572 33211 33215 28
26573 33216 33217 28
26574 33216 33218 28
26575 33216 33219 28
26576 33216 33220 28
26577 33221 33222 28
26578 33221 33223 28
26579 33221 33224 28
26580 33221 33225 28
26581 33226 33227 28
26582 33226 33228 28
26583 33226 33229 28
26584 33226 33230 28
26585 33231 33232 28
26586 33231 33233 28
26587 33231 33234 28
26588 33231 33235 28
26589 33236 33237 28
26590 33236 33238 28
26591 33236 33239 28
26592 33236 33240 28
26593 33241 33242 28
26594 33241 33243 28
26595 33241 33244 28
26596 33241 33245 28
26597 33246 33247 28
26598 33246 33248 28
26599 33246 33249 28
26600 33246 33250 28
26601 33251 33252 28
26602 33251 33253 28
26603 33251 33254 28
26604 33251 33255 28
26605 33256 33257 28
26606 33256 33258 28
26607 33256 33259 28
26608 33256 33260 28
26609 33261 33262 28
26610 33261 33263 28
26611 33261 33264 28
26612 33261 33265 28
26613 33266 33267 28
26614 33266 33268 28
26615 33266 33269 28
26616 33266 33270 28
26617 33271 33272 28
26618 33271 33273 28
26619 33271 33274 28
26620 33271 33275 28
26621 33276 33277 28
26622 33276 33278 28
26623 33276 33279 28
26624 33276 33280 28
26625 33281 33282 28
26626 33281 33283 28
26627 33281 33284 28
26628 33281 33285 28
26629 33286 33287 28
26630 33286 33288 28
26631 33286 33289 28
26632 33286 33290 28
26633 33291 33292 28
26634 33291 33293 28
26635 33291 33294 28
26636 33291 33295 28
26637 33296 33297 28
26638 33296 33298 28
26639 33296 33299 28
26640 33296 33300 28
26641 33301 33302 28
26642 33301 33303 28
26643 33301 33304 28
26644 33301 33305 28
26645 33306 33307 28
26646 33306 33308 28
26647 33306 33309 28
26648 33306 33310 28
26649 33311 33312 28
26650 33311 33313 28
26651 33311 33314 28
26652 33311 33315 28
26653 33316 33317 28
26654 33316 33318 28
26655 33316 33319 28
26656 33316 33320 28
26657 33321 33322 28
26658 33321 33323 28
26659 33321 33324 28
26660 33321 33325 28
26661 33326 33327 28
26662 33326 33328 28
26663 33326 33329 28
26664 33326 33330 28
26665 33331 33332 28
26666 33331 33333 28
26667 33331 33334 28
26668 33331 33335 28
26669 33336 33337 28
26670 33336 33338 28
26671 33336 33339 28
26672 33336 33340 28
26673 33341 33342 28
26674 33341 33343 28
26675 33341 33344 28
26676 33341 33345 28
26677 33346 33347 28
26678 33346 33348 28
26679 33346 33349 28
26680 33346 33350 28
26681 33351 33352 28
26682 33351 33353 28
26683 33351 33354 28
26684 33351 33355 28
26685 33356 33357 28
26686 33356 33358 28
26687 33356 33359 28
26688 33356 33360 28
26689 33361 33362 28
26690 33361 33363 28
26691 33361 33364 28
26692 33361 33365 28
26693 33366 33367 28
26694 33366 33368 28
26695 33366 33369 28
26696 33366 33370 28
26697 33371 33372 28
26698 33371 33373 28
26699 33371 33374 28
26700 33371 33375 28
26701 33376 33377 28
26702 33376 33378 28
26703 33376 33379 28
26704 33376 33380 28
26705 33381 33382 28
26706 33381 33383 28
26707 33381 33384 28
26708 33381 33385 28
26709 33386 33387 28
26710 33386 33388 28
26711 33386 33389 28
26712 33386 33390 28
26713 33391 33392 28
26714 33391 33393 28
26715 33391 33394 28
26716 33391 33395 28
26717 33396 33397 28
26718 33396 33398 28
26719 33396 33399 28
26720 33396 33400 28
26721 33401 33402 28
26722 33401 33403 28
26723 33401 33404 28
26724 33401 33405 28
26725 33406 33407 28
26726 33406 33408 28
26727 33406 33409 28
26728 33406 33410 28
26729 33411 33412 28
26730 33411 33413 28
26731 33411 33414 28
26732 33411 33415 28
26733 33416 33417 28
26734 33416 33418 28
26735 33416 33419 28
26736 33416 33420 28
26737 33421 33422 28
26738 33421 33423 28
26739 33421 33424 28
26740 33421 33425 28
26741 33426 33427 28
26742 33426 33428 28
26743 33426 33429 28
26744 33426 33430 28
26745 33431 33432 28
26746 33431 33433 28
26747 33431 33434 28
26748 33431 33435 28
26749 33436 33437 28
26750 33436 33438 28
26751 33436 33439 28
26752 33436 33440 28
26753 33441 33442 28
26754 33441 33443 28
26755 33441 33444 28
26756 33441 33445 28
26757 33446 33447 28
26758 33446 33448 28
26759 33446 33449 28
26760 33446 33450 28
26761 33451 33452 28
26762 33451 33453 28
26763 33451 33454 28
26764 33451 33455 28
26765 33456 33457 28
26766 33456 33458 28
26767 33456 33459 28
26768 33456 33460 28
26769 33461 33462 28
26770 33461 33463 28
26771 33461 33464 28
26772 33461 33465 28
26773 33466 33467 28
26774 33466 33468 28
26775 33466 33469 28
26776 33466 33470 28
26777 33471 33472 28
26778 33471 33473 28
26779 33471 33474 28
26780 33471 33475 28
26781 33476 33477 28
26782 33476 33478 28
26783 33476 33479 28
26784 33476 33480 28
26785 33481 33482 28
26786 33481 33483 28
26787 33481 33484 28
26788 33481 33485 28
26789 33486 33487 28
26790 33486 33488 28
26791 33486 33489 28
26792 33486 33490 28
26793 33491 33492 28
26794 33491 33493 28
26795 33491 33494 28
26796 33491 33495 28
26797 33496 33497 28
26798 33496 33498 28
26799 33496 33499 28
26800 33496 33500 28
26801 33501 33502 28
26802 33501 33503 28
26803 33501 33504 28
26804 33501 33505 28
26805 33506 33507 28
26806 33506 33508 28
26807 33506 33509 28
26808 33506 33510 28
26809 33511 33512 28
26810 33511 33513 28
26811 33511 33514 28
26812 33511 33515 28
26813 33516 33517 28
26814 33516 33518 28
26815 33516 33519 28
26816 33516 33520 28
26817 33521 33522 28
26818 33521 33523 28
26819 33521 33524 28
26820 33521 33525 28
26821 33526 33527 28
26822 33526 33528 28
26823 33526 33529 28
26824 33526 33530 28
26825 33531 33532 28
26826 33531 33533 28
26827 33531 33534 28
26828 33531 33535 28
26829 33536 33537 28
26830 33536 33538 28
26831 33536 33539 28
26832 33536 33540 28
26833 33541 33542 28
26834 33541 33543 28
26835 33541 33544 28
26836 33541 33545 28
26837 33546 33547 28
26838 33546 33548 28
26839 33546 33549 28
26840 33546 33550 28
26841 33551 33552 28
26842 33551 33553 28
26843 33551 33554 28
26844 33551 33555 28
26845 33556 33557 28
26846 33556 33558 28
26847 33556 33559 28
26848 33556 33560 28
26849 33561 33562 28
26850 33561 33563 28
26851 33561 33564 28
26852 33561 33565 28
26853 33566 33567 28
26854 33566 33568 28
26855 33566 33569 28
26856 33566 33570 28
26857 33571 33572 28
26858 33571 33573 28
26859 33571 33574 28
26860 33571 33575 28
26861 33576 33577 28
26862 33576 33578 28
26863 33576 33579 28
26864 33576 33580 28
26865 33581 33582 28
26866 33581 33583 28
26867 33581 33584 28
26868 33581 33585 28
26869 33586 33587 28
26870 33586 33588 28
26871 33586 33589 28
26872 33586 33590 28
26873 33591 33592 28
26874 33591 33593 28
26875 33591 33594 28
26876 33591 33595 28
26877 33596 33597 28
26878 33596 33598 28
26879 33596 33599 28
26880 33596 33600 28
26881 33601 33602 28
26882 33601 33603 28
26883 33601 33604 28
26884 33601 33605 28
26885 33606 33607 28
26886 33606 33608 28
26887 33606 33609 28
26888 33606 33610 28
26889 33611 33612 28
26890 33611 33613 28
26891 33611 33614 28
26892 33611 33615 28
26893 33616 33617 28
26894 33616 33618 28
26895 33616 33619 28
26896 33616 33620 28
26897 33621 33622 28
26898 33621 33623 28
26899 33621 33624 28
26900 33621 33625 28
26901 33626 33627 28
26902 33626 33628 28
26903 33626 33629 28
26904 33626 33630 28
26905 33631 33632 28
26906 33631 33633 28
26907 33631 33634 28
26908 33631 33635 28
26909 33636 33637 28
26910 33636 33638 28
26911 33636 33639 28
26912 33636 33640 28
26913 33641 33642 28
26914 33641 33643 28
26915 33641 33644 28
26916 33641 33645 28
26917 33646 33647 28
26918 33646 33648 28
26919 33646 33649 28
26920 33646 33650 28
26921 33651 33652 28
26922 33651 33653 28
26923 33651 33654 28
26924 33651 33655 28
26925 33656 33657 28
26926 33656 33658 28
26927 33656 33659 28
26928 33656 33660 28
26929 33661 33662 28
26930 33661 33663 28
26931 33661 33664 28
26932 33661 33665 28
26933 33666 33667 28
26934 33666 33668 28
26935 33666 33669 28
26936 33666 33670 28
26937 33671 33672 28
26938 33671 33673 28
26939 33671 33674 28
26940 33671 33675 28
26941 33676 33677 28
26942 33676 33678 28
26943 33676 33679 28
26944 33676 33680 28
26945 33681 33682 28
26946 33681 33683 28
26947 33681 33684 28
26948 33681 33685 28
26949 33686 33687 28
26950 33686 33688 28
26951 33686 33689 28
26952 33686 33690 28
26953 33691 33692 28
26954 33691 33693 28
26955 33691 33694 28
26956 33691 33695 28
26957 33696 33697 28
26958 33696 33698 28
26959 33696 33699 28
26960 33696 33700 28
26961 33701 33702 28
26962 33701 33703 28
26963 33701 33704 28
26964 33701 33705 28
26965 33706 33707 28
26966 33706 33708 28
26967 33706 33709 28
26968 33706 33710 28
26969 33711 33712 28
26970 33711 33713 28
26971 33711 33714 28
26972 33711 33715 28
26973 33716 33717 28
26974 33716 33718 28
26975 33716 33719 28
26976 33716 33720 28
26977 33721 33722 28
26978 33721 33723 28
26979 33721 33724 28
26980 33721 33725 28
26981 33726 33727 28
26982 33726 33728 28
26983 33726 33729 28
26984 33726 33730 28
26985 33731 33732 28
26986 33731 33733 28
26987 33731 33734 28
26988 33731 33735 28
26989 33736 33737 28
26990 33736 33738 28
26991 33736 33739 28
26992 33736 33740 28
26993 33741 33742 28
26994 33741 33743 28
26995 33741 33744 28
26996 33741 33745 28
26997 33746 33747 28
26998 33746 33748 28
26999 33746 33749 28
27000 33746 33750 28
27001 33751 33752 28
27002 33751 33753 28
27003 33751 33754 28
27004 33751 33755 28
27005 33756 33757 28
27006 33756 33758 28
27007 33756 33759 28
27008 33756 33760 28
27009 33761 33762 28
27010 33761 33763 28
27011 33761 33764 28
27012 33761 33765 28
27013 33766 33767 28
27014 33766 33768 28
27015 33766 33769 28
27016 33766 33770 28
27017 33771 33772 28
27018 33771 33773 28
27019 33771 33774 28
27020 33771 33775 28
27021 33776 33777 28
27022 33776 33778 28
27023 33776 33779 28
27024 33776 33780 28
27025 33781 33782 28
27026 33781 33783 28
27027 33781 33784 28
27028 33781 33785 28
27029 33786 33787 28
27030 33786 33788 28
27031 33786 33789 28
27032 33786 33790 28
27033 33791 33792 28
27034 33791 33793 28
27035 33791 33794 28
27036 33791 33795 28
27037 33796 33797 28
27038 33796 33798 28
27039 33796 33799 28
27040 33796 33800 28
27041 33801 33802 28
27042 33801 33803 28
27043 33801 33804 28
27044 33801 33805 28
27045 33806 33807 28
27046 33806 33808 28
27047 33806 33809 28
27048 33806 33810 28
27049 33811 33812 28
27050 33811 33813 28
27051 33811 33814 28
27052 33811 33815 28
27053 33816 33817 28
27054 33816 33818 28
27055 33816 33819 28
27056 33816 33820 28
27057 33821 33822 28
27058 33821 33823 28
27059 33821 33824 28
27060 33821 33825 28
27061 33826 33827 28
27062 33826 33828 28
27063 33826 33829 28
27064 33826 33830 28
27065 33831 33832 28
27066 33831 33833 28
27067 33831 33834 28
27068 33831 33835 28
27069 33836 33837 28
27070 33836 33838 28
27071 33836 33839 28
27072 33836 33840 28
27073 33841 33842 28
27074 33841 33843 28
27075 33841 33844 28
27076 33841 33845 28
27077 33846 33847 28
27078 33846 33848 28
27079 33846 33849 28
27080 33846 33850 28
27081 33851 33852 28
27082 33851 33853 28
27083 33851 33854 28
27084 33851 33855 28
27085 33856 33857 28
27086 33856 33858 28
27087 33856 33859 28
27088 33856 33860 28
27089 33861 33862 28
27090 33861 33863 28
27091 33861 33864 28
27092 33861 33865 28
27093 33866 33867 28
27094 33866 33868 28
27095 33866 33869 28
27096 33866 33870 28
27097 33871 33872 28
27098 33871 33873 28
27099 33871 33874 28
27100 33871 33875 28
27101 33876 33877 28
27102 33876 33878 28
27103 33876 33879 28
27104 33876 33880 28
27105 33881 33882 28
27106 33881 33883 28
27107 33881 33884 28
27108 33881 33885 28
27109 33886 33887 28
27110 33886 33888 28
27111 33886 33889 28
27112 33886 33890 28
27113 33891 33892 28
27114 33891 33893 28
27115 33891 33894 28
27116 33891 33895 28
27117 33896 33897 28
27118 33896 33898 28
27119 33896 33899 28
27120 33896 33900 28
27121 33901 33902 28
27122 33901 33903 28
27123 33901 33904 28
27124 33901 33905 28
27125 33906 33907 28
27126 33906 33908 28
27127 33906 33909 28
27128 33906 33910 28
27129 33911 33912 28
27130 33911 33913 28
27131 33911 33914 28
27132 33911 33915 28
27133 33916 33917 28
27134 33916 33918 28
27135 33916 33919 28
27136 33916 33920 28
27137 33921 33922 28
27138 33921 33923 28
27139 33921 33924 28
27140 33921 33925 28
27141 33926 33927 28
27142 33926 33928 28
27143 33926 33929 28
27144 33926 33930 28
27145 33931 33932 28
27146 33931 33933 28
27147 33931 33934 28
27148 33931 33935 28
27149 33936 33937 28
27150 33936 33938 28
27151 33936 33939 28
27152 33936 33940 28
27153 33941 33942 28
27154 33941 33943 28
27155 33941 33944 28
27156 33941 33945 28
27157 33946 33947 28
27158 33946 33948 28
27159 33946 33949 28
27160 33946 33950 28
27161 33951 33952 28
27162 33951 33953 28
27163 33951 33954 28
27164 33951 33955 28
27165 33956 33957 28
27166 33956 33958 28
27167 33956 33959 28
27168 33956 33960 28
27169 33961 33962 28
27170 33961 33963 28
27171 33961 33964 28
27172 33961 33965 28
27173 33966 33967 28
27174 33966 33968 28
27175 33966 33969 28
27176 33966 33970 28
27177 33971 33972 28
27178 33971 33973 28
27179 33971 33974 28
27180 33971 33975 28
27181 33976 33977 28
27182 33976 33978 28
27183 33976 33979 28
27184 33976 33980 28
27185 33981 33982 28
27186 33981 33983 28
27187 33981 33984 28
27188 33981 33985 28
27189 33986 33987 28
27190 33986 33988 28
27191 33986 33989 28
27192 33986 33990 28
27193 33991 33992 28
27194 33991 33993 28
27195 33991 33994 28
27196 33991 33995 28
27197 33996 33997 28
27198 33996 33998 28
27199 33996 33999 28
27200 33996 34000 28
27201 34001 34002 28
27202 34001 34003 28
27203 34001 34004 28
27204 34001 34005 28
27205 34006 34007 28
27206 34006 34008 28
27207 34006 34009 28
27208 34006 34010 28
27209 34011 34012 28
27210 34011 34013 28
27211 34011 34014 28
27212 34011 34015 28
27213 34016 34017 28
27214 34016 34018 28
27215 34016 34019 28
27216 34016 34020 28
27217 34021 34022 28
27218 34021 34023 28
27219 34021 34024 28
27220 34021 34025 28
27221 34026 34027 28
27222 34026 34028 28
27223 34026 34029 28
27224 34026 34030 28
27225 34031 34032 28
27226 34031 34033 28
27227 34031 34034 28
27228 34031 34035 28
27229 34036 34037 28
27230 34036 34038 28
27231 34036 34039 28
27232 34036 34040 28
27233 34041 34042 28
27234 34041 34043 28
27235 34041 34044 28
27236 34041 34045 28
27237 34046 34047 28
27238 34046 34048 28
27239 34046 34049 28
27240 34046 34050 28
27241 34051 34052 28
27242 34051 34053 28
27243 34051 34054 28
27244 34051 34055 28
27245 34056 34057 28
27246 34056 34058 28
27247 34056 34059 28
27248 34056 34060 28
27249 34061 34062 28
27250 34061 34063 28
27251 34061 34064 28
27252 34061 34065 28
27253 34066 34067 28
27254 34066 34068 28
27255 34066 34069 28
27256 34066 34070 28
27257 34071 34072 28
27258 34071 34073 28
27259 34071 34074 28
27260 34071 34075 28
27261 34076 34077 28
27262 34076 34078 28
27263 34076 34079 28
27264 34076 34080 28
27265 34081 34082 28
27266 34081 34083 28
27267 34081 34084 28
27268 34081 34085 28
27269 34086 34087 28
27270 34086 34088 28
27271 34086 34089 28
27272 34086 34090 28
27273 34091 34092 28
27274 34091 34093 28
27275 34091 34094 28
27276 34091 34095 28
27277 34096 34097 28
27278 34096 34098 28
27279 34096 34099 28
27280 34096 34100 28
27281 34101 34102 28
27282 34101 34103 28
27283 34101 34104 28
27284 34101 34105 28
27285 34106 34107 28
27286 34106 34108 28
27287 34106 34109 28
27288 34106 34110 28
27289 34111 34112 28
27290 34111 34113 28
27291 34111 34114 28
27292 34111 34115 28
27293 34116 34117 28
27294 34116 34118 28
27295 34116 34119 28
27296 34116 34120 28
27297 34121 34122 28
27298 34121 34123 28
27299 34121 34124 28
27300 34121 34125 28
27301 34126 34127 28
27302 34126 34128 28
27303 34126 34129 28
27304 34126 34130 28
27305 34131 34132 28
27306 34131 34133 28
27307 34131 34134 28
27308 34131 34135 28
27309 34136 34137 28
27310 34136 34138 28
27311 34136 34139 28
27312 34136 34140 28
27313 34141 34142 28
27314 34141 34143 28
27315 34141 34144 28
27316 34141 34145 28
27317 34146 34147 28
27318 34146 34148 28
27319 34146 34149 28
27320 34146 34150 28
27321 34151 34152 28
27322 34151 34153 28
27323 34151 34154 28
27324 34151 34155 28
27325 34156 34157 28
27326 34156 34158 28
27327 34156 34159 28
27328 34156 34160 28
27329 34161 34162 28
27330 34161 34163 28
27331 34161 34164 28
27332 34161 34165 28
27333 34166 34167 28
27334 34166 34168 28
27335 34166 34169 28
27336 34166 34170 28
27337 34171 34172 28
27338 34171 34173 28
27339 34171 34174 28
27340 34171 34175 28
27341 34176 34177 28
27342 34176 34178 28
27343 34176 34179 28
27344 34176 34180 28
27345 34181 34182 28
27346 34181 34183 28
27347 34181 34184 28
27348 34181 34185 28
27349 34186 34187 28
27350 34186 34188 28
27351 34186 34189 28
27352 34186 34190 28
27353 34191 34192 28
27354 34191 34193 28
27355 34191 34194 28
27356 34191 34195 28
27357 34196 34197 28
27358 34196 34198 28
27359 34196 34199 28
27360 34196 34200 28
27361 34201 34202 28
27362 34201 34203 28
27363 34201 34204 28
27364 34201 34205 28
27365 34206 34207 28
27366 34206 34208 28
27367 34206 34209 28
27368 34206 34210 28
27369 34211 34212 28
27370 34211 34213 28
27371 34211 34214 28
27372 34211 34215 28
27373 34216 34217 28
27374 34216 34218 28
27375 34216 34219 28
27376 34216 34220 28
27377 34221 34222 28
27378 34221 34223 28
27379 34221 34224 28
27380 34221 34225 28
27381 34226 34227 28
27382 34226 34228 28
27383 34226 34229 28
27384 34226 34230 28
27385 34231 34232 28
27386 34231 34233 28
27387 34231 34234 28
27388 34231 34235 28
27389 34236 34237 28
27390 34236 34238 28
27391 34236 34239 28
27392 34236 34240 28
27393 34241 34242 28
27394 34241 34243 28
27395 34241 34244 28
27396 34241 34245 28
27397 34246 34247 28
27398 34246 34248 28
27399 34246 34249 28
27400 34246 34250 28
27401 34251 34252 28
27402 34251 34253 28
27403 34251 34254 28
27404 34251 34255 28
27405 34256 34257 28
27406 34256 34258 28
27407 34256 34259 28
27408 34256 34260 28
27409 34261 34262 28
27410 34261 34263 28
27411 34261 34264 28
27412 34261 34265 28
27413 34266 34267 28
27414 34266 34268 28
27415 34266 34269 28
27416 34266 34270 28
27417 34271 34272 28
27418 34271 34273 28
27419 34271 34274 28
27420 34271 34275 28
27421 34276 34277 28
27422 34276 34278 28
27423 34276 34279 28
27424 34276 34280 28
27425 34281 34282 28
27426 34281 34283 28
27427 34281 34284 28
27428 34281 34285 28
27429 34286 34287 28
27430 34286 34288 28
27431 34286 34289 28
27432 34286 34290 28
27433 34291 34292 28
27434 34291 34293 28
27435 34291 34294 28
27436 34291 34295 28
27437 34296 34297 28
27438 34296 34298 28
27439 34296 34299 28
27440 34296 34300 28
27441 34301 34302 28
27442 34301 34303 28
27443 34301 34304 28
27444 34301 34305 28
27445 34306 34307 28
27446 34306 34308 28
27447 34306 34309 28
27448 34306 34310 28
27449 34311 34312 28
27450 34311 34313 28
27451 34311 34314 28
27452 34311 34315 28
27453 34316 34317 28
27454 34316 34318 28
27455 34316 34319 28
27456 34316 34320 28
27457 34321 34322 28
27458 34321 34323 28
27459 34321 34324 28
27460 34321 34325 28
27461 34326 34327 28
27462 34326 34328 28
27463 34326 34329 28
27464 34326 34330 28
27465 34331 34332 28
27466 34331 34333 28
27467 34331 34334 28
27468 34331 34335 28
27469 34336 34337 28
27470 34336 34338 28
27471 34336 34339 28
27472 34336 34340 28
27473 34341 34342 28
27474 34341 34343 28
27475 34341 34344 28
27476 34341 34345 28
27477 34346 34347 28
27478 34346 34348 28
27479 34346 34349 28
27480 34346 34350 28
27481 34351 34352 28
27482 34351 34353 28
27483 34351 34354 28
27484 34351 34355 28
27485 34356 34357 28
27486 34356 34358 28
27487 34356 34359 28
27488 34356 34360 28
27489 34361 34362 28
27490 34361 34363 28
27491 34361 34364 28
27492 34361 34365 28
27493 34366 34367 28
27494 34366 34368 28
27495 34366 34369 28
27496 34366 34370 28
27497 34371 34372 28
27498 34371 34373 28
27499 34371 34374 28
27500 34371 34375 28
27501 34376 34377 28
27502 34376 34378 28
27503 34376 34379 28
27504 34376 34380 28
27505 34381 34382 28
27506 34381 34383 28
27507 34381 34384 28
27508 34381 34385 28
27509 34386 34387 28
27510 34386 34388 28
27511 34386 34389 28
27512 34386 34390 28
27513 34391 34392 28
27514 34391 34393 28
27515 34391 34394 28
27516 34391 34395 28
27517 34396 34397 28
27518 34396 34398 28
27519 34396 34399 28
27520 34396 34400 28
27521 34401 34402 28
27522 34401 34403 28
27523 34401 34404 28
27524 34401 34405 28
27525 34406 34407 28
27526 34406 34408 28
27527 34406 34409 28
27528 34406 34410 28
27529 34411 34412 28
27530 34411 34413 28
27531 34411 34414 28
27532 34411 34415 28
27533 34416 34417 28
27534 34416 34418 28
27535 34416 34419 28
27536 34416 34420 28
27537 34421 34422 28
27538 34421 34423 28
27539 34421 34424 28
27540 34421 34425 28
27541 34426 34427 28
27542 34426 34428 28
27543 34426 34429 28
27544 34426 34430 28
27545 34431 34432 28
27546 34431 34433 28
27547 34431 34434 28
27548 34431 34435 28
27549 34436 34437 28
27550 34436 34438 28
27551 34436 34439 28
27552 34436 34440 28
27553 34441 34442 28
27554 34441 34443 28
27555 34441 34444 28
27556 34441 34445 28
27557 34446 34447 28
27558 34446 34448 28
27559 34446 34449 28
27560 34446 34450 28
27561 34451 34452 28
27562 34451 34453 28
27563 34451 34454 28
27564 34451 34455 28
27565 34456 34457 28
27566 34456 34458 28
27567 34456 34459 28
27568 34456 34460 28
27569 34461 34462 28
27570 34461 34463 28
27571 34461 34464 28
27572 34461 34465 28
27573 34466 34467 28
27574 34466 34468 28
27575 34466 34469 28
27576 34466 34470 28
27577 34471 34472 28
27578 34471 34473 28
27579 34471 34474 28
27580 34471 34475 28
27581 34476 34477 28
27582 34476 34478 28
27583 34476 34479 28
27584 34476 34480 28
27585 34481 34482 28
27586 34481 34483 28
27587 34481 34484 28
27588 34481 34485 28
27589 34486 34487 28
27590 34486 34488 28
27591 34486 34489 28
27592 34486 34490 28
27593 34491 34492 28
27594 34491 34493 28
27595 34491 34494 28
27596 34491 34495 28
27597 34496 34497 28
27598 34496 34498 28
27599 34496 34499 28
27600 34496 34500 28
27601 34501 34502 28
27602 34501 34503 28
27603 34501 34504 28
27604 34501 34505 28
27605 34506 34507 28
27606 34506 34508 28
27607 34506 34509 28
27608 34506 34510 28
27609 34511 34512 28
27610 34511 34513 28
27611 34511 34514 28
27612 34511 34515 28
27613 34516 34517 28
27614 34516 34518 28
27615 34516 34519 28
27616 34516 34520 28
27617 34521 34522 28
27618 34521 34523 28
27619 34521 34524 28
27620 34521 34525 28
27621 34526 34527 28
27622 34526 34528 28
27623 34526 34529 28
27624 34526 34530 28
27625 34531 34532 28
27626 34531 34533 28
27627 34531 34534 28
27628 34531 34535 28
27629 34536 34537 28
27630 34536 34538 28
27631 34536 34539 28
27632 34536 34540 28
27633 34541 34542 28
27634 34541 34543 28
27635 34541 34544 28
27636 34541 34545 28
27637 34546 34547 28
27638 34546 34548 28
27639 34546 34549 28
27640 34546 34550 28
27641 34551 34552 28
27642 34551 34553 28
27643 34551 34554 28
27644 34551 34555 28
27645 34556 34557 28
27646 34556 34558 28
27647 34556 34559 28
27648 34556 34560 28
27649 34561 34562 28
27650 34561 34563 28
27651 34561 34564 28
27652 34561 34565 28
27653 34566 34567 28
27654 34566 34568 28
27655 34566 34569 28
27656 34566 34570 28
27657 34571 34572 28
27658 34571 34573 28
27659 34571 34574 28
27660 34571 34575 28
27661 34576 34577 28
27662 34576 34578 28
27663 34576 34579 28
27664 34576 34580 28
27665 34581 34582 28
27666 34581 34583 28
27667 34581 34584 28
27668 34581 34585 28
27669 34586 34587 28
27670 34586 34588 28
27671 34586 34589 28
27672 34586 34590 28
27673 34591 34592 28
27674 34591 34593 28
27675 34591 34594 28
27676 34591 34595 28
27677 34596 34597 28
27678 34596 34598 28
27679 34596 34599 28
27680 34596 34600 28
27681 34601 34602 28
27682 34601 34603 28
27683 34601 34604 28
27684 34601 34605 28
27685 34606 34607 28
27686 34606 34608 28
27687 34606 34609 28
27688 34606 34610 28
27689 34611 34612 28
27690 34611 34613 28
27691 34611 34614 28
27692 34611 34615 28
27693 34616 34617 28
27694 34616 34618 28
27695 34616 34619 28
27696 34616 34620 28
27697 34621 34622 28
27698 34621 34623 28
27699 34621 34624 28
27700 34621 34625 28
27701 34626 34627 28
27702 34626 34628 28
27703 34626 34629 28
27704 34626 34630 28
27705 34631 34632 28
27706 34631 34633 28
27707 34631 34634 28
27708 34631 34635 28
27709 34636 34637 28
27710 34636 34638 28
27711 34636 34639 28
27712 34636 34640 28
27713 34641 34642 28
27714 34641 34643 28
27715 34641 34644 28
27716 34641 34645 28
27717 34646 34647 28
27718 34646 34648 28
27719 34646 34649 28
27720 34646 34650 28
27721 34651 34652 28
27722 34651 34653 28
27723 34651 34654 28
27724 34651 34655 28
27725 34656 34657 28
27726 34656 34658 28
27727 34656 34659 28
27728 34656 34660 28
27729 34661 34662 28
27730 34661 34663 28
27731 34661 34664 28
27732 34661 34665 28
27733 34666 34667 28
27734 34666 34668 28
27735 34666 34669 28
27736 34666 34670 28
27737 34671 34672 28
27738 34671 34673 28
27739 34671 34674 28
27740 34671 34675 28
27741 34676 34677 28
27742 34676 34678 28
27743 34676 34679 28
27744 34676 34680 28
27745 34681 34682 28
27746 34681 34683 28
27747 34681 34684 28
27748 34681 34685 28
27749 34686 34687 28
27750 34686 34688 28
27751 34686 34689 28
27752 34686 34690 28
27753 34691 34692 28
27754 34691 34693 28
27755 34691 34694 28
27756 34691 34695 28
27757 34696 34697 28
27758 34696 34698 28
27759 34696 34699 28
27760 34696 34700 28
27761 34701 34702 28
27762 34701 34703 28
27763 34701 34704 28
27764 34701 34705 28
27765 34706 34707 28
27766 34706 34708 28
27767 34706 34709 28
27768 34706 34710 28
27769 34711 34712 28
27770 34711 34713 28
27771 34711 34714 28
27772 34711 34715 28
27773 34716 34717 28
27774 34716 34718 28
27775 34716 34719 28
27776 34716 34720 28
27777 34721 34722 28
27778 34721 34723 28
27779 34721 34724 28
27780 34721 34725 28
27781 34726 34727 28
27782 34726 34728 28
27783 34726 34729 28
27784 34726 34730 28
27785 34731 34732 28
27786 34731 34733 28
27787 34731 34734 28
27788 34731 34735 28
27789 34736 34737 28
27790 34736 34738 28
27791 34736 34739 28
27792 34736 34740 28
27793 34741 34742 28
27794 34741 34743 28
27795 34741 34744 28
27796 34741 34745 28
27797 34746 34747 28
27798 34746 34748 28
27799 34746 34749 28
27800 34746 34750 28
27801 34751 34752 28
27802 34751 34753 28
27803 34751 34754 28
27804 34751 34755 28
27805 34756 34757 28
27806 34756 34758 28
27807 34756 34759 28
27808 34756 34760 28
27809 34761 34762 28
27810 34761 34763 28
27811 34761 34764 28
27812 34761 34765 28
27813 34766 34767 28
27814 34766 34768 28
27815 34766 34769 28
27816 34766 34770 28
27817 34771 34772 28
27818 34771 34773 28
27819 34771 34774 28
27820 34771 34775 28
27821 34776 34777 28
27822 34776 34778 28
27823 34776 34779 28
27824 34776 34780 28
27825 34781 34782 28
27826 34781 34783 28
27827 34781 34784 28
27828 34781 34785 28
27829 34786 34787 28
27830 34786 34788 28
27831 34786 34789 28
27832 34786 34790 28
27833 34791 34792 28
27834 34791 34793 28
27835 34791 34794 28
27836 34791 34795 28
27837 34796 34797 28
27838 34796 34798 28
27839 34796 34799 28
27840 34796 34800 28
27841 34801 34802 28
27842 34801 34803 28
27843 34801 34804 28
27844 34801 34805 28
27845 34806 34807 28
27846 34806 34808 28
27847 34806 34809 28
27848 34806 34810 28
27849 34811 34812 28
27850 34811 34813 28
27851 34811 34814 28
27852 34811 34815 28
27853 34816 34817 28
27854 34816 34818 28
27855 34816 34819 28
27856 34816 34820 28
27857 34821 34822 28
27858 34821 34823 28
27859 34821 34824 28
27860 34821 34825 28
27861 34826 34827 28
27862 34826 34828 28
27863 34826 34829 28
27864 34826 34830 28
27865 34831 34832 28
27866 34831 34833 28
27867 34831 34834 28
27868 34831 34835 28
27869 34836 34837 28
27870 34836 34838 28
27871 34836 34839 28
27872 34836 34840 28
27873 34841 34842 28
27874 34841 34843 28
27875 34841 34844 28
27876 34841 34845 28
27877 34846 34847 28
27878 34846 34848 28
27879 34846 34849 28
27880 34846 34850 28
27881 34851 34852 28
27882 34851 34853 28
27883 34851 34854 28
27884 34851 34855 28
27885 34856 34857 28
27886 34856 34858 28
27887 34856 34859 28
27888 34856 34860 28
27889 34861 34862 28
27890 34861 34863 28
27891 34861 34864 28
27892 34861 34865 28
27893 34866 34867 28
27894 34866 34868 28
27895 34866 34869 28
27896 34866 34870 28
27897 34871 34872 28
27898 34871 34873 28
27899 34871 34874 28
27900 34871 34875 28
27901 34876 34877 28
27902 34876 34878 28
27903 34876 34879 28
27904 34876 34880 28
27905 34881 34882 28
27906 34881 34883 28
27907 34881 34884 28
27908 34881 34885 28
27909 34886 34887 28
27910 34886 34888 28
27911 34886 34889 28
27912 34886 34890 28
27913 34891 34892 28
27914 34891 34893 28
27915 34891 34894 28
27916 34891 34895 28
27917 34896 34897 28
27918 34896 34898 28
27919 34896 34899 28
27920 34896 34900 28
27921 34901 34902 28
27922 34901 34903 28
27923 34901 34904 28
27924 34901 34905 28
27925 34906 34907 28
27926 34906 34908 28
27927 34906 34909 28
27928 34906 34910 28
27929 34911 34912 28
27930 34911 34913 28
27931 34911 34914 28
27932 34911 34915 28
27933 34916 34917 28
27934 34916 34918 28
27935 34916 34919 28
27936 34916 34920 28
27937 34921 34922 28
27938 34921 34923 28
27939 34921 34924 28
27940 34921 34925 28
27941 34926 34927 28
27942 34926 34928 28
27943 34926 34929 28
27944 34926 34930 28
27945 34931 34932 28
27946 34931 34933 28
27947 34931 34934 28
27948 34931 34935 28
27949 34936 34937 28
27950 34936 34938 28
27951 34936 34939 28
27952 34936 34940 28
27953 34941 34942 28
27954 34941 34943 28
27955 34941 34944 28
27956 34941 34945 28
27957 34946 34947 28
27958 34946 34948 28
27959 34946 34949 28
27960 34946 34950 28
27961 34951 34952 28
27962 34951 34953 28
27963 34951 34954 28
27964 34951 34955 28
27965 34956 34957 28
27966 34956 34958 28
27967 34956 34959 28
27968 34956 34960 28
27969 34961 34962 28
27970 34961 34963 28
27971 34961 34964 28
27972 34961 34965 28
27973 34966 34967 28
27974 34966 34968 28
27975 34966 34969 28
27976 34966 34970 28
27977 34971 34972 28
27978 34971 34973 28
27979 34971 34974 28
27980 34971 34975 28
27981 34976 34977 28
27982 34976 34978 28
27983 34976 34979 28
27984 34976 34980 28
27985 34981 34982 28
27986 34981 34983 28
27987 34981 34984 28
27988 34981 34985 28
27989 34986 34987 28
27990 34986 34988 28
27991 34986 34989 28
27992 34986 34990 28
27993 34991 34992 28
27994 34991 34993 28
27995 34991 34994 28
27996 34991 34995 28
27997 34996 34997 28
27998 34996 34998 28
27999 34996 34999 28
28000 34996 35000 28
28001 35001 35002 28
28002 35001 35003 28
28003 35001 35004 28
28004 35001 35005 28
28005 35006 35007 28
28006 35006 35008 28
28007 35006 35009 28
28008 35006 35010 28
28009 35011 35012 28
28010 35011 35013 28
28011 35011 35014 28
28012 35011 35015 28
28013 35016 35017 28
28014 35016 35018 28
28015 35016 35019 28
28016 35016 35020 28
28017 35021 35022 28
28018 35021 35023 28
28019 35021 35024 28
28020 35021 35025 28
28021 35026 35027 28
28022 35026 35028 28
28023 35026 35029 28
28024 35026 35030 28
28025 35031 35032 28
28026 35031 35033 28
28027 35031 35034 28
28028 35031 35035 28
28029 35036 35037 28
28030 35036 35038 28
28031 35036 35039 28
28032 35036 35040 28
28033 35041 35042 28
28034 35041 35043 28
28035 35041 35044 28
28036 35041 35045 28
28037 35046 35047 28
28038 35046 35048 28
28039 35046 35049 28
28040 35046 35050 28
28041 35051 35052 28
28042 35051 35053 28
28043 35051 35054 28
28044 35051 35055 28
28045 35056 35057 28
28046 35056 35058 28
28047 35056 35059 28
28048 35056 35060 28
28049 35061 35062 28
28050 35061 35063 28
28051 35061 35064 28
28052 35061 35065 28
28053 35066 35067 28
28054 35066 35068 28
28055 35066 35069 28
28056 35066 35070 28
28057 35071 35072 28
28058 35071 35073 28
28059 35071 35074 28
28060 35071 35075 28
28061 35076 35077 28
28062 35076 35078 28
28063 35076 35079 28
28064 35076 35080 28
28065 35081 35082 28
28066 35081 35083 28
28067 35081 35084 28
28068 35081 35085 28
28069 35086 35087 28
28070 35086 35088 28
28071 35086 35089 28
28072 35086 35090 28
28073 35091 35092 28
28074 35091 35093 28
28075 35091 35094 28
28076 35091 35095 28
28077 35096 35097 28
28078 35096 35098 28
28079 35096 35099 28
28080 35096 35100 28
28081 35101 35102 28
28082 35101 35103 28
28083 35101 35104 28
28084 35101 35105 28
28085 35106 35107 28
28086 35106 35108 28
28087 35106 35109 28
28088 35106 35110 28
28089 35111 35112 28
28090 35111 35113 28
28091 35111 35114 28
28092 35111 35115 28
28093 35116 35117 28
28094 35116 35118 28
28095 35116 35119 28
28096 35116 35120 28
28097 35121 35122 28
28098 35121 35123 28
28099 35121 35124 28
28100 35121 35125 28
28101 35126 35127 28
28102 35126 35128 28
28103 35126 35129 28
28104 35126 35130 28
28105 35131 35132 28
28106 35131 35133 28
28107 35131 35134 28
28108 35131 35135 28
28109 35136 35137 28
28110 35136 35138 28
28111 35136 35139 28
28112 35136 35140 28
28113 35141 35142 28
28114 35141 35143 28
28115 35141 35144 28
28116 35141 35145 28
28117 35146 35147 28
28118 35146 35148 28
28119 35146 35149 28
28120 35146 35150 28
28121 35151 35152 28
28122 35151 35153 28
28123 35151 35154 28
28124 35151 35155 28
28125 35156 35157 28
28126 35156 35158 28
28127 35156 35159 28
28128 35156 35160 28
28129 35161 35162 28
28130 35161 35163 28
28131 35161 35164 28
28132 35161 35165 28
28133 35166 35167 28
28134 35166 35168 28
28135 35166 35169 28
28136 35166 35170 28
28137 35171 35172 28
28138 35171 35173 28
28139 35171 35174 28
28140 35171 35175 28
28141 35176 35177 28
28142 35176 35178 28
28143 35176 35179 28
28144 35176 35180 28
28145 35181 35182 28
28146 35181 35183 28
28147 35181 35184 28
28148 35181 35185 28
28149 35186 35187 28
28150 35186 35188 28
28151 35186 35189 28
28152 35186 35190 28
28153 35191 35192 28
28154 35191 35193 28
28155 35191 35194 28
28156 35191 35195 28
28157 35196 35197 28
28158 35196 35198 28
28159 35196 35199 28
28160 35196 35200 28
28161 35201 35202 28
28162 35201 35203 28
28163 35201 35204 28
28164 35201 35205 28
28165 35206 35207 28
28166 35206 35208 28
28167 35206 35209 28
28168 35206 35210 28
28169 35211 35212 28
28170 35211 35213 28
28171 35211 35214 28
28172 35211 35215 28
28173 35216 35217 28
28174 35216 35218 28
28175 35216 35219 28
28176 35216 35220 28
28177 35221 35222 28
28178 35221 35223 28
28179 35221 35224 28
28180 35221 35225 28
28181 35226 35227 28
28182 35226 35228 28
28183 35226 35229 28
28184 35226 35230 28
28185 35231 35232 28
28186 35231 35233 28
28187 35231 35234 28
28188 35231 35235 28
28189 35236 35237 28
28190 35236 35238 28
28191 35236 35239 28
28192 35236 35240 28
28193 35241 35242 28
28194 35241 35243 28
28195 35241 35244 28
28196 35241 35245 28
28197 35246 35247 28
28198 35246 35248 28
28199 35246 35249 28
28200 35246 35250 28
28201 35251 35252 28
28202 35251 35253 28
28203 35251 35254 28
28204 35251 35255 28
28205 35256 35257 28
28206 35256 35258 28
28207 35256 35259 28
28208 35256 35260 28
28209 35261 35262 28
28210 35261 35263 28
28211 35261 35264 28
28212 35261 35265 28
28213 35266 35267 28
28214 35266 35268 28
28215 35266 35269 28
28216 35266 35270 28
28217 35271 35272 28
28218 35271 35273 28
28219 35271 35274 28
28220 35271 35275 28
28221 35276 35277 28
28222 35276 35278 28
28223 35276 35279 28
28224 35276 35280 28
28225 35281 35282 28
28226 35281 35283 28
28227 35281 35284 28
28228 35281 35285 28
28229 35286 35287 28
28230 35286 35288 28
28231 35286 35289 28
28232 35286 35290 28
28233 35291 35292 28
28234 35291 35293 28
28235 35291 35294 28
28236 35291 35295 28
28237 35296 35297 28
28238 35296 35298 28
28239 35296 35299 28
28240 35296 35300 28
28241 35301 35302 28
28242 35301 35303 28
28243 35301 35304 28
28244 35301 35305 28
28245 35306 35307 28
28246 35306 35308 28
28247 35306 35309 28
28248 35306 35310 28
28249 35311 35312 28
28250 35311 35313 28
28251 35311 35314 28
28252 35311 35315 28
28253 35316 35317 28
28254 35316 35318 28
28255 35316 35319 28
28256 35316 35320 28
28257 35321 35322 28
28258 35321 35323 28
28259 35321 35324 28
28260 35321 35325 28
28261 35326 35327 28
28262 35326 35328 28
28263 35326 35329 28
28264 35326 35330 28
28265 35331 35332 28
28266 35331 35333 28
28267 35331 35334 28
28268 35331 35335 28
28269 35336 35337 28
28270 35336 35338 28
28271 35336 35339 28
28272 35336 35340 28
28273 35341 35342 28
28274 35341 35343 28
28275 35341 35344 28
28276 35341 35345 28
28277 35346 35347 28
28278 35346 35348 28
28279 35346 35349 28
28280 35346 35350 28
28281 35351 35352 28
28282 35351 35353 28
28283 35351 35354 28
28284 35351 35355 28
28285 35356 35357 28
28286 35356 35358 28
28287 35356 35359 28
28288 35356 35360 28
28289 35361 35362 28
28290 35361 35363 28
28291 35361 35364 28
28292 35361 35365 28
28293 35366 35367 28
28294 35366 35368 28
28295 35366 35369 28
28296 35366 35370 28
28297 35371 35372 28
28298 35371 35373 28
28299 35371 35374 28
28300 35371 35375 28
28301 35376 35377 28
28302 35376 35378 28
28303 35376 35379 28
28304 35376 35380 28
28305 35381 35382 28
28306 35381 35383 28
28307 35381 35384 28
28308 35381 35385 28
28309 35386 35387 28
28310 35386 35388 28
28311 35386 35389 28
28312 35386 35390 28
28313 35391 35392 28
28314 35391 35393 28
28315 35391 35394 28
28316 35391 35395 28
28317 35396 35397 28
28318 35396 35398 28
28319 35396 35399 28
28320 35396 35400 28
28321 35401 35402 28
28322 35401 35403 28
28323 35401 35404 28
28324 35401 35405 28
28325 35406 35407 28
28326 35406 35408 28
28327 35406 35409 28
28328 35406 35410 28
28329 35411 35412 28
28330 35411 35413 28
28331 35411 35414 28
28332 35411 35415 28
28333 35416 35417 28
28334 35416 35418 28
28335 35416 35419 28
28336 35416 35420 28
28337 35421 35422 28
28338 35421 35423 28
28339 35421 35424 28
28340 35421 35425 28
28341 35426 35427 28
28342 35426 35428 28
28343 35426 35429 28
28344 35426 35430 28
28345 35431 35432 28
28346 35431 35433 28
28347 35431 35434 28
28348 35431 35435 28
28349 35436 35437 28
28350 35436 35438 28
28351 35436 35439 28
28352 35436 35440 28
28353 35441 35442 28
28354 35441 35443 28
28355 35441 35444 28
28356 35441 35445 28
28357 35446 35447 28
28358 35446 35448 28
28359 35446 35449 28
28360 35446 35450 28
28361 35451 35452 28
28362 35451 35453 28
28363 35451 35454 28
28364 35451 35455 28
28365 35456 35457 28
28366 35456 35458 28
28367 35456 35459 28
28368 35456 35460 28
28369 35461 35462 28
28370 35461 35463 28
28371 35461 35464 28
28372 35461 35465 28
28373 35466 35467 28
28374 35466 35468 28
28375 35466 35469 28
28376 35466 35470 28
28377 35471 35472 28
28378 35471 35473 28
28379 35471 35474 28
28380 35471 35475 28
28381 35476 35477 28
28382 35476 35478 28
28383 35476 35479 28
28384 35476 35480 28
28385 35481 35482 28
28386 35481 35483 28
28387 35481 35484 28
28388 35481 35485 28
28389 35486 35487 28
28390 35486 35488 28
28391 35486 35489 28
28392 35486 35490 28
28393 35491 35492 28
28394 35491 35493 28
28395 35491 35494 28
28396 35491 35495 28
28397 35496 35497 28
28398 35496 35498 28
28399 35496 35499 28
28400 35496 35500 28
28401 35501 35502 28
28402 35501 35503 28
28403 35501 35504 28
28404 35501 35505 28
28405 35506 35507 28
28406 35506 35508 28
28407 35506 35509 28
28408 35506 35510 28
28409 35511 35512 28
28410 35511 35513 28
28411 35511 35514 28
28412 35511 35515 28
28413 35516 35517 28
28414 35516 35518 28
28415 35516 35519 28
28416 35516 35520 28
28417 35521 35522 28
28418 35521 35523 28
28419 35521 35524 28
28420 35521 35525 28
28421 35526 35527 28
28422 35526 35528 28
28423 35526 35529 28
28424 35526 35530 28
28425 35531 35532 28
28426 35531 35533 28
28427 35531 35534 28
28428 35531 35535 28
28429 35536 35537 28
28430 35536 35538 28
28431 35536 35539 28
28432 35536 35540 28
28433 35541 35542 28
28434 35541 35543 28
28435 35541 35544 28
28436 35541 35545 28
28437 35546 35547 28
28438 35546 35548 28
28439 35546 35549 28
28440 35546 35550 28
28441 35551 35552 28
28442 35551 35553 28
28443 35551 35554 28
28444 35551 35555 28
28445 35556 35557 28
28446 35556 35558 28
28447 35556 35559 28
28448 35556 35560 28
28449 35561 35562 28
28450 35561 35563 28
28451 35561 35564 28
28452 35561 35565 28
28453 35566 35567 28
28454 35566 35568 28
28455 35566 35569 28
28456 35566 35570 28
28457 35571 35572 28
28458 35571 35573 28
28459 35571 35574 28
28460 35571 35575 28
28461 35576 35577 28
28462 35576 35578 28
28463 35576 35579 28
28464 35576 35580 28
28465 35581 35582 28
28466 35581 35583 28
28467 35581 35584 28
28468 35581 35585 28
28469 35586 35587 28
28470 35586 35588 28
28471 35586 35589 28
28472 35586 35590 28
28473 35591 35592 28
28474 35591 35593 28
28475 35591 35594 28
28476 35591 35595 28
28477 35596 35597 28
28478 35596 35598 28
28479 35596 35599 28
28480 35596 35600 28
28481 35601 35602 28
28482 35601 35603 28
28483 35601 35604 28
28484 35601 35605 28
28485 35606 35607 28
28486 35606 35608 28
28487 35606 35609 28
28488 35606 35610 28
28489 35611 35612 28
28490 35611 35613 28
28491 35611 35614 28
28492 35611 35615 28
28493 35616 35617 28
28494 35616 35618 28
28495 35616 35619 28
28496 35616 35620 28
28497 35621 35622 28
28498 35621 35623 28
28499 35621 35624 28
28500 35621 35625 28
28501 35626 35627 28
28502 35626 35628 28
28503 35626 35629 28
28504 35626 35630 28
28505 35631 35632 28
28506 35631 35633 28
28507 35631 35634 28
28508 35631 35635 28
28509 35636 35637 28
28510 35636 35638 28
28511 35636 35639 28
28512 35636 35640 28
28513 35641 35642 28
28514 35641 35643 28
28515 35641 35644 28
28516 35641 35645 28
28517 35646 35647 28
28518 35646 35648 28
28519 35646 35649 28
28520 35646 35650 28
28521 35651 35652 28
28522 35651 35653 28
28523 35651 35654 28
28524 35651 35655 28
28525 35656 35657 28
28526 35656 35658 28
28527 35656 35659 28
28528 35656 35660 28
28529 35661 35662 28
28530 35661 35663 28
28531 35661 35664 28
28532 35661 35665 28
28533 35666 35667 28
28534 35666 35668 28
28535 35666 35669 28
28536 35666 35670 28
28537 35671 35672 28
28538 35671 35673 28
28539 35671 35674 28
28540 35671 35675 28
28541 35676 35677 28
28542 35676 35678 28
28543 35676 35679 28
28544 35676 35680 28
28545 35681 35682 28
28546 35681 35683 28
28547 35681 35684 28
28548 35681 35685 28
28549 35686 35687 28
28550 35686 35688 28
28551 35686 35689 28
28552 35686 35690 28
28553 35691 35692 28
28554 35691 35693 28
28555 35691 35694 28
28556 35691 35695 28
28557 35696 35697 28
28558 35696 35698 28
28559 35696 35699 28
28560 35696 35700 28
28561 35701 35702 28
28562 35701 35703 28
28563 35701 35704 28
28564 35701 35705 28
28565 35706 35707 28
28566 35706 35708 28
28567 35706 35709 28
28568 35706 35710 28
28569 35711 35712 28
28570 35711 35713 28
28571 35711 35714 28
28572 35711 35715 28
28573 35716 35717 28
28574 35716 35718 28
28575 35716 35719 28
28576 35716 35720 28
28577 35721 35722 28
28578 35721 35723 28
28579 35721 35724 28
28580 35721 35725 28
28581 35726 35727 28
28582 35726 35728 28
28583 35726 35729 28
28584 35726 35730 28
28585 35731 35732 28
28586 35731 35733 28
28587 35731 35734 28
28588 35731 35735 28
28589 35736 35737 28
28590 35736 35738 28
28591 35736 35739 28
28592 35736 35740 28
28593 35741 35742 28
28594 35741 35743 28
28595 35741 35744 28
28596 35741 35745 28
28597 35746 35747 28
28598 35746 35748 28
28599 35746 35749 28
28600 35746 35750 28
28601 35751 35752 28
28602 35751 35753 28
28603 35751 35754 28
28604 35751 35755 28
28605 35756 35757 28
28606 35756 35758 28
28607 35756 35759 28
28608 35756 35760 28
28609 35761 35762 28
28610 35761 35763 28
28611 35761 35764 28
28612 35761 35765 28
28613 35766 35767 28
28614 35766 35768 28
28615 35766 35769 28
28616 35766 35770 28
28617 35771 35772 28
28618 35771 35773 28
28619 35771 35774 28
28620 35771 35775 28
28621 35776 35777 28
28622 35776 35778 28
28623 35776 35779 28
28624 35776 35780 28
28625 35781 35782 28
28626 35781 35783 28
28627 35781 35784 28
28628 35781 35785 28
28629 35786 35787 28
28630 35786 35788 28
28631 35786 35789 28
28632 35786 35790 28
28633 35791 35792 28
28634 35791 35793 28
28635 35791 35794 28
28636 35791 35795 28
28637 35796 35797 28
28638 35796 35798 28
28639 35796 35799 28
28640 35796 35800 28
28641 35801 35802 28
28642 35801 35803 28
28643 35801 35804 28
28644 35801 35805 28
28645 35806 35807 28
28646 35806 35808 28
28647 35806 35809 28
28648 35806 35810 28
28649 35811 35812 28
28650 35811 35813 28
28651 35811 35814 28
28652 35811 35815 28
28653 35816 35817 28
28654 35816 35818 28
28655 35816 35819 28
28656 35816 35820 28
28657 35821 35822 28
28658 35821 35823 28
28659 35821 35824 28
28660 35821 35825 28
28661 35826 35827 28
28662 35826 35828 28
28663 35826 35829 28
28664 35826 35830 28
28665 35831 35832 28
28666 35831 35833 28
28667 35831 35834 28
28668 35831 35835 28
28669 35836 35837 28
28670 35836 35838 28
28671 35836 35839 28
28672 35836 35840 28
28673 35841 35842 28
28674 35841 35843 28
28675 35841 35844 28
28676 35841 35845 28
28677 35846 35847 28
28678 35846 35848 28
28679 35846 35849 28
28680 35846 35850 28
28681 35851 35852 28
28682 35851 35853 28
28683 35851 35854 28
28684 35851 35855 28
28685 35856 35857 28
28686 35856 35858 28
28687 35856 35859 28
28688 35856 35860 28
28689 35861 35862 28
28690 35861 35863 28
28691 35861 35864 28
28692 35861 35865 28
28693 35866 35867 28
28694 35866 35868 28
28695 35866 35869 28
28696 35866 35870 28
28697 35871 35872 28
28698 35871 35873 28
28699 35871 35874 28
28700 35871 35875 28
28701 35876 35877 28
28702 35876 35878 28
28703 35876 35879 28
28704 35876 35880 28
28705 35881 35882 28
28706 35881 35883 28
28707 35881 35884 28
28708 35881 35885 28
28709 35886 35887 28
28710 35886 35888 28
28711 35886 35889 28
28712 35886 35890 28
28713 35891 35892 28
28714 35891 35893 28
28715 35891 35894 28
28716 35891 35895 28
28717 35896 35897 28
28718 35896 35898 28
28719 35896 35899 28
28720 35896 35900 28
28721 35901 35902 28
28722 35901 35903 28
28723 35901 35904 28
28724 35901 35905 28
28725 35906 35907 28
28726 35906 35908 28
28727 35906 35909 28
28728 35906 35910 28
28729 35911 35912 28
28730 35911 35913 28
28731 35911 35914 28
28732 35911 35915 28
28733 35916 35917 28
28734 35916 35918 28
28735 35916 35919 28
28736 35916 35920 28
28737 35921 35922 28
28738 35921 35923 28
28739 35921 35924 28
28740 35921 35925 28
28741 35926 35927 28
28742 35926 35928 28
28743 35926 35929 28
28744 35926 35930 28
28745 35931 35932 28
28746 35931 35933 28
28747 35931 35934 28
28748 35931 35935 28
28749 35936 35937 28
28750 35936 35938 28
28751 35936 35939 28
28752 35936 35940 28
28753 35941 35942 28
28754 35941 35943 28
28755 35941 35944 28
28756 35941 35945 28
28757 35946 35947 28
28758 35946 35948 28
28759 35946 35949 28
28760 35946 35950 28
28761 35951 35952 28
28762 35951 35953 28
28763 35951 35954 28
28764 35951 35955 28
28765 35956 35957 28
28766 35956 35958 28
28767 35956 35959 28
28768 35956 35960 28
28769 35961 35962 28
28770 35961 35963 28
28771 35961 35964 28
28772 35961 35965 28
28773 35966 35967 28
28774 35966 35968 28
28775 35966 35969 28
28776 35966 35970 28
28777 35971 35972 28
28778 35971 35973 28
28779 35971 35974 28
28780 35971 35975 28
28781 35976 35977 28
28782 35976 35978 28
28783 35976 35979 28
28784 35976 35980 28
28785 35981 35982 28
28786 35981 35983 28
28787 35981 35984 28
28788 35981 35985 28
28789 35986 35987 28
28790 35986 35988 28
28791 35986 35989 28
28792 35986 35990 28
28793 35991 35992 28
28794 35991 35993 28
28795 35991 35994 28
28796 35991 35995 28
28797 35996 35997 28
28798 35996 35998 28
28799 35996 35999 28
28800 35996 36000 28
28801 36001 36002 28
28802 36001 36003 28
28803 36001 36004 28
28804 36001 36005 28
28805 36006 36007 28
28806 36006 36008 28
28807 36006 36009 28
28808 36006 36010 28
28809 36011 36012 28
28810 36011 36013 28
28811 36011 36014 28
28812 36011 36015 28
28813 36016 36017 28
28814 36016 36018 28
28815 36016 36019 28
28816 36016 36020 28
28817 36021 36022 28
28818 36021 36023 28
28819 36021 36024 28
28820 36021 36025 28
28821 36026 36027 28
28822 36026 36028 28
28823 36026 36029 28
28824 36026 36030 28
28825 36031 36032 28
28826 36031 36033 28
28827 36031 36034 28
28828 36031 36035 28
28829 36036 36037 28
28830 36036 36038 28
28831 36036 36039 28
28832 36036 36040 28
28833 36041 36042 28
28834 36041 36043 28
28835 36041 36044 28
28836 36041 36045 28
28837 36046 36047 28
28838 36046 36048 28
28839 36046 36049 28
28840 36046 36050 28
28841 36051 36052 28
28842 36051 36053 28
28843 36051 36054 28
28844 36051 36055 28
28845 36056 36057 28
28846 36056 36058 28
28847 36056 36059 28
28848 36056 36060 28
28849 36061 36062 28
28850 36061 36063 28
28851 36061 36064 28
28852 36061 36065 28
28853 36066 36067 28
28854 36066 36068 28
28855 36066 36069 28
28856 36066 36070 28
28857 36071 36072 28
28858 36071 36073 28
28859 36071 36074 28
28860 36071 36075 28
28861 36076 36077 28
28862 36076 36078 28
28863 36076 36079 28
28864 36076 36080 28
28865 36081 36082 28
28866 36081 36083 28
28867 36081 36084 28
28868 36081 36085 28
28869 36086 36087 28
28870 36086 36088 28
28871 36086 36089 28
28872 36086 36090 28
28873 36091 36092 28
28874 36091 36093 28
28875 36091 36094 28
28876 36091 36095 28
28877 36096 36097 28
28878 36096 36098 28
28879 36096 36099 28
28880 36096 36100 28
28881 36101 36102 28
28882 36101 36103 28
28883 36101 36104 28
28884 36101 36105 28
28885 36106 36107 28
28886 36106 36108 28
28887 36106 36109 28
28888 36106 36110 28
28889 36111 36112 28
28890 36111 36113 28
28891 36111 36114 28
28892 36111 36115 28
28893 36116 36117 28
28894 36116 36118 28
28895 36116 36119 28
28896 36116 36120 28
28897 36121 36122 28
28898 36121 36123 28
28899 36121 36124 28
28900 36121 36125 28
28901 36126 36127 28
28902 36126 36128 28
28903 36126 36129 28
28904 36126 36130 28
28905 36131 36132 28
28906 36131 36133 28
28907 36131 36134 28
28908 36131 36135 28
28909 36136 36137 28
28910 36136 36138 28
28911 36136 36139 28
28912 36136 36140 28
28913 36141 36142 28
28914 36141 36143 28
28915 36141 36144 28
28916 36141 36145 28
28917 36146 36147 28
28918 36146 36148 28
28919 36146 36149 28
28920 36146 36150 28
28921 36151 36152 28
28922 36151 36153 28
28923 36151 36154 28
28924 36151 36155 28
28925 36156 36157 28
28926 36156 36158 28
28927 36156 36159 28
28928 36156 36160 28
28929 36161 36162 28
28930 36161 36163 28
28931 36161 36164 28
28932 36161 36165 28
28933 36166 36167 28
28934 36166 36168 28
28935 36166 36169 28
28936 36166 36170 28
28937 36171 36172 28
28938 36171 36173 28
28939 36171 36174 28
28940 36171 36175 28
28941 36176 36177 28
28942 36176 36178 28
28943 36176 36179 28
28944 36176 36180 28
28945 36181 36182 28
28946 36181 36183 28
28947 36181 36184 28
28948 36181 36185 28
28949 36186 36187 28
28950 36186 36188 28
28951 36186 36189 28
28952 36186 36190 28
28953 36191 36192 28
28954 36191 36193 28
28955 36191 36194 28
28956 36191 36195 28
28957 36196 36197 28
28958 36196 36198 28
28959 36196 36199 28
28960 36196 36200 28
28961 36201 36202 28
28962 36201 36203 28
28963 36201 36204 28
28964 36201 36205 28
28965 36206 36207 28
28966 36206 36208 28
28967 36206 36209 28
28968 36206 36210 28
28969 36211 36212 28
28970 36211 36213 28
28971 36211 36214 28
28972 36211 36215 28
28973 36216 36217 28
28974 36216 36218 28
28975 36216 36219 28
28976 36216 36220 28
28977 36221 36222 28
28978 36221 36223 28
28979 36221 36224 28
28980 36221 36225 28
28981 36226 36227 28
28982 36226 36228 28
28983 36226 36229 28
28984 36226 36230 28
28985 36231 36232 28
28986 36231 36233 28
28987 36231 36234 28
28988 36231 36235 28
28989 36236 36237 28
28990 36236 36238 28
28991 36236 36239 28
28992 36236 36240 28
28993 36241 36242 28
28994 36241 36243 28
28995 36241 36244 28
28996 36241 36245 28
28997 36246 36247 28
28998 36246 36248 28
28999 36246 36249 28
29000 36246 36250 28
29001 36251 36252 28
29002 36251 36253 28
29003 36251 36254 28
29004 36251 36255 28
29005 36256 36257 28
29006 36256 36258 28
29007 36256 36259 28
29008 36256 36260 28
29009 36261 36262 28
29010 36261 36263 28
29011 36261 36264 28
29012 36261 36265 28
29013 36266 36267 28
29014 36266 36268 28
29015 36266 36269 28
29016 36266 36270 28
29017 36271 36272 28
29018 36271 36273 28
29019 36271 36274 28
29020 36271 36275 28
29021 36276 36277 28
29022 36276 36278 28
29023 36276 36279 28
29024 36276 36280 28
29025 36281 36282 28
29026 36281 36283 28
29027 36281 36284 28
29028 36281 36285 28
29029 36286 36287 28
29030 36286 36288 28
29031 36286 36289 28
29032 36286 36290 28
29033 36291 36292 28
29034 36291 36293 28
29035 36291 36294 28
29036 36291 36295 28
29037 36296 36297 28
29038 36296 36298 28
29039 36296 36299 28
29040 36296 36300 28
29041 36301 36302 28
29042 36301 36303 28
29043 36301 36304 28
29044 36301 36305 28
29045 36306 36307 28
29046 36306 36308 28
29047 36306 36309 28
29048 36306 36310 28
29049 36311 36312 28
29050 36311 36313 28
29051 36311 36314 28
29052 36311 36315 28
29053 36316 36317 28
29054 36316 36318 28
29055 36316 36319 28
29056 36316 36320 28
29057 36321 36322 28
29058 36321 36323 28
29059 36321 36324 28
29060 36321 36325 28
29061 36326 36327 28
29062 36326 36328 28
29063 36326 36329 28
29064 36326 36330 28
29065 36331 36332 28
29066 36331 36333 28
29067 36331 36334 28
29068 36331 36335 28
29069 36336 36337 28
29070 36336 36338 28
29071 36336 36339 28
29072 36336 36340 28
29073 36341 36342 28
29074 36341 36343 28
29075 36341 36344 28
29076 36341 36345 28
29077 36346 36347 28
29078 36346 36348 28
29079 36346 36349 28
29080 36346 36350 28
29081 36351 36352 28
29082 36351 36353 28
29083 36351 36354 28
29084 36351 36355 28
29085 36356 36357 28
29086 36356 36358 28
29087 36356 36359 28
29088 36356 36360 28
29089 36361 36362 28
29090 36361 36363 28
29091 36361 36364 28
29092 36361 36365 28
29093 36366 36367 28
29094 36366 36368 28
29095 36366 36369 28
29096 36366 36370 28
29097 36371 36372 28
29098 36371 36373 28
29099 36371 36374 28
29100 36371 36375 28
29101 36376 36377 28
29102 36376 36378 28
29103 36376 36379 28
29104 36376 36380 28
29105 36381 36382 28
29106 36381 36383 28
29107 36381 36384 28
29108 36381 36385 28
29109 36386 36387 28
29110 36386 36388 28
29111 36386 36389 28
29112 36386 36390 28
29113 36391 36392 28
29114 36391 36393 28
29115 36391 36394 28
29116 36391 36395 28
29117 36396 36397 28
29118 36396 36398 28
29119 36396 36399 28
29120 36396 36400 28
29121 36401 36402 28
29122 36401 36403 28
29123 36401 36404 28
29124 36401 36405 28
29125 36406 36407 28
29126 36406 36408 28
29127 36406 36409 28
29128 36406 36410 28
29129 36411 36412 28
29130 36411 36413 28
29131 36411 36414 28
29132 36411 36415 28
29133 36416 36417 28
29134 36416 36418 28
29135 36416 36419 28
29136 36416 36420 28
29137 36421 36422 28
29138 36421 36423 28
29139 36421 36424 28
29140 36421 36425 28
29141 36426 36427 28
29142 36426 36428 28
29143 36426 36429 28
29144 36426 36430 28
29145 36431 36432 28
29146 36431 36433 28
29147 36431 36434 28
29148 36431 36435 28
29149 36436 36437 28
29150 36436 36438 28
29151 36436 36439 28
29152 36436 36440 28
29153 36441 36442 28
29154 36441 36443 28
29155 36441 36444 28
29156 36441 36445 28
29157 36446 36447 28
29158 36446 36448 28
29159 36446 36449 28
29160 36446 36450 28
29161 36451 36452 28
29162 36451 36453 28
29163 36451 36454 28
29164 36451 36455 28
29165 36456 36457 28
29166 36456 36458 28
29167 36456 36459 28
29168 36456 36460 28
29169 36461 36462 28
29170 36461 36463 28
29171 36461 36464 28
29172 36461 36465 28
29173 36466 36467 28
29174 36466 36468 28
29175 36466 36469 28
29176 36466 36470 28
29177 36471 36472 28
29178 36471 36473 28
29179 36471 36474 28
29180 36471 36475 28
29181 36476 36477 28
29182 36476 36478 28
29183 36476 36479 28
29184 36476 36480 28
29185 36481 36482 28
29186 36481 36483 28
29187 36481 36484 28
29188 36481 36485 28
29189 36486 36487 28
29190 36486 36488 28
29191 36486 36489 28
29192 36486 36490 28
29193 36491 36492 28
29194 36491 36493 28
29195 36491 36494 28
29196 36491 36495 28
29197 36496 36497 28
29198 36496 36498 28
29199 36496 36499 28
29200 36496 36500 28
29201 36501 36502 28
29202 36501 36503 28
29203 36501 36504 28
29204 36501 36505 28
29205 36506 36507 28
29206 36506 36508 28
29207 36506 36509 28
29208 36506 36510 28
29209 36511 36512 28
29210 36511 36513 28
29211 36511 36514 28
29212 36511 36515 28
29213 36516 36517 28
29214 36516 36518 28
29215 36516 36519 28
29216 36516 36520 28
29217 36521 36522 28
29218 36521 36523 28
29219 36521 36524 28
29220 36521 36525 28
29221 36526 36527 28
29222 36526 36528 28
29223 36526 36529 28
29224 36526 36530 28
29225 36531 36532 28
29226 36531 36533 28
29227 36531 36534 28
29228 36531 36535 28
29229 36536 36537 28
29230 36536 36538 28
29231 36536 36539 28
29232 36536 36540 28
29233 36541 36542 28
29234 36541 36543 28
29235 36541 36544 28
29236 36541 36545 28
29237 36546 36547 28
29238 36546 36548 28
29239 36546 36549 28
29240 36546 36550 28
29241 36551 36552 28
29242 36551 36553 28
29243 36551 36554 28
29244 36551 36555 28
29245 36556 36557 28
29246 36556 36558 28
29247 36556 36559 28
29248 36556 36560 28
29249 36561 36562 28
29250 36561 36563 28
29251 36561 36564 28
29252 36561 36565 28
29253 36566 36567 28
29254 36566 36568 28
29255 36566 36569 28
29256 36566 36570 28
29257 36571 36572 28
29258 36571 36573 28
29259 36571 36574 28
29260 36571 36575 28
29261 36576 36577 28
29262 36576 36578 28
29263 36576 36579 28
29264 36576 36580 28
29265 36581 36582 28
29266 36581 36583 28
29267 36581 36584 28
29268 36581 36585 28
29269 36586 36587 28
29270 36586 36588 28
29271 36586 36589 28
29272 36586 36590 28
29273 36591 36592 28
29274 36591 36593 28
29275 36591 36594 28
29276 36591 36595 28
29277 36596 36597 28
29278 36596 36598 28
29279 36596 36599 28
29280 36596 36600 28
29281 36601 36602 28
29282 36601 36603 28
29283 36601 36604 28
29284 36601 36605 28
29285 36606 36607 28
29286 36606 36608 28
29287 36606 36609 28
29288 36606 36610 28
29289 36611 36612 28
29290 36611 36613 28
29291 36611 36614 28
29292 36611 36615 28
29293 36616 36617 28
29294 36616 36618 28
29295 36616 36619 28
29296 36616 36620 28
29297 36621 36622 28
29298 36621 36623 28
29299 36621 36624 28
29300 36621 36625 28
29301 36626 36627 28
29302 36626 36628 28
29303 36626 36629 28
29304 36626 36630 28
29305 36631 36632 28
29306 36631 36633 28
29307 36631 36634 28
29308 36631 36635 28
29309 36636 36637 28
29310 36636 36638 28
29311 36636 36639 28
29312 36636 36640 28
29313 36641 36642 28
29314 36641 36643 28
29315 36641 36644 28
29316 36641 36645 28
29317 36646 36647 28
29318 36646 36648 28
29319 36646 36649 28
29320 36646 36650 28
29321 36651 36652 28
29322 36651 36653 28
29323 36651 36654 28
29324 36651 36655 28
29325 36656 36657 28
29326 36656 36658 28
29327 36656 36659 28
29328 36656 36660 28
29329 36661 36662 28
29330 36661 36663 28
29331 36661 36664 28
29332 36661 36665 28
29333 36666 36667 28
29334 36666 36668 28
29335 36666 36669 28
29336 36666 36670 28
29337 36671 36672 28
29338 36671 36673 28
29339 36671 36674 28
29340 36671 36675 28
29341 36676 36677 28
29342 36676 36678 28
29343 36676 36679 28
29344 36676 36680 28
29345 36681 36682 28
29346 36681 36683 28
29347 36681 36684 28
29348 36681 36685 28
29349 36686 36687 28
29350 36686 36688 28
29351 36686 36689 28
29352 36686 36690 28
29353 36691 36692 28
29354 36691 36693 28
29355 36691 36694 28
29356 36691 36695 28
29357 36696 36697 28
29358 36696 36698 28
29359 36696 36699 28
29360 36696 36700 28
29361 36701 36702 28
29362 36701 36703 28
29363 36701 36704 28
29364 36701 36705 28
29365 36706 36707 28
29366 36706 36708 28
29367 36706 36709 28
29368 36706 36710 28
29369 36711 36712 28
29370 36711 36713 28
29371 36711 36714 28
29372 36711 36715 28
29373 36716 36717 28
29374 36716 36718 28
29375 36716 36719 28
29376 36716 36720 28
29377 36721 36722 28
29378 36721 36723 28
29379 36721 36724 28
29380 36721 36725 28
29381 36726 36727 28
29382 36726 36728 28
29383 36726 36729 28
29384 36726 36730 28
29385 36731 36732 28
29386 36731 36733 28
29387 36731 36734 28
29388 36731 36735 28
29389 36736 36737 28
29390 36736 36738 28
29391 36736 36739 28
29392 36736 36740 28
29393 36741 36742 28
29394 36741 36743 28
29395 36741 36744 28
29396 36741 36745 28
29397 36746 36747 28
29398 36746 36748 28
29399 36746 36749 28
29400 36746 36750 28
29401 36751 36752 28
29402 36751 36753 28
29403 36751 36754 28
29404 36751 36755 28
29405 36756 36757 28
29406 36756 36758 28
29407 36756 36759 28
29408 36756 36760 28
29409 36761 36762 28
29410 36761 36763 28
29411 36761 36764 28
29412 36761 36765 28
29413 36766 36767 28
29414 36766 36768 28
29415 36766 36769 28
29416 36766 36770 28
29417 36771 36772 28
29418 36771 36773 28
29419 36771 36774 28
29420 36771 36775 28
29421 36776 36777 28
29422 36776 36778 28
29423 36776 36779 28
29424 36776 36780 28
29425 36781 36782 28
29426 36781 36783 28
29427 36781 36784 28
29428 36781 36785 28
29429 36786 36787 28
29430 36786 36788 28
29431 36786 36789 28
29432 36786 36790 28
29433 36791 36792 28
29434 36791 36793 28
29435 36791 36794 28
29436 36791 36795 28
29437 36796 36797 28
29438 36796 36798 28
29439 36796 36799 28
29440 36796 36800 28
29441 36801 36802 28
29442 36801 36803 28
29443 36801 36804 28
29444 36801 36805 28
29445 36806 36807 28
29446 36806 36808 28
29447 36806 36809 28
29448 36806 36810 28
29449 36811 36812 28
29450 36811 36813 28
29451 36811 36814 28
29452 36811 36815 28
29453 36816 36817 28
29454 36816 36818 28
29455 36816 36819 28
29456 36816 36820 28
29457 36821 36822 28
29458 36821 36823 28
29459 36821 36824 28
29460 36821 36825 28
29461 36826 36827 28
29462 36826 36828 28
29463 36826 36829 28
29464 36826 36830 28
29465 36831 36832 28
29466 36831 36833 28
29467 36831 36834 28
29468 36831 36835 28
29469 36836 36837 28
29470 36836 36838 28
29471 36836 36839 28
29472 36836 36840 28
29473 36841 36842 28
29474 36841 36843 28
29475 36841 36844 28
29476 36841 36845 28
29477 36846 36847 28
29478 36846 36848 28
29479 36846 36849 28
29480 36846 36850 28
29481 36851 36852 28
29482 36851 36853 28
29483 36851 36854 28
29484 36851 36855 28
29485 36856 36857 28
29486 36856 36858 28
29487 36856 36859 28
29488 36856 36860 28
29489 36861 36862 28
29490 36861 36863 28
29491 36861 36864 28
29492 36861 36865 28
29493 36866 36867 28
29494 36866 36868 28
29495 36866 36869 28
29496 36866 36870 28
29497 36871 36872 28
29498 36871 36873 28
29499 36871 36874 28
29500 36871 36875 28
29501 36876 36877 28
29502 36876 36878 28
29503 36876 36879 28
29504 36876 36880 28
29505 36881 36882 28
29506 36881 36883 28
29507 36881 36884 28
29508 36881 36885 28
29509 36886 36887 28
29510 36886 36888 28
29511 36886 36889 28
29512 36886 36890 28
29513 36891 36892 28
29514 36891 36893 28
29515 36891 36894 28
29516 36891 36895 28
29517 36896 36897 28
29518 36896 36898 28
29519 36896 36899 28
29520 36896 36900 28
29521 36901 36902 28
29522 36901 36903 28
29523 36901 36904 28
29524 36901 36905 28
29525 36906 36907 28
29526 36906 36908 28
29527 36906 36909 28
29528 36906 36910 28
29529 36911 36912 28
29530 36911 36913 28
29531 36911 36914 28
29532 36911 36915 28
29533 36916 36917 28
29534 36916 36918 28
29535 36916 36919 28
29536 36916 36920 28
29537 36921 36922 28
29538 36921 36923 28
29539 36921 36924 28
29540 36921 36925 28
29541 36926 36927 28
29542 36926 36928 28
29543 36926 36929 28
29544 36926 36930 28
29545 36931 36932 28
29546 36931 36933 28
29547 36931 36934 28
29548 36931 36935 28
29549 36936 36937 28
29550 36936 36938 28
29551 36936 36939 28
29552 36936 36940 28
29553 36941 36942 28
29554 36941 36943 28
29555 36941 36944 28
29556 36941 36945 28
29557 36946 36947 28
29558 36946 36948 28
29559 36946 36949 28
29560 36946 36950 28
29561 36951 36952 28
29562 36951 36953 28
29563 36951 36954 28
29564 36951 36955 28
29565 36956 36957 28
29566 36956 36958 28
29567 36956 36959 28
29568 36956 36960 28
29569 36961 36962 28
29570 36961 36963 28
29571 36961 36964 28
29572 36961 36965 28
29573 36966 36967 28
29574 36966 36968 28
29575 36966 36969 28
29576 36966 36970 28
29577 36971 36972 28
29578 36971 36973 28
29579 36971 36974 28
29580 36971 36975 28
29581 36976 36977 28
29582 36976 36978 28
29583 36976 36979 28
29584 36976 36980 28
29585 36981 36982 28
29586 36981 36983 28
29587 36981 36984 28
29588 36981 36985 28
29589 36986 36987 28
29590 36986 36988 28
29591 36986 36989 28
29592 36986 36990 28
29593 36991 36992 28
29594 36991 36993 28
29595 36991 36994 28
29596 36991 36995 28
29597 36996 36997 28
29598 36996 36998 28
29599 36996 36999 28
29600 36996 37000 28
29601 37001 37002 28
29602 37001 37003 28
29603 37001 37004 28
29604 37001 37005 28
29605 37006 37007 28
29606 37006 37008 28
29607 37006 37009 28
29608 37006 37010 28
29609 37011 37012 28
29610 37011 37013 28
29611 37011 37014 28
29612 37011 37015 28
29613 37016 37017 28
29614 37016 37018 28
29615 37016 37019 28
29616 37016 37020 28
29617 37021 37022 28
29618 37021 37023 28
29619 37021 37024 28
29620 37021 37025 28
29621 37026 37027 28
29622 37026 37028 28
29623 37026 37029 28
29624 37026 37030 28
29625 37031 37032 28
29626 37031 37033 28
29627 37031 37034 28
29628 37031 37035 28
29629 37036 37037 28
29630 37036 37038 28
29631 37036 37039 28
29632 37036 37040 28
29633 37041 37042 28
29634 37041 37043 28
29635 37041 37044 28
29636 37041 37045 28
29637 37046 37047 28
29638 37046 37048 28
29639 37046 37049 28
29640 37046 37050 28
29641 37051 37052 28
29642 37051 37053 28
29643 37051 37054 28
29644 37051 37055 28
29645 37056 37057 28
29646 37056 37058 28
29647 37056 37059 28
29648 37056 37060 28
29649 37061 37062 28
29650 37061 37063 28
29651 37061 37064 28
29652 37061 37065 28
29653 37066 37067 28
29654 37066 37068 28
29655 37066 37069 28
29656 37066 37070 28
29657 37071 37072 28
29658 37071 37073 28
29659 37071 37074 28
29660 37071 37075 28
29661 37076 37077 28
29662 37076 37078 28
29663 37076 37079 28
29664 37076 37080 28
29665 37081 37082 28
29666 37081 37083 28
29667 37081 37084 28
29668 37081 37085 28
29669 37086 37087 28
29670 37086 37088 28
29671 37086 37089 28
29672 37086 37090 28
29673 37091 37092 28
29674 37091 37093 28
29675 37091 37094 28
29676 37091 37095 28
29677 37096 37097 28
29678 37096 37098 28
29679 37096 37099 28
29680 37096 37100 28
29681 37101 37102 28
29682 37101 37103 28
29683 37101 37104 28
29684 37101 37105 28
29685 37106 37107 28
29686 37106 37108 28
29687 37106 37109 28
29688 37106 37110 28
29689 37111 37112 28
29690 37111 37113 28
29691 37111 37114 28
29692 37111 37115 28
29693 37116 37117 28
29694 37116 37118 28
29695 37116 37119 28
29696 37116 37120 28
29697 37121 37122 28
29698 37121 37123 28
29699 37121 37124 28
29700 37121 37125 28
29701 37126 37127 28
29702 37126 37128 28
29703 37126 37129 28
29704 37126 37130 28
29705 37131 37132 28
29706 37131 37133 28
29707 37131 37134 28
29708 37131 37135 28
29709 37136 37137 28
29710 37136 37138 28
29711 37136 37139 28
29712 37136 37140 28
29713 37141 37142 28
29714 37141 37143 28
29715 37141 37144 28
29716 37141 37145 28
29717 37146 37147 28
29718 37146 37148 28
29719 37146 37149 28
29720 37146 37150 28
29721 37151 37152 28
29722 37151 37153 28
29723 37151 37154 28
29724 37151 37155 28
29725 37156 37157 28
29726 37156 37158 28
29727 37156 37159 28
29728 37156 37160 28
29729 37161 37162 28
29730 37161 37163 28
29731 37161 37164 28
29732 37161 37165 28
29733 37166 37167 28
29734 37166 37168 28
29735 37166 37169 28
29736 37166 37170 28
29737 37171 37172 28
29738 37171 37173 28
29739 37171 37174 28
29740 37171 37175 28
29741 37176 37177 28
29742 37176 37178 28
29743 37176 37179 28
29744 37176 37180 28
29745 37181 37182 28
29746 37181 37183 28
29747 37181 37184 28
29748 37181 37185 28
29749 37186 37187 28
29750 37186 37188 28
29751 37186 37189 28
29752 37186 37190 28
29753 37191 37192 28
29754 37191 37193 28
29755 37191 37194 28
29756 37191 37195 28
29757 37196 37197 28
29758 37196 37198 28
29759 37196 37199 28
29760 37196 37200 28
29761 37201 37202 28
29762 37201 37203 28
29763 37201 37204 28
29764 37201 37205 28
29765 37206 37207 28
29766 37206 37208 28
29767 37206 37209 28
29768 37206 37210 28
29769 37211 37212 28
29770 37211 37213 28
29771 37211 37214 28
29772 37211 37215 28
29773 37216 37217 28
29774 37216 37218 28
29775 37216 37219 28
29776 37216 37220 28
29777 37221 37222 28
29778 37221 37223 28
29779 37221 37224 28
29780 37221 37225 28
29781 37226 37227 28
29782 37226 37228 28
29783 37226 37229 28
29784 37226 37230 28
29785 37231 37232 28
29786 37231 37233 28
29787 37231 37234 28
29788 37231 37235 28
29789 37236 37237 28
29790 37236 37238 28
29791 37236 37239 28
29792 37236 37240 28
29793 37241 37242 28
29794 37241 37243 28
29795 37241 37244 28
29796 37241 37245 28
29797 37246 37247 28
29798 37246 37248 28
29799 37246 37249 28
29800 37246 37250 28
29801 37251 37252 28
29802 37251 37253 28
29803 37251 37254 28
29804 37251 37255 28
29805 37256 37257 28
29806 37256 37258 28
29807 37256 37259 28
29808 37256 37260 28
29809 37261 37262 28
29810 37261 37263 28
29811 37261 37264 28
29812 37261 37265 28
29813 37266 37267 28
29814 37266 37268 28
29815 37266 37269 28
29816 37266 37270 28
29817 37271 37272 28
29818 37271 37273 28
29819 37271 37274 28
29820 37271 37275 28
29821 37276 37277 28
29822 37276 37278 28
29823 37276 37279 28
29824 37276 37280 28
29825 37281 37282 28
29826 37281 37283 28
29827 37281 37284 28
29828 37281 37285 28
29829 37286 37287 28
29830 37286 37288 28
29831 37286 37289 28
29832 37286 37290 28
29833 37291 37292 28
29834 37291 37293 28
29835 37291 37294 28
29836 37291 37295 28
29837 37296 37297 28
29838 37296 37298 28
29839 37296 37299 28
29840 37296 37300 28
29841 37301 37302 28
29842 37301 37303 28
29843 37301 37304 28
29844 37301 37305 28
29845 37306 37307 28
29846 37306 37308 28
29847 37306 37309 28
29848 37306 37310 28
29849 37311 37312 28
29850 37311 37313 28
29851 37311 37314 28
29852 37311 37315 28
29853 37316 37317 28
29854 37316 37318 28
29855 37316 37319 28
29856 37316 37320 28
29857 37321 37322 28
29858 37321 37323 28
29859 37321 37324 28
29860 37321 37325 28
29861 37326 37327 28
29862 37326 37328 28
29863 37326 37329 28
29864 37326 37330 28
29865 37331 37332 28
29866 37331 37333 28
29867 37331 37334 28
29868 37331 37335 28
29869 37336 37337 28
29870 37336 37338 28
29871 37336 37339 28
29872 37336 37340 28
29873 37341 37342 28
29874 37341 37343 28
29875 37341 37344 28
29876 37341 37345 28
29877 37346 37347 28
29878 37346 37348 28
29879 37346 37349 28
29880 37346 37350 28
29881 37351 37352 28
29882 37351 37353 28
29883 37351 37354 28
29884 37351 37355 28
29885 37356 37357 28
29886 37356 37358 28
29887 37356 37359 28
29888 37356 37360 28
29889 37361 37362 28
29890 37361 37363 28
29891 37361 37364 28
29892 37361 37365 28
29893 37366 37367 28
29894 37366 37368 28
29895 37366 37369 28
29896 37366 37370 28
29897 37371 37372 28
29898 37371 37373 28
29899 37371 37374 28
29900 37371 37375 28
29901 37376 37377 28
29902 37376 37378 28
29903 37376 37379 28
29904 37376 37380 28
29905 37381 37382 28
29906 37381 37383 28
29907 37381 37384 28
29908 37381 37385 28
29909 37386 37387 28
29910 37386 37388 28
29911 37386 37389 28
29912 37386 37390 28
29913 37391 37392 28
29914 37391 37393 28
29915 37391 37394 28
29916 37391 37395 28
29917 37396 37397 28
29918 37396 37398 28
29919 37396 37399 28
29920 37396 37400 28
29921 37401 37402 28
29922 37401 37403 28
29923 37401 37404 28
29924 37401 37405 28
29925 37406 37407 28
29926 37406 37408 28
29927 37406 37409 28
29928 37406 37410 28
29929 37411 37412 28
29930 37411 37413 28
29931 37411 37414 28
29932 37411 37415 28
29933 37416 37417 28
29934 37416 37418 28
29935 37416 37419 28
29936 37416 37420 28
29937 37421 37422 28
29938 37421 37423 28
29939 37421 37424 28
29940 37421 37425 28
29941 37426 37427 28
29942 37426 37428 28
29943 37426 37429 28
29944 37426 37430 28
29945 37431 37432 28
29946 37431 37433 28
29947 37431 37434 28
29948 37431 37435 28
29949 37436 37437 28
29950 37436 37438 28
29951 37436 37439 28
29952 37436 37440 28
29953 37441 37442 28
29954 37441 37443 28
29955 37441 37444 28
29956 37441 37445 28
29957 37446 37447 28
29958 37446 37448 28
29959 37446 37449 28
29960 37446 37450 28
29961 37451 37452 28
29962 37451 37453 28
29963 37451 37454 28
29964 37451 37455 28
29965 37456 37457 28
29966 37456 37458 28
29967 37456 37459 28
29968 37456 37460 28
29969 37461 37462 28
29970 37461 37463 28
29971 37461 37464 28
29972 37461 37465 28
29973 37466 37467 28
29974 37466 37468 28
29975 37466 37469 28
29976 37466 37470 28
29977 37471 37472 28
29978 37471 37473 28
29979 37471 37474 28
29980 37471 37475 28
29981 37476 37477 28
29982 37476 37478 28
29983 37476 37479 28
29984 37476 37480 28
29985 37481 37482 28
29986 37481 37483 28
29987 37481 37484 28
29988 37481 37485 28
29989 37486 37487 28
29990 37486 37488 28
29991 37486 37489 28
29992 37486 37490 28
29993 37491 37492 28
29994 37491 37493 28
29995 37491 37494 28
29996 37491 37495 28
29997 37496 37497 28
29998 37496 37498 28
29999 37496 37499 28
30000 37496 37500 28
@<TRIPOS>CRYSIN
150.44797431023974 150.44797431023974 150.44797431023974 90 90 90 1 1
