@<TRIPOS>MOLECULE
CH4
5 4
SMALL
USER_CHARGES


@<TRIPOS>ATOM
1 C 95.002 71.39 10.872 C 0.0 **** 0.0
2 H 95.811 70.728 11.18 H 0.0 **** 0.0
3 H 94.97 71.443 9.784 H 0.0 **** 0.0
4 H 95.173 72.386 11.28 H 0.0 **** 0.0
5 H 94.054 71.002 11.245 H 0.0 **** 0.0
@<TRIPOS>BOND
1 1 2 1
2 1 3 1
3 1 4 1
4 1 5 1
@<TRIPOS>MOLECULE
CH4
5 4
SMALL
USER_CHARGES


@<TRIPOS>ATOM
1 C 56.039 68.284 32.02 C 0.0 **** 0.0
2 H 55.528 68.953 31.328 H 0.0 **** 0.0
3 H 55.824 67.249 31.752 H 0.0 **** 0.0
4 H 55.69 68.476 33.035 H 0.0 **** 0.0
5 H 57.114 68.458 31.966 H 0.0 **** 0.0
@<TRIPOS>BOND
1 1 2 1
2 1 3 1
3 1 4 1
4 5 1 1
@<TRIPOS>MOLECULE
CH4
5 4
SMALL
USER_CHARGES


@<TRIPOS>ATOM
1 C 35.236 4.25 31.586 C 0.0 **** 0.0
2 H 35.831 3.909 30.739 H 0.0 **** 0.0
3 H 35.835 4.92 32.204 H 0.0 **** 0.0
4 H 34.924 3.391 32.18 H 0.0 **** 0.0
5 H 34.356 4.78 31.222 H 0.0 **** 0.0
@<TRIPOS>BOND
1 1 3 1
2 1 4 1
3 1 5 1
4 1 2 1
@<TRIPOS>MOLECULE
CH4
5 4
SMALL
USER_CHARGES


@<TRIPOS>ATOM
1 C 80.719 59.783 39.551 C 0.0 **** 0.0
2 H 80.436 59.666 38.505 H 0.0 **** 0.0
3 H 79.854 60.112 40.127 H 0.0 **** 0.0
4 H 81.514 60.525 39.631 H 0.0 **** 0.0
5 H 81.073 58.828 39.94 H 0.0 **** 0.0
@<TRIPOS>BOND
1 1 2 1
2 1 3 1
3 1 4 1
4 1 5 1
@<TRIPOS>MOLECULE
CH4
5 4
SMALL
USER_CHARGES


@<TRIPOS>ATOM
1 C 13.787 62.742 6.917 C 0.0 **** 0.0
2 H 13.842 62.957 5.85 H 0.0 **** 0.0
3 H 14.135 63.608 7.481 H 0.0 **** 0.0
4 H 14.415 61.882 7.147 H 0.0 **** 0.0
5 H 12.755 62.522 7.19 H 0.0 **** 0.0
@<TRIPOS>BOND
1 1 2 1
2 1 3 1
3 1 4 1
4 1 5 1
@<TRIPOS>MOLECULE
CH4
5 4
SMALL
USER_CHARGES


@<TRIPOS>ATOM
1 C 97.008 86.632 14.251 C 0.0 **** 0.0
2 H 96.845 87.185 15.177 H 0.0 **** 0.0
3 H 96.414 87.078 13.453 H 0.0 **** 0.0
4 H 96.709 85.594 14.391 H 0.0 **** 0.0
5 H 98.064 86.674 13.986 H 0.0 **** 0.0
@<TRIPOS>BOND
1 1 2 1
2 1 3 1
3 1 4 1
4 1 5 1
@<TRIPOS>MOLECULE
CH4
5 4
SMALL
USER_CHARGES


@<TRIPOS>ATOM
1 C 88.401 85.489 75.71 C 0.0 **** 0.0
2 H 89.117 86.284 75.92 H 0.0 **** 0.0
3 H 87.393 85.903 75.694 H 0.0 **** 0.0
4 H 88.469 84.725 76.484 H 0.0 **** 0.0
5 H 88.627 85.045 74.74 H 0.0 **** 0.0
@<TRIPOS>BOND
1 1 2 1
2 1 3 1
3 1 4 1
4 1 5 1
@<TRIPOS>MOLECULE
CH4
5 4
SMALL
USER_CHARGES


@<TRIPOS>ATOM
1 C 61.07 89.499 69.202 C 0.0 **** 0.0
2 H 61.084 89.501 70.292 H 0.0 **** 0.0
3 H 60.471 88.66 68.848 H 0.0 **** 0.0
4 H 62.089 89.403 68.826 H 0.0 **** 0.0
5 H 60.637 90.433 68.843 H 0.0 **** 0.0
@<TRIPOS>BOND
1 1 2 1
2 1 3 1
3 1 4 1
4 1 5 1
@<TRIPOS>MOLECULE
CH4
5 4
SMALL
USER_CHARGES


@<TRIPOS>ATOM
1 C 87.771 15.853 87.382 C 0.0 **** 0.0
2 H 87.504 16.863 87.074 H 0.0 **** 0.0
3 H 88.815 15.831 87.695 H 0.0 **** 0.0
4 H 87.627 15.168 86.546 H 0.0 **** 0.0
5 H 87.136 15.548 88.214 H 0.0 **** 0.0
@<TRIPOS>BOND
1 1 2 1
2 1 3 1
3 1 4 1
4 1 5 1
@<TRIPOS>MOLECULE
CH4
5 4
SMALL
USER_CHARGES


@<TRIPOS>ATOM
1 C 61.677 13.364 88.652 C 0.0 **** 0.0
2 H 61.793 13.708 87.624 H 0.0 **** 0.0
3 H 61.332 14.19 89.274 H 0.0 **** 0.0
4 H 62.636 13.004 89.024 H 0.0 **** 0.0
5 H 60.948 12.555 88.684 H 0.0 **** 0.0
@<TRIPOS>BOND
1 1 2 1
2 1 3 1
3 1 4 1
4 1 5 1
@<TRIPOS>MOLECULE
CH4
5 4
SMALL
USER_CHARGES


@<TRIPOS>ATOM
1 C 65.904 31.855 39.542 C 0.0 **** 0.0
2 H 65.59 31.387 40.475 H 0.0 **** 0.0
3 H 66.552 32.703 39.762 H 0.0 **** 0.0
4 H 65.025 32.2 38.996 H 0.0 **** 0.0
5 H 66.446 31.129 38.936 H 0.0 **** 0.0
@<TRIPOS>BOND
1 1 5 1
2 1 2 1
3 1 3 1
4 1 4 1
@<TRIPOS>MOLECULE
CH4
5 4
SMALL
USER_CHARGES


@<TRIPOS>ATOM
1 C 74.609 97.995 80.0 C 0.0 **** 0.0
2 H 73.662 97.709 79.541 H 0.0 **** 0.0
3 H 75.051 98.817 79.437 H 0.0 **** 0.0
4 H 75.287 97.142 79.993 H 0.0 **** 0.0
5 H 74.432 98.311 81.028 H 0.0 **** 0.0
@<TRIPOS>BOND
1 1 2 1
2 1 3 1
3 1 4 1
4 1 5 1
@<TRIPOS>MOLECULE
CH4
5 4
SMALL
USER_CHARGES


@<TRIPOS>ATOM
1 C 46.084 34.193 94.853 C 0.0 **** 0.0
2 H 45.351 34.999 94.817 H 0.0 **** 0.0
3 H 46.704 34.226 93.958 H 0.0 **** 0.0
4 H 45.567 33.235 94.903 H 0.0 **** 0.0
5 H 46.712 34.314 95.736 H 0.0 **** 0.0
@<TRIPOS>BOND
1 1 2 1
2 1 3 1
3 1 4 1
4 1 5 1
@<TRIPOS>MOLECULE
CH4
5 4
SMALL
USER_CHARGES


@<TRIPOS>ATOM
1 C 56.094 86.444 69.75 C 0.0 **** 0.0
2 H 55.995 86.323 70.829 H 0.0 **** 0.0
3 H 55.137 86.231 69.272 H 0.0 **** 0.0
4 H 56.85 85.754 69.375 H 0.0 **** 0.0
5 H 56.392 87.468 69.526 H 0.0 **** 0.0
@<TRIPOS>BOND
1 1 2 1
2 1 3 1
3 1 4 1
4 1 5 1
@<TRIPOS>MOLECULE
CH4
5 4
SMALL
USER_CHARGES


@<TRIPOS>ATOM
1 C 13.276 2.422 31.909 C 0.0 **** 0.0
2 H 13.555 3.322 31.361 H 0.0 **** 0.0
3 H 12.906 1.672 31.21 H 0.0 **** 0.0
4 H 12.496 2.663 32.631 H 0.0 **** 0.0
5 H 14.148 2.031 32.433 H 0.0 **** 0.0
@<TRIPOS>BOND
1 1 2 1
2 1 3 1
3 1 4 1
4 1 5 1
@<TRIPOS>MOLECULE
CH4
5 4
SMALL
USER_CHARGES


@<TRIPOS>ATOM
1 C 17.959 34.268 71.824 C 0.0 **** 0.0
2 H 17.67 35.245 72.213 H 0.0 **** 0.0
3 H 17.619 34.172 70.793 H 0.0 **** 0.0
4 H 17.503 33.486 72.432 H 0.0 **** 0.0
5 H 19.044 34.17 71.86 H 0.0 **** 0.0
@<TRIPOS>BOND
1 1 2 1
2 1 3 1
3 1 4 1
4 1 5 1
@<TRIPOS>MOLECULE
CH4
5 4
SMALL
USER_CHARGES


@<TRIPOS>ATOM
1 C 60.78 65.338 63.493 C 0.0 **** 0.0
2 H 60.176 65.846 64.246 H 0.0 **** 0.0
3 H 60.14 64.701 62.883 H 0.0 **** 0.0
4 H 61.537 64.729 63.987 H 0.0 **** 0.0
5 H 61.267 66.079 62.859 H 0.0 **** 0.0
@<TRIPOS>BOND
1 1 2 1
2 1 3 1
3 1 4 1
4 1 5 1
@<TRIPOS>MOLECULE
CH4
5 4
SMALL
USER_CHARGES


@<TRIPOS>ATOM
1 C 4.358 80.244 17.886 C 0.0 **** 0.0
2 H 4.177 79.185 18.068 H 0.0 **** 0.0
3 H 4.029 80.822 18.75 H 0.0 **** 0.0
4 H 3.802 80.56 17.003 H 0.0 **** 0.0
5 H 5.423 80.408 17.722 H 0.0 **** 0.0
@<TRIPOS>BOND
1 1 2 1
2 1 3 1
3 1 4 1
4 1 5 1
@<TRIPOS>MOLECULE
CH4
5 4
SMALL
USER_CHARGES


@<TRIPOS>ATOM
1 C 34.802 58.017 66.838 C 0.0 **** 0.0
2 H 35.814 58.421 66.868 H 0.0 **** 0.0
3 H 34.829 56.999 66.447 H 0.0 **** 0.0
4 H 34.182 58.638 66.192 H 0.0 **** 0.0
5 H 34.384 58.008 67.844 H 0.0 **** 0.0
@<TRIPOS>BOND
1 1 2 1
2 1 3 1
3 1 4 1
4 1 5 1
@<TRIPOS>MOLECULE
CH4
5 4
SMALL
USER_CHARGES


@<TRIPOS>ATOM
1 C 90.093 3.689 68.212 C 0.0 **** 0.0
2 H 89.835 3.238 67.253 H 0.0 **** 0.0
3 H 90.968 3.187 68.625 H 0.0 **** 0.0
4 H 89.254 3.584 68.9 H 0.0 **** 0.0
5 H 90.314 4.746 68.067 H 0.0 **** 0.0
@<TRIPOS>BOND
1 1 2 1
2 1 3 1
3 1 4 1
4 5 1 1
@<TRIPOS>MOLECULE
CH4
5 4
SMALL
USER_CHARGES


@<TRIPOS>ATOM
1 C 52.545 48.034 90.468 C 0.0 **** 0.0
2 H 53.364 48.489 89.912 H 0.0 **** 0.0
3 H 51.595 48.332 90.025 H 0.0 **** 0.0
4 H 52.583 48.366 91.506 H 0.0 **** 0.0
5 H 52.64 46.949 90.43 H 0.0 **** 0.0
@<TRIPOS>BOND
1 1 2 1
2 1 3 1
3 1 4 1
4 1 5 1
@<TRIPOS>MOLECULE
CH4
5 4
SMALL
USER_CHARGES


@<TRIPOS>ATOM
1 C 66.621 1.409 69.902 C 0.0 **** 0.0
2 H 66.265 1.797 68.947 H 0.0 **** 0.0
3 H 66.869 0.353 69.795 H 0.0 **** 0.0
4 H 65.842 1.526 70.654 H 0.0 **** 0.0
5 H 67.509 1.962 70.21 H 0.0 **** 0.0
@<TRIPOS>BOND
1 1 2 1
2 1 3 1
3 1 5 1
4 1 4 1
@<TRIPOS>MOLECULE
CH4
5 4
SMALL
USER_CHARGES


@<TRIPOS>ATOM
1 C 13.19 96.389 90.427 C 0.0 **** 0.0
2 H 13.913 96.276 91.235 H 0.0 **** 0.0
3 H 12.218 96.651 90.845 H 0.0 **** 0.0
4 H 13.109 95.451 89.878 H 0.0 **** 0.0
5 H 13.52 97.179 89.752 H 0.0 **** 0.0
@<TRIPOS>BOND
1 1 2 1
2 1 3 1
3 1 4 1
4 1 5 1
@<TRIPOS>MOLECULE
CH4
5 4
SMALL
USER_CHARGES


@<TRIPOS>ATOM
1 C 54.618 40.302 84.092 C 0.0 **** 0.0
2 H 55.377 41.076 83.979 H 0.0 **** 0.0
3 H 53.721 40.735 84.537 H 0.0 **** 0.0
4 H 54.999 39.512 84.739 H 0.0 **** 0.0
5 H 54.374 39.886 83.115 H 0.0 **** 0.0
@<TRIPOS>BOND
1 1 2 1
2 1 3 1
3 1 4 1
4 1 5 1
@<TRIPOS>MOLECULE
CH4
5 4
SMALL
USER_CHARGES


@<TRIPOS>ATOM
1 C 6.505 75.151 69.649 C 0.0 **** 0.0
2 H 6.761 74.5 68.813 H 0.0 **** 0.0
3 H 7.341 75.19 70.348 H 0.0 **** 0.0
4 H 5.624 74.759 70.158 H 0.0 **** 0.0
5 H 6.294 76.154 69.278 H 0.0 **** 0.0
@<TRIPOS>BOND
1 1 2 1
2 1 3 1
3 1 4 1
4 1 5 1
@<TRIPOS>MOLECULE
CH4
5 4
SMALL
USER_CHARGES


@<TRIPOS>ATOM
1 C 2.092 45.003 73.669 C 0.0 **** 0.0
2 H 2.938 45.129 74.345 H 0.0 **** 0.0
3 H 1.165 45.008 74.243 H 0.0 **** 0.0
4 H 2.187 44.055 73.14 H 0.0 **** 0.0
5 H 2.078 45.822 72.949 H 0.0 **** 0.0
@<TRIPOS>BOND
1 1 2 1
2 1 3 1
3 1 4 1
4 1 5 1
@<TRIPOS>MOLECULE
CH4
5 4
SMALL
USER_CHARGES


@<TRIPOS>ATOM
1 C 79.654 60.104 5.223 C 0.0 **** 0.0
2 H 79.668 60.101 4.133 H 0.0 **** 0.0
3 H 79.654 61.133 5.583 H 0.0 **** 0.0
4 H 80.537 59.587 5.599 H 0.0 **** 0.0
5 H 78.757 59.595 5.576 H 0.0 **** 0.0
@<TRIPOS>BOND
1 1 2 1
2 1 3 1
3 1 4 1
4 1 5 1
@<TRIPOS>MOLECULE
CH4
5 4
SMALL
USER_CHARGES


@<TRIPOS>ATOM
1 C 94.529 9.493 7.608 C 0.0 **** 0.0
2 H 93.632 9.719 7.033 H 0.0 **** 0.0
3 H 94.355 8.607 8.22 H 0.0 **** 0.0
4 H 94.771 10.338 8.252 H 0.0 **** 0.0
5 H 95.359 9.306 6.927 H 0.0 **** 0.0
@<TRIPOS>BOND
1 1 2 1
2 1 3 1
3 1 4 1
4 1 5 1
@<TRIPOS>MOLECULE
CH4
5 4
SMALL
USER_CHARGES


@<TRIPOS>ATOM
1 C 92.496 21.516 69.26 C 0.0 **** 0.0
2 H 92.458 20.983 70.21 H 0.0 **** 0.0
3 H 91.482 21.748 68.933 H 0.0 **** 0.0
4 H 92.986 20.893 68.513 H 0.0 **** 0.0
5 H 93.058 22.442 69.386 H 0.0 **** 0.0
@<TRIPOS>BOND
1 1 2 1
2 1 3 1
3 1 4 1
4 1 5 1
@<TRIPOS>MOLECULE
CH4
5 4
SMALL
USER_CHARGES


@<TRIPOS>ATOM
1 C 45.763 55.19 62.576 C 0.0 **** 0.0
2 H 45.726 54.119 62.774 H 0.0 **** 0.0
3 H 46.657 55.613 63.036 H 0.0 **** 0.0
4 H 44.878 55.668 62.995 H 0.0 **** 0.0
5 H 45.793 55.359 61.5 H 0.0 **** 0.0
@<TRIPOS>BOND
1 1 2 1
2 1 3 1
3 1 4 1
4 1 5 1
@<TRIPOS>MOLECULE
CH4
5 4
SMALL
USER_CHARGES


@<TRIPOS>ATOM
1 C 32.528 3.495 72.171 C 0.0 **** 0.0
2 H 32.39 3.624 73.244 H 0.0 **** 0.0
3 H 31.977 4.271 71.638 H 0.0 **** 0.0
4 H 32.156 2.515 71.872 H 0.0 **** 0.0
5 H 33.588 3.571 71.929 H 0.0 **** 0.0
@<TRIPOS>BOND
1 1 2 1
2 1 3 1
3 1 4 1
4 1 5 1
@<TRIPOS>MOLECULE
CH4
5 4
SMALL
USER_CHARGES


@<TRIPOS>ATOM
1 C 52.124 34.567 98.256 C 0.0 **** 0.0
2 H 51.959 34.843 97.215 H 0.0 **** 0.0
3 H 52.851 35.247 98.701 H 0.0 **** 0.0
4 H 52.502 33.546 98.306 H 0.0 **** 0.0
5 H 51.183 34.633 98.802 H 0.0 **** 0.0
@<TRIPOS>BOND
1 1 2 1
2 1 3 1
3 1 4 1
4 1 5 1
@<TRIPOS>MOLECULE
CH4
5 4
SMALL
USER_CHARGES


@<TRIPOS>ATOM
1 C 84.468 64.275 34.626 C 0.0 **** 0.0
2 H 85.5 63.927 34.645 H 0.0 **** 0.0
3 H 84.143 64.394 33.592 H 0.0 **** 0.0
4 H 84.399 65.233 35.142 H 0.0 **** 0.0
5 H 83.829 63.547 35.126 H 0.0 **** 0.0
@<TRIPOS>BOND
1 1 2 1
2 1 3 1
3 1 4 1
4 1 5 1
@<TRIPOS>MOLECULE
CH4
5 4
SMALL
USER_CHARGES


@<TRIPOS>ATOM
1 C 7.461 24.545 19.612 C 0.0 **** 0.0
2 H 7.439 24.474 20.7 H 0.0 **** 0.0
3 H 6.845 25.386 19.292 H 0.0 **** 0.0
4 H 7.072 23.624 19.18 H 0.0 **** 0.0
5 H 8.487 24.698 19.279 H 0.0 **** 0.0
@<TRIPOS>BOND
1 1 2 1
2 1 3 1
3 1 4 1
4 1 5 1
@<TRIPOS>MOLECULE
CH4
5 4
SMALL
USER_CHARGES


@<TRIPOS>ATOM
1 C 69.561 93.599 21.573 C 0.0 **** 0.0
2 H 68.846 94.414 21.461 H 0.0 **** 0.0
3 H 69.062 92.735 22.012 H 0.0 **** 0.0
4 H 70.376 93.917 22.223 H 0.0 **** 0.0
5 H 69.96 93.329 20.595 H 0.0 **** 0.0
@<TRIPOS>BOND
1 1 2 1
2 1 3 1
3 1 4 1
4 1 5 1
@<TRIPOS>MOLECULE
CH4
5 4
SMALL
USER_CHARGES


@<TRIPOS>ATOM
1 C 23.272 98.272 45.502 C 0.0 **** 0.0
2 H 22.698 97.954 46.373 H 0.0 **** 0.0
3 H 22.693 98.998 44.931 H 0.0 **** 0.0
4 H 23.488 97.407 44.875 H 0.0 **** 0.0
5 H 24.206 98.727 45.829 H 0.0 **** 0.0
@<TRIPOS>BOND
1 1 5 1
2 1 2 1
3 1 3 1
4 1 4 1
@<TRIPOS>MOLECULE
CH4
5 4
SMALL
USER_CHARGES


@<TRIPOS>ATOM
1 C 8.153 87.159 15.466 C 0.0 **** 0.0
2 H 7.708 87.12 16.461 H 0.0 **** 0.0
3 H 8.043 88.164 15.058 H 0.0 **** 0.0
4 H 7.649 86.445 14.815 H 0.0 **** 0.0
5 H 9.211 86.907 15.532 H 0.0 **** 0.0
@<TRIPOS>BOND
1 1 2 1
2 1 3 1
3 1 4 1
4 1 5 1
@<TRIPOS>MOLECULE
CH4
5 4
SMALL
USER_CHARGES


@<TRIPOS>ATOM
1 C 59.099 82.003 77.283 C 0.0 **** 0.0
2 H 58.165 82.516 77.051 H 0.0 **** 0.0
3 H 59.554 82.459 78.163 H 0.0 **** 0.0
4 H 59.78 82.088 76.437 H 0.0 **** 0.0
5 H 58.896 80.951 77.482 H 0.0 **** 0.0
@<TRIPOS>BOND
1 1 2 1
2 1 3 1
3 1 4 1
4 1 5 1
@<TRIPOS>MOLECULE
CH4
5 4
SMALL
USER_CHARGES


@<TRIPOS>ATOM
1 C 12.872 57.269 19.503 C 0.0 **** 0.0
2 H 12.103 57.989 19.782 H 0.0 **** 0.0
3 H 12.993 57.27 18.419 H 0.0 **** 0.0
4 H 12.577 56.274 19.836 H 0.0 **** 0.0
5 H 13.816 57.545 19.974 H 0.0 **** 0.0
@<TRIPOS>BOND
1 1 2 1
2 1 3 1
3 1 4 1
4 1 5 1
@<TRIPOS>MOLECULE
CH4
5 4
SMALL
USER_CHARGES


@<TRIPOS>ATOM
1 C 64.546 62.074 48.364 C 0.0 **** 0.0
2 H 64.947 61.998 47.353 H 0.0 **** 0.0
3 H 65.246 61.621 49.067 H 0.0 **** 0.0
4 H 63.59 61.551 48.415 H 0.0 **** 0.0
5 H 64.4 63.123 48.619 H 0.0 **** 0.0
@<TRIPOS>BOND
1 1 2 1
2 1 3 1
3 1 4 1
4 1 5 1
@<TRIPOS>MOLECULE
CH4
5 4
SMALL
USER_CHARGES


@<TRIPOS>ATOM
1 C 83.193 14.536 10.827 C 0.0 **** 0.0
2 H 82.586 13.766 11.303 H 0.0 **** 0.0
3 H 84.244 14.365 11.06 H 0.0 **** 0.0
4 H 82.893 15.516 11.198 H 0.0 **** 0.0
5 H 83.048 14.496 9.747 H 0.0 **** 0.0
@<TRIPOS>BOND
1 1 2 1
2 1 3 1
3 1 4 1
4 1 5 1
@<TRIPOS>MOLECULE
CH4
5 4
SMALL
USER_CHARGES


@<TRIPOS>ATOM
1 C 55.964 61.813 84.153 C 0.0 **** 0.0
2 H 55.87 62.022 83.087 H 0.0 **** 0.0
3 H 55.061 62.139 84.668 H 0.0 **** 0.0
4 H 56.825 62.349 84.553 H 0.0 **** 0.0
5 H 56.102 60.742 84.301 H 0.0 **** 0.0
@<TRIPOS>BOND
1 1 2 1
2 1 3 1
3 1 4 1
4 1 5 1
@<TRIPOS>MOLECULE
CH4
5 4
SMALL
USER_CHARGES


@<TRIPOS>ATOM
1 C 50.792 93.482 42.887 C 0.0 **** 0.0
2 H 51.17 94.504 42.916 H 0.0 **** 0.0
3 H 49.729 93.495 42.648 H 0.0 **** 0.0
4 H 50.941 93.012 43.859 H 0.0 **** 0.0
5 H 51.329 92.917 42.125 H 0.0 **** 0.0
@<TRIPOS>BOND
1 1 2 1
2 1 3 1
3 1 4 1
4 1 5 1
@<TRIPOS>MOLECULE
CH4
5 4
SMALL
USER_CHARGES


@<TRIPOS>ATOM
1 C 76.406 4.802 70.511 C 0.0 **** 0.0
2 H 75.702 4.081 70.926 H 0.0 **** 0.0
3 H 76.779 4.437 69.554 H 0.0 **** 0.0
4 H 77.24 4.934 71.201 H 0.0 **** 0.0
5 H 75.902 5.758 70.364 H 0.0 **** 0.0
@<TRIPOS>BOND
1 1 2 1
2 1 3 1
3 1 4 1
4 1 5 1
@<TRIPOS>MOLECULE
CH4
5 4
SMALL
USER_CHARGES


@<TRIPOS>ATOM
1 C 12.818 36.672 42.366 C 0.0 **** 0.0
2 H 12.675 36.515 41.297 H 0.0 **** 0.0
3 H 11.95 37.189 42.776 H 0.0 **** 0.0
4 H 13.711 37.276 42.528 H 0.0 **** 0.0
5 H 12.936 35.709 42.862 H 0.0 **** 0.0
@<TRIPOS>BOND
1 1 3 1
2 1 4 1
3 1 5 1
4 1 2 1
@<TRIPOS>MOLECULE
CH4
5 4
SMALL
USER_CHARGES


@<TRIPOS>ATOM
1 C 98.05 44.802 57.547 C 0.0 **** 0.0
2 H 99.0 45.115 57.979 H 0.0 **** 0.0
3 H 98.215 44.435 56.534 H 0.0 **** 0.0
4 H 97.367 45.651 57.52 H 0.0 **** 0.0
5 H 97.618 44.008 58.156 H 0.0 **** 0.0
@<TRIPOS>BOND
1 1 2 1
2 1 3 1
3 1 4 1
4 1 5 1
@<TRIPOS>MOLECULE
CH4
5 4
SMALL
USER_CHARGES


@<TRIPOS>ATOM
1 C 30.916 69.948 24.137 C 0.0 **** 0.0
2 H 31.072 70.2 25.186 H 0.0 **** 0.0
3 H 31.174 70.806 23.516 H 0.0 **** 0.0
4 H 29.87 69.686 23.978 H 0.0 **** 0.0
5 H 31.548 69.101 23.869 H 0.0 **** 0.0
@<TRIPOS>BOND
1 1 2 1
2 1 3 1
3 1 4 1
4 1 5 1
@<TRIPOS>MOLECULE
CH4
5 4
SMALL
USER_CHARGES


@<TRIPOS>ATOM
1 C 80.35 57.94 16.571 C 0.0 **** 0.0
2 H 81.031 58.097 17.406 H 0.0 **** 0.0
3 H 80.396 58.797 15.898 H 0.0 **** 0.0
4 H 79.333 57.827 16.947 H 0.0 **** 0.0
5 H 80.639 57.038 16.031 H 0.0 **** 0.0
@<TRIPOS>BOND
1 1 2 1
2 1 3 1
3 1 4 1
4 1 5 1
@<TRIPOS>MOLECULE
CH4
5 4
SMALL
USER_CHARGES


@<TRIPOS>ATOM
1 C 22.994 43.361 43.125 C 0.0 **** 0.0
2 H 23.742 44.086 43.447 H 0.0 **** 0.0
3 H 22.241 43.245 43.906 H 0.0 **** 0.0
4 H 23.475 42.402 42.938 H 0.0 **** 0.0
5 H 22.517 43.714 42.211 H 0.0 **** 0.0
@<TRIPOS>BOND
1 1 2 1
2 1 3 1
3 1 4 1
4 1 5 1
@<TRIPOS>MOLECULE
CH4
5 4
SMALL
USER_CHARGES


@<TRIPOS>ATOM
1 C 2.653 27.796 92.469 C 0.0 **** 0.0
2 H 2.057 28.663 92.754 H 0.0 **** 0.0
3 H 3.634 27.859 92.94 H 0.0 **** 0.0
4 H 2.769 27.775 91.386 H 0.0 **** 0.0
5 H 2.15 26.886 92.798 H 0.0 **** 0.0
@<TRIPOS>BOND
1 1 2 1
2 1 3 1
3 1 4 1
4 1 5 1
@<TRIPOS>MOLECULE
CH4
5 4
SMALL
USER_CHARGES


@<TRIPOS>ATOM
1 C 96.234 0.84 64.361 C 0.0 **** 0.0
2 H 95.837 1.593 65.041 H 0.0 **** 0.0
3 H 95.42 0.211 64.001 H 0.0 **** 0.0
4 H 96.964 0.224 64.888 H 0.0 **** 0.0
5 H 96.716 1.331 63.516 H 0.0 **** 0.0
@<TRIPOS>BOND
1 1 2 1
2 1 3 1
3 1 4 1
4 1 5 1
@<TRIPOS>MOLECULE
CH4
5 4
SMALL
USER_CHARGES


@<TRIPOS>ATOM
1 C 25.507 59.28 25.908 C 0.0 **** 0.0
2 H 26.267 58.972 26.625 H 0.0 **** 0.0
3 H 25.537 58.62 25.041 H 0.0 **** 0.0
4 H 25.7 60.305 25.592 H 0.0 **** 0.0
5 H 24.523 59.223 26.374 H 0.0 **** 0.0
@<TRIPOS>BOND
1 1 2 1
2 1 3 1
3 1 4 1
4 1 5 1
@<TRIPOS>MOLECULE
CH4
5 4
SMALL
USER_CHARGES


@<TRIPOS>ATOM
1 C 66.19 48.213 76.58 C 0.0 **** 0.0
2 H 65.744 48.698 77.448 H 0.0 **** 0.0
3 H 65.591 47.347 76.3 H 0.0 **** 0.0
4 H 67.202 47.892 76.823 H 0.0 **** 0.0
5 H 66.222 48.917 75.748 H 0.0 **** 0.0
@<TRIPOS>BOND
1 1 2 1
2 1 3 1
3 1 4 1
4 1 5 1
@<TRIPOS>MOLECULE
CH4
5 4
SMALL
USER_CHARGES


@<TRIPOS>ATOM
1 C 81.274 71.479 35.887 C 0.0 **** 0.0
2 H 81.418 71.836 34.867 H 0.0 **** 0.0
3 H 81.08 72.327 36.544 H 0.0 **** 0.0
4 H 82.172 70.959 36.219 H 0.0 **** 0.0
5 H 80.426 70.794 35.916 H 0.0 **** 0.0
@<TRIPOS>BOND
1 1 2 1
2 1 3 1
3 1 4 1
4 1 5 1
@<TRIPOS>MOLECULE
CH4
5 4
SMALL
USER_CHARGES


@<TRIPOS>ATOM
1 C 81.961 36.577 27.123 C 0.0 **** 0.0
2 H 81.681 36.118 28.071 H 0.0 **** 0.0
3 H 81.137 36.48 26.416 H 0.0 **** 0.0
4 H 82.843 36.076 26.724 H 0.0 **** 0.0
5 H 82.183 37.632 27.282 H 0.0 **** 0.0
@<TRIPOS>BOND
1 1 2 1
2 1 3 1
3 1 4 1
4 1 5 1
@<TRIPOS>MOLECULE
CH4
5 4
SMALL
USER_CHARGES


@<TRIPOS>ATOM
1 C 93.759 6.973 87.263 C 0.0 **** 0.0
2 H 93.546 6.054 86.718 H 0.0 **** 0.0
3 H 92.853 7.575 87.329 H 0.0 **** 0.0
4 H 94.532 7.535 86.739 H 0.0 **** 0.0
5 H 94.106 6.727 88.267 H 0.0 **** 0.0
@<TRIPOS>BOND
1 1 2 1
2 1 3 1
3 1 4 1
4 1 5 1
@<TRIPOS>MOLECULE
CH4
5 4
SMALL
USER_CHARGES


@<TRIPOS>ATOM
1 C 1.703 3.632 95.57 C 0.0 **** 0.0
2 H 1.465 4.082 96.534 H 0.0 **** 0.0
3 H 2.186 2.668 95.729 H 0.0 **** 0.0
4 H 2.375 4.29 95.018 H 0.0 **** 0.0
5 H 0.785 3.49 94.999 H 0.0 **** 0.0
@<TRIPOS>BOND
1 1 2 1
2 1 3 1
3 1 4 1
4 1 5 1
@<TRIPOS>MOLECULE
CH4
5 4
SMALL
USER_CHARGES


@<TRIPOS>ATOM
1 C 38.044 68.951 52.25 C 0.0 **** 0.0
2 H 37.999 68.891 53.337 H 0.0 **** 0.0
3 H 39.023 69.324 51.947 H 0.0 **** 0.0
4 H 37.269 69.63 51.892 H 0.0 **** 0.0
5 H 37.885 67.961 51.824 H 0.0 **** 0.0
@<TRIPOS>BOND
1 1 2 1
2 1 3 1
3 1 4 1
4 1 5 1
@<TRIPOS>MOLECULE
CH4
5 4
SMALL
USER_CHARGES


@<TRIPOS>ATOM
1 C 87.323 93.464 31.903 C 0.0 **** 0.0
2 H 87.88 93.679 32.815 H 0.0 **** 0.0
3 H 87.414 92.404 31.664 H 0.0 **** 0.0
4 H 87.728 94.058 31.083 H 0.0 **** 0.0
5 H 86.273 93.715 32.051 H 0.0 **** 0.0
@<TRIPOS>BOND
1 1 2 1
2 1 3 1
3 1 4 1
4 1 5 1
@<TRIPOS>MOLECULE
CH4
5 4
SMALL
USER_CHARGES


@<TRIPOS>ATOM
1 C 22.258 25.832 51.529 C 0.0 **** 0.0
2 H 22.357 25.857 52.614 H 0.0 **** 0.0
3 H 23.246 25.892 51.073 H 0.0 **** 0.0
4 H 21.654 26.678 51.2 H 0.0 **** 0.0
5 H 21.775 24.902 51.229 H 0.0 **** 0.0
@<TRIPOS>BOND
1 1 2 1
2 1 3 1
3 1 4 1
4 1 5 1
@<TRIPOS>MOLECULE
CH4
5 4
SMALL
USER_CHARGES


@<TRIPOS>ATOM
1 C 90.344 32.148 20.196 C 0.0 **** 0.0
2 H 90.298 33.218 20.404 H 0.0 **** 0.0
3 H 89.552 31.638 20.745 H 0.0 **** 0.0
4 H 91.313 31.759 20.509 H 0.0 **** 0.0
5 H 90.212 31.98 19.128 H 0.0 **** 0.0
@<TRIPOS>BOND
1 1 2 1
2 1 3 1
3 1 4 1
4 1 5 1
@<TRIPOS>MOLECULE
CH4
5 4
SMALL
USER_CHARGES


@<TRIPOS>ATOM
1 C 9.449 17.446 95.12 C 0.0 **** 0.0
2 H 10.21 16.706 94.875 H 0.0 **** 0.0
3 H 9.307 17.477 96.201 H 0.0 **** 0.0
4 H 8.51 17.176 94.638 H 0.0 **** 0.0
5 H 9.769 18.427 94.768 H 0.0 **** 0.0
@<TRIPOS>BOND
1 1 2 1
2 1 3 1
3 1 4 1
4 1 5 1
@<TRIPOS>MOLECULE
CH4
5 4
SMALL
USER_CHARGES


@<TRIPOS>ATOM
1 C 57.814 64.744 72.091 C 0.0 **** 0.0
2 H 57.444 64.267 71.183 H 0.0 **** 0.0
3 H 58.665 65.38 71.845 H 0.0 **** 0.0
4 H 58.125 63.979 72.802 H 0.0 **** 0.0
5 H 57.022 65.35 72.531 H 0.0 **** 0.0
@<TRIPOS>BOND
1 1 2 1
2 1 3 1
3 1 4 1
4 1 5 1
@<TRIPOS>MOLECULE
CH4
5 4
SMALL
USER_CHARGES


@<TRIPOS>ATOM
1 C 62.706 12.173 43.893 C 0.0 **** 0.0
2 H 63.06 13.065 43.377 H 0.0 **** 0.0
3 H 63.559 11.604 44.262 H 0.0 **** 0.0
4 H 62.13 11.558 43.201 H 0.0 **** 0.0
5 H 62.073 12.465 44.731 H 0.0 **** 0.0
@<TRIPOS>BOND
1 1 2 1
2 1 3 1
3 1 4 1
4 1 5 1
@<TRIPOS>MOLECULE
CH4
5 4
SMALL
USER_CHARGES


@<TRIPOS>ATOM
1 C 12.586 95.512 96.135 C 0.0 **** 0.0
2 H 12.284 96.111 96.994 H 0.0 **** 0.0
3 H 12.304 96.028 95.216 H 0.0 **** 0.0
4 H 12.09 94.543 96.175 H 0.0 **** 0.0
5 H 13.666 95.369 96.154 H 0.0 **** 0.0
@<TRIPOS>BOND
1 1 2 1
2 1 3 1
3 1 4 1
4 1 5 1
@<TRIPOS>MOLECULE
CH4
5 4
SMALL
USER_CHARGES


@<TRIPOS>ATOM
1 C 35.799 35.166 14.584 C 0.0 **** 0.0
2 H 36.702 34.576 14.738 H 0.0 **** 0.0
3 H 35.546 35.173 13.523 H 0.0 **** 0.0
4 H 35.97 36.187 14.924 H 0.0 **** 0.0
5 H 34.977 34.727 15.151 H 0.0 **** 0.0
@<TRIPOS>BOND
1 1 2 1
2 1 3 1
3 1 4 1
4 1 5 1
@<TRIPOS>MOLECULE
CH4
5 4
SMALL
USER_CHARGES


@<TRIPOS>ATOM
1 C 29.269 52.096 85.976 C 0.0 **** 0.0
2 H 29.488 52.94 85.322 H 0.0 **** 0.0
3 H 28.729 51.333 85.416 H 0.0 **** 0.0
4 H 28.658 52.435 86.813 H 0.0 **** 0.0
5 H 30.203 51.678 86.354 H 0.0 **** 0.0
@<TRIPOS>BOND
1 1 2 1
2 1 3 1
3 1 4 1
4 1 5 1
@<TRIPOS>MOLECULE
CH4
5 4
SMALL
USER_CHARGES


@<TRIPOS>ATOM
1 C 44.82 23.53 3.734 C 0.0 **** 0.0
2 H 43.865 23.307 3.257 H 0.0 **** 0.0
3 H 44.649 23.818 4.772 H 0.0 **** 0.0
4 H 45.308 24.348 3.205 H 0.0 **** 0.0
5 H 45.456 22.646 3.702 H 0.0 **** 0.0
@<TRIPOS>BOND
1 1 2 1
2 1 3 1
3 1 4 1
4 1 5 1
@<TRIPOS>MOLECULE
CH4
5 4
SMALL
USER_CHARGES


@<TRIPOS>ATOM
1 C 84.389 58.704 57.599 C 0.0 **** 0.0
2 H 84.258 58.847 56.526 H 0.0 **** 0.0
3 H 84.196 59.644 58.117 H 0.0 **** 0.0
4 H 85.41 58.381 57.8 H 0.0 **** 0.0
5 H 83.692 57.945 57.952 H 0.0 **** 0.0
@<TRIPOS>BOND
1 1 2 1
2 1 3 1
3 1 4 1
4 1 5 1
@<TRIPOS>MOLECULE
CH4
5 4
SMALL
USER_CHARGES


@<TRIPOS>ATOM
1 C 45.933 37.174 34.547 C 0.0 **** 0.0
2 H 46.782 36.701 34.053 H 0.0 **** 0.0
3 H 45.954 38.247 34.356 H 0.0 **** 0.0
4 H 45.992 36.994 35.62 H 0.0 **** 0.0
5 H 45.006 36.752 34.157 H 0.0 **** 0.0
@<TRIPOS>BOND
1 1 2 1
2 1 3 1
3 1 4 1
4 1 5 1
@<TRIPOS>MOLECULE
CH4
5 4
SMALL
USER_CHARGES


@<TRIPOS>ATOM
1 C 67.585 50.581 33.384 C 0.0 **** 0.0
2 H 67.421 50.859 34.425 H 0.0 **** 0.0
3 H 67.851 51.469 32.809 H 0.0 **** 0.0
4 H 66.673 50.144 32.977 H 0.0 **** 0.0
5 H 68.394 49.854 33.326 H 0.0 **** 0.0
@<TRIPOS>BOND
1 1 2 1
2 1 3 1
3 1 4 1
4 1 5 1
@<TRIPOS>MOLECULE
CH4
5 4
SMALL
USER_CHARGES


@<TRIPOS>ATOM
1 C 94.974 54.397 87.213 C 0.0 **** 0.0
2 H 94.86 55.12 86.406 H 0.0 **** 0.0
3 H 95.968 53.953 87.164 H 0.0 **** 0.0
4 H 94.221 53.615 87.11 H 0.0 **** 0.0
5 H 94.847 54.899 88.172 H 0.0 **** 0.0
@<TRIPOS>BOND
1 1 2 1
2 1 3 1
3 1 4 1
4 1 5 1
@<TRIPOS>MOLECULE
CH4
5 4
SMALL
USER_CHARGES


@<TRIPOS>ATOM
1 C 19.476 80.637 21.317 C 0.0 **** 0.0
2 H 18.948 79.781 21.736 H 0.0 **** 0.0
3 H 19.146 81.547 21.817 H 0.0 **** 0.0
4 H 19.262 80.71 20.251 H 0.0 **** 0.0
5 H 20.549 80.509 21.464 H 0.0 **** 0.0
@<TRIPOS>BOND
1 1 2 1
2 1 3 1
3 1 4 1
4 1 5 1
@<TRIPOS>MOLECULE
CH4
5 4
SMALL
USER_CHARGES


@<TRIPOS>ATOM
1 C 75.131 66.429 45.243 C 0.0 **** 0.0
2 H 74.969 66.206 46.298 H 0.0 **** 0.0
3 H 75.437 67.469 45.135 H 0.0 **** 0.0
4 H 74.206 66.262 44.69 H 0.0 **** 0.0
5 H 75.911 65.777 44.85 H 0.0 **** 0.0
@<TRIPOS>BOND
1 1 2 1
2 1 3 1
3 1 4 1
4 1 5 1
@<TRIPOS>MOLECULE
CH4
5 4
SMALL
USER_CHARGES


@<TRIPOS>ATOM
1 C 4.528 64.599 66.855 C 0.0 **** 0.0
2 H 5.22 63.847 67.234 H 0.0 **** 0.0
3 H 4.726 65.554 67.342 H 0.0 **** 0.0
4 H 3.504 64.288 67.064 H 0.0 **** 0.0
5 H 4.662 64.705 65.778 H 0.0 **** 0.0
@<TRIPOS>BOND
1 1 2 1
2 1 3 1
3 1 4 1
4 1 5 1
@<TRIPOS>MOLECULE
CH4
5 4
SMALL
USER_CHARGES


@<TRIPOS>ATOM
1 C 66.882 18.88 6.937 C 0.0 **** 0.0
2 H 66.408 17.91 6.789 H 0.0 **** 0.0
3 H 66.489 19.591 6.21 H 0.0 **** 0.0
4 H 67.959 18.781 6.803 H 0.0 **** 0.0
5 H 66.672 19.237 7.945 H 0.0 **** 0.0
@<TRIPOS>BOND
1 1 2 1
2 1 3 1
3 1 4 1
4 1 5 1
@<TRIPOS>MOLECULE
CH4
5 4
SMALL
USER_CHARGES


@<TRIPOS>ATOM
1 C 56.344 44.915 40.42 C 0.0 **** 0.0
2 H 55.558 44.163 40.361 H 0.0 **** 0.0
3 H 56.194 45.659 39.637 H 0.0 **** 0.0
4 H 57.315 44.437 40.286 H 0.0 **** 0.0
5 H 56.31 45.401 41.395 H 0.0 **** 0.0
@<TRIPOS>BOND
1 1 2 1
2 1 3 1
3 1 4 1
4 1 5 1
@<TRIPOS>MOLECULE
CH4
5 4
SMALL
USER_CHARGES


@<TRIPOS>ATOM
1 C 12.984 85.766 67.919 C 0.0 **** 0.0
2 H 12.356 86.038 67.071 H 0.0 **** 0.0
3 H 12.359 85.393 68.729 H 0.0 **** 0.0
4 H 13.535 86.644 68.258 H 0.0 **** 0.0
5 H 13.688 84.991 67.615 H 0.0 **** 0.0
@<TRIPOS>BOND
1 1 2 1
2 1 3 1
3 1 4 1
4 1 5 1
@<TRIPOS>MOLECULE
CH4
5 4
SMALL
USER_CHARGES


@<TRIPOS>ATOM
1 C 93.243 72.482 39.451 C 0.0 **** 0.0
2 H 93.161 72.583 40.534 H 0.0 **** 0.0
3 H 92.687 71.602 39.126 H 0.0 **** 0.0
4 H 94.291 72.373 39.175 H 0.0 **** 0.0
5 H 92.83 73.37 38.972 H 0.0 **** 0.0
@<TRIPOS>BOND
1 1 2 1
2 1 3 1
3 1 4 1
4 1 5 1
@<TRIPOS>MOLECULE
CH4
5 4
SMALL
USER_CHARGES


@<TRIPOS>ATOM
1 C 5.937 39.317 89.946 C 0.0 **** 0.0
2 H 4.867 39.129 90.038 H 0.0 **** 0.0
3 H 6.11 40.05 89.158 H 0.0 **** 0.0
4 H 6.449 38.388 89.697 H 0.0 **** 0.0
5 H 6.321 39.701 90.891 H 0.0 **** 0.0
@<TRIPOS>BOND
1 1 2 1
2 1 3 1
3 1 4 1
4 1 5 1
@<TRIPOS>MOLECULE
CH4
5 4
SMALL
USER_CHARGES


@<TRIPOS>ATOM
1 C 64.735 34.417 7.928 C 0.0 **** 0.0
2 H 64.34 34.233 6.929 H 0.0 **** 0.0
3 H 65.0 33.468 8.394 H 0.0 **** 0.0
4 H 63.979 34.92 8.53 H 0.0 **** 0.0
5 H 65.622 35.048 7.857 H 0.0 **** 0.0
@<TRIPOS>BOND
1 1 2 1
2 1 3 1
3 1 4 1
4 1 5 1
@<TRIPOS>MOLECULE
CH4
5 4
SMALL
USER_CHARGES


@<TRIPOS>ATOM
1 C 84.011 52.525 92.122 C 0.0 **** 0.0
2 H 83.268 53.13 92.641 H 0.0 **** 0.0
3 H 84.874 52.374 92.772 H 0.0 **** 0.0
4 H 84.326 53.038 91.214 H 0.0 **** 0.0
5 H 83.577 51.559 91.863 H 0.0 **** 0.0
@<TRIPOS>BOND
1 1 2 1
2 1 3 1
3 1 4 1
4 1 5 1
@<TRIPOS>MOLECULE
CH4
5 4
SMALL
USER_CHARGES


@<TRIPOS>ATOM
1 C 87.258 97.449 96.95 C 0.0 **** 0.0
2 H 87.248 97.714 98.007 H 0.0 **** 0.0
3 H 88.211 96.982 96.702 H 0.0 **** 0.0
4 H 87.126 98.349 96.349 H 0.0 **** 0.0
5 H 86.446 96.752 96.743 H 0.0 **** 0.0
@<TRIPOS>BOND
1 1 2 1
2 1 3 1
3 1 4 1
4 1 5 1
@<TRIPOS>MOLECULE
CH4
5 4
SMALL
USER_CHARGES


@<TRIPOS>ATOM
1 C 95.703 81.718 30.687 C 0.0 **** 0.0
2 H 95.621 81.693 31.773 H 0.0 **** 0.0
3 H 96.52 82.379 30.4 H 0.0 **** 0.0
4 H 94.77 82.087 30.261 H 0.0 **** 0.0
5 H 95.9 80.713 30.314 H 0.0 **** 0.0
@<TRIPOS>BOND
1 1 2 1
2 1 3 1
3 1 4 1
4 1 5 1
@<TRIPOS>MOLECULE
CH4
5 4
SMALL
USER_CHARGES


@<TRIPOS>ATOM
1 C 32.887 14.394 98.458 C 0.0 **** 0.0
2 H 33.677 14.914 99.0 H 0.0 **** 0.0
3 H 33.047 14.509 97.386 H 0.0 **** 0.0
4 H 31.921 14.819 98.729 H 0.0 **** 0.0
5 H 32.905 13.335 98.717 H 0.0 **** 0.0
@<TRIPOS>BOND
1 1 2 1
2 1 3 1
3 1 4 1
4 1 5 1
@<TRIPOS>MOLECULE
CH4
5 4
SMALL
USER_CHARGES


@<TRIPOS>ATOM
1 C 41.649 66.642 25.259 C 0.0 **** 0.0
2 H 41.243 65.979 24.495 H 0.0 **** 0.0
3 H 41.472 66.211 26.245 H 0.0 **** 0.0
4 H 41.159 67.613 25.194 H 0.0 **** 0.0
5 H 42.72 66.763 25.102 H 0.0 **** 0.0
@<TRIPOS>BOND
1 1 2 1
2 1 3 1
3 1 4 1
4 1 5 1
@<TRIPOS>MOLECULE
CH4
5 4
SMALL
USER_CHARGES


@<TRIPOS>ATOM
1 C 29.466 46.093 19.287 C 0.0 **** 0.0
2 H 29.446 45.772 20.328 H 0.0 **** 0.0
3 H 30.053 47.008 19.201 H 0.0 **** 0.0
4 H 28.448 46.281 18.945 H 0.0 **** 0.0
5 H 29.918 45.313 18.675 H 0.0 **** 0.0
@<TRIPOS>BOND
1 1 2 1
2 1 3 1
3 1 4 1
4 1 5 1
@<TRIPOS>MOLECULE
CH4
5 4
SMALL
USER_CHARGES


@<TRIPOS>ATOM
1 C 65.198 86.399 25.086 C 0.0 **** 0.0
2 H 65.485 85.8 24.222 H 0.0 **** 0.0
3 H 64.557 87.22 24.763 H 0.0 **** 0.0
4 H 66.093 86.802 25.561 H 0.0 **** 0.0
5 H 64.659 85.774 25.798 H 0.0 **** 0.0
@<TRIPOS>BOND
1 1 2 1
2 1 3 1
3 1 4 1
4 1 5 1
@<TRIPOS>MOLECULE
CH4
5 4
SMALL
USER_CHARGES


@<TRIPOS>ATOM
1 C 59.22 10.664 29.928 C 0.0 **** 0.0
2 H 59.129 10.284 30.945 H 0.0 **** 0.0
3 H 58.455 11.422 29.754 H 0.0 **** 0.0
4 H 59.088 9.845 29.221 H 0.0 **** 0.0
5 H 60.207 11.106 29.791 H 0.0 **** 0.0
@<TRIPOS>BOND
1 1 2 1
2 1 3 1
3 1 4 1
4 1 5 1
@<TRIPOS>MOLECULE
CH4
5 4
SMALL
USER_CHARGES


@<TRIPOS>ATOM
1 C 42.615 34.211 55.699 C 0.0 **** 0.0
2 H 42.509 34.638 56.696 H 0.0 **** 0.0
3 H 42.226 34.912 54.96 H 0.0 **** 0.0
4 H 42.057 33.276 55.643 H 0.0 **** 0.0
5 H 43.669 34.018 55.497 H 0.0 **** 0.0
@<TRIPOS>BOND
1 1 2 1
2 1 3 1
3 1 4 1
4 1 5 1
@<TRIPOS>MOLECULE
CH4
5 4
SMALL
USER_CHARGES


@<TRIPOS>ATOM
1 C 86.614 50.284 16.838 C 0.0 **** 0.0
2 H 86.943 51.311 16.999 H 0.0 **** 0.0
3 H 86.468 49.794 17.801 H 0.0 **** 0.0
4 H 87.369 49.746 16.266 H 0.0 **** 0.0
5 H 85.674 50.288 16.286 H 0.0 **** 0.0
@<TRIPOS>BOND
1 1 2 1
2 1 3 1
3 1 4 1
4 1 5 1
@<TRIPOS>MOLECULE
CH4
5 4
SMALL
USER_CHARGES


@<TRIPOS>ATOM
1 C 61.878 57.27 97.32 C 0.0 **** 0.0
2 H 62.879 57.684 97.442 H 0.0 **** 0.0
3 H 61.795 56.346 97.893 H 0.0 **** 0.0
4 H 61.697 57.061 96.266 H 0.0 **** 0.0
5 H 61.142 57.989 97.68 H 0.0 **** 0.0
@<TRIPOS>BOND
1 1 2 1
2 1 3 1
3 1 4 1
4 1 5 1
@<TRIPOS>MOLECULE
CH4
5 4
SMALL
USER_CHARGES


@<TRIPOS>ATOM
1 C 25.122 9.705 81.21 C 0.0 **** 0.0
2 H 24.803 9.394 80.216 H 0.0 **** 0.0
3 H 25.421 10.753 81.184 H 0.0 **** 0.0
4 H 25.967 9.094 81.528 H 0.0 **** 0.0
5 H 24.298 9.579 81.912 H 0.0 **** 0.0
@<TRIPOS>BOND
1 1 2 1
2 1 3 1
3 1 4 1
4 1 5 1
@<TRIPOS>MOLECULE
CH4
5 4
SMALL
USER_CHARGES


@<TRIPOS>ATOM
1 C 97.613 27.312 67.246 C 0.0 **** 0.0
2 H 97.632 26.312 67.68 H 0.0 **** 0.0
3 H 97.127 27.276 66.271 H 0.0 **** 0.0
4 H 98.634 27.676 67.13 H 0.0 **** 0.0
5 H 97.061 27.983 67.904 H 0.0 **** 0.0
@<TRIPOS>BOND
1 1 2 1
2 1 3 1
3 1 4 1
4 1 5 1
@<TRIPOS>MOLECULE
CH4
5 4
SMALL
USER_CHARGES


@<TRIPOS>ATOM
1 C 65.265 61.018 35.482 C 0.0 **** 0.0
2 H 65.152 60.065 35.999 H 0.0 **** 0.0
3 H 64.798 60.955 34.499 H 0.0 **** 0.0
4 H 66.324 61.246 35.368 H 0.0 **** 0.0
5 H 64.784 61.805 36.063 H 0.0 **** 0.0
@<TRIPOS>BOND
1 1 2 1
2 1 3 1
3 1 4 1
4 1 5 1
@<TRIPOS>MOLECULE
CH4
5 4
SMALL
USER_CHARGES


@<TRIPOS>ATOM
1 C 3.692 71.024 44.275 C 0.0 **** 0.0
2 H 2.631 70.8 44.384 H 0.0 **** 0.0
3 H 4.042 71.563 45.156 H 0.0 **** 0.0
4 H 3.844 71.64 43.388 H 0.0 **** 0.0
5 H 4.251 70.094 44.172 H 0.0 **** 0.0
@<TRIPOS>BOND
1 1 2 1
2 1 3 1
3 1 4 1
4 1 5 1
@<TRIPOS>MOLECULE
CH4
5 4
SMALL
USER_CHARGES


@<TRIPOS>ATOM
1 C 86.405 11.303 93.735 C 0.0 **** 0.0
2 H 85.742 12.122 93.455 H 0.0 **** 0.0
3 H 87.254 11.699 94.293 H 0.0 **** 0.0
4 H 86.762 10.801 92.836 H 0.0 **** 0.0
5 H 85.861 10.593 94.357 H 0.0 **** 0.0
@<TRIPOS>BOND
1 1 2 1
2 1 3 1
3 1 4 1
4 1 5 1
@<TRIPOS>MOLECULE
CH4
5 4
SMALL
USER_CHARGES


@<TRIPOS>ATOM
1 C 9.28 53.851 63.562 C 0.0 **** 0.0
2 H 8.382 53.27 63.772 H 0.0 **** 0.0
3 H 9.884 53.33 62.82 H 0.0 **** 0.0
4 H 9.855 53.974 64.479 H 0.0 **** 0.0
5 H 8.996 54.831 63.178 H 0.0 **** 0.0
@<TRIPOS>BOND
1 1 2 1
2 1 3 1
3 1 4 1
4 1 5 1
@<TRIPOS>MOLECULE
CH4
5 4
SMALL
USER_CHARGES


@<TRIPOS>ATOM
1 C 69.709 56.923 27.043 C 0.0 **** 0.0
2 H 70.674 57.389 26.845 H 0.0 **** 0.0
3 H 68.948 57.697 27.153 H 0.0 **** 0.0
4 H 69.769 56.339 27.962 H 0.0 **** 0.0
5 H 69.444 56.269 26.213 H 0.0 **** 0.0
@<TRIPOS>BOND
1 1 2 1
2 1 3 1
3 1 4 1
4 1 5 1
@<TRIPOS>MOLECULE
CH4
5 4
SMALL
USER_CHARGES


@<TRIPOS>ATOM
1 C 54.609 27.543 80.749 C 0.0 **** 0.0
2 H 55.395 27.614 79.997 H 0.0 **** 0.0
3 H 54.683 28.389 81.432 H 0.0 **** 0.0
4 H 54.723 26.614 81.307 H 0.0 **** 0.0
5 H 53.635 27.555 80.259 H 0.0 **** 0.0
@<TRIPOS>BOND
1 1 2 1
2 1 3 1
3 1 4 1
4 1 5 1
@<TRIPOS>MOLECULE
CH4
5 4
SMALL
USER_CHARGES


@<TRIPOS>ATOM
1 C 50.853 33.105 38.577 C 0.0 **** 0.0
2 H 50.979 32.605 37.617 H 0.0 **** 0.0
3 H 49.812 33.031 38.891 H 0.0 **** 0.0
4 H 51.13 34.155 38.479 H 0.0 **** 0.0
5 H 51.492 32.629 39.321 H 0.0 **** 0.0
@<TRIPOS>BOND
1 1 2 1
2 1 3 1
3 1 4 1
4 1 5 1
@<TRIPOS>MOLECULE
CH4
5 4
SMALL
USER_CHARGES


@<TRIPOS>ATOM
1 C 67.94 57.336 31.912 C 0.0 **** 0.0
2 H 67.499 57.183 30.927 H 0.0 **** 0.0
3 H 69.011 57.138 31.865 H 0.0 **** 0.0
4 H 67.476 56.657 32.627 H 0.0 **** 0.0
5 H 67.774 58.366 32.228 H 0.0 **** 0.0
@<TRIPOS>BOND
1 1 2 1
2 1 3 1
3 1 4 1
4 1 5 1
@<TRIPOS>MOLECULE
CH4
5 4
SMALL
USER_CHARGES


@<TRIPOS>ATOM
1 C 11.071 39.434 20.534 C 0.0 **** 0.0
2 H 10.202 38.838 20.814 H 0.0 **** 0.0
3 H 11.812 39.395 21.333 H 0.0 **** 0.0
4 H 10.765 40.467 20.372 H 0.0 **** 0.0
5 H 11.504 39.035 19.617 H 0.0 **** 0.0
@<TRIPOS>BOND
1 1 2 1
2 1 3 1
3 1 4 1
4 1 5 1
@<TRIPOS>MOLECULE
CH4
5 4
SMALL
USER_CHARGES


@<TRIPOS>ATOM
1 C 74.289 93.499 49.444 C 0.0 **** 0.0
2 H 74.109 93.309 48.386 H 0.0 **** 0.0
3 H 74.333 92.55 49.98 H 0.0 **** 0.0
4 H 73.479 94.107 49.847 H 0.0 **** 0.0
5 H 75.235 94.027 49.563 H 0.0 **** 0.0
@<TRIPOS>BOND
1 1 2 1
2 1 3 1
3 1 4 1
4 1 5 1
@<TRIPOS>MOLECULE
CH4
5 4
SMALL
USER_CHARGES


@<TRIPOS>ATOM
1 C 17.361 0.968 37.106 C 0.0 **** 0.0
2 H 17.683 0.684 36.104 H 0.0 **** 0.0
3 H 16.314 0.698 37.241 H 0.0 **** 0.0
4 H 17.478 2.045 37.233 H 0.0 **** 0.0
5 H 17.97 0.447 37.844 H 0.0 **** 0.0
@<TRIPOS>BOND
1 1 2 1
2 1 3 1
3 1 4 1
4 1 5 1
@<TRIPOS>MOLECULE
CH4
5 4
SMALL
USER_CHARGES


@<TRIPOS>ATOM
1 C 16.936 2.577 11.55 C 0.0 **** 0.0
2 H 17.387 2.667 12.538 H 0.0 **** 0.0
3 H 15.859 2.726 11.628 H 0.0 **** 0.0
4 H 17.137 1.584 11.148 H 0.0 **** 0.0
5 H 17.36 3.33 10.886 H 0.0 **** 0.0
@<TRIPOS>BOND
1 1 3 1
2 1 4 1
3 1 5 1
4 1 2 1
@<TRIPOS>MOLECULE
CH4
5 4
SMALL
USER_CHARGES


@<TRIPOS>ATOM
1 C 1.391 78.049 15.246 C 0.0 **** 0.0
2 H 1.255 78.204 16.316 H 0.0 **** 0.0
3 H 2.452 77.921 15.03 H 0.0 **** 0.0
4 H 1.01 78.913 14.702 H 0.0 **** 0.0
5 H 0.847 77.156 14.937 H 0.0 **** 0.0
@<TRIPOS>BOND
1 1 2 1
2 1 3 1
3 1 4 1
4 1 5 1
@<TRIPOS>MOLECULE
CH4
5 4
SMALL
USER_CHARGES


@<TRIPOS>ATOM
1 C 10.462 54.426 9.583 C 0.0 **** 0.0
2 H 10.242 54.919 8.636 H 0.0 **** 0.0
3 H 9.711 54.708 10.322 H 0.0 **** 0.0
4 H 11.448 54.734 9.932 H 0.0 **** 0.0
5 H 10.447 53.346 9.442 H 0.0 **** 0.0
@<TRIPOS>BOND
1 1 2 1
2 1 3 1
3 1 4 1
4 1 5 1
@<TRIPOS>MOLECULE
CH4
5 4
SMALL
USER_CHARGES


@<TRIPOS>ATOM
1 C 81.803 47.601 47.45 C 0.0 **** 0.0
2 H 81.957 47.511 48.525 H 0.0 **** 0.0
3 H 81.448 48.605 47.216 H 0.0 **** 0.0
4 H 81.062 46.869 47.128 H 0.0 **** 0.0
5 H 82.744 47.417 46.932 H 0.0 **** 0.0
@<TRIPOS>BOND
1 1 2 1
2 1 3 1
3 1 4 1
4 1 5 1
@<TRIPOS>MOLECULE
CH4
5 4
SMALL
USER_CHARGES


@<TRIPOS>ATOM
1 C 89.851 94.704 57.486 C 0.0 **** 0.0
2 H 89.909 94.711 58.574 H 0.0 **** 0.0
3 H 90.668 94.105 57.083 H 0.0 **** 0.0
4 H 89.929 95.725 57.112 H 0.0 **** 0.0
5 H 88.898 94.275 57.176 H 0.0 **** 0.0
@<TRIPOS>BOND
1 1 2 1
2 1 3 1
3 1 4 1
4 1 5 1
@<TRIPOS>MOLECULE
CH4
5 4
SMALL
USER_CHARGES


@<TRIPOS>ATOM
1 C 74.277 76.54 72.835 C 0.0 **** 0.0
2 H 73.192 76.483 72.752 H 0.0 **** 0.0
3 H 74.684 77.024 71.947 H 0.0 **** 0.0
4 H 74.688 75.534 72.921 H 0.0 **** 0.0
5 H 74.544 77.119 73.719 H 0.0 **** 0.0
@<TRIPOS>BOND
1 1 2 1
2 1 3 1
3 1 4 1
4 1 5 1
@<TRIPOS>MOLECULE
CH4
5 4
SMALL
USER_CHARGES


@<TRIPOS>ATOM
1 C 50.839 95.673 75.106 C 0.0 **** 0.0
2 H 49.995 95.846 74.439 H 0.0 **** 0.0
3 H 51.581 96.458 74.965 H 0.0 **** 0.0
4 H 51.286 94.704 74.881 H 0.0 **** 0.0
5 H 50.492 95.682 76.14 H 0.0 **** 0.0
@<TRIPOS>BOND
1 1 4 1
2 1 5 1
3 1 2 1
4 1 3 1
@<TRIPOS>MOLECULE
CH4
5 4
SMALL
USER_CHARGES


@<TRIPOS>ATOM
1 C 5.141 63.78 28.935 C 0.0 **** 0.0
2 H 4.11 64.058 28.716 H 0.0 **** 0.0
3 H 5.167 62.767 29.337 H 0.0 **** 0.0
4 H 5.556 64.472 29.667 H 0.0 **** 0.0
5 H 5.731 63.823 28.019 H 0.0 **** 0.0
@<TRIPOS>BOND
1 1 2 1
2 1 3 1
3 1 4 1
4 1 5 1
@<TRIPOS>MOLECULE
CH4
5 4
SMALL
USER_CHARGES


@<TRIPOS>ATOM
1 C 17.022 46.891 68.213 C 0.0 **** 0.0
2 H 17.03 45.833 68.472 H 0.0 **** 0.0
3 H 17.919 47.369 68.609 H 0.0 **** 0.0
4 H 16.139 47.363 68.643 H 0.0 **** 0.0
5 H 17.001 47.0 67.128 H 0.0 **** 0.0
@<TRIPOS>BOND
1 1 2 1
2 1 3 1
3 1 4 1
4 1 5 1
@<TRIPOS>MOLECULE
CH4
5 4
SMALL
USER_CHARGES


@<TRIPOS>ATOM
1 C 6.655 61.234 75.821 C 0.0 **** 0.0
2 H 7.442 61.382 76.56 H 0.0 **** 0.0
3 H 5.801 60.748 76.293 H 0.0 **** 0.0
4 H 7.029 60.608 75.011 H 0.0 **** 0.0
5 H 6.347 62.2 75.42 H 0.0 **** 0.0
@<TRIPOS>BOND
1 1 2 1
2 1 3 1
3 1 4 1
4 1 5 1
@<TRIPOS>MOLECULE
CH4
5 4
SMALL
USER_CHARGES


@<TRIPOS>ATOM
1 C 49.37 59.558 25.376 C 0.0 **** 0.0
2 H 50.045 60.348 25.703 H 0.0 **** 0.0
3 H 49.04 58.98 26.24 H 0.0 **** 0.0
4 H 49.89 58.902 24.677 H 0.0 **** 0.0
5 H 48.505 60.001 24.883 H 0.0 **** 0.0
@<TRIPOS>BOND
1 1 2 1
2 1 3 1
3 1 4 1
4 1 5 1
@<TRIPOS>MOLECULE
CH4
5 4
SMALL
USER_CHARGES


@<TRIPOS>ATOM
1 C 55.128 71.406 0.867 C 0.0 **** 0.0
2 H 55.52 70.615 0.227 H 0.0 **** 0.0
3 H 54.949 72.3 0.27 H 0.0 **** 0.0
4 H 55.851 71.63 1.651 H 0.0 **** 0.0
5 H 54.193 71.077 1.319 H 0.0 **** 0.0
@<TRIPOS>BOND
1 1 2 1
2 1 3 1
3 1 4 1
4 1 5 1
@<TRIPOS>MOLECULE
CH4
5 4
SMALL
USER_CHARGES


@<TRIPOS>ATOM
1 C 25.528 93.67 82.034 C 0.0 **** 0.0
2 H 26.329 93.374 82.712 H 0.0 **** 0.0
3 H 25.957 94.05 81.108 H 0.0 **** 0.0
4 H 24.925 94.448 82.503 H 0.0 **** 0.0
5 H 24.9 92.806 81.817 H 0.0 **** 0.0
@<TRIPOS>BOND
1 1 2 1
2 1 3 1
3 1 4 1
4 1 5 1
@<TRIPOS>MOLECULE
CH4
5 4
SMALL
USER_CHARGES


@<TRIPOS>ATOM
1 C 19.032 60.402 93.432 C 0.0 **** 0.0
2 H 18.216 60.613 94.124 H 0.0 **** 0.0
3 H 19.075 59.331 93.237 H 0.0 **** 0.0
4 H 19.974 60.731 93.87 H 0.0 **** 0.0
5 H 18.861 60.935 92.496 H 0.0 **** 0.0
@<TRIPOS>BOND
1 1 2 1
2 1 3 1
3 1 4 1
4 1 5 1
@<TRIPOS>MOLECULE
CH4
5 4
SMALL
USER_CHARGES


@<TRIPOS>ATOM
1 C 66.409 30.105 1.465 C 0.0 **** 0.0
2 H 66.226 30.827 2.261 H 0.0 **** 0.0
3 H 65.489 29.945 0.902 H 0.0 **** 0.0
4 H 66.738 29.161 1.9 H 0.0 **** 0.0
5 H 67.182 30.487 0.799 H 0.0 **** 0.0
@<TRIPOS>BOND
1 1 3 1
2 1 4 1
3 1 5 1
4 1 2 1
@<TRIPOS>MOLECULE
CH4
5 4
SMALL
USER_CHARGES


@<TRIPOS>ATOM
1 C 85.001 37.08 66.702 C 0.0 **** 0.0
2 H 85.5 36.717 65.803 H 0.0 **** 0.0
3 H 85.024 36.305 67.468 H 0.0 **** 0.0
4 H 83.966 37.328 66.467 H 0.0 **** 0.0
5 H 85.514 37.969 67.068 H 0.0 **** 0.0
@<TRIPOS>BOND
1 1 2 1
2 1 3 1
3 1 4 1
4 1 5 1
@<TRIPOS>MOLECULE
CH4
5 4
SMALL
USER_CHARGES


@<TRIPOS>ATOM
1 C 33.633 37.621 42.081 C 0.0 **** 0.0
2 H 33.438 37.81 41.025 H 0.0 **** 0.0
3 H 33.176 38.407 42.681 H 0.0 **** 0.0
4 H 34.709 37.61 42.254 H 0.0 **** 0.0
5 H 33.21 36.656 42.361 H 0.0 **** 0.0
@<TRIPOS>BOND
1 1 2 1
2 1 3 1
3 1 4 1
4 1 5 1
@<TRIPOS>MOLECULE
CH4
5 4
SMALL
USER_CHARGES


@<TRIPOS>ATOM
1 C 47.512 62.749 92.381 C 0.0 **** 0.0
2 H 47.288 63.448 91.576 H 0.0 **** 0.0
3 H 46.614 62.577 92.974 H 0.0 **** 0.0
4 H 48.293 63.167 93.018 H 0.0 **** 0.0
5 H 47.856 61.806 91.958 H 0.0 **** 0.0
@<TRIPOS>BOND
1 1 2 1
2 1 3 1
3 1 4 1
4 1 5 1
@<TRIPOS>MOLECULE
CH4
5 4
SMALL
USER_CHARGES


@<TRIPOS>ATOM
1 C 70.195 55.529 87.465 C 0.0 **** 0.0
2 H 70.097 54.449 87.361 H 0.0 **** 0.0
3 H 70.902 55.754 88.264 H 0.0 **** 0.0
4 H 69.223 55.96 87.708 H 0.0 **** 0.0
5 H 70.556 55.953 86.528 H 0.0 **** 0.0
@<TRIPOS>BOND
1 1 2 1
2 1 3 1
3 1 4 1
4 1 5 1
@<TRIPOS>MOLECULE
CH4
5 4
SMALL
USER_CHARGES


@<TRIPOS>ATOM
1 C 68.277 41.934 39.044 C 0.0 **** 0.0
2 H 68.377 40.861 39.202 H 0.0 **** 0.0
3 H 67.962 42.122 38.017 H 0.0 **** 0.0
4 H 69.237 42.418 39.224 H 0.0 **** 0.0
5 H 67.533 42.336 39.732 H 0.0 **** 0.0
@<TRIPOS>BOND
1 1 2 1
2 1 3 1
3 1 4 1
4 1 5 1
@<TRIPOS>MOLECULE
CH4
5 4
SMALL
USER_CHARGES


@<TRIPOS>ATOM
1 C 27.486 86.05 90.423 C 0.0 **** 0.0
2 H 26.971 85.172 90.034 H 0.0 **** 0.0
3 H 26.754 86.818 90.675 H 0.0 **** 0.0
4 H 28.17 86.435 89.666 H 0.0 **** 0.0
5 H 28.048 85.776 91.315 H 0.0 **** 0.0
@<TRIPOS>BOND
1 1 2 1
2 1 3 1
3 1 4 1
4 1 5 1
@<TRIPOS>MOLECULE
CH4
5 4
SMALL
USER_CHARGES


@<TRIPOS>ATOM
1 C 24.689 56.635 47.351 C 0.0 **** 0.0
2 H 25.22 55.694 47.206 H 0.0 **** 0.0
3 H 23.614 56.448 47.348 H 0.0 **** 0.0
4 H 24.94 57.322 46.543 H 0.0 **** 0.0
5 H 24.98 57.073 48.305 H 0.0 **** 0.0
@<TRIPOS>BOND
1 1 2 1
2 1 3 1
3 1 4 1
4 1 5 1
@<TRIPOS>MOLECULE
CH4
5 4
SMALL
USER_CHARGES


@<TRIPOS>ATOM
1 C 17.217 34.012 62.48 C 0.0 **** 0.0
2 H 16.331 34.1 63.108 H 0.0 **** 0.0
3 H 18.108 34.008 63.108 H 0.0 **** 0.0
4 H 17.26 34.856 61.792 H 0.0 **** 0.0
5 H 17.168 33.082 61.912 H 0.0 **** 0.0
@<TRIPOS>BOND
1 1 2 1
2 1 3 1
3 1 4 1
4 1 5 1
@<TRIPOS>MOLECULE
CH4
5 4
SMALL
USER_CHARGES


@<TRIPOS>ATOM
1 C 60.915 80.253 20.439 C 0.0 **** 0.0
2 H 59.874 79.996 20.637 H 0.0 **** 0.0
3 H 61.494 80.155 21.357 H 0.0 **** 0.0
4 H 60.973 81.28 20.079 H 0.0 **** 0.0
5 H 61.317 79.58 19.681 H 0.0 **** 0.0
@<TRIPOS>BOND
1 1 2 1
2 1 3 1
3 1 4 1
4 1 5 1
@<TRIPOS>MOLECULE
CH4
5 4
SMALL
USER_CHARGES


@<TRIPOS>ATOM
1 C 52.189 53.35 75.176 C 0.0 **** 0.0
2 H 53.046 53.034 74.581 H 0.0 **** 0.0
3 H 51.949 52.578 75.907 H 0.0 **** 0.0
4 H 51.332 53.511 74.522 H 0.0 **** 0.0
5 H 52.429 54.279 75.694 H 0.0 **** 0.0
@<TRIPOS>BOND
1 1 2 1
2 1 3 1
3 1 4 1
4 1 5 1
@<TRIPOS>MOLECULE
CH4
5 4
SMALL
USER_CHARGES


@<TRIPOS>ATOM
1 C 44.404 33.63 23.97 C 0.0 **** 0.0
2 H 44.465 33.656 22.882 H 0.0 **** 0.0
3 H 45.16 34.293 24.391 H 0.0 **** 0.0
4 H 44.576 32.613 24.32 H 0.0 **** 0.0
5 H 43.414 33.961 24.285 H 0.0 **** 0.0
@<TRIPOS>BOND
1 1 2 1
2 1 3 1
3 1 4 1
4 1 5 1
@<TRIPOS>MOLECULE
CH4
5 4
SMALL
USER_CHARGES


@<TRIPOS>ATOM
1 C 40.881 17.35 37.063 C 0.0 **** 0.0
2 H 41.197 18.319 37.45 H 0.0 **** 0.0
3 H 41.04 16.585 37.824 H 0.0 **** 0.0
4 H 41.464 17.106 36.175 H 0.0 **** 0.0
5 H 39.823 17.39 36.803 H 0.0 **** 0.0
@<TRIPOS>BOND
1 1 2 1
2 1 3 1
3 1 4 1
4 1 5 1
@<TRIPOS>MOLECULE
CH4
5 4
SMALL
USER_CHARGES


@<TRIPOS>ATOM
1 C 81.072 41.431 51.772 C 0.0 **** 0.0
2 H 81.446 41.383 50.749 H 0.0 **** 0.0
3 H 81.17 42.451 52.147 H 0.0 **** 0.0
4 H 81.65 40.755 52.402 H 0.0 **** 0.0
5 H 80.023 41.137 51.789 H 0.0 **** 0.0
@<TRIPOS>BOND
1 1 2 1
2 1 3 1
3 1 4 1
4 1 5 1
@<TRIPOS>MOLECULE
CH4
5 4
SMALL
USER_CHARGES


@<TRIPOS>ATOM
1 C 94.493 1.073 58.508 C 0.0 **** 0.0
2 H 94.41 0.04 58.169 H 0.0 **** 0.0
3 H 94.265 1.746 57.681 H 0.0 **** 0.0
4 H 95.508 1.259 58.859 H 0.0 **** 0.0
5 H 93.789 1.246 59.322 H 0.0 **** 0.0
@<TRIPOS>BOND
1 1 2 1
2 1 3 1
3 1 4 1
4 1 5 1
@<TRIPOS>MOLECULE
CH4
5 4
SMALL
USER_CHARGES


@<TRIPOS>ATOM
1 C 15.026 33.534 59.36 C 0.0 **** 0.0
2 H 15.685 32.799 58.898 H 0.0 **** 0.0
3 H 14.782 34.31 58.635 H 0.0 **** 0.0
4 H 15.527 33.983 60.218 H 0.0 **** 0.0
5 H 14.11 33.044 59.69 H 0.0 **** 0.0
@<TRIPOS>BOND
1 1 2 1
2 1 3 1
3 1 4 1
4 1 5 1
@<TRIPOS>MOLECULE
CH4
5 4
SMALL
USER_CHARGES


@<TRIPOS>ATOM
1 C 21.939 88.362 23.172 C 0.0 **** 0.0
2 H 21.862 88.391 24.259 H 0.0 **** 0.0
3 H 22.766 87.714 22.883 H 0.0 **** 0.0
4 H 22.116 89.369 22.793 H 0.0 **** 0.0
5 H 21.01 87.975 22.753 H 0.0 **** 0.0
@<TRIPOS>BOND
1 1 2 1
2 1 3 1
3 1 4 1
4 1 5 1
@<TRIPOS>MOLECULE
CH4
5 4
SMALL
USER_CHARGES


@<TRIPOS>ATOM
1 C 28.519 41.408 62.255 C 0.0 **** 0.0
2 H 28.336 42.253 62.919 H 0.0 **** 0.0
3 H 29.086 40.644 62.788 H 0.0 **** 0.0
4 H 29.088 41.744 61.388 H 0.0 **** 0.0
5 H 27.567 40.991 61.926 H 0.0 **** 0.0
@<TRIPOS>BOND
1 1 2 1
2 1 3 1
3 1 4 1
4 1 5 1
@<TRIPOS>MOLECULE
CH4
5 4
SMALL
USER_CHARGES


@<TRIPOS>ATOM
1 C 7.28 35.725 72.945 C 0.0 **** 0.0
2 H 7.301 35.727 71.855 H 0.0 **** 0.0
3 H 7.268 34.696 73.306 H 0.0 **** 0.0
4 H 6.386 36.242 73.293 H 0.0 **** 0.0
5 H 8.166 36.233 73.326 H 0.0 **** 0.0
@<TRIPOS>BOND
1 1 2 1
2 1 3 1
3 1 4 1
4 1 5 1
@<TRIPOS>MOLECULE
CH4
5 4
SMALL
USER_CHARGES


@<TRIPOS>ATOM
1 C 59.821 63.19 65.576 C 0.0 **** 0.0
2 H 59.822 63.095 64.49 H 0.0 **** 0.0
3 H 59.094 63.945 65.874 H 0.0 **** 0.0
4 H 60.814 63.486 65.916 H 0.0 **** 0.0
5 H 59.555 62.232 66.024 H 0.0 **** 0.0
@<TRIPOS>BOND
1 1 2 1
2 1 3 1
3 1 4 1
4 1 5 1
@<TRIPOS>MOLECULE
CH4
5 4
SMALL
USER_CHARGES


@<TRIPOS>ATOM
1 C 92.981 13.264 16.141 C 0.0 **** 0.0
2 H 93.762 13.99 16.366 H 0.0 **** 0.0
3 H 93.425 12.392 15.66 H 0.0 **** 0.0
4 H 92.248 13.715 15.473 H 0.0 **** 0.0
5 H 92.492 12.959 17.066 H 0.0 **** 0.0
@<TRIPOS>BOND
1 1 2 1
2 1 3 1
3 1 4 1
4 1 5 1
@<TRIPOS>MOLECULE
CH4
5 4
SMALL
USER_CHARGES


@<TRIPOS>ATOM
1 C 27.867 73.111 18.222 C 0.0 **** 0.0
2 H 28.303 72.983 17.232 H 0.0 **** 0.0
3 H 28.178 72.288 18.866 H 0.0 **** 0.0
4 H 26.78 73.118 18.142 H 0.0 **** 0.0
5 H 28.206 74.055 18.649 H 0.0 **** 0.0
@<TRIPOS>BOND
1 1 2 1
2 1 3 1
3 1 4 1
4 1 5 1
@<TRIPOS>MOLECULE
CH4
5 4
SMALL
USER_CHARGES


@<TRIPOS>ATOM
1 C 17.695 94.959 39.507 C 0.0 **** 0.0
2 H 17.288 95.966 39.409 H 0.0 **** 0.0
3 H 18.631 94.999 40.064 H 0.0 **** 0.0
4 H 17.879 94.545 38.515 H 0.0 **** 0.0
5 H 16.982 94.329 40.038 H 0.0 **** 0.0
@<TRIPOS>BOND
1 1 2 1
2 1 3 1
3 1 4 1
4 1 5 1
@<TRIPOS>MOLECULE
CH4
5 4
SMALL
USER_CHARGES


@<TRIPOS>ATOM
1 C 96.306 76.613 80.566 C 0.0 **** 0.0
2 H 95.656 77.486 80.504 H 0.0 **** 0.0
3 H 96.12 75.961 79.712 H 0.0 **** 0.0
4 H 96.098 76.071 81.489 H 0.0 **** 0.0
5 H 97.347 76.933 80.559 H 0.0 **** 0.0
@<TRIPOS>BOND
1 1 2 1
2 1 3 1
3 1 4 1
4 1 5 1
@<TRIPOS>MOLECULE
CH4
5 4
SMALL
USER_CHARGES


@<TRIPOS>ATOM
1 C 31.649 40.543 5.605 C 0.0 **** 0.0
2 H 31.527 41.585 5.31 H 0.0 **** 0.0
3 H 31.813 40.487 6.682 H 0.0 **** 0.0
4 H 32.506 40.116 5.085 H 0.0 **** 0.0
5 H 30.75 39.984 5.345 H 0.0 **** 0.0
@<TRIPOS>BOND
1 1 2 1
2 1 3 1
3 1 4 1
4 1 5 1
@<TRIPOS>MOLECULE
CH4
5 4
SMALL
USER_CHARGES


@<TRIPOS>ATOM
1 C 7.087 41.869 14.183 C 0.0 **** 0.0
2 H 6.224 41.702 13.538 H 0.0 **** 0.0
3 H 7.89 41.188 13.899 H 0.0 **** 0.0
4 H 6.805 41.687 15.221 H 0.0 **** 0.0
5 H 7.427 42.899 14.075 H 0.0 **** 0.0
@<TRIPOS>BOND
1 1 4 1
2 1 2 1
3 1 3 1
4 1 5 1
@<TRIPOS>MOLECULE
CH4
5 4
SMALL
USER_CHARGES


@<TRIPOS>ATOM
1 C 11.059 59.507 12.018 C 0.0 **** 0.0
2 H 11.1 59.684 13.093 H 0.0 **** 0.0
3 H 11.512 58.541 11.792 H 0.0 **** 0.0
4 H 11.605 60.295 11.499 H 0.0 **** 0.0
5 H 10.02 59.507 11.689 H 0.0 **** 0.0
@<TRIPOS>BOND
1 1 2 1
2 1 3 1
3 1 4 1
4 1 5 1
@<TRIPOS>MOLECULE
CH4
5 4
SMALL
USER_CHARGES


@<TRIPOS>ATOM
1 C 63.707 86.591 80.031 C 0.0 **** 0.0
2 H 63.846 85.841 79.252 H 0.0 **** 0.0
3 H 64.654 86.762 80.543 H 0.0 **** 0.0
4 H 62.965 86.237 80.747 H 0.0 **** 0.0
5 H 63.363 87.522 79.581 H 0.0 **** 0.0
@<TRIPOS>BOND
1 1 2 1
2 1 3 1
3 1 4 1
4 1 5 1
@<TRIPOS>MOLECULE
CH4
5 4
SMALL
USER_CHARGES


@<TRIPOS>ATOM
1 C 91.333 17.261 3.427 C 0.0 **** 0.0
2 H 91.089 16.199 3.457 H 0.0 **** 0.0
3 H 90.573 17.823 3.972 H 0.0 **** 0.0
4 H 91.362 17.598 2.391 H 0.0 **** 0.0
5 H 92.306 17.423 3.89 H 0.0 **** 0.0
@<TRIPOS>BOND
1 1 2 1
2 1 3 1
3 1 4 1
4 1 5 1
@<TRIPOS>MOLECULE
CH4
5 4
SMALL
USER_CHARGES


@<TRIPOS>ATOM
1 C 34.998 90.953 67.08 C 0.0 **** 0.0
2 H 34.927 90.588 66.055 H 0.0 **** 0.0
3 H 34.453 90.281 67.743 H 0.0 **** 0.0
4 H 34.567 91.953 67.14 H 0.0 **** 0.0
5 H 36.045 90.991 67.38 H 0.0 **** 0.0
@<TRIPOS>BOND
1 1 2 1
2 1 3 1
3 1 4 1
4 1 5 1
@<TRIPOS>MOLECULE
CH4
5 4
SMALL
USER_CHARGES


@<TRIPOS>ATOM
1 C 67.437 78.785 20.846 C 0.0 **** 0.0
2 H 67.47 78.792 21.936 H 0.0 **** 0.0
3 H 67.085 77.813 20.5 H 0.0 **** 0.0
4 H 68.435 78.973 20.451 H 0.0 **** 0.0
5 H 66.756 79.562 20.499 H 0.0 **** 0.0
@<TRIPOS>BOND
1 1 2 1
2 1 3 1
3 1 4 1
4 1 5 1
@<TRIPOS>MOLECULE
CH4
5 4
SMALL
USER_CHARGES


@<TRIPOS>ATOM
1 C 80.046 80.577 55.325 C 0.0 **** 0.0
2 H 80.932 81.2 55.2 H 0.0 **** 0.0
3 H 79.697 80.241 54.348 H 0.0 **** 0.0
4 H 79.261 81.155 55.813 H 0.0 **** 0.0
5 H 80.295 79.711 55.94 H 0.0 **** 0.0
@<TRIPOS>BOND
1 1 2 1
2 1 3 1
3 1 4 1
4 1 5 1
@<TRIPOS>MOLECULE
CH4
5 4
SMALL
USER_CHARGES


@<TRIPOS>ATOM
1 C 24.541 60.043 11.587 C 0.0 **** 0.0
2 H 23.897 60.63 10.933 H 0.0 **** 0.0
3 H 23.978 59.2 11.989 H 0.0 **** 0.0
4 H 24.893 60.669 12.407 H 0.0 **** 0.0
5 H 25.394 59.673 11.019 H 0.0 **** 0.0
@<TRIPOS>BOND
1 1 2 1
2 1 3 1
3 1 4 1
4 1 5 1
@<TRIPOS>MOLECULE
CH4
5 4
SMALL
USER_CHARGES


@<TRIPOS>ATOM
1 C 30.224 8.994 13.892 C 0.0 **** 0.0
2 H 30.452 8.972 14.958 H 0.0 **** 0.0
3 H 30.788 8.211 13.385 H 0.0 **** 0.0
4 H 30.5 9.965 13.482 H 0.0 **** 0.0
5 H 29.157 8.827 13.746 H 0.0 **** 0.0
@<TRIPOS>BOND
1 1 2 1
2 1 3 1
3 1 4 1
4 1 5 1
@<TRIPOS>MOLECULE
CH4
5 4
SMALL
USER_CHARGES


@<TRIPOS>ATOM
1 C 22.908 34.139 66.997 C 0.0 **** 0.0
2 H 23.185 34.655 66.078 H 0.0 **** 0.0
3 H 22.905 34.848 67.826 H 0.0 **** 0.0
4 H 23.627 33.346 67.2 H 0.0 **** 0.0
5 H 21.913 33.707 66.885 H 0.0 **** 0.0
@<TRIPOS>BOND
1 1 2 1
2 1 3 1
3 1 4 1
4 1 5 1
@<TRIPOS>MOLECULE
CH4
5 4
SMALL
USER_CHARGES


@<TRIPOS>ATOM
1 C 29.333 66.837 59.948 C 0.0 **** 0.0
2 H 29.525 66.49 58.932 H 0.0 **** 0.0
3 H 29.742 67.84 60.072 H 0.0 **** 0.0
4 H 29.807 66.16 60.658 H 0.0 **** 0.0
5 H 28.258 66.857 60.128 H 0.0 **** 0.0
@<TRIPOS>BOND
1 1 2 1
2 1 3 1
3 1 4 1
4 1 5 1
@<TRIPOS>MOLECULE
CH4
5 4
SMALL
USER_CHARGES


@<TRIPOS>ATOM
1 C 95.169 89.329 72.79 C 0.0 **** 0.0
2 H 94.863 89.205 71.752 H 0.0 **** 0.0
3 H 95.673 88.425 73.131 H 0.0 **** 0.0
4 H 94.289 89.51 73.408 H 0.0 **** 0.0
5 H 95.849 90.177 72.87 H 0.0 **** 0.0
@<TRIPOS>BOND
1 1 2 1
2 1 3 1
3 1 4 1
4 1 5 1
@<TRIPOS>MOLECULE
CH4
5 4
SMALL
USER_CHARGES


@<TRIPOS>ATOM
1 C 49.584 74.778 7.379 C 0.0 **** 0.0
2 H 48.675 75.315 7.109 H 0.0 **** 0.0
3 H 49.837 74.99 8.418 H 0.0 **** 0.0
4 H 50.401 75.1 6.733 H 0.0 **** 0.0
5 H 49.423 73.707 7.255 H 0.0 **** 0.0
@<TRIPOS>BOND
1 1 2 1
2 1 3 1
3 1 4 1
4 1 5 1
@<TRIPOS>MOLECULE
CH4
5 4
SMALL
USER_CHARGES


@<TRIPOS>ATOM
1 C 60.602 9.089 42.227 C 0.0 **** 0.0
2 H 60.81 8.021 42.165 H 0.0 **** 0.0
3 H 59.531 9.243 42.363 H 0.0 **** 0.0
4 H 60.926 9.576 41.308 H 0.0 **** 0.0
5 H 61.141 9.515 43.074 H 0.0 **** 0.0
@<TRIPOS>BOND
1 1 2 1
2 1 3 1
3 1 4 1
4 1 5 1
@<TRIPOS>MOLECULE
CH4
5 4
SMALL
USER_CHARGES


@<TRIPOS>ATOM
1 C 20.287 39.726 35.071 C 0.0 **** 0.0
2 H 20.428 38.74 34.629 H 0.0 **** 0.0
3 H 20.75 39.752 36.057 H 0.0 **** 0.0
4 H 19.221 39.934 35.164 H 0.0 **** 0.0
5 H 20.749 40.479 34.432 H 0.0 **** 0.0
@<TRIPOS>BOND
1 1 2 1
2 1 3 1
3 1 4 1
4 1 5 1
@<TRIPOS>MOLECULE
CH4
5 4
SMALL
USER_CHARGES


@<TRIPOS>ATOM
1 C 65.891 4.524 49.548 C 0.0 **** 0.0
2 H 66.514 4.385 48.664 H 0.0 **** 0.0
3 H 65.457 3.567 49.839 H 0.0 **** 0.0
4 H 65.093 5.231 49.321 H 0.0 **** 0.0
5 H 66.499 4.912 50.365 H 0.0 **** 0.0
@<TRIPOS>BOND
1 1 2 1
2 1 3 1
3 1 4 1
4 1 5 1
@<TRIPOS>MOLECULE
CH4
5 4
SMALL
USER_CHARGES


@<TRIPOS>ATOM
1 C 47.322 40.712 23.947 C 0.0 **** 0.0
2 H 46.478 40.621 24.631 H 0.0 **** 0.0
3 H 47.993 39.864 24.082 H 0.0 **** 0.0
4 H 47.859 41.638 24.154 H 0.0 **** 0.0
5 H 46.957 40.727 22.92 H 0.0 **** 0.0
@<TRIPOS>BOND
1 1 2 1
2 1 3 1
3 1 4 1
4 1 5 1
@<TRIPOS>MOLECULE
CH4
5 4
SMALL
USER_CHARGES


@<TRIPOS>ATOM
1 C 30.141 86.014 39.028 C 0.0 **** 0.0
2 H 30.507 86.069 38.003 H 0.0 **** 0.0
3 H 29.052 86.062 39.028 H 0.0 **** 0.0
4 H 30.541 86.85 39.602 H 0.0 **** 0.0
5 H 30.464 85.076 39.479 H 0.0 **** 0.0
@<TRIPOS>BOND
1 1 2 1
2 1 3 1
3 1 4 1
4 1 5 1
@<TRIPOS>MOLECULE
CH4
5 4
SMALL
USER_CHARGES


@<TRIPOS>ATOM
1 C 64.425 37.083 22.25 C 0.0 **** 0.0
2 H 63.549 36.464 22.443 H 0.0 **** 0.0
3 H 64.164 38.133 22.382 H 0.0 **** 0.0
4 H 64.768 36.92 21.228 H 0.0 **** 0.0
5 H 65.22 36.815 22.947 H 0.0 **** 0.0
@<TRIPOS>BOND
1 1 2 1
2 1 3 1
3 1 4 1
4 1 5 1
@<TRIPOS>MOLECULE
CH4
5 4
SMALL
USER_CHARGES


@<TRIPOS>ATOM
1 C 59.99 29.655 74.723 C 0.0 **** 0.0
2 H 59.984 29.687 75.812 H 0.0 **** 0.0
3 H 60.274 30.633 74.332 H 0.0 **** 0.0
4 H 58.995 29.394 74.362 H 0.0 **** 0.0
5 H 60.707 28.907 74.385 H 0.0 **** 0.0
@<TRIPOS>BOND
1 1 2 1
2 1 3 1
3 1 4 1
4 1 5 1
@<TRIPOS>MOLECULE
CH4
5 4
SMALL
USER_CHARGES


@<TRIPOS>ATOM
1 C 27.932 57.303 3.094 C 0.0 **** 0.0
2 H 27.938 57.304 2.004 H 0.0 **** 0.0
3 H 28.547 58.124 3.461 H 0.0 **** 0.0
4 H 28.333 56.357 3.458 H 0.0 **** 0.0
5 H 26.91 57.426 3.452 H 0.0 **** 0.0
@<TRIPOS>BOND
1 1 2 1
2 1 3 1
3 1 4 1
4 1 5 1
@<TRIPOS>MOLECULE
CH4
5 4
SMALL
USER_CHARGES


@<TRIPOS>ATOM
1 C 30.827 96.039 75.702 C 0.0 **** 0.0
2 H 30.811 96.027 74.612 H 0.0 **** 0.0
3 H 29.849 96.343 76.075 H 0.0 **** 0.0
4 H 31.583 96.745 76.046 H 0.0 **** 0.0
5 H 31.064 95.042 76.072 H 0.0 **** 0.0
@<TRIPOS>BOND
1 1 2 1
2 1 3 1
3 1 4 1
4 1 5 1
@<TRIPOS>MOLECULE
CH4
5 4
SMALL
USER_CHARGES


@<TRIPOS>ATOM
1 C 97.335 21.977 82.306 C 0.0 **** 0.0
2 H 96.947 22.891 81.855 H 0.0 **** 0.0
3 H 98.423 21.976 82.247 H 0.0 **** 0.0
4 H 96.941 21.113 81.77 H 0.0 **** 0.0
5 H 97.027 21.929 83.35 H 0.0 **** 0.0
@<TRIPOS>BOND
1 1 2 1
2 1 3 1
3 1 4 1
4 1 5 1
@<TRIPOS>MOLECULE
CH4
5 4
SMALL
USER_CHARGES


@<TRIPOS>ATOM
1 C 95.13 77.837 77.15 C 0.0 **** 0.0
2 H 94.576 77.46 76.29 H 0.0 **** 0.0
3 H 94.822 77.296 78.045 H 0.0 **** 0.0
4 H 94.922 78.899 77.278 H 0.0 **** 0.0
5 H 96.197 77.692 76.987 H 0.0 **** 0.0
@<TRIPOS>BOND
1 1 2 1
2 1 3 1
3 1 4 1
4 1 5 1
@<TRIPOS>MOLECULE
CH4
5 4
SMALL
USER_CHARGES


@<TRIPOS>ATOM
1 C 81.213 69.257 30.343 C 0.0 **** 0.0
2 H 81.034 69.535 31.381 H 0.0 **** 0.0
3 H 80.354 69.546 29.736 H 0.0 **** 0.0
4 H 81.36 68.179 30.275 H 0.0 **** 0.0
5 H 82.104 69.768 29.978 H 0.0 **** 0.0
@<TRIPOS>BOND
1 1 2 1
2 1 3 1
3 1 4 1
4 1 5 1
@<TRIPOS>MOLECULE
CH4
5 4
SMALL
USER_CHARGES


@<TRIPOS>ATOM
1 C 56.502 74.917 23.264 C 0.0 **** 0.0
2 H 57.299 74.955 22.521 H 0.0 **** 0.0
3 H 56.645 75.717 23.991 H 0.0 **** 0.0
4 H 56.526 73.954 23.773 H 0.0 **** 0.0
5 H 55.539 75.043 22.769 H 0.0 **** 0.0
@<TRIPOS>BOND
1 1 2 1
2 1 3 1
3 1 4 1
4 1 5 1
@<TRIPOS>MOLECULE
CH4
5 4
SMALL
USER_CHARGES


@<TRIPOS>ATOM
1 C 22.203 88.367 40.639 C 0.0 **** 0.0
2 H 22.198 87.826 39.693 H 0.0 **** 0.0
3 H 21.684 89.317 40.517 H 0.0 **** 0.0
4 H 23.233 88.551 40.946 H 0.0 **** 0.0
5 H 21.699 87.772 41.4 H 0.0 **** 0.0
@<TRIPOS>BOND
1 1 2 1
2 1 3 1
3 1 4 1
4 1 5 1
@<TRIPOS>MOLECULE
CH4
5 4
SMALL
USER_CHARGES


@<TRIPOS>ATOM
1 C 53.735 73.712 10.317 C 0.0 **** 0.0
2 H 54.297 73.939 11.222 H 0.0 **** 0.0
3 H 52.871 73.097 10.571 H 0.0 **** 0.0
4 H 54.374 73.17 9.619 H 0.0 **** 0.0
5 H 53.398 74.64 9.856 H 0.0 **** 0.0
@<TRIPOS>BOND
1 1 2 1
2 1 3 1
3 1 4 1
4 1 5 1
@<TRIPOS>MOLECULE
CH4
5 4
SMALL
USER_CHARGES


@<TRIPOS>ATOM
1 C 16.865 77.475 89.318 C 0.0 **** 0.0
2 H 17.262 78.17 88.578 H 0.0 **** 0.0
3 H 17.486 77.503 90.213 H 0.0 **** 0.0
4 H 16.867 76.466 88.905 H 0.0 **** 0.0
5 H 15.844 77.761 89.573 H 0.0 **** 0.0
@<TRIPOS>BOND
1 1 2 1
2 1 3 1
3 1 4 1
4 1 5 1
@<TRIPOS>MOLECULE
CH4
5 4
SMALL
USER_CHARGES


@<TRIPOS>ATOM
1 C 50.717 5.488 54.47 C 0.0 **** 0.0
2 H 51.488 6.241 54.311 H 0.0 **** 0.0
3 H 51.103 4.705 55.124 H 0.0 **** 0.0
4 H 50.431 5.053 53.513 H 0.0 **** 0.0
5 H 49.846 5.952 54.933 H 0.0 **** 0.0
@<TRIPOS>BOND
1 1 2 1
2 1 3 1
3 1 4 1
4 1 5 1
@<TRIPOS>MOLECULE
CH4
5 4
SMALL
USER_CHARGES


@<TRIPOS>ATOM
1 C 81.303 82.116 64.495 C 0.0 **** 0.0
2 H 81.345 81.531 63.576 H 0.0 **** 0.0
3 H 81.317 81.444 65.354 H 0.0 **** 0.0
4 H 80.386 82.704 64.509 H 0.0 **** 0.0
5 H 82.164 82.783 64.541 H 0.0 **** 0.0
@<TRIPOS>BOND
1 1 2 1
2 1 3 1
3 1 4 1
4 1 5 1
@<TRIPOS>MOLECULE
CH4
5 4
SMALL
USER_CHARGES


@<TRIPOS>ATOM
1 C 6.281 92.264 20.488 C 0.0 **** 0.0
2 H 6.277 92.272 19.398 H 0.0 **** 0.0
3 H 5.889 91.311 20.845 H 0.0 **** 0.0
4 H 5.656 93.076 20.859 H 0.0 **** 0.0
5 H 7.301 92.396 20.849 H 0.0 **** 0.0
@<TRIPOS>BOND
1 1 2 1
2 1 3 1
3 1 4 1
4 1 5 1
@<TRIPOS>MOLECULE
CH4
5 4
SMALL
USER_CHARGES


@<TRIPOS>ATOM
1 C 14.874 94.869 35.131 C 0.0 **** 0.0
2 H 15.111 94.713 36.183 H 0.0 **** 0.0
3 H 15.622 94.371 34.513 H 0.0 **** 0.0
4 H 14.876 95.937 34.913 H 0.0 **** 0.0
5 H 13.889 94.455 34.915 H 0.0 **** 0.0
@<TRIPOS>BOND
1 1 2 1
2 1 3 1
3 1 4 1
4 1 5 1
@<TRIPOS>MOLECULE
CH4
5 4
SMALL
USER_CHARGES


@<TRIPOS>ATOM
1 C 50.301 3.232 89.68 C 0.0 **** 0.0
2 H 50.338 3.074 90.758 H 0.0 **** 0.0
3 H 50.367 4.3 89.468 H 0.0 **** 0.0
4 H 49.362 2.841 89.287 H 0.0 **** 0.0
5 H 51.136 2.715 89.208 H 0.0 **** 0.0
@<TRIPOS>BOND
1 1 2 1
2 1 3 1
3 1 4 1
4 1 5 1
@<TRIPOS>MOLECULE
CH4
5 4
SMALL
USER_CHARGES


@<TRIPOS>ATOM
1 C 70.117 18.208 52.563 C 0.0 **** 0.0
2 H 69.432 19.027 52.345 H 0.0 **** 0.0
3 H 69.828 17.33 51.985 H 0.0 **** 0.0
4 H 70.076 17.973 53.627 H 0.0 **** 0.0
5 H 71.131 18.502 52.295 H 0.0 **** 0.0
@<TRIPOS>BOND
1 1 5 1
2 1 2 1
3 1 3 1
4 1 4 1
@<TRIPOS>MOLECULE
CH4
5 4
SMALL
USER_CHARGES


@<TRIPOS>ATOM
1 C 2.605 36.711 13.445 C 0.0 **** 0.0
2 H 2.523 36.797 12.361 H 0.0 **** 0.0
3 H 2.997 37.643 13.854 H 0.0 **** 0.0
4 H 3.28 35.892 13.694 H 0.0 **** 0.0
5 H 1.621 36.512 13.869 H 0.0 **** 0.0
@<TRIPOS>BOND
1 1 2 1
2 1 3 1
3 1 4 1
4 1 5 1
@<TRIPOS>MOLECULE
CH4
5 4
SMALL
USER_CHARGES


@<TRIPOS>ATOM
1 C 21.605 37.408 60.655 C 0.0 **** 0.0
2 H 21.82 37.922 59.718 H 0.0 **** 0.0
3 H 20.573 37.056 60.647 H 0.0 **** 0.0
4 H 21.749 38.095 61.488 H 0.0 **** 0.0
5 H 22.278 36.558 60.765 H 0.0 **** 0.0
@<TRIPOS>BOND
1 1 2 1
2 1 3 1
3 1 4 1
4 1 5 1
@<TRIPOS>MOLECULE
CH4
5 4
SMALL
USER_CHARGES


@<TRIPOS>ATOM
1 C 73.939 73.441 50.821 C 0.0 **** 0.0
2 H 74.217 74.493 50.763 H 0.0 **** 0.0
3 H 74.826 72.823 50.678 H 0.0 **** 0.0
4 H 73.209 73.215 50.044 H 0.0 **** 0.0
5 H 73.504 73.233 51.799 H 0.0 **** 0.0
@<TRIPOS>BOND
1 1 2 1
2 1 3 1
3 1 4 1
4 1 5 1
@<TRIPOS>MOLECULE
CH4
5 4
SMALL
USER_CHARGES


@<TRIPOS>ATOM
1 C 39.82 38.375 27.628 C 0.0 **** 0.0
2 H 40.031 38.702 26.61 H 0.0 **** 0.0
3 H 38.863 38.785 27.95 H 0.0 **** 0.0
4 H 40.609 38.726 28.293 H 0.0 **** 0.0
5 H 39.778 37.286 27.658 H 0.0 **** 0.0
@<TRIPOS>BOND
1 1 2 1
2 1 3 1
3 1 4 1
4 1 5 1
@<TRIPOS>MOLECULE
CH4
5 4
SMALL
USER_CHARGES


@<TRIPOS>ATOM
1 C 20.359 90.065 92.589 C 0.0 **** 0.0
2 H 20.272 90.024 93.675 H 0.0 **** 0.0
3 H 19.385 89.868 92.139 H 0.0 **** 0.0
4 H 21.073 89.314 92.253 H 0.0 **** 0.0
5 H 20.704 91.055 92.29 H 0.0 **** 0.0
@<TRIPOS>BOND
1 1 2 1
2 1 3 1
3 1 4 1
4 1 5 1
@<TRIPOS>MOLECULE
CH4
5 4
SMALL
USER_CHARGES


@<TRIPOS>ATOM
1 C 62.166 19.603 4.752 C 0.0 **** 0.0
2 H 62.8 18.758 5.021 H 0.0 **** 0.0
3 H 61.879 19.522 3.703 H 0.0 **** 0.0
4 H 62.714 20.532 4.909 H 0.0 **** 0.0
5 H 61.272 19.599 5.375 H 0.0 **** 0.0
@<TRIPOS>BOND
1 1 2 1
2 1 3 1
3 1 4 1
4 1 5 1
@<TRIPOS>MOLECULE
CH4
5 4
SMALL
USER_CHARGES


@<TRIPOS>ATOM
1 C 98.236 35.05 8.495 C 0.0 **** 0.0
2 H 98.549 34.044 8.772 H 0.0 **** 0.0
3 H 98.315 35.707 9.362 H 0.0 **** 0.0
4 H 97.202 35.027 8.15 H 0.0 **** 0.0
5 H 98.877 35.423 7.697 H 0.0 **** 0.0
@<TRIPOS>BOND
1 1 2 1
2 1 3 1
3 1 4 1
4 1 5 1
@<TRIPOS>MOLECULE
CH4
5 4
SMALL
USER_CHARGES


@<TRIPOS>ATOM
1 C 16.321 79.228 80.39 C 0.0 **** 0.0
2 H 16.725 78.244 80.628 H 0.0 **** 0.0
3 H 16.621 79.509 79.38 H 0.0 **** 0.0
4 H 16.706 79.96 81.1 H 0.0 **** 0.0
5 H 15.233 79.199 80.451 H 0.0 **** 0.0
@<TRIPOS>BOND
1 1 2 1
2 1 3 1
3 1 4 1
4 1 5 1
@<TRIPOS>MOLECULE
CH4
5 4
SMALL
USER_CHARGES


@<TRIPOS>ATOM
1 C 93.798 87.178 86.33 C 0.0 **** 0.0
2 H 93.719 88.205 85.974 H 0.0 **** 0.0
3 H 93.367 86.503 85.591 H 0.0 **** 0.0
4 H 93.259 87.078 87.272 H 0.0 **** 0.0
5 H 94.848 86.926 86.483 H 0.0 **** 0.0
@<TRIPOS>BOND
1 1 2 1
2 1 3 1
3 1 4 1
4 1 5 1
@<TRIPOS>MOLECULE
CH4
5 4
SMALL
USER_CHARGES


@<TRIPOS>ATOM
1 C 87.443 60.2 85.682 C 0.0 **** 0.0
2 H 87.673 60.038 84.629 H 0.0 **** 0.0
3 H 87.978 61.08 86.04 H 0.0 **** 0.0
4 H 87.751 59.328 86.259 H 0.0 **** 0.0
5 H 86.371 60.353 85.8 H 0.0 **** 0.0
@<TRIPOS>BOND
1 1 2 1
2 1 3 1
3 1 4 1
4 1 5 1
@<TRIPOS>MOLECULE
CH4
5 4
SMALL
USER_CHARGES


@<TRIPOS>ATOM
1 C 52.372 86.53 18.725 C 0.0 **** 0.0
2 H 53.265 86.455 18.104 H 0.0 **** 0.0
3 H 52.485 87.36 19.423 H 0.0 **** 0.0
4 H 52.237 85.602 19.281 H 0.0 **** 0.0
5 H 51.503 86.704 18.09 H 0.0 **** 0.0
@<TRIPOS>BOND
1 1 2 1
2 1 3 1
3 1 4 1
4 1 5 1
@<TRIPOS>MOLECULE
CH4
5 4
SMALL
USER_CHARGES


@<TRIPOS>ATOM
1 C 42.583 27.619 33.732 C 0.0 **** 0.0
2 H 42.593 27.604 32.642 H 0.0 **** 0.0
3 H 42.776 26.615 34.11 H 0.0 **** 0.0
4 H 41.607 27.957 34.081 H 0.0 **** 0.0
5 H 43.354 28.298 34.094 H 0.0 **** 0.0
@<TRIPOS>BOND
1 1 2 1
2 1 3 1
3 1 4 1
4 1 5 1
@<TRIPOS>MOLECULE
CH4
5 4
SMALL
USER_CHARGES


@<TRIPOS>ATOM
1 C 33.158 49.398 51.62 C 0.0 **** 0.0
2 H 32.376 50.096 51.321 H 0.0 **** 0.0
3 H 33.945 49.939 52.145 H 0.0 **** 0.0
4 H 33.574 48.919 50.734 H 0.0 **** 0.0
5 H 32.735 48.64 52.279 H 0.0 **** 0.0
@<TRIPOS>BOND
1 1 2 1
2 1 3 1
3 1 4 1
4 1 5 1
@<TRIPOS>MOLECULE
CH4
5 4
SMALL
USER_CHARGES


@<TRIPOS>ATOM
1 C 11.882 39.195 79.286 C 0.0 **** 0.0
2 H 11.297 40.095 79.095 H 0.0 **** 0.0
3 H 12.224 38.776 78.339 H 0.0 **** 0.0
4 H 11.262 38.463 79.805 H 0.0 **** 0.0
5 H 12.743 39.446 79.905 H 0.0 **** 0.0
@<TRIPOS>BOND
1 1 2 1
2 1 3 1
3 1 4 1
4 1 5 1
@<TRIPOS>MOLECULE
CH4
5 4
SMALL
USER_CHARGES


@<TRIPOS>ATOM
1 C 74.387 69.982 56.305 C 0.0 **** 0.0
2 H 75.032 69.193 55.918 H 0.0 **** 0.0
3 H 74.7 70.941 55.89 H 0.0 **** 0.0
4 H 74.464 70.013 57.391 H 0.0 **** 0.0
5 H 73.355 69.781 56.019 H 0.0 **** 0.0
@<TRIPOS>BOND
1 1 2 1
2 1 3 1
3 1 4 1
4 1 5 1
@<TRIPOS>MOLECULE
CH4
5 4
SMALL
USER_CHARGES


@<TRIPOS>ATOM
1 C 47.154 53.346 59.241 C 0.0 **** 0.0
2 H 47.101 54.155 58.512 H 0.0 **** 0.0
3 H 47.664 53.699 60.138 H 0.0 **** 0.0
4 H 47.707 52.509 58.814 H 0.0 **** 0.0
5 H 46.146 53.023 59.498 H 0.0 **** 0.0
@<TRIPOS>BOND
1 1 2 1
2 1 3 1
3 1 4 1
4 1 5 1
@<TRIPOS>MOLECULE
CH4
5 4
SMALL
USER_CHARGES


@<TRIPOS>ATOM
1 C 46.478 17.684 44.999 C 0.0 **** 0.0
2 H 45.46 17.648 45.387 H 0.0 **** 0.0
3 H 46.512 17.196 44.025 H 0.0 **** 0.0
4 H 47.147 17.168 45.688 H 0.0 **** 0.0
5 H 46.791 18.723 44.897 H 0.0 **** 0.0
@<TRIPOS>BOND
1 1 2 1
2 1 3 1
3 1 4 1
4 1 5 1
@<TRIPOS>MOLECULE
CH4
5 4
SMALL
USER_CHARGES


@<TRIPOS>ATOM
1 C 66.978 50.668 5.757 C 0.0 **** 0.0
2 H 66.729 51.672 5.412 H 0.0 **** 0.0
3 H 68.016 50.647 6.091 H 0.0 **** 0.0
4 H 66.845 49.96 4.94 H 0.0 **** 0.0
5 H 66.324 50.395 6.585 H 0.0 **** 0.0
@<TRIPOS>BOND
1 1 2 1
2 1 3 1
3 1 4 1
4 1 5 1
@<TRIPOS>MOLECULE
CH4
5 4
SMALL
USER_CHARGES


@<TRIPOS>ATOM
1 C 82.552 71.098 96.324 C 0.0 **** 0.0
2 H 82.982 71.057 95.324 H 0.0 **** 0.0
3 H 81.873 71.948 96.393 H 0.0 **** 0.0
4 H 83.349 71.209 97.059 H 0.0 **** 0.0
5 H 82.002 70.177 96.521 H 0.0 **** 0.0
@<TRIPOS>BOND
1 1 2 1
2 1 3 1
3 1 4 1
4 1 5 1
@<TRIPOS>MOLECULE
CH4
5 4
SMALL
USER_CHARGES


@<TRIPOS>ATOM
1 C 26.896 51.246 48.159 C 0.0 **** 0.0
2 H 26.428 51.873 48.917 H 0.0 **** 0.0
3 H 26.635 51.617 47.168 H 0.0 **** 0.0
4 H 26.543 50.22 48.268 H 0.0 **** 0.0
5 H 27.979 51.272 48.283 H 0.0 **** 0.0
@<TRIPOS>BOND
1 1 2 1
2 1 3 1
3 1 4 1
4 1 5 1
@<TRIPOS>MOLECULE
CH4
5 4
SMALL
USER_CHARGES


@<TRIPOS>ATOM
1 C 16.945 49.312 34.595 C 0.0 **** 0.0
2 H 16.645 49.43 35.636 H 0.0 **** 0.0
3 H 17.173 50.29 34.17 H 0.0 **** 0.0
4 H 16.132 48.852 34.033 H 0.0 **** 0.0
5 H 17.829 48.677 34.541 H 0.0 **** 0.0
@<TRIPOS>BOND
1 1 2 1
2 1 3 1
3 1 4 1
4 5 1 1
@<TRIPOS>MOLECULE
CH4
5 4
SMALL
USER_CHARGES


@<TRIPOS>ATOM
1 C 90.111 42.185 42.263 C 0.0 **** 0.0
2 H 89.802 42.161 41.218 H 0.0 **** 0.0
3 H 89.807 43.132 42.71 H 0.0 **** 0.0
4 H 91.195 42.087 42.323 H 0.0 **** 0.0
5 H 89.641 41.362 42.8 H 0.0 **** 0.0
@<TRIPOS>BOND
1 1 2 1
2 1 3 1
3 1 4 1
4 1 5 1
@<TRIPOS>MOLECULE
CH4
5 4
SMALL
USER_CHARGES


@<TRIPOS>ATOM
1 C 56.785 2.305 69.368 C 0.0 **** 0.0
2 H 56.512 2.429 68.32 H 0.0 **** 0.0
3 H 57.865 2.405 69.476 H 0.0 **** 0.0
4 H 56.475 1.317 69.709 H 0.0 **** 0.0
5 H 56.288 3.069 69.965 H 0.0 **** 0.0
@<TRIPOS>BOND
1 1 2 1
2 1 3 1
3 1 4 1
4 1 5 1
@<TRIPOS>MOLECULE
CH4
5 4
SMALL
USER_CHARGES


@<TRIPOS>ATOM
1 C 65.581 69.189 32.61 C 0.0 **** 0.0
2 H 65.281 68.877 33.61 H 0.0 **** 0.0
3 H 64.931 69.995 32.271 H 0.0 **** 0.0
4 H 65.5 68.344 31.926 H 0.0 **** 0.0
5 H 66.613 69.54 32.633 H 0.0 **** 0.0
@<TRIPOS>BOND
1 1 2 1
2 1 3 1
3 1 4 1
4 1 5 1
@<TRIPOS>MOLECULE
CH4
5 4
SMALL
USER_CHARGES


@<TRIPOS>ATOM
1 C 85.784 72.268 16.564 C 0.0 **** 0.0
2 H 86.434 72.403 15.7 H 0.0 **** 0.0
3 H 84.789 71.973 16.229 H 0.0 **** 0.0
4 H 85.718 73.204 17.118 H 0.0 **** 0.0
5 H 86.195 71.492 17.21 H 0.0 **** 0.0
@<TRIPOS>BOND
1 1 2 1
2 1 3 1
3 1 4 1
4 1 5 1
@<TRIPOS>MOLECULE
CH4
5 4
SMALL
USER_CHARGES


@<TRIPOS>ATOM
1 C 94.869 57.278 2.387 C 0.0 **** 0.0
2 H 94.89 58.096 3.108 H 0.0 **** 0.0
3 H 95.679 56.582 2.604 H 0.0 **** 0.0
4 H 94.992 57.678 1.381 H 0.0 **** 0.0
5 H 93.913 56.758 2.457 H 0.0 **** 0.0
@<TRIPOS>BOND
1 1 2 1
2 1 3 1
3 1 4 1
4 1 5 1
@<TRIPOS>MOLECULE
CH4
5 4
SMALL
USER_CHARGES


@<TRIPOS>ATOM
1 C 30.556 33.439 75.603 C 0.0 **** 0.0
2 H 30.535 33.524 76.69 H 0.0 **** 0.0
3 H 31.072 32.521 75.321 H 0.0 **** 0.0
4 H 31.082 34.296 75.183 H 0.0 **** 0.0
5 H 29.536 33.416 75.221 H 0.0 **** 0.0
@<TRIPOS>BOND
1 1 2 1
2 1 3 1
3 1 4 1
4 1 5 1
@<TRIPOS>MOLECULE
CH4
5 4
SMALL
USER_CHARGES


@<TRIPOS>ATOM
1 C 93.242 92.78 81.293 C 0.0 **** 0.0
2 H 93.986 93.575 81.242 H 0.0 **** 0.0
3 H 93.64 91.947 81.872 H 0.0 **** 0.0
4 H 93.005 92.441 80.284 H 0.0 **** 0.0
5 H 92.339 93.158 81.771 H 0.0 **** 0.0
@<TRIPOS>BOND
1 1 2 1
2 1 3 1
3 1 4 1
4 1 5 1
@<TRIPOS>MOLECULE
CH4
5 4
SMALL
USER_CHARGES


@<TRIPOS>ATOM
1 C 47.307 82.577 65.551 C 0.0 **** 0.0
2 H 47.369 82.565 66.64 H 0.0 **** 0.0
3 H 46.265 82.476 65.246 H 0.0 **** 0.0
4 H 47.887 81.749 65.145 H 0.0 **** 0.0
5 H 47.706 83.519 65.176 H 0.0 **** 0.0
@<TRIPOS>BOND
1 1 2 1
2 1 3 1
3 1 4 1
4 1 5 1
@<TRIPOS>MOLECULE
CH4
5 4
SMALL
USER_CHARGES


@<TRIPOS>ATOM
1 C 59.248 7.661 33.99 C 0.0 **** 0.0
2 H 59.664 6.676 34.2 H 0.0 **** 0.0
3 H 58.438 7.567 33.266 H 0.0 **** 0.0
4 H 60.027 8.305 33.583 H 0.0 **** 0.0
5 H 58.862 8.096 34.912 H 0.0 **** 0.0
@<TRIPOS>BOND
1 1 2 1
2 1 3 1
3 1 4 1
4 1 5 1
@<TRIPOS>MOLECULE
CH4
5 4
SMALL
USER_CHARGES


@<TRIPOS>ATOM
1 C 43.854 7.259 24.097 C 0.0 **** 0.0
2 H 43.469 6.36 24.578 H 0.0 **** 0.0
3 H 43.125 8.064 24.196 H 0.0 **** 0.0
4 H 44.033 7.058 23.041 H 0.0 **** 0.0
5 H 44.789 7.554 24.574 H 0.0 **** 0.0
@<TRIPOS>BOND
1 1 2 1
2 1 3 1
3 1 4 1
4 1 5 1
@<TRIPOS>MOLECULE
CH4
5 4
SMALL
USER_CHARGES


@<TRIPOS>ATOM
1 C 24.618 2.072 25.432 C 0.0 **** 0.0
2 H 24.505 2.585 26.387 H 0.0 **** 0.0
3 H 23.641 1.74 25.08 H 0.0 **** 0.0
4 H 25.272 1.21 25.558 H 0.0 **** 0.0
5 H 25.054 2.755 24.703 H 0.0 **** 0.0
@<TRIPOS>BOND
1 1 2 1
2 1 3 1
3 1 4 1
4 1 5 1
@<TRIPOS>MOLECULE
CH4
5 4
SMALL
USER_CHARGES


@<TRIPOS>ATOM
1 C 58.662 64.546 27.731 C 0.0 **** 0.0
2 H 57.991 65.26 27.252 H 0.0 **** 0.0
3 H 59.673 64.685 27.348 H 0.0 **** 0.0
4 H 58.327 63.532 27.515 H 0.0 **** 0.0
5 H 58.656 64.709 28.809 H 0.0 **** 0.0
@<TRIPOS>BOND
1 1 2 1
2 1 3 1
3 1 4 1
4 1 5 1
@<TRIPOS>MOLECULE
CH4
5 4
SMALL
USER_CHARGES


@<TRIPOS>ATOM
1 C 32.239 32.6 82.356 C 0.0 **** 0.0
2 H 33.222 32.853 81.958 H 0.0 **** 0.0
3 H 31.994 31.571 82.091 H 0.0 **** 0.0
4 H 31.493 33.272 81.933 H 0.0 **** 0.0
5 H 32.249 32.703 83.441 H 0.0 **** 0.0
@<TRIPOS>BOND
1 1 3 1
2 1 4 1
3 1 5 1
4 1 2 1
@<TRIPOS>MOLECULE
CH4
5 4
SMALL
USER_CHARGES


@<TRIPOS>ATOM
1 C 71.847 49.006 66.975 C 0.0 **** 0.0
2 H 71.592 49.207 65.935 H 0.0 **** 0.0
3 H 71.311 49.702 67.621 H 0.0 **** 0.0
4 H 72.92 49.131 67.117 H 0.0 **** 0.0
5 H 71.564 47.984 67.228 H 0.0 **** 0.0
@<TRIPOS>BOND
1 1 2 1
2 1 3 1
3 1 4 1
4 1 5 1
@<TRIPOS>MOLECULE
CH4
5 4
SMALL
USER_CHARGES


@<TRIPOS>ATOM
1 C 77.824 14.285 5.385 C 0.0 **** 0.0
2 H 78.486 15.127 5.59 H 0.0 **** 0.0
3 H 77.57 14.274 4.325 H 0.0 **** 0.0
4 H 76.914 14.387 5.977 H 0.0 **** 0.0
5 H 78.327 13.355 5.649 H 0.0 **** 0.0
@<TRIPOS>BOND
1 1 2 1
2 1 3 1
3 1 4 1
4 1 5 1
@<TRIPOS>MOLECULE
CH4
5 4
SMALL
USER_CHARGES


@<TRIPOS>ATOM
1 C 91.697 77.578 76.323 C 0.0 **** 0.0
2 H 91.249 77.668 75.334 H 0.0 **** 0.0
3 H 92.189 78.514 76.585 H 0.0 **** 0.0
4 H 92.429 76.77 76.318 H 0.0 **** 0.0
5 H 90.919 77.358 77.055 H 0.0 **** 0.0
@<TRIPOS>BOND
1 1 2 1
2 1 3 1
3 1 4 1
4 1 5 1
@<TRIPOS>MOLECULE
CH4
5 4
SMALL
USER_CHARGES


@<TRIPOS>ATOM
1 C 58.997 71.942 61.798 C 0.0 **** 0.0
2 H 59.121 71.975 62.88 H 0.0 **** 0.0
3 H 59.093 70.912 61.453 H 0.0 **** 0.0
4 H 59.762 72.557 61.325 H 0.0 **** 0.0
5 H 58.01 72.323 61.534 H 0.0 **** 0.0
@<TRIPOS>BOND
1 1 2 1
2 1 3 1
3 1 4 1
4 1 5 1
@<TRIPOS>MOLECULE
CH4
5 4
SMALL
USER_CHARGES


@<TRIPOS>ATOM
1 C 93.224 56.139 71.033 C 0.0 **** 0.0
2 H 93.061 55.486 71.89 H 0.0 **** 0.0
3 H 94.095 56.768 71.217 H 0.0 **** 0.0
4 H 92.346 56.768 70.884 H 0.0 **** 0.0
5 H 93.393 55.534 70.142 H 0.0 **** 0.0
@<TRIPOS>BOND
1 1 2 1
2 1 3 1
3 1 4 1
4 1 5 1
@<TRIPOS>MOLECULE
CH4
5 4
SMALL
USER_CHARGES


@<TRIPOS>ATOM
1 C 42.368 1.497 43.323 C 0.0 **** 0.0
2 H 43.087 0.808 42.88 H 0.0 **** 0.0
3 H 42.519 1.536 44.402 H 0.0 **** 0.0
4 H 41.356 1.152 43.109 H 0.0 **** 0.0
5 H 42.509 2.491 42.899 H 0.0 **** 0.0
@<TRIPOS>BOND
1 1 2 1
2 1 3 1
3 1 4 1
4 1 5 1
@<TRIPOS>MOLECULE
CH4
5 4
SMALL
USER_CHARGES


@<TRIPOS>ATOM
1 C 60.302 51.809 84.951 C 0.0 **** 0.0
2 H 60.026 51.733 83.899 H 0.0 **** 0.0
3 H 61.034 51.037 85.191 H 0.0 **** 0.0
4 H 59.414 51.674 85.569 H 0.0 **** 0.0
5 H 60.733 52.791 85.144 H 0.0 **** 0.0
@<TRIPOS>BOND
1 1 2 1
2 1 3 1
3 1 4 1
4 1 5 1
@<TRIPOS>MOLECULE
CH4
5 4
SMALL
USER_CHARGES


@<TRIPOS>ATOM
1 C 57.375 58.497 28.98 C 0.0 **** 0.0
2 H 57.442 58.669 30.054 H 0.0 **** 0.0
3 H 56.467 58.96 28.594 H 0.0 **** 0.0
4 H 57.348 57.425 28.786 H 0.0 **** 0.0
5 H 58.244 58.934 28.488 H 0.0 **** 0.0
@<TRIPOS>BOND
1 1 2 1
2 1 3 1
3 1 4 1
4 1 5 1
@<TRIPOS>MOLECULE
CH4
5 4
SMALL
USER_CHARGES


@<TRIPOS>ATOM
1 C 62.587 5.707 84.946 C 0.0 **** 0.0
2 H 61.612 5.85 85.412 H 0.0 **** 0.0
3 H 62.638 6.286 84.024 H 0.0 **** 0.0
4 H 62.73 4.65 84.72 H 0.0 **** 0.0
5 H 63.369 6.041 85.629 H 0.0 **** 0.0
@<TRIPOS>BOND
1 1 2 1
2 1 3 1
3 1 4 1
4 1 5 1
@<TRIPOS>MOLECULE
CH4
5 4
SMALL
USER_CHARGES


@<TRIPOS>ATOM
1 C 31.543 47.015 8.786 C 0.0 **** 0.0
2 H 32.26 46.965 7.966 H 0.0 **** 0.0
3 H 31.814 46.285 9.55 H 0.0 **** 0.0
4 H 30.545 46.793 8.409 H 0.0 **** 0.0
5 H 31.554 48.015 9.219 H 0.0 **** 0.0
@<TRIPOS>BOND
1 1 2 1
2 1 3 1
3 1 4 1
4 1 5 1
@<TRIPOS>MOLECULE
CH4
5 4
SMALL
USER_CHARGES


@<TRIPOS>ATOM
1 C 19.627 48.311 24.23 C 0.0 **** 0.0
2 H 19.147 49.251 24.501 H 0.0 **** 0.0
3 H 19.23 47.962 23.276 H 0.0 **** 0.0
4 H 19.429 47.566 25.001 H 0.0 **** 0.0
5 H 20.703 48.465 24.141 H 0.0 **** 0.0
@<TRIPOS>BOND
1 1 2 1
2 1 3 1
3 1 4 1
4 1 5 1
@<TRIPOS>MOLECULE
CH4
5 4
SMALL
USER_CHARGES


@<TRIPOS>ATOM
1 C 2.219 53.204 72.291 C 0.0 **** 0.0
2 H 2.162 53.144 71.204 H 0.0 **** 0.0
3 H 1.45 52.568 72.73 H 0.0 **** 0.0
4 H 2.062 54.235 72.607 H 0.0 **** 0.0
5 H 3.201 52.867 72.622 H 0.0 **** 0.0
@<TRIPOS>BOND
1 1 2 1
2 1 3 1
3 1 4 1
4 1 5 1
@<TRIPOS>MOLECULE
CH4
5 4
SMALL
USER_CHARGES


@<TRIPOS>ATOM
1 C 10.207 76.315 19.151 C 0.0 **** 0.0
2 H 10.806 76.059 20.025 H 0.0 **** 0.0
3 H 10.021 77.39 19.141 H 0.0 **** 0.0
4 H 9.257 75.782 19.192 H 0.0 **** 0.0
5 H 10.745 76.031 18.247 H 0.0 **** 0.0
@<TRIPOS>BOND
1 1 2 1
2 1 3 1
3 1 4 1
4 1 5 1
@<TRIPOS>MOLECULE
CH4
5 4
SMALL
USER_CHARGES


@<TRIPOS>ATOM
1 C 6.218 51.947 93.654 C 0.0 **** 0.0
2 H 5.997 52.281 94.667 H 0.0 **** 0.0
3 H 6.341 52.814 93.004 H 0.0 **** 0.0
4 H 5.396 51.331 93.287 H 0.0 **** 0.0
5 H 7.137 51.361 93.657 H 0.0 **** 0.0
@<TRIPOS>BOND
1 1 2 1
2 1 3 1
3 1 4 1
4 1 5 1
@<TRIPOS>MOLECULE
CH4
5 4
SMALL
USER_CHARGES


@<TRIPOS>ATOM
1 C 64.535 88.396 38.662 C 0.0 **** 0.0
2 H 64.883 88.227 37.643 H 0.0 **** 0.0
3 H 65.089 89.225 39.102 H 0.0 **** 0.0
4 H 64.696 87.495 39.255 H 0.0 **** 0.0
5 H 63.472 88.635 38.648 H 0.0 **** 0.0
@<TRIPOS>BOND
1 1 2 1
2 1 3 1
3 1 4 1
4 1 5 1
@<TRIPOS>MOLECULE
CH4
5 4
SMALL
USER_CHARGES


@<TRIPOS>ATOM
1 C 18.72 24.973 49.566 C 0.0 **** 0.0
2 H 18.609 25.645 48.715 H 0.0 **** 0.0
3 H 17.815 25.004 50.173 H 0.0 **** 0.0
4 H 19.573 25.287 50.168 H 0.0 **** 0.0
5 H 18.883 23.957 49.207 H 0.0 **** 0.0
@<TRIPOS>BOND
1 1 2 1
2 1 3 1
3 1 4 1
4 1 5 1
@<TRIPOS>MOLECULE
CH4
5 4
SMALL
USER_CHARGES


@<TRIPOS>ATOM
1 C 45.787 97.399 50.172 C 0.0 **** 0.0
2 H 45.942 97.128 51.217 H 0.0 **** 0.0
3 H 44.817 97.884 50.063 H 0.0 **** 0.0
4 H 45.817 96.501 49.556 H 0.0 **** 0.0
5 H 46.574 98.083 49.855 H 0.0 **** 0.0
@<TRIPOS>BOND
1 1 2 1
2 1 3 1
3 1 4 1
4 1 5 1
@<TRIPOS>MOLECULE
CH4
5 4
SMALL
USER_CHARGES


@<TRIPOS>ATOM
1 C 81.823 85.034 51.385 C 0.0 **** 0.0
2 H 81.983 85.804 52.14 H 0.0 **** 0.0
3 H 82.017 85.45 50.396 H 0.0 **** 0.0
4 H 80.793 84.682 51.437 H 0.0 **** 0.0
5 H 82.501 84.2 51.568 H 0.0 **** 0.0
@<TRIPOS>BOND
1 1 2 1
2 1 3 1
3 1 4 1
4 1 5 1
@<TRIPOS>MOLECULE
CH4
5 4
SMALL
USER_CHARGES


@<TRIPOS>ATOM
1 C 7.503 77.909 37.569 C 0.0 **** 0.0
2 H 7.968 77.414 38.422 H 0.0 **** 0.0
3 H 6.801 77.226 37.09 H 0.0 **** 0.0
4 H 8.273 78.2 36.854 H 0.0 **** 0.0
5 H 6.97 78.797 37.91 H 0.0 **** 0.0
@<TRIPOS>BOND
1 1 2 1
2 1 3 1
3 1 4 1
4 1 5 1
@<TRIPOS>MOLECULE
CH4
5 4
SMALL
USER_CHARGES


@<TRIPOS>ATOM
1 C 87.639 53.229 22.118 C 0.0 **** 0.0
2 H 87.874 52.69 23.036 H 0.0 **** 0.0
3 H 87.51 54.288 22.341 H 0.0 **** 0.0
4 H 86.719 52.833 21.689 H 0.0 **** 0.0
5 H 88.455 53.104 21.405 H 0.0 **** 0.0
@<TRIPOS>BOND
1 1 2 1
2 1 3 1
3 1 4 1
4 1 5 1
@<TRIPOS>MOLECULE
CH4
5 4
SMALL
USER_CHARGES


@<TRIPOS>ATOM
1 C 9.517 72.533 89.394 C 0.0 **** 0.0
2 H 9.515 72.512 90.484 H 0.0 **** 0.0
3 H 10.529 72.362 89.029 H 0.0 **** 0.0
4 H 9.165 73.505 89.05 H 0.0 **** 0.0
5 H 8.857 71.753 89.016 H 0.0 **** 0.0
@<TRIPOS>BOND
1 1 2 1
2 1 3 1
3 1 4 1
4 1 5 1
@<TRIPOS>MOLECULE
CH4
5 4
SMALL
USER_CHARGES


@<TRIPOS>ATOM
1 C 55.321 37.935 14.858 C 0.0 **** 0.0
2 H 55.067 37.049 14.275 H 0.0 **** 0.0
3 H 54.495 38.644 14.818 H 0.0 **** 0.0
4 H 56.217 38.397 14.443 H 0.0 **** 0.0
5 H 55.506 37.648 15.893 H 0.0 **** 0.0
@<TRIPOS>BOND
1 1 2 1
2 1 3 1
3 1 4 1
4 1 5 1
@<TRIPOS>MOLECULE
CH4
5 4
SMALL
USER_CHARGES


@<TRIPOS>ATOM
1 C 38.525 28.76 16.631 C 0.0 **** 0.0
2 H 38.745 28.555 15.583 H 0.0 **** 0.0
3 H 37.709 29.48 16.697 H 0.0 **** 0.0
4 H 39.411 29.17 17.114 H 0.0 **** 0.0
5 H 38.235 27.835 17.129 H 0.0 **** 0.0
@<TRIPOS>BOND
1 1 2 1
2 1 3 1
3 1 4 1
4 1 5 1
@<TRIPOS>MOLECULE
CH4
5 4
SMALL
USER_CHARGES


@<TRIPOS>ATOM
1 C 67.612 14.878 94.109 C 0.0 **** 0.0
2 H 67.439 15.576 94.929 H 0.0 **** 0.0
3 H 66.656 14.569 93.688 H 0.0 **** 0.0
4 H 68.145 14.004 94.483 H 0.0 **** 0.0
5 H 68.209 15.365 93.338 H 0.0 **** 0.0
@<TRIPOS>BOND
1 1 2 1
2 1 3 1
3 1 4 1
4 1 5 1
@<TRIPOS>MOLECULE
CH4
5 4
SMALL
USER_CHARGES


@<TRIPOS>ATOM
1 C 75.656 11.398 57.266 C 0.0 **** 0.0
2 H 75.771 10.727 58.117 H 0.0 **** 0.0
3 H 76.356 11.111 56.481 H 0.0 **** 0.0
4 H 75.861 12.421 57.581 H 0.0 **** 0.0
5 H 74.636 11.331 56.887 H 0.0 **** 0.0
@<TRIPOS>BOND
1 1 2 1
2 1 3 1
3 1 4 1
4 1 5 1
@<TRIPOS>MOLECULE
CH4
5 4
SMALL
USER_CHARGES


@<TRIPOS>ATOM
1 C 70.596 77.578 47.428 C 0.0 **** 0.0
2 H 70.255 78.351 48.117 H 0.0 **** 0.0
3 H 71.462 77.942 46.875 H 0.0 **** 0.0
4 H 69.795 77.334 46.731 H 0.0 **** 0.0
5 H 70.872 76.687 47.991 H 0.0 **** 0.0
@<TRIPOS>BOND
1 1 2 1
2 1 3 1
3 1 4 1
4 1 5 1
@<TRIPOS>MOLECULE
CH4
5 4
SMALL
USER_CHARGES


@<TRIPOS>ATOM
1 C 45.827 77.17 22.47 C 0.0 **** 0.0
2 H 45.272 76.361 22.945 H 0.0 **** 0.0
3 H 45.936 76.961 21.406 H 0.0 **** 0.0
4 H 46.813 77.251 22.928 H 0.0 **** 0.0
5 H 45.287 78.107 22.603 H 0.0 **** 0.0
@<TRIPOS>BOND
1 1 2 1
2 1 3 1
3 1 4 1
4 1 5 1
@<TRIPOS>MOLECULE
CH4
5 4
SMALL
USER_CHARGES


@<TRIPOS>ATOM
1 C 75.199 19.26 67.029 C 0.0 **** 0.0
2 H 74.998 20.33 67.093 H 0.0 **** 0.0
3 H 74.314 18.748 66.651 H 0.0 **** 0.0
4 H 75.445 18.877 68.019 H 0.0 **** 0.0
5 H 76.036 19.087 66.353 H 0.0 **** 0.0
@<TRIPOS>BOND
1 1 2 1
2 1 3 1
3 1 4 1
4 1 5 1
@<TRIPOS>MOLECULE
CH4
5 4
SMALL
USER_CHARGES


@<TRIPOS>ATOM
1 C 41.103 29.288 89.761 C 0.0 **** 0.0
2 H 40.1 28.926 89.534 H 0.0 **** 0.0
3 H 41.035 30.252 90.265 H 0.0 **** 0.0
4 H 41.666 29.401 88.835 H 0.0 **** 0.0
5 H 41.609 28.573 90.409 H 0.0 **** 0.0
@<TRIPOS>BOND
1 1 2 1
2 1 3 1
3 1 4 1
4 1 5 1
@<TRIPOS>MOLECULE
CH4
5 4
SMALL
USER_CHARGES


@<TRIPOS>ATOM
1 C 2.146 72.136 81.135 C 0.0 **** 0.0
2 H 3.107 71.886 80.686 H 0.0 **** 0.0
3 H 1.885 73.165 80.884 H 0.0 **** 0.0
4 H 2.213 72.032 82.218 H 0.0 **** 0.0
5 H 1.379 71.463 80.752 H 0.0 **** 0.0
@<TRIPOS>BOND
1 1 2 1
2 1 3 1
3 1 4 1
4 1 5 1
@<TRIPOS>MOLECULE
CH4
5 4
SMALL
USER_CHARGES


@<TRIPOS>ATOM
1 C 3.95 9.308 76.318 C 0.0 **** 0.0
2 H 3.934 9.388 77.405 H 0.0 **** 0.0
3 H 4.808 9.855 75.927 H 0.0 **** 0.0
4 H 3.032 9.729 75.909 H 0.0 **** 0.0
5 H 4.027 8.258 76.033 H 0.0 **** 0.0
@<TRIPOS>BOND
1 1 2 1
2 1 3 1
3 1 4 1
4 1 5 1
@<TRIPOS>MOLECULE
CH4
5 4
SMALL
USER_CHARGES


@<TRIPOS>ATOM
1 C 4.349 20.788 43.23 C 0.0 **** 0.0
2 H 4.626 21.07 42.214 H 0.0 **** 0.0
3 H 4.903 21.401 43.94 H 0.0 **** 0.0
4 H 4.587 19.737 43.392 H 0.0 **** 0.0
5 H 3.279 20.945 43.371 H 0.0 **** 0.0
@<TRIPOS>BOND
1 1 2 1
2 1 3 1
3 1 4 1
4 1 5 1
@<TRIPOS>MOLECULE
CH4
5 4
SMALL
USER_CHARGES


@<TRIPOS>ATOM
1 C 18.752 32.355 55.799 C 0.0 **** 0.0
2 H 19.587 32.782 56.355 H 0.0 **** 0.0
3 H 19.122 31.585 55.122 H 0.0 **** 0.0
4 H 18.26 33.14 55.225 H 0.0 **** 0.0
5 H 18.039 31.914 56.497 H 0.0 **** 0.0
@<TRIPOS>BOND
1 1 3 1
2 1 4 1
3 1 5 1
4 1 2 1
@<TRIPOS>MOLECULE
CH4
5 4
SMALL
USER_CHARGES


@<TRIPOS>ATOM
1 C 93.035 14.462 49.812 C 0.0 **** 0.0
2 H 93.098 15.547 49.894 H 0.0 **** 0.0
3 H 91.99 14.155 49.858 H 0.0 **** 0.0
4 H 93.585 14.004 50.634 H 0.0 **** 0.0
5 H 93.467 14.144 48.863 H 0.0 **** 0.0
@<TRIPOS>BOND
1 1 2 1
2 1 3 1
3 1 4 1
4 1 5 1
@<TRIPOS>MOLECULE
CH4
5 4
SMALL
USER_CHARGES


@<TRIPOS>ATOM
1 C 10.727 56.197 37.74 C 0.0 **** 0.0
2 H 11.285 56.908 37.13 H 0.0 **** 0.0
3 H 9.848 55.859 37.191 H 0.0 **** 0.0
4 H 10.414 56.679 38.666 H 0.0 **** 0.0
5 H 11.362 55.342 37.972 H 0.0 **** 0.0
@<TRIPOS>BOND
1 1 2 1
2 1 3 1
3 1 4 1
4 1 5 1
@<TRIPOS>MOLECULE
CH4
5 4
SMALL
USER_CHARGES


@<TRIPOS>ATOM
1 C 22.008 93.261 75.333 C 0.0 **** 0.0
2 H 21.887 93.232 76.416 H 0.0 **** 0.0
3 H 21.952 92.247 74.935 H 0.0 **** 0.0
4 H 22.977 93.695 75.087 H 0.0 **** 0.0
5 H 21.216 93.868 74.895 H 0.0 **** 0.0
@<TRIPOS>BOND
1 1 2 1
2 1 3 1
3 1 4 1
4 1 5 1
@<TRIPOS>MOLECULE
CH4
5 4
SMALL
USER_CHARGES


@<TRIPOS>ATOM
1 C 83.273 61.587 32.83 C 0.0 **** 0.0
2 H 84.251 61.84 33.24 H 0.0 **** 0.0
3 H 82.493 61.993 33.474 H 0.0 **** 0.0
4 H 83.172 60.503 32.774 H 0.0 **** 0.0
5 H 83.178 62.012 31.831 H 0.0 **** 0.0
@<TRIPOS>BOND
1 1 2 1
2 1 3 1
3 1 4 1
4 1 5 1
@<TRIPOS>MOLECULE
CH4
5 4
SMALL
USER_CHARGES


@<TRIPOS>ATOM
1 C 23.39 72.414 85.232 C 0.0 **** 0.0
2 H 22.53 72.503 85.896 H 0.0 **** 0.0
3 H 24.146 71.782 85.699 H 0.0 **** 0.0
4 H 23.808 73.403 85.044 H 0.0 **** 0.0
5 H 23.075 71.968 84.288 H 0.0 **** 0.0
@<TRIPOS>BOND
1 1 2 1
2 1 3 1
3 1 4 1
4 1 5 1
@<TRIPOS>MOLECULE
CH4
5 4
SMALL
USER_CHARGES


@<TRIPOS>ATOM
1 C 18.827 23.491 88.095 C 0.0 **** 0.0
2 H 18.169 24.062 88.75 H 0.0 **** 0.0
3 H 19.864 23.758 88.3 H 0.0 **** 0.0
4 H 18.591 23.718 87.056 H 0.0 **** 0.0
5 H 18.683 22.425 88.276 H 0.0 **** 0.0
@<TRIPOS>BOND
1 1 2 1
2 1 3 1
3 1 4 1
4 1 5 1
@<TRIPOS>MOLECULE
CH4
5 4
SMALL
USER_CHARGES


@<TRIPOS>ATOM
1 C 9.99 83.517 82.461 C 0.0 **** 0.0
2 H 10.69 83.132 83.203 H 0.0 **** 0.0
3 H 8.969 83.377 82.818 H 0.0 **** 0.0
4 H 10.124 82.979 81.522 H 0.0 **** 0.0
5 H 10.177 84.579 82.301 H 0.0 **** 0.0
@<TRIPOS>BOND
1 1 2 1
2 1 3 1
3 1 4 1
4 1 5 1
@<TRIPOS>MOLECULE
CH4
5 4
SMALL
USER_CHARGES


@<TRIPOS>ATOM
1 C 92.281 6.915 69.08 C 0.0 **** 0.0
2 H 91.972 6.991 68.037 H 0.0 **** 0.0
3 H 93.294 7.302 69.187 H 0.0 **** 0.0
4 H 92.255 5.87 69.391 H 0.0 **** 0.0
5 H 91.601 7.496 69.703 H 0.0 **** 0.0
@<TRIPOS>BOND
1 1 2 1
2 1 3 1
3 1 4 1
4 1 5 1
@<TRIPOS>MOLECULE
CH4
5 4
SMALL
USER_CHARGES


@<TRIPOS>ATOM
1 C 3.008 63.997 86.081 C 0.0 **** 0.0
2 H 2.902 64.877 85.447 H 0.0 **** 0.0
3 H 2.064 63.802 86.59 H 0.0 **** 0.0
4 H 3.79 64.173 86.82 H 0.0 **** 0.0
5 H 3.275 63.137 85.467 H 0.0 **** 0.0
@<TRIPOS>BOND
1 1 2 1
2 1 3 1
3 1 4 1
4 1 5 1
@<TRIPOS>MOLECULE
CH4
5 4
SMALL
USER_CHARGES


@<TRIPOS>ATOM
1 C 66.978 69.919 7.303 C 0.0 **** 0.0
2 H 66.581 69.871 8.316 H 0.0 **** 0.0
3 H 66.42 69.237 6.661 H 0.0 **** 0.0
4 H 68.03 69.632 7.31 H 0.0 **** 0.0
5 H 66.882 70.936 6.923 H 0.0 **** 0.0
@<TRIPOS>BOND
1 1 2 1
2 1 3 1
3 1 4 1
4 1 5 1
@<TRIPOS>MOLECULE
CH4
5 4
SMALL
USER_CHARGES


@<TRIPOS>ATOM
1 C 67.042 92.063 24.133 C 0.0 **** 0.0
2 H 66.365 92.269 24.962 H 0.0 **** 0.0
3 H 66.917 91.029 23.811 H 0.0 **** 0.0
4 H 68.071 92.221 24.457 H 0.0 **** 0.0
5 H 66.815 92.732 23.304 H 0.0 **** 0.0
@<TRIPOS>BOND
1 1 2 1
2 1 3 1
3 1 4 1
4 1 5 1
@<TRIPOS>MOLECULE
CH4
5 4
SMALL
USER_CHARGES


@<TRIPOS>ATOM
1 C 85.816 42.684 21.345 C 0.0 **** 0.0
2 H 85.48 42.919 20.335 H 0.0 **** 0.0
3 H 86.779 42.174 21.298 H 0.0 **** 0.0
4 H 85.085 42.038 21.83 H 0.0 **** 0.0
5 H 85.921 43.607 21.916 H 0.0 **** 0.0
@<TRIPOS>BOND
1 1 2 1
2 1 3 1
3 1 4 1
4 1 5 1
@<TRIPOS>MOLECULE
CH4
5 4
SMALL
USER_CHARGES


@<TRIPOS>ATOM
1 C 13.003 4.762 52.705 C 0.0 **** 0.0
2 H 13.087 5.432 51.849 H 0.0 **** 0.0
3 H 12.374 5.224 53.467 H 0.0 **** 0.0
4 H 13.994 4.572 53.117 H 0.0 **** 0.0
5 H 12.555 3.821 52.386 H 0.0 **** 0.0
@<TRIPOS>BOND
1 1 2 1
2 1 3 1
3 1 4 1
4 1 5 1
@<TRIPOS>MOLECULE
CH4
5 4
SMALL
USER_CHARGES


@<TRIPOS>ATOM
1 C 34.182 91.886 26.839 C 0.0 **** 0.0
2 H 33.919 91.437 25.881 H 0.0 **** 0.0
3 H 34.037 91.155 27.634 H 0.0 **** 0.0
4 H 33.547 92.753 27.021 H 0.0 **** 0.0
5 H 35.226 92.199 26.818 H 0.0 **** 0.0
@<TRIPOS>BOND
1 1 2 1
2 1 3 1
3 1 4 1
4 1 5 1
@<TRIPOS>MOLECULE
CH4
5 4
SMALL
USER_CHARGES


@<TRIPOS>ATOM
1 C 26.377 23.021 25.931 C 0.0 **** 0.0
2 H 26.519 24.094 26.059 H 0.0 **** 0.0
3 H 26.087 22.578 26.884 H 0.0 **** 0.0
4 H 27.307 22.57 25.587 H 0.0 **** 0.0
5 H 25.593 22.845 25.194 H 0.0 **** 0.0
@<TRIPOS>BOND
1 1 2 1
2 1 3 1
3 1 4 1
4 1 5 1
@<TRIPOS>MOLECULE
CH4
5 4
SMALL
USER_CHARGES


@<TRIPOS>ATOM
1 C 39.924 33.019 87.632 C 0.0 **** 0.0
2 H 39.237 32.249 87.982 H 0.0 **** 0.0
3 H 40.464 33.438 88.481 H 0.0 **** 0.0
4 H 39.36 33.809 87.134 H 0.0 **** 0.0
5 H 40.633 32.581 86.93 H 0.0 **** 0.0
@<TRIPOS>BOND
1 1 2 1
2 1 3 1
3 1 4 1
4 1 5 1
@<TRIPOS>MOLECULE
CH4
5 4
SMALL
USER_CHARGES


@<TRIPOS>ATOM
1 C 97.047 17.475 78.323 C 0.0 **** 0.0
2 H 96.714 17.319 79.349 H 0.0 **** 0.0
3 H 96.189 17.713 77.694 H 0.0 **** 0.0
4 H 97.526 16.567 77.955 H 0.0 **** 0.0
5 H 97.759 18.299 78.293 H 0.0 **** 0.0
@<TRIPOS>BOND
1 1 2 1
2 1 3 1
3 1 4 1
4 1 5 1
@<TRIPOS>MOLECULE
CH4
5 4
SMALL
USER_CHARGES


@<TRIPOS>ATOM
1 C 3.088 70.373 62.696 C 0.0 **** 0.0
2 H 2.505 70.007 63.542 H 0.0 **** 0.0
3 H 2.909 69.735 61.83 H 0.0 **** 0.0
4 H 4.148 70.353 62.95 H 0.0 **** 0.0
5 H 2.788 71.395 62.464 H 0.0 **** 0.0
@<TRIPOS>BOND
1 1 2 1
2 1 3 1
3 1 4 1
4 1 5 1
@<TRIPOS>MOLECULE
CH4
5 4
SMALL
USER_CHARGES


@<TRIPOS>ATOM
1 C 54.267 46.527 27.657 C 0.0 **** 0.0
2 H 53.302 46.275 28.096 H 0.0 **** 0.0
3 H 54.822 47.168 28.343 H 0.0 **** 0.0
4 H 54.111 47.053 26.714 H 0.0 **** 0.0
5 H 54.832 45.614 27.474 H 0.0 **** 0.0
@<TRIPOS>BOND
1 1 2 1
2 1 3 1
3 1 4 1
4 1 5 1
@<TRIPOS>MOLECULE
CH4
5 4
SMALL
USER_CHARGES


@<TRIPOS>ATOM
1 C 47.312 60.709 73.071 C 0.0 **** 0.0
2 H 46.245 60.537 72.931 H 0.0 **** 0.0
3 H 47.694 60.021 73.826 H 0.0 **** 0.0
4 H 47.474 61.736 73.399 H 0.0 **** 0.0
5 H 47.833 60.541 72.129 H 0.0 **** 0.0
@<TRIPOS>BOND
1 1 2 1
2 1 3 1
3 1 4 1
4 1 5 1
@<TRIPOS>MOLECULE
CH4
5 4
SMALL
USER_CHARGES


@<TRIPOS>ATOM
1 C 29.983 3.309 79.042 C 0.0 **** 0.0
2 H 29.575 3.591 80.012 H 0.0 **** 0.0
3 H 29.633 4.01 78.284 H 0.0 **** 0.0
4 H 29.653 2.303 78.787 H 0.0 **** 0.0
5 H 31.072 3.334 79.085 H 0.0 **** 0.0
@<TRIPOS>BOND
1 1 2 1
2 1 3 1
3 1 4 1
4 1 5 1
@<TRIPOS>MOLECULE
CH4
5 4
SMALL
USER_CHARGES


@<TRIPOS>ATOM
1 C 93.628 23.291 94.953 C 0.0 **** 0.0
2 H 94.162 22.602 94.3 H 0.0 **** 0.0
3 H 93.135 22.73 95.747 H 0.0 **** 0.0
4 H 92.881 23.835 94.375 H 0.0 **** 0.0
5 H 94.333 23.997 95.391 H 0.0 **** 0.0
@<TRIPOS>BOND
1 1 2 1
2 1 3 1
3 1 4 1
4 1 5 1
@<TRIPOS>MOLECULE
CH4
5 4
SMALL
USER_CHARGES


@<TRIPOS>ATOM
1 C 54.029 30.998 88.491 C 0.0 **** 0.0
2 H 54.017 30.778 89.559 H 0.0 **** 0.0
3 H 53.863 32.064 88.338 H 0.0 **** 0.0
4 H 53.24 30.431 87.995 H 0.0 **** 0.0
5 H 54.996 30.717 88.073 H 0.0 **** 0.0
@<TRIPOS>BOND
1 1 2 1
2 1 3 1
3 1 4 1
4 1 5 1
@<TRIPOS>MOLECULE
CH4
5 4
SMALL
USER_CHARGES


@<TRIPOS>ATOM
1 C 45.037 76.182 43.265 C 0.0 **** 0.0
2 H 45.184 75.19 42.838 H 0.0 **** 0.0
3 H 45.978 76.541 43.683 H 0.0 **** 0.0
4 H 44.286 76.13 44.053 H 0.0 **** 0.0
5 H 44.7 76.867 42.487 H 0.0 **** 0.0
@<TRIPOS>BOND
1 1 2 1
2 1 3 1
3 1 4 1
4 1 5 1
@<TRIPOS>MOLECULE
CH4
5 4
SMALL
USER_CHARGES


@<TRIPOS>ATOM
1 C 80.164 0.825 78.795 C 0.0 **** 0.0
2 H 81.219 0.817 79.068 H 0.0 **** 0.0
3 H 79.601 0.217 79.505 H 0.0 **** 0.0
4 H 80.045 0.416 77.792 H 0.0 **** 0.0
5 H 79.79 1.849 78.817 H 0.0 **** 0.0
@<TRIPOS>BOND
1 1 2 1
2 1 3 1
3 1 4 1
4 1 5 1
@<TRIPOS>MOLECULE
CH4
5 4
SMALL
USER_CHARGES


@<TRIPOS>ATOM
1 C 43.587 79.976 75.801 C 0.0 **** 0.0
2 H 43.079 80.854 76.2 H 0.0 **** 0.0
3 H 44.117 79.467 76.606 H 0.0 **** 0.0
4 H 44.299 80.285 75.036 H 0.0 **** 0.0
5 H 42.853 79.3 75.363 H 0.0 **** 0.0
@<TRIPOS>BOND
1 1 2 1
2 1 3 1
3 1 4 1
4 1 5 1
@<TRIPOS>MOLECULE
CH4
5 4
SMALL
USER_CHARGES


@<TRIPOS>ATOM
1 C 21.481 90.018 16.631 C 0.0 **** 0.0
2 H 20.49 89.802 17.029 H 0.0 **** 0.0
3 H 21.696 91.08 16.749 H 0.0 **** 0.0
4 H 21.513 89.755 15.573 H 0.0 **** 0.0
5 H 22.225 89.434 17.173 H 0.0 **** 0.0
@<TRIPOS>BOND
1 1 2 1
2 1 3 1
3 1 4 1
4 1 5 1
@<TRIPOS>MOLECULE
CH4
5 4
SMALL
USER_CHARGES


@<TRIPOS>ATOM
1 C 54.326 41.793 24.961 C 0.0 **** 0.0
2 H 54.484 41.709 26.036 H 0.0 **** 0.0
3 H 55.158 42.338 24.514 H 0.0 **** 0.0
4 H 53.397 42.329 24.771 H 0.0 **** 0.0
5 H 54.267 40.797 24.524 H 0.0 **** 0.0
@<TRIPOS>BOND
1 1 2 1
2 1 3 1
3 1 4 1
4 1 5 1
@<TRIPOS>MOLECULE
CH4
5 4
SMALL
USER_CHARGES


@<TRIPOS>ATOM
1 C 46.958 1.262 52.438 C 0.0 **** 0.0
2 H 46.999 2.043 51.679 H 0.0 **** 0.0
3 H 46.128 1.459 53.117 H 0.0 **** 0.0
4 H 47.892 1.251 52.998 H 0.0 **** 0.0
5 H 46.812 0.295 51.956 H 0.0 **** 0.0
@<TRIPOS>BOND
1 1 2 1
2 1 3 1
3 1 4 1
4 1 5 1
@<TRIPOS>MOLECULE
CH4
5 4
SMALL
USER_CHARGES


@<TRIPOS>ATOM
1 C 37.745 48.383 66.067 C 0.0 **** 0.0
2 H 37.633 48.161 67.128 H 0.0 **** 0.0
3 H 37.371 49.387 65.865 H 0.0 **** 0.0
4 H 37.178 47.659 65.482 H 0.0 **** 0.0
5 H 38.799 48.326 65.794 H 0.0 **** 0.0
@<TRIPOS>BOND
1 1 2 1
2 1 3 1
3 1 4 1
4 1 5 1
@<TRIPOS>MOLECULE
CH4
5 4
SMALL
USER_CHARGES


@<TRIPOS>ATOM
1 C 68.07 53.37 61.839 C 0.0 **** 0.0
2 H 68.908 54.063 61.905 H 0.0 **** 0.0
3 H 67.135 53.931 61.82 H 0.0 **** 0.0
4 H 68.078 52.708 62.705 H 0.0 **** 0.0
5 H 68.158 52.778 60.928 H 0.0 **** 0.0
@<TRIPOS>BOND
1 1 2 1
2 1 3 1
3 1 4 1
4 1 5 1
@<TRIPOS>MOLECULE
CH4
5 4
SMALL
USER_CHARGES


@<TRIPOS>ATOM
1 C 82.814 2.912 24.241 C 0.0 **** 0.0
2 H 83.699 2.82 23.612 H 0.0 **** 0.0
3 H 82.155 3.678 23.832 H 0.0 **** 0.0
4 H 83.114 3.192 25.251 H 0.0 **** 0.0
5 H 82.288 1.958 24.27 H 0.0 **** 0.0
@<TRIPOS>BOND
1 1 2 1
2 1 3 1
3 1 4 1
4 1 5 1
@<TRIPOS>MOLECULE
CH4
5 4
SMALL
USER_CHARGES


@<TRIPOS>ATOM
1 C 41.883 34.053 8.06 C 0.0 **** 0.0
2 H 41.716 34.073 9.137 H 0.0 **** 0.0
3 H 41.461 34.952 7.61 H 0.0 **** 0.0
4 H 41.403 33.172 7.634 H 0.0 **** 0.0
5 H 42.954 34.015 7.86 H 0.0 **** 0.0
@<TRIPOS>BOND
1 1 2 1
2 1 3 1
3 1 4 1
4 1 5 1
@<TRIPOS>MOLECULE
CH4
5 4
SMALL
USER_CHARGES


@<TRIPOS>ATOM
1 C 86.835 71.282 51.766 C 0.0 **** 0.0
2 H 87.02 70.578 50.955 H 0.0 **** 0.0
3 H 87.786 71.637 52.163 H 0.0 **** 0.0
4 H 86.273 70.785 52.557 H 0.0 **** 0.0
5 H 86.26 72.128 51.389 H 0.0 **** 0.0
@<TRIPOS>BOND
1 1 4 1
2 1 5 1
3 1 2 1
4 1 3 1
@<TRIPOS>MOLECULE
CH4
5 4
SMALL
USER_CHARGES


@<TRIPOS>ATOM
1 C 84.773 26.966 28.262 C 0.0 **** 0.0
2 H 84.179 27.86 28.068 H 0.0 **** 0.0
3 H 85.507 27.18 29.04 H 0.0 **** 0.0
4 H 85.286 26.666 27.349 H 0.0 **** 0.0
5 H 84.117 26.16 28.592 H 0.0 **** 0.0
@<TRIPOS>BOND
1 1 2 1
2 1 3 1
3 1 4 1
4 1 5 1
@<TRIPOS>MOLECULE
CH4
5 4
SMALL
USER_CHARGES


@<TRIPOS>ATOM
1 C 21.909 76.731 69.62 C 0.0 **** 0.0
2 H 21.653 76.706 68.561 H 0.0 **** 0.0
3 H 21.539 75.827 70.104 H 0.0 **** 0.0
4 H 21.451 77.605 70.084 H 0.0 **** 0.0
5 H 22.992 76.787 69.731 H 0.0 **** 0.0
@<TRIPOS>BOND
1 1 2 1
2 1 3 1
3 1 4 1
4 1 5 1
@<TRIPOS>MOLECULE
CH4
5 4
SMALL
USER_CHARGES


@<TRIPOS>ATOM
1 C 45.311 78.124 67.773 C 0.0 **** 0.0
2 H 45.46 77.829 68.812 H 0.0 **** 0.0
3 H 45.048 79.181 67.73 H 0.0 **** 0.0
4 H 44.506 77.53 67.339 H 0.0 **** 0.0
5 H 46.23 77.954 67.212 H 0.0 **** 0.0
@<TRIPOS>BOND
1 1 2 1
2 1 3 1
3 1 4 1
4 1 5 1
@<TRIPOS>MOLECULE
CH4
5 4
SMALL
USER_CHARGES


@<TRIPOS>ATOM
1 C 42.665 67.499 78.316 C 0.0 **** 0.0
2 H 43.171 67.403 77.356 H 0.0 **** 0.0
3 H 43.372 67.299 79.121 H 0.0 **** 0.0
4 H 41.844 66.783 78.367 H 0.0 **** 0.0
5 H 42.272 68.51 78.42 H 0.0 **** 0.0
@<TRIPOS>BOND
1 1 2 1
2 1 3 1
3 1 4 1
4 1 5 1
@<TRIPOS>MOLECULE
CH4
5 4
SMALL
USER_CHARGES


@<TRIPOS>ATOM
1 C 26.286 70.847 34.647 C 0.0 **** 0.0
2 H 26.314 71.415 33.717 H 0.0 **** 0.0
3 H 27.286 70.81 35.08 H 0.0 **** 0.0
4 H 25.941 69.834 34.442 H 0.0 **** 0.0
5 H 25.603 71.329 35.346 H 0.0 **** 0.0
@<TRIPOS>BOND
1 1 2 1
2 1 3 1
3 1 4 1
4 1 5 1
@<TRIPOS>MOLECULE
CH4
5 4
SMALL
USER_CHARGES


@<TRIPOS>ATOM
1 C 33.41 97.355 94.063 C 0.0 **** 0.0
2 H 33.735 97.25 93.028 H 0.0 **** 0.0
3 H 32.876 98.299 94.183 H 0.0 **** 0.0
4 H 34.279 97.343 94.72 H 0.0 **** 0.0
5 H 32.748 96.528 94.322 H 0.0 **** 0.0
@<TRIPOS>BOND
1 1 2 1
2 1 3 1
3 1 4 1
4 1 5 1
@<TRIPOS>MOLECULE
CH4
5 4
SMALL
USER_CHARGES


@<TRIPOS>ATOM
1 C 90.717 11.59 26.187 C 0.0 **** 0.0
2 H 90.763 11.567 27.276 H 0.0 **** 0.0
3 H 90.125 12.449 25.867 H 0.0 **** 0.0
4 H 90.253 10.673 25.824 H 0.0 **** 0.0
5 H 91.726 11.673 25.783 H 0.0 **** 0.0
@<TRIPOS>BOND
1 1 2 1
2 1 3 1
3 1 4 1
4 1 5 1
@<TRIPOS>MOLECULE
CH4
5 4
SMALL
USER_CHARGES


@<TRIPOS>ATOM
1 C 62.495 96.341 6.312 C 0.0 **** 0.0
2 H 62.491 96.344 7.402 H 0.0 **** 0.0
3 H 61.591 96.827 5.945 H 0.0 **** 0.0
4 H 62.528 95.313 5.952 H 0.0 **** 0.0
5 H 63.37 96.881 5.951 H 0.0 **** 0.0
@<TRIPOS>BOND
1 1 2 1
2 1 3 1
3 1 4 1
4 1 5 1
@<TRIPOS>MOLECULE
CH4
5 4
SMALL
USER_CHARGES


@<TRIPOS>ATOM
1 C 14.508 91.582 88.334 C 0.0 **** 0.0
2 H 14.077 91.95 89.266 H 0.0 **** 0.0
3 H 15.367 92.197 88.064 H 0.0 **** 0.0
4 H 13.76 91.635 87.543 H 0.0 **** 0.0
5 H 14.827 90.548 88.465 H 0.0 **** 0.0
@<TRIPOS>BOND
1 1 2 1
2 1 3 1
3 1 4 1
4 1 5 1
@<TRIPOS>MOLECULE
CH4
5 4
SMALL
USER_CHARGES


@<TRIPOS>ATOM
1 C 43.436 45.154 34.07 C 0.0 **** 0.0
2 H 44.383 45.031 34.594 H 0.0 **** 0.0
3 H 43.625 45.524 33.061 H 0.0 **** 0.0
4 H 42.813 45.869 34.608 H 0.0 **** 0.0
5 H 42.923 44.194 34.015 H 0.0 **** 0.0
@<TRIPOS>BOND
1 1 2 1
2 1 3 1
3 1 4 1
4 1 5 1
@<TRIPOS>MOLECULE
CH4
5 4
SMALL
USER_CHARGES


@<TRIPOS>ATOM
1 C 73.315 9.123 18.393 C 0.0 **** 0.0
2 H 72.339 9.453 18.748 H 0.0 **** 0.0
3 H 73.239 8.822 17.348 H 0.0 **** 0.0
4 H 73.652 8.276 18.991 H 0.0 **** 0.0
5 H 74.03 9.94 18.485 H 0.0 **** 0.0
@<TRIPOS>BOND
1 1 2 1
2 1 3 1
3 1 4 1
4 1 5 1
@<TRIPOS>MOLECULE
CH4
5 4
SMALL
USER_CHARGES


@<TRIPOS>ATOM
1 C 40.842 36.488 69.617 C 0.0 **** 0.0
2 H 40.831 37.192 70.449 H 0.0 **** 0.0
3 H 39.819 36.218 69.355 H 0.0 **** 0.0
4 H 41.391 35.592 69.907 H 0.0 **** 0.0
5 H 41.328 36.95 68.757 H 0.0 **** 0.0
@<TRIPOS>BOND
1 1 2 1
2 1 3 1
3 1 4 1
4 1 5 1
@<TRIPOS>MOLECULE
CH4
5 4
SMALL
USER_CHARGES


@<TRIPOS>ATOM
1 C 86.27 80.91 1.486 C 0.0 **** 0.0
2 H 85.401 81.256 2.046 H 0.0 **** 0.0
3 H 86.482 81.609 0.677 H 0.0 **** 0.0
4 H 86.065 79.923 1.071 H 0.0 **** 0.0
5 H 87.131 80.852 2.152 H 0.0 **** 0.0
@<TRIPOS>BOND
1 1 2 1
2 1 3 1
3 1 4 1
4 1 5 1
@<TRIPOS>MOLECULE
CH4
5 4
SMALL
USER_CHARGES


@<TRIPOS>ATOM
1 C 78.048 36.192 63.06 C 0.0 **** 0.0
2 H 77.971 37.029 62.366 H 0.0 **** 0.0
3 H 78.789 36.422 63.826 H 0.0 **** 0.0
4 H 78.352 35.297 62.516 H 0.0 **** 0.0
5 H 77.08 36.02 63.53 H 0.0 **** 0.0
@<TRIPOS>BOND
1 1 2 1
2 1 3 1
3 1 4 1
4 1 5 1
@<TRIPOS>MOLECULE
CH4
5 4
SMALL
USER_CHARGES


@<TRIPOS>ATOM
1 C 80.183 42.568 56.327 C 0.0 **** 0.0
2 H 81.237 42.364 56.138 H 0.0 **** 0.0
3 H 79.859 42.018 57.21 H 0.0 **** 0.0
4 H 79.592 42.255 55.466 H 0.0 **** 0.0
5 H 80.045 43.637 56.493 H 0.0 **** 0.0
@<TRIPOS>BOND
1 1 2 1
2 1 3 1
3 1 4 1
4 1 5 1
@<TRIPOS>MOLECULE
CH4
5 4
SMALL
USER_CHARGES


@<TRIPOS>ATOM
1 C 97.932 7.877 56.525 C 0.0 **** 0.0
2 H 96.973 7.837 56.009 H 0.0 **** 0.0
3 H 98.039 8.843 57.019 H 0.0 **** 0.0
4 H 98.739 7.746 55.803 H 0.0 **** 0.0
5 H 97.978 7.081 57.269 H 0.0 **** 0.0
@<TRIPOS>BOND
1 1 2 1
2 1 3 1
3 1 4 1
4 1 5 1
@<TRIPOS>MOLECULE
CH4
5 4
SMALL
USER_CHARGES


@<TRIPOS>ATOM
1 C 75.574 45.912 48.603 C 0.0 **** 0.0
2 H 75.585 45.788 49.686 H 0.0 **** 0.0
3 H 75.172 45.012 48.139 H 0.0 **** 0.0
4 H 76.59 46.083 48.246 H 0.0 **** 0.0
5 H 74.949 46.766 48.342 H 0.0 **** 0.0
@<TRIPOS>BOND
1 1 2 1
2 1 3 1
3 1 4 1
4 1 5 1
@<TRIPOS>MOLECULE
CH4
5 4
SMALL
USER_CHARGES


@<TRIPOS>ATOM
1 C 20.138 21.767 29.037 C 0.0 **** 0.0
2 H 20.824 22.252 29.733 H 0.0 **** 0.0
3 H 19.524 21.046 29.576 H 0.0 **** 0.0
4 H 20.709 21.253 28.264 H 0.0 **** 0.0
5 H 19.497 22.519 28.577 H 0.0 **** 0.0
@<TRIPOS>BOND
1 1 2 1
2 1 3 1
3 1 4 1
4 1 5 1
@<TRIPOS>MOLECULE
CH4
5 4
SMALL
USER_CHARGES


@<TRIPOS>ATOM
1 C 92.37 60.428 15.668 C 0.0 **** 0.0
2 H 92.396 59.492 16.225 H 0.0 **** 0.0
3 H 93.174 61.078 16.014 H 0.0 **** 0.0
4 H 91.41 60.919 15.827 H 0.0 **** 0.0
5 H 92.501 60.222 14.606 H 0.0 **** 0.0
@<TRIPOS>BOND
1 1 2 1
2 1 3 1
3 1 4 1
4 1 5 1
@<TRIPOS>MOLECULE
CH4
5 4
SMALL
USER_CHARGES


@<TRIPOS>ATOM
1 C 12.772 85.689 55.876 C 0.0 **** 0.0
2 H 12.122 86.415 55.387 H 0.0 **** 0.0
3 H 12.755 85.855 56.954 H 0.0 **** 0.0
4 H 13.79 85.806 55.506 H 0.0 **** 0.0
5 H 12.419 84.681 55.658 H 0.0 **** 0.0
@<TRIPOS>BOND
1 1 2 1
2 1 3 1
3 1 4 1
4 1 5 1
@<TRIPOS>MOLECULE
CH4
5 4
SMALL
USER_CHARGES


@<TRIPOS>ATOM
1 C 85.156 91.883 87.197 C 0.0 **** 0.0
2 H 84.314 91.841 86.506 H 0.0 **** 0.0
3 H 85.98 92.426 86.733 H 0.0 **** 0.0
4 H 85.478 90.87 87.439 H 0.0 **** 0.0
5 H 84.851 92.396 88.11 H 0.0 **** 0.0
@<TRIPOS>BOND
1 1 2 1
2 1 3 1
3 1 4 1
4 1 5 1
@<TRIPOS>MOLECULE
CH4
5 4
SMALL
USER_CHARGES


@<TRIPOS>ATOM
1 C 64.388 11.562 70.162 C 0.0 **** 0.0
2 H 64.392 10.554 70.576 H 0.0 **** 0.0
3 H 63.766 12.207 70.782 H 0.0 **** 0.0
4 H 63.988 11.537 69.148 H 0.0 **** 0.0
5 H 65.407 11.949 70.141 H 0.0 **** 0.0
@<TRIPOS>BOND
1 1 2 1
2 1 3 1
3 1 4 1
4 1 5 1
@<TRIPOS>MOLECULE
CH4
5 4
SMALL
USER_CHARGES


@<TRIPOS>ATOM
1 C 19.791 39.03 57.67 C 0.0 **** 0.0
2 H 19.896 38.864 58.742 H 0.0 **** 0.0
3 H 19.137 38.267 57.247 H 0.0 **** 0.0
4 H 20.771 38.974 57.196 H 0.0 **** 0.0
5 H 19.359 40.016 57.496 H 0.0 **** 0.0
@<TRIPOS>BOND
1 1 2 1
2 1 3 1
3 1 4 1
4 1 5 1
@<TRIPOS>MOLECULE
CH4
5 4
SMALL
USER_CHARGES


@<TRIPOS>ATOM
1 C 12.369 67.057 44.012 C 0.0 **** 0.0
2 H 12.063 66.861 45.039 H 0.0 **** 0.0
3 H 13.36 67.512 44.009 H 0.0 **** 0.0
4 H 11.656 67.736 43.544 H 0.0 **** 0.0
5 H 12.397 66.12 43.456 H 0.0 **** 0.0
@<TRIPOS>BOND
1 1 2 1
2 1 3 1
3 1 4 1
4 1 5 1
@<TRIPOS>MOLECULE
CH4
5 4
SMALL
USER_CHARGES


@<TRIPOS>ATOM
1 C 64.557 49.345 54.951 C 0.0 **** 0.0
2 H 64.475 50.143 55.688 H 0.0 **** 0.0
3 H 64.442 49.762 53.95 H 0.0 **** 0.0
4 H 63.777 48.605 55.128 H 0.0 **** 0.0
5 H 65.535 48.87 55.037 H 0.0 **** 0.0
@<TRIPOS>BOND
1 1 2 1
2 1 3 1
3 1 4 1
4 1 5 1
@<TRIPOS>MOLECULE
CH4
5 4
SMALL
USER_CHARGES


@<TRIPOS>ATOM
1 C 74.301 84.334 43.256 C 0.0 **** 0.0
2 H 74.201 84.589 44.311 H 0.0 **** 0.0
3 H 75.323 84.009 43.056 H 0.0 **** 0.0
4 H 74.072 85.209 42.647 H 0.0 **** 0.0
5 H 73.609 83.528 43.01 H 0.0 **** 0.0
@<TRIPOS>BOND
1 1 2 1
2 1 3 1
3 1 4 1
4 1 5 1
@<TRIPOS>MOLECULE
CH4
5 4
SMALL
USER_CHARGES


@<TRIPOS>ATOM
1 C 56.379 74.965 5.844 C 0.0 **** 0.0
2 H 56.363 74.958 6.933 H 0.0 **** 0.0
3 H 56.125 73.973 5.471 H 0.0 **** 0.0
4 H 57.374 75.24 5.496 H 0.0 **** 0.0
5 H 55.652 75.689 5.475 H 0.0 **** 0.0
@<TRIPOS>BOND
1 1 2 1
2 1 3 1
3 1 4 1
4 1 5 1
@<TRIPOS>MOLECULE
CH4
5 4
SMALL
USER_CHARGES


@<TRIPOS>ATOM
1 C 84.595 68.586 86.702 C 0.0 **** 0.0
2 H 84.503 67.846 87.497 H 0.0 **** 0.0
3 H 84.633 69.584 87.138 H 0.0 **** 0.0
4 H 83.735 68.512 86.036 H 0.0 **** 0.0
5 H 85.509 68.4 86.138 H 0.0 **** 0.0
@<TRIPOS>BOND
1 1 2 1
2 1 3 1
3 1 4 1
4 1 5 1
@<TRIPOS>MOLECULE
CH4
5 4
SMALL
USER_CHARGES


@<TRIPOS>ATOM
1 C 3.562 73.846 29.958 C 0.0 **** 0.0
2 H 3.907 73.799 30.991 H 0.0 **** 0.0
3 H 4.321 73.418 29.302 H 0.0 **** 0.0
4 H 3.387 74.885 29.68 H 0.0 **** 0.0
5 H 2.635 73.282 29.859 H 0.0 **** 0.0
@<TRIPOS>BOND
1 1 2 1
2 1 3 1
3 1 4 1
4 1 5 1
@<TRIPOS>MOLECULE
CH4
5 4
SMALL
USER_CHARGES


@<TRIPOS>ATOM
1 C 90.414 52.399 2.713 C 0.0 **** 0.0
2 H 90.465 52.424 3.801 H 0.0 **** 0.0
3 H 91.22 51.776 2.325 H 0.0 **** 0.0
4 H 90.517 53.411 2.321 H 0.0 **** 0.0
5 H 89.454 51.986 2.403 H 0.0 **** 0.0
@<TRIPOS>BOND
1 1 2 1
2 1 3 1
3 1 4 1
4 1 5 1
@<TRIPOS>MOLECULE
CH4
5 4
SMALL
USER_CHARGES


@<TRIPOS>ATOM
1 C 25.719 37.114 63.999 C 0.0 **** 0.0
2 H 24.977 37.138 64.797 H 0.0 **** 0.0
3 H 26.513 36.415 64.262 H 0.0 **** 0.0
4 H 26.141 38.111 63.867 H 0.0 **** 0.0
5 H 25.244 36.795 63.071 H 0.0 **** 0.0
@<TRIPOS>BOND
1 1 2 1
2 1 3 1
3 1 4 1
4 1 5 1
@<TRIPOS>MOLECULE
CH4
5 4
SMALL
USER_CHARGES


@<TRIPOS>ATOM
1 C 28.556 71.297 63.022 C 0.0 **** 0.0
2 H 27.968 70.657 63.679 H 0.0 **** 0.0
3 H 29.107 70.679 62.312 H 0.0 **** 0.0
4 H 29.258 71.88 63.617 H 0.0 **** 0.0
5 H 27.892 71.97 62.48 H 0.0 **** 0.0
@<TRIPOS>BOND
1 1 2 1
2 1 3 1
3 1 4 1
4 1 5 1
@<TRIPOS>MOLECULE
CH4
5 4
SMALL
USER_CHARGES


@<TRIPOS>ATOM
1 C 62.243 51.914 55.958 C 0.0 **** 0.0
2 H 63.182 52.459 56.061 H 0.0 **** 0.0
3 H 62.042 51.734 54.902 H 0.0 **** 0.0
4 H 61.433 52.503 56.388 H 0.0 **** 0.0
5 H 62.317 50.961 56.482 H 0.0 **** 0.0
@<TRIPOS>BOND
1 1 2 1
2 1 3 1
3 1 4 1
4 1 5 1
@<TRIPOS>MOLECULE
CH4
5 4
SMALL
USER_CHARGES


@<TRIPOS>ATOM
1 C 45.365 83.299 82.527 C 0.0 **** 0.0
2 H 45.949 83.491 81.627 H 0.0 **** 0.0
3 H 44.824 84.203 82.808 H 0.0 **** 0.0
4 H 46.033 83.009 83.338 H 0.0 **** 0.0
5 H 44.656 82.495 82.335 H 0.0 **** 0.0
@<TRIPOS>BOND
1 1 2 1
2 1 3 1
3 1 4 1
4 1 5 1
@<TRIPOS>MOLECULE
CH4
5 4
SMALL
USER_CHARGES


@<TRIPOS>ATOM
1 C 6.793 38.998 60.322 C 0.0 **** 0.0
2 H 5.768 39.102 60.675 H 0.0 **** 0.0
3 H 6.844 39.273 59.268 H 0.0 **** 0.0
4 H 7.117 37.965 60.444 H 0.0 **** 0.0
5 H 7.445 39.654 60.9 H 0.0 **** 0.0
@<TRIPOS>BOND
1 1 2 1
2 1 3 1
3 1 4 1
4 1 5 1
@<TRIPOS>MOLECULE
CH4
5 4
SMALL
USER_CHARGES


@<TRIPOS>ATOM
1 C 11.071 56.177 34.276 C 0.0 **** 0.0
2 H 10.753 57.173 34.582 H 0.0 **** 0.0
3 H 12.16 56.126 34.279 H 0.0 **** 0.0
4 H 10.7 55.969 33.272 H 0.0 **** 0.0
5 H 10.67 55.439 34.971 H 0.0 **** 0.0
@<TRIPOS>BOND
1 1 2 1
2 1 3 1
3 1 4 1
4 1 5 1
@<TRIPOS>MOLECULE
CH4
5 4
SMALL
USER_CHARGES


@<TRIPOS>ATOM
1 C 70.805 83.003 21.428 C 0.0 **** 0.0
2 H 70.432 83.26 20.437 H 0.0 **** 0.0
3 H 71.186 81.982 21.42 H 0.0 **** 0.0
4 H 69.994 83.083 22.153 H 0.0 **** 0.0
5 H 71.606 83.688 21.703 H 0.0 **** 0.0
@<TRIPOS>BOND
1 1 2 1
2 1 3 1
3 1 4 1
4 1 5 1
@<TRIPOS>MOLECULE
CH4
5 4
SMALL
USER_CHARGES


@<TRIPOS>ATOM
1 C 79.467 86.372 91.582 C 0.0 **** 0.0
2 H 78.436 86.431 91.933 H 0.0 **** 0.0
3 H 80.01 85.636 92.175 H 0.0 **** 0.0
4 H 79.942 87.347 91.685 H 0.0 **** 0.0
5 H 79.476 86.072 90.534 H 0.0 **** 0.0
@<TRIPOS>BOND
1 1 2 1
2 1 3 1
3 1 4 1
4 1 5 1
@<TRIPOS>MOLECULE
CH4
5 4
SMALL
USER_CHARGES


@<TRIPOS>ATOM
1 C 94.403 33.263 11.188 C 0.0 **** 0.0
2 H 94.342 32.647 10.291 H 0.0 **** 0.0
3 H 94.515 34.309 10.903 H 0.0 **** 0.0
4 H 95.262 32.954 11.783 H 0.0 **** 0.0
5 H 93.492 33.141 11.775 H 0.0 **** 0.0
@<TRIPOS>BOND
1 1 2 1
2 1 3 1
3 1 4 1
4 1 5 1
@<TRIPOS>MOLECULE
CH4
5 4
SMALL
USER_CHARGES


@<TRIPOS>ATOM
1 C 58.351 6.631 42.111 C 0.0 **** 0.0
2 H 58.505 6.479 43.179 H 0.0 **** 0.0
3 H 59.301 6.522 41.587 H 0.0 **** 0.0
4 H 57.955 7.633 41.941 H 0.0 **** 0.0
5 H 57.642 5.892 41.737 H 0.0 **** 0.0
@<TRIPOS>BOND
1 1 2 1
2 1 3 1
3 1 4 1
4 1 5 1
@<TRIPOS>MOLECULE
CH4
5 4
SMALL
USER_CHARGES


@<TRIPOS>ATOM
1 C 25.531 89.859 20.695 C 0.0 **** 0.0
2 H 25.907 90.317 19.78 H 0.0 **** 0.0
3 H 26.37 89.525 21.305 H 0.0 **** 0.0
4 H 24.902 89.006 20.442 H 0.0 **** 0.0
5 H 24.944 90.59 21.252 H 0.0 **** 0.0
@<TRIPOS>BOND
1 1 2 1
2 1 3 1
3 1 4 1
4 1 5 1
@<TRIPOS>MOLECULE
CH4
5 4
SMALL
USER_CHARGES


@<TRIPOS>ATOM
1 C 98.385 10.495 30.063 C 0.0 **** 0.0
2 H 99.0 10.235 30.924 H 0.0 **** 0.0
3 H 97.958 9.587 29.635 H 0.0 **** 0.0
4 H 99.0 10.995 29.315 H 0.0 **** 0.0
5 H 97.582 11.161 30.378 H 0.0 **** 0.0
@<TRIPOS>BOND
1 1 2 1
2 1 3 1
3 1 4 1
4 1 5 1
@<TRIPOS>MOLECULE
CH4
5 4
SMALL
USER_CHARGES


@<TRIPOS>ATOM
1 C 24.377 38.127 68.782 C 0.0 **** 0.0
2 H 24.394 38.181 69.87 H 0.0 **** 0.0
3 H 25.392 38.23 68.398 H 0.0 **** 0.0
4 H 23.755 38.932 68.389 H 0.0 **** 0.0
5 H 23.966 37.166 68.472 H 0.0 **** 0.0
@<TRIPOS>BOND
1 1 2 1
2 1 3 1
3 1 4 1
4 1 5 1
@<TRIPOS>MOLECULE
CH4
5 4
SMALL
USER_CHARGES


@<TRIPOS>ATOM
1 C 1.45 19.481 53.723 C 0.0 **** 0.0
2 H 1.356 19.397 54.806 H 0.0 **** 0.0
3 H 0.547 19.935 53.315 H 0.0 **** 0.0
4 H 1.585 18.489 53.292 H 0.0 **** 0.0
5 H 2.312 20.103 53.481 H 0.0 **** 0.0
@<TRIPOS>BOND
1 1 2 1
2 1 3 1
3 1 4 1
4 1 5 1
@<TRIPOS>MOLECULE
CH4
5 4
SMALL
USER_CHARGES


@<TRIPOS>ATOM
1 C 10.666 79.573 58.848 C 0.0 **** 0.0
2 H 10.511 79.793 57.792 H 0.0 **** 0.0
3 H 10.494 78.512 59.028 H 0.0 **** 0.0
4 H 9.97 80.161 59.447 H 0.0 **** 0.0
5 H 11.689 79.828 59.125 H 0.0 **** 0.0
@<TRIPOS>BOND
1 1 2 1
2 1 3 1
3 1 4 1
4 1 5 1
@<TRIPOS>MOLECULE
CH4
5 4
SMALL
USER_CHARGES


@<TRIPOS>ATOM
1 C 89.593 15.09 35.68 C 0.0 **** 0.0
2 H 89.684 15.311 34.617 H 0.0 **** 0.0
3 H 88.691 15.559 36.072 H 0.0 **** 0.0
4 H 90.464 15.48 36.207 H 0.0 **** 0.0
5 H 89.534 14.011 35.823 H 0.0 **** 0.0
@<TRIPOS>BOND
1 1 2 1
2 1 3 1
3 1 4 1
4 1 5 1
@<TRIPOS>MOLECULE
CH4
5 4
SMALL
USER_CHARGES


@<TRIPOS>ATOM
1 C 82.921 76.996 36.497 C 0.0 **** 0.0
2 H 83.48 76.296 35.875 H 0.0 **** 0.0
3 H 82.988 76.688 37.54 H 0.0 **** 0.0
4 H 81.877 77.005 36.185 H 0.0 **** 0.0
5 H 83.342 77.996 36.385 H 0.0 **** 0.0
@<TRIPOS>BOND
1 1 2 1
2 1 3 1
3 1 4 1
4 1 5 1
@<TRIPOS>MOLECULE
CH4
5 4
SMALL
USER_CHARGES


@<TRIPOS>ATOM
1 C 19.562 18.403 8.857 C 0.0 **** 0.0
2 H 20.225 18.541 8.004 H 0.0 **** 0.0
3 H 18.676 17.851 8.543 H 0.0 **** 0.0
4 H 19.266 19.376 9.248 H 0.0 **** 0.0
5 H 20.083 17.842 9.634 H 0.0 **** 0.0
@<TRIPOS>BOND
1 1 2 1
2 1 3 1
3 1 4 1
4 1 5 1
@<TRIPOS>MOLECULE
CH4
5 4
SMALL
USER_CHARGES


@<TRIPOS>ATOM
1 C 7.724 78.614 56.001 C 0.0 **** 0.0
2 H 6.711 78.889 56.297 H 0.0 **** 0.0
3 H 8.183 79.444 55.463 H 0.0 **** 0.0
4 H 7.688 77.737 55.355 H 0.0 **** 0.0
5 H 8.313 78.387 56.89 H 0.0 **** 0.0
@<TRIPOS>BOND
1 1 2 1
2 1 3 1
3 1 4 1
4 1 5 1
@<TRIPOS>MOLECULE
CH4
5 4
SMALL
USER_CHARGES


@<TRIPOS>ATOM
1 C 25.514 56.338 75.159 C 0.0 **** 0.0
2 H 25.447 56.257 76.243 H 0.0 **** 0.0
3 H 24.605 55.939 74.708 H 0.0 **** 0.0
4 H 26.375 55.771 74.804 H 0.0 **** 0.0
5 H 25.629 57.386 74.88 H 0.0 **** 0.0
@<TRIPOS>BOND
1 1 2 1
2 1 3 1
3 1 4 1
4 1 5 1
@<TRIPOS>MOLECULE
CH4
5 4
SMALL
USER_CHARGES


@<TRIPOS>ATOM
1 C 74.919 16.603 92.729 C 0.0 **** 0.0
2 H 75.659 15.84 92.973 H 0.0 **** 0.0
3 H 73.941 16.291 93.096 H 0.0 **** 0.0
4 H 74.876 16.734 91.647 H 0.0 **** 0.0
5 H 75.201 17.545 93.198 H 0.0 **** 0.0
@<TRIPOS>BOND
1 1 2 1
2 1 3 1
3 1 4 1
4 1 5 1
@<TRIPOS>MOLECULE
CH4
5 4
SMALL
USER_CHARGES


@<TRIPOS>ATOM
1 C 72.657 39.826 15.47 C 0.0 **** 0.0
2 H 71.916 40.245 16.152 H 0.0 **** 0.0
3 H 72.444 40.159 14.454 H 0.0 **** 0.0
4 H 72.615 38.738 15.512 H 0.0 **** 0.0
5 H 73.651 40.163 15.762 H 0.0 **** 0.0
@<TRIPOS>BOND
1 1 2 1
2 1 3 1
3 1 4 1
4 1 5 1
@<TRIPOS>MOLECULE
CH4
5 4
SMALL
USER_CHARGES


@<TRIPOS>ATOM
1 C 43.686 39.196 12.727 C 0.0 **** 0.0
2 H 43.877 39.219 13.8 H 0.0 **** 0.0
3 H 43.241 40.141 12.417 H 0.0 **** 0.0
4 H 43.002 38.379 12.498 H 0.0 **** 0.0
5 H 44.625 39.043 12.195 H 0.0 **** 0.0
@<TRIPOS>BOND
1 1 2 1
2 1 3 1
3 1 4 1
4 1 5 1
@<TRIPOS>MOLECULE
CH4
5 4
SMALL
USER_CHARGES


@<TRIPOS>ATOM
1 C 82.283 49.029 50.62 C 0.0 **** 0.0
2 H 83.026 48.969 49.824 H 0.0 **** 0.0
3 H 82.503 48.278 51.379 H 0.0 **** 0.0
4 H 81.291 48.848 50.205 H 0.0 **** 0.0
5 H 82.313 50.021 51.07 H 0.0 **** 0.0
@<TRIPOS>BOND
1 1 2 1
2 1 3 1
3 1 4 1
4 1 5 1
@<TRIPOS>MOLECULE
CH4
5 4
SMALL
USER_CHARGES


@<TRIPOS>ATOM
1 C 44.923 30.696 93.93 C 0.0 **** 0.0
2 H 44.834 29.648 94.218 H 0.0 **** 0.0
3 H 44.42 31.32 94.669 H 0.0 **** 0.0
4 H 44.462 30.845 92.954 H 0.0 **** 0.0
5 H 45.977 30.97 93.88 H 0.0 **** 0.0
@<TRIPOS>BOND
1 1 2 1
2 1 3 1
3 1 4 1
4 1 5 1
@<TRIPOS>MOLECULE
CH4
5 4
SMALL
USER_CHARGES


@<TRIPOS>ATOM
1 C 55.15 42.272 37.409 C 0.0 **** 0.0
2 H 55.805 42.33 36.539 H 0.0 **** 0.0
3 H 55.706 41.869 38.256 H 0.0 **** 0.0
4 H 54.306 41.62 37.185 H 0.0 **** 0.0
5 H 54.784 43.268 37.655 H 0.0 **** 0.0
@<TRIPOS>BOND
1 1 2 1
2 1 3 1
3 1 4 1
4 1 5 1
@<TRIPOS>MOLECULE
CH4
5 4
SMALL
USER_CHARGES


@<TRIPOS>ATOM
1 C 62.306 11.958 54.29 C 0.0 **** 0.0
2 H 61.428 11.54 54.783 H 0.0 **** 0.0
3 H 63.103 12.093 55.022 H 0.0 **** 0.0
4 H 62.051 12.921 53.848 H 0.0 **** 0.0
5 H 62.642 11.276 53.509 H 0.0 **** 0.0
@<TRIPOS>BOND
1 1 2 1
2 1 3 1
3 1 4 1
4 1 5 1
@<TRIPOS>MOLECULE
CH4
5 4
SMALL
USER_CHARGES


@<TRIPOS>ATOM
1 C 29.009 24.909 20.852 C 0.0 **** 0.0
2 H 29.119 24.059 21.526 H 0.0 **** 0.0
3 H 29.814 24.896 20.117 H 0.0 **** 0.0
4 H 29.055 25.835 21.426 H 0.0 **** 0.0
5 H 28.049 24.845 20.341 H 0.0 **** 0.0
@<TRIPOS>BOND
1 1 2 1
2 1 3 1
3 1 4 1
4 1 5 1
@<TRIPOS>MOLECULE
CH4
5 4
SMALL
USER_CHARGES


@<TRIPOS>ATOM
1 C 34.471 74.12 91.948 C 0.0 **** 0.0
2 H 34.581 73.958 90.876 H 0.0 **** 0.0
3 H 33.44 74.395 92.169 H 0.0 **** 0.0
4 H 35.138 74.922 92.265 H 0.0 **** 0.0
5 H 34.726 73.204 92.482 H 0.0 **** 0.0
@<TRIPOS>BOND
1 1 2 1
2 1 3 1
3 1 4 1
4 1 5 1
@<TRIPOS>MOLECULE
CH4
5 4
SMALL
USER_CHARGES


@<TRIPOS>ATOM
1 C 56.175 10.995 90.865 C 0.0 **** 0.0
2 H 56.227 11.951 91.387 H 0.0 **** 0.0
3 H 55.454 10.348 91.364 H 0.0 **** 0.0
4 H 57.157 10.522 90.874 H 0.0 **** 0.0
5 H 55.861 11.161 89.834 H 0.0 **** 0.0
@<TRIPOS>BOND
1 1 2 1
2 1 3 1
3 1 4 1
4 1 5 1
@<TRIPOS>MOLECULE
CH4
5 4
SMALL
USER_CHARGES


@<TRIPOS>ATOM
1 C 55.692 72.122 59.748 C 0.0 **** 0.0
2 H 54.65 72.438 59.718 H 0.0 **** 0.0
3 H 55.932 71.573 58.837 H 0.0 **** 0.0
4 H 55.852 71.479 60.614 H 0.0 **** 0.0
5 H 56.335 72.999 59.824 H 0.0 **** 0.0
@<TRIPOS>BOND
1 1 2 1
2 1 3 1
3 1 4 1
4 1 5 1
@<TRIPOS>MOLECULE
CH4
5 4
SMALL
USER_CHARGES


@<TRIPOS>ATOM
1 C 39.679 61.004 12.934 C 0.0 **** 0.0
2 H 39.922 61.788 12.216 H 0.0 **** 0.0
3 H 40.548 60.803 13.56 H 0.0 **** 0.0
4 H 39.398 60.097 12.4 H 0.0 **** 0.0
5 H 38.848 61.33 13.559 H 0.0 **** 0.0
@<TRIPOS>BOND
1 1 2 1
2 1 3 1
3 1 4 1
4 1 5 1
@<TRIPOS>MOLECULE
CH4
5 4
SMALL
USER_CHARGES


@<TRIPOS>ATOM
1 C 32.86 55.637 55.035 C 0.0 **** 0.0
2 H 31.829 55.847 54.749 H 0.0 **** 0.0
3 H 33.187 56.368 55.775 H 0.0 **** 0.0
4 H 33.501 55.699 54.155 H 0.0 **** 0.0
5 H 32.922 54.636 55.461 H 0.0 **** 0.0
@<TRIPOS>BOND
1 1 2 1
2 1 3 1
3 1 4 1
4 1 5 1
@<TRIPOS>MOLECULE
CH4
5 4
SMALL
USER_CHARGES


@<TRIPOS>ATOM
1 C 84.418 74.381 5.768 C 0.0 **** 0.0
2 H 85.013 73.487 5.955 H 0.0 **** 0.0
3 H 85.078 75.21 5.51 H 0.0 **** 0.0
4 H 83.851 74.633 6.664 H 0.0 **** 0.0
5 H 83.73 74.194 4.943 H 0.0 **** 0.0
@<TRIPOS>BOND
1 1 2 1
2 1 3 1
3 1 4 1
4 1 5 1
@<TRIPOS>MOLECULE
CH4
5 4
SMALL
USER_CHARGES


@<TRIPOS>ATOM
1 C 67.736 94.997 59.565 C 0.0 **** 0.0
2 H 67.975 94.977 60.629 H 0.0 **** 0.0
3 H 68.528 94.497 59.006 H 0.0 **** 0.0
4 H 67.652 96.031 59.231 H 0.0 **** 0.0
5 H 66.791 94.482 59.396 H 0.0 **** 0.0
@<TRIPOS>BOND
1 1 2 1
2 1 3 1
3 1 4 1
4 1 5 1
@<TRIPOS>MOLECULE
CH4
5 4
SMALL
USER_CHARGES


@<TRIPOS>ATOM
1 C 22.564 31.945 18.731 C 0.0 **** 0.0
2 H 23.545 31.684 18.333 H 0.0 **** 0.0
3 H 21.977 32.436 17.954 H 0.0 **** 0.0
4 H 22.684 32.62 19.578 H 0.0 **** 0.0
5 H 22.052 31.04 19.056 H 0.0 **** 0.0
@<TRIPOS>BOND
1 1 2 1
2 1 3 1
3 1 4 1
4 1 5 1
@<TRIPOS>MOLECULE
CH4
5 4
SMALL
USER_CHARGES


@<TRIPOS>ATOM
1 C 38.57 39.134 80.374 C 0.0 **** 0.0
2 H 38.535 39.156 79.285 H 0.0 **** 0.0
3 H 38.412 38.112 80.721 H 0.0 **** 0.0
4 H 37.788 39.779 80.775 H 0.0 **** 0.0
5 H 39.543 39.487 80.713 H 0.0 **** 0.0
@<TRIPOS>BOND
1 1 5 1
2 1 3 1
3 1 4 1
4 1 2 1
@<TRIPOS>MOLECULE
CH4
5 4
SMALL
USER_CHARGES


@<TRIPOS>ATOM
1 C 43.401 23.852 67.692 C 0.0 **** 0.0
2 H 42.771 23.848 66.803 H 0.0 **** 0.0
3 H 43.518 22.832 68.059 H 0.0 **** 0.0
4 H 42.934 24.464 68.464 H 0.0 **** 0.0
5 H 44.379 24.264 67.443 H 0.0 **** 0.0
@<TRIPOS>BOND
1 1 2 1
2 1 3 1
3 1 4 1
4 1 5 1
@<TRIPOS>MOLECULE
CH4
5 4
SMALL
USER_CHARGES


@<TRIPOS>ATOM
1 C 54.987 78.357 80.866 C 0.0 **** 0.0
2 H 53.909 78.326 81.02 H 0.0 **** 0.0
3 H 55.479 78.644 81.796 H 0.0 **** 0.0
4 H 55.222 79.085 80.09 H 0.0 **** 0.0
5 H 55.338 77.372 80.558 H 0.0 **** 0.0
@<TRIPOS>BOND
1 1 2 1
2 1 3 1
3 1 4 1
4 1 5 1
@<TRIPOS>MOLECULE
CH4
5 4
SMALL
USER_CHARGES


@<TRIPOS>ATOM
1 C 55.79 26.181 92.318 C 0.0 **** 0.0
2 H 56.737 26.168 92.856 H 0.0 **** 0.0
3 H 55.778 27.022 91.624 H 0.0 **** 0.0
4 H 54.97 26.284 93.029 H 0.0 **** 0.0
5 H 55.674 25.25 91.762 H 0.0 **** 0.0
@<TRIPOS>BOND
1 1 2 1
2 1 3 1
3 1 4 1
4 1 5 1
@<TRIPOS>MOLECULE
CH4
5 4
SMALL
USER_CHARGES


@<TRIPOS>ATOM
1 C 53.704 4.387 12.76 C 0.0 **** 0.0
2 H 53.915 4.293 11.695 H 0.0 **** 0.0
3 H 54.587 4.769 13.273 H 0.0 **** 0.0
4 H 53.443 3.409 13.166 H 0.0 **** 0.0
5 H 52.871 5.075 12.906 H 0.0 **** 0.0
@<TRIPOS>BOND
1 1 2 1
2 1 3 1
3 1 4 1
4 1 5 1
@<TRIPOS>MOLECULE
CH4
5 4
SMALL
USER_CHARGES


@<TRIPOS>ATOM
1 C 6.584 43.467 30.4 C 0.0 **** 0.0
2 H 5.651 43.101 30.829 H 0.0 **** 0.0
3 H 6.792 42.932 29.473 H 0.0 **** 0.0
4 H 7.398 43.302 31.106 H 0.0 **** 0.0
5 H 6.493 44.533 30.192 H 0.0 **** 0.0
@<TRIPOS>BOND
1 1 2 1
2 1 3 1
3 1 4 1
4 1 5 1
@<TRIPOS>MOLECULE
CH4
5 4
SMALL
USER_CHARGES


@<TRIPOS>ATOM
1 C 38.727 36.932 91.823 C 0.0 **** 0.0
2 H 38.095 37.018 90.94 H 0.0 **** 0.0
3 H 38.649 35.924 92.23 H 0.0 **** 0.0
4 H 38.403 37.653 92.573 H 0.0 **** 0.0
5 H 39.763 37.134 91.549 H 0.0 **** 0.0
@<TRIPOS>BOND
1 1 2 1
2 1 3 1
3 1 4 1
4 1 5 1
@<TRIPOS>MOLECULE
CH4
5 4
SMALL
USER_CHARGES


@<TRIPOS>ATOM
1 C 10.858 94.195 60.323 C 0.0 **** 0.0
2 H 11.594 94.195 61.127 H 0.0 **** 0.0
3 H 11.321 93.83 59.406 H 0.0 **** 0.0
4 H 10.492 95.21 60.167 H 0.0 **** 0.0
5 H 10.025 93.546 60.593 H 0.0 **** 0.0
@<TRIPOS>BOND
1 1 2 1
2 1 3 1
3 1 4 1
4 1 5 1
@<TRIPOS>MOLECULE
CH4
5 4
SMALL
USER_CHARGES


@<TRIPOS>ATOM
1 C 61.701 52.972 41.263 C 0.0 **** 0.0
2 H 61.053 53.412 42.022 H 0.0 **** 0.0
3 H 62.69 53.427 41.323 H 0.0 **** 0.0
4 H 61.277 53.151 40.275 H 0.0 **** 0.0
5 H 61.783 51.899 41.434 H 0.0 **** 0.0
@<TRIPOS>BOND
1 1 2 1
2 1 3 1
3 1 4 1
4 1 5 1
@<TRIPOS>MOLECULE
CH4
5 4
SMALL
USER_CHARGES


@<TRIPOS>ATOM
1 C 84.67 38.509 81.717 C 0.0 **** 0.0
2 H 85.325 38.29 82.56 H 0.0 **** 0.0
3 H 84.97 39.452 81.259 H 0.0 **** 0.0
4 H 83.641 38.586 82.067 H 0.0 **** 0.0
5 H 84.745 37.708 80.981 H 0.0 **** 0.0
@<TRIPOS>BOND
1 1 2 1
2 1 3 1
3 1 4 1
4 1 5 1
@<TRIPOS>MOLECULE
CH4
5 4
SMALL
USER_CHARGES


@<TRIPOS>ATOM
1 C 97.5 63.547 72.502 C 0.0 **** 0.0
2 H 97.13 64.502 72.129 H 0.0 **** 0.0
3 H 98.308 63.194 71.859 H 0.0 **** 0.0
4 H 96.69 62.818 72.5 H 0.0 **** 0.0
5 H 97.873 63.674 73.518 H 0.0 **** 0.0
@<TRIPOS>BOND
1 1 2 1
2 1 3 1
3 1 4 1
4 1 5 1
@<TRIPOS>MOLECULE
CH4
5 4
SMALL
USER_CHARGES


@<TRIPOS>ATOM
1 C 14.727 53.528 84.792 C 0.0 **** 0.0
2 H 14.251 53.141 85.694 H 0.0 **** 0.0
3 H 14.692 54.617 84.802 H 0.0 **** 0.0
4 H 14.198 53.155 83.915 H 0.0 **** 0.0
5 H 15.765 53.197 84.759 H 0.0 **** 0.0
@<TRIPOS>BOND
1 1 2 1
2 1 3 1
3 1 4 1
4 1 5 1
@<TRIPOS>MOLECULE
CH4
5 4
SMALL
USER_CHARGES


@<TRIPOS>ATOM
1 C 91.566 92.691 47.977 C 0.0 **** 0.0
2 H 92.144 92.443 47.086 H 0.0 **** 0.0
3 H 91.788 91.971 48.765 H 0.0 **** 0.0
4 H 90.503 92.656 47.74 H 0.0 **** 0.0
5 H 91.831 93.693 48.314 H 0.0 **** 0.0
@<TRIPOS>BOND
1 1 2 1
2 1 3 1
3 1 4 1
4 1 5 1
@<TRIPOS>MOLECULE
CH4
5 4
SMALL
USER_CHARGES


@<TRIPOS>ATOM
1 C 38.294 11.446 42.909 C 0.0 **** 0.0
2 H 38.331 11.432 41.82 H 0.0 **** 0.0
3 H 39.306 11.527 43.306 H 0.0 **** 0.0
4 H 37.835 10.524 43.268 H 0.0 **** 0.0
5 H 37.704 12.299 43.242 H 0.0 **** 0.0
@<TRIPOS>BOND
1 1 2 1
2 1 3 1
3 1 4 1
4 1 5 1
@<TRIPOS>MOLECULE
CH4
5 4
SMALL
USER_CHARGES


@<TRIPOS>ATOM
1 C 55.037 61.158 59.486 C 0.0 **** 0.0
2 H 54.294 61.908 59.216 H 0.0 **** 0.0
3 H 54.906 60.878 60.532 H 0.0 **** 0.0
4 H 56.036 61.569 59.343 H 0.0 **** 0.0
5 H 54.912 60.278 58.855 H 0.0 **** 0.0
@<TRIPOS>BOND
1 1 2 1
2 1 3 1
3 1 4 1
4 1 5 1
@<TRIPOS>MOLECULE
CH4
5 4
SMALL
USER_CHARGES


@<TRIPOS>ATOM
1 C 45.481 57.287 71.366 C 0.0 **** 0.0
2 H 44.744 56.603 71.786 H 0.0 **** 0.0
3 H 45.358 57.332 70.283 H 0.0 **** 0.0
4 H 46.484 56.932 71.603 H 0.0 **** 0.0
5 H 45.337 58.28 71.79 H 0.0 **** 0.0
@<TRIPOS>BOND
1 1 2 1
2 1 3 1
3 1 4 1
4 1 5 1
@<TRIPOS>MOLECULE
CH4
5 4
SMALL
USER_CHARGES


@<TRIPOS>ATOM
1 C 47.063 13.714 65.585 C 0.0 **** 0.0
2 H 47.5 13.064 66.344 H 0.0 **** 0.0
3 H 47.569 13.55 64.633 H 0.0 **** 0.0
4 H 47.182 14.755 65.886 H 0.0 **** 0.0
5 H 46.003 13.485 65.478 H 0.0 **** 0.0
@<TRIPOS>BOND
1 1 2 1
2 1 3 1
3 1 4 1
4 1 5 1
@<TRIPOS>MOLECULE
CH4
5 4
SMALL
USER_CHARGES


@<TRIPOS>ATOM
1 C 70.323 46.815 8.502 C 0.0 **** 0.0
2 H 69.771 45.999 8.967 H 0.0 **** 0.0
3 H 69.656 47.664 8.35 H 0.0 **** 0.0
4 H 70.718 46.486 7.541 H 0.0 **** 0.0
5 H 71.147 47.112 9.151 H 0.0 **** 0.0
@<TRIPOS>BOND
1 1 2 1
2 1 3 1
3 1 4 1
4 1 5 1
@<TRIPOS>MOLECULE
CH4
5 4
SMALL
USER_CHARGES


@<TRIPOS>ATOM
1 C 17.099 23.16 72.243 C 0.0 **** 0.0
2 H 17.112 22.257 72.854 H 0.0 **** 0.0
3 H 16.452 23.904 72.708 H 0.0 **** 0.0
4 H 16.721 22.919 71.249 H 0.0 **** 0.0
5 H 18.11 23.557 72.161 H 0.0 **** 0.0
@<TRIPOS>BOND
1 1 2 1
2 1 3 1
3 1 4 1
4 1 5 1
@<TRIPOS>MOLECULE
CH4
5 4
SMALL
USER_CHARGES


@<TRIPOS>ATOM
1 C 61.442 93.736 53.293 C 0.0 **** 0.0
2 H 61.447 94.713 53.778 H 0.0 **** 0.0
3 H 61.791 93.839 52.266 H 0.0 **** 0.0
4 H 60.428 93.336 53.295 H 0.0 **** 0.0
5 H 62.101 93.058 53.836 H 0.0 **** 0.0
@<TRIPOS>BOND
1 1 2 1
2 1 3 1
3 1 4 1
4 1 5 1
@<TRIPOS>MOLECULE
CH4
5 4
SMALL
USER_CHARGES


@<TRIPOS>ATOM
1 C 75.355 90.519 18.693 C 0.0 **** 0.0
2 H 75.308 90.848 19.73 H 0.0 **** 0.0
3 H 75.899 89.575 18.636 H 0.0 **** 0.0
4 H 75.87 91.271 18.096 H 0.0 **** 0.0
5 H 74.345 90.38 18.309 H 0.0 **** 0.0
@<TRIPOS>BOND
1 1 2 1
2 1 3 1
3 1 4 1
4 1 5 1
@<TRIPOS>MOLECULE
CH4
5 4
SMALL
USER_CHARGES


@<TRIPOS>ATOM
1 C 19.126 4.77 39.17 C 0.0 **** 0.0
2 H 19.331 5.758 39.581 H 0.0 **** 0.0
3 H 19.989 4.428 38.598 H 0.0 **** 0.0
4 H 18.254 4.822 38.517 H 0.0 **** 0.0
5 H 18.929 4.072 39.984 H 0.0 **** 0.0
@<TRIPOS>BOND
1 1 2 1
2 1 3 1
3 1 4 1
4 1 5 1
@<TRIPOS>MOLECULE
CH4
5 4
SMALL
USER_CHARGES


@<TRIPOS>ATOM
1 C 39.618 16.094 83.949 C 0.0 **** 0.0
2 H 40.634 16.431 84.155 H 0.0 **** 0.0
3 H 39.444 15.139 84.444 H 0.0 **** 0.0
4 H 39.485 15.976 82.873 H 0.0 **** 0.0
5 H 38.908 16.833 84.323 H 0.0 **** 0.0
@<TRIPOS>BOND
1 1 2 1
2 1 3 1
3 1 4 1
4 1 5 1
@<TRIPOS>MOLECULE
CH4
5 4
SMALL
USER_CHARGES


@<TRIPOS>ATOM
1 C 51.385 70.571 30.182 C 0.0 **** 0.0
2 H 51.722 69.999 29.317 H 0.0 **** 0.0
3 H 51.928 71.515 30.225 H 0.0 **** 0.0
4 H 51.575 70.0 31.091 H 0.0 **** 0.0
5 H 50.317 70.768 30.093 H 0.0 **** 0.0
@<TRIPOS>BOND
1 1 2 1
2 1 3 1
3 1 4 1
4 1 5 1
@<TRIPOS>MOLECULE
CH4
5 4
SMALL
USER_CHARGES


@<TRIPOS>ATOM
1 C 19.91 83.539 81.385 C 0.0 **** 0.0
2 H 19.595 82.511 81.203 H 0.0 **** 0.0
3 H 19.365 83.939 82.239 H 0.0 **** 0.0
4 H 19.701 84.144 80.503 H 0.0 **** 0.0
5 H 20.98 83.559 81.594 H 0.0 **** 0.0
@<TRIPOS>BOND
1 1 2 1
2 1 3 1
3 1 4 1
4 1 5 1
@<TRIPOS>MOLECULE
CH4
5 4
SMALL
USER_CHARGES


@<TRIPOS>ATOM
1 C 34.879 1.932 91.506 C 0.0 **** 0.0
2 H 34.716 1.813 90.435 H 0.0 **** 0.0
3 H 34.081 1.43 92.053 H 0.0 **** 0.0
4 H 34.881 2.993 91.758 H 0.0 **** 0.0
5 H 35.839 1.493 91.778 H 0.0 **** 0.0
@<TRIPOS>BOND
1 1 2 1
2 1 3 1
3 1 4 1
4 1 5 1
@<TRIPOS>MOLECULE
CH4
5 4
SMALL
USER_CHARGES


@<TRIPOS>ATOM
1 C 48.379 53.318 72.907 C 0.0 **** 0.0
2 H 47.413 53.357 72.403 H 0.0 **** 0.0
3 H 49.109 53.892 72.337 H 0.0 **** 0.0
4 H 48.708 52.282 72.981 H 0.0 **** 0.0
5 H 48.283 53.742 73.907 H 0.0 **** 0.0
@<TRIPOS>BOND
1 1 2 1
2 1 3 1
3 1 4 1
4 1 5 1
@<TRIPOS>MOLECULE
CH4
5 4
SMALL
USER_CHARGES


@<TRIPOS>ATOM
1 C 64.634 20.048 24.413 C 0.0 **** 0.0
2 H 63.735 19.447 24.274 H 0.0 **** 0.0
3 H 64.498 21.02 23.94 H 0.0 **** 0.0
4 H 65.484 19.538 23.961 H 0.0 **** 0.0
5 H 64.817 20.184 25.479 H 0.0 **** 0.0
@<TRIPOS>BOND
1 1 2 1
2 1 3 1
3 1 4 1
4 1 5 1
@<TRIPOS>MOLECULE
CH4
5 4
SMALL
USER_CHARGES


@<TRIPOS>ATOM
1 C 40.858 40.858 91.737 C 0.0 **** 0.0
2 H 40.806 40.162 92.574 H 0.0 **** 0.0
3 H 39.935 40.802 91.16 H 0.0 **** 0.0
4 H 41.703 40.597 91.1 H 0.0 **** 0.0
5 H 40.989 41.872 92.116 H 0.0 **** 0.0
@<TRIPOS>BOND
1 1 2 1
2 1 3 1
3 1 4 1
4 1 5 1
@<TRIPOS>MOLECULE
CH4
5 4
SMALL
USER_CHARGES


@<TRIPOS>ATOM
1 C 87.431 69.543 21.802 C 0.0 **** 0.0
2 H 86.945 70.387 21.313 H 0.0 **** 0.0
3 H 88.463 69.468 21.457 H 0.0 **** 0.0
4 H 86.898 68.625 21.557 H 0.0 **** 0.0
5 H 87.419 69.693 22.882 H 0.0 **** 0.0
@<TRIPOS>BOND
1 1 2 1
2 1 3 1
3 1 4 1
4 1 5 1
@<TRIPOS>MOLECULE
CH4
5 4
SMALL
USER_CHARGES


@<TRIPOS>ATOM
1 C 88.285 1.881 23.404 C 0.0 **** 0.0
2 H 88.357 1.488 24.418 H 0.0 **** 0.0
3 H 87.383 2.486 23.313 H 0.0 **** 0.0
4 H 88.242 1.054 22.696 H 0.0 **** 0.0
5 H 89.16 2.496 23.19 H 0.0 **** 0.0
@<TRIPOS>BOND
1 1 2 1
2 1 3 1
3 1 4 1
4 1 5 1
@<TRIPOS>MOLECULE
CH4
5 4
SMALL
USER_CHARGES


@<TRIPOS>ATOM
1 C 4.176 63.506 55.889 C 0.0 **** 0.0
2 H 3.971 63.186 56.911 H 0.0 **** 0.0
3 H 4.495 62.648 55.297 H 0.0 **** 0.0
4 H 4.965 64.258 55.896 H 0.0 **** 0.0
5 H 3.272 63.932 55.454 H 0.0 **** 0.0
@<TRIPOS>BOND
1 1 2 1
2 1 3 1
3 1 4 1
4 1 5 1
@<TRIPOS>MOLECULE
CH4
5 4
SMALL
USER_CHARGES


@<TRIPOS>ATOM
1 C 69.685 14.594 64.038 C 0.0 **** 0.0
2 H 68.931 14.627 63.252 H 0.0 **** 0.0
3 H 70.655 14.355 63.6 H 0.0 **** 0.0
4 H 69.417 13.83 64.767 H 0.0 **** 0.0
5 H 69.738 15.565 64.531 H 0.0 **** 0.0
@<TRIPOS>BOND
1 1 2 1
2 1 3 1
3 1 4 1
4 1 5 1
@<TRIPOS>MOLECULE
CH4
5 4
SMALL
USER_CHARGES


@<TRIPOS>ATOM
1 C 11.046 94.27 35.579 C 0.0 **** 0.0
2 H 11.95 94.575 36.105 H 0.0 **** 0.0
3 H 11.179 94.424 34.508 H 0.0 **** 0.0
4 H 10.204 94.867 35.929 H 0.0 **** 0.0
5 H 10.85 93.216 35.773 H 0.0 **** 0.0
@<TRIPOS>BOND
1 1 2 1
2 1 3 1
3 1 4 1
4 1 5 1
@<TRIPOS>MOLECULE
CH4
5 4
SMALL
USER_CHARGES


@<TRIPOS>ATOM
1 C 85.2 43.286 66.543 C 0.0 **** 0.0
2 H 84.477 43.635 67.28 H 0.0 **** 0.0
3 H 85.915 42.618 67.024 H 0.0 **** 0.0
4 H 85.728 44.14 66.119 H 0.0 **** 0.0
5 H 84.679 42.75 65.749 H 0.0 **** 0.0
@<TRIPOS>BOND
1 1 3 1
2 1 4 1
3 1 5 1
4 1 2 1
@<TRIPOS>MOLECULE
CH4
5 4
SMALL
USER_CHARGES


@<TRIPOS>ATOM
1 C 24.572 64.195 1.273 C 0.0 **** 0.0
2 H 25.595 63.82 1.31 H 0.0 **** 0.0
3 H 23.885 63.405 1.577 H 0.0 **** 0.0
4 H 24.337 64.509 0.255 H 0.0 **** 0.0
5 H 24.471 65.045 1.948 H 0.0 **** 0.0
@<TRIPOS>BOND
1 1 2 1
2 1 3 1
3 1 4 1
4 1 5 1
@<TRIPOS>MOLECULE
CH4
5 4
SMALL
USER_CHARGES


@<TRIPOS>ATOM
1 C 35.323 4.008 38.18 C 0.0 **** 0.0
2 H 34.429 4.235 38.762 H 0.0 **** 0.0
3 H 35.327 4.611 37.272 H 0.0 **** 0.0
4 H 35.325 2.951 37.915 H 0.0 **** 0.0
5 H 36.209 4.236 38.772 H 0.0 **** 0.0
@<TRIPOS>BOND
1 1 2 1
2 1 3 1
3 1 4 1
4 1 5 1
@<TRIPOS>MOLECULE
CH4
5 4
SMALL
USER_CHARGES


@<TRIPOS>ATOM
1 C 3.234 45.467 5.238 C 0.0 **** 0.0
2 H 2.299 45.577 5.787 H 0.0 **** 0.0
3 H 3.194 46.069 4.329 H 0.0 **** 0.0
4 H 3.38 44.419 4.974 H 0.0 **** 0.0
5 H 4.063 45.803 5.861 H 0.0 **** 0.0
@<TRIPOS>BOND
1 1 2 1
2 1 3 1
3 1 4 1
4 1 5 1
@<TRIPOS>MOLECULE
CH4
5 4
SMALL
USER_CHARGES


@<TRIPOS>ATOM
1 C 28.268 41.632 57.175 C 0.0 **** 0.0
2 H 28.6 42.42 57.851 H 0.0 **** 0.0
3 H 27.372 41.16 57.579 H 0.0 **** 0.0
4 H 29.057 40.887 57.07 H 0.0 **** 0.0
5 H 28.043 42.063 56.199 H 0.0 **** 0.0
@<TRIPOS>BOND
1 1 2 1
2 1 3 1
3 1 4 1
4 1 5 1
@<TRIPOS>MOLECULE
CH4
5 4
SMALL
USER_CHARGES


@<TRIPOS>ATOM
1 C 88.505 65.03 42.512 C 0.0 **** 0.0
2 H 89.158 65.687 43.088 H 0.0 **** 0.0
3 H 87.536 65.51 42.378 H 0.0 **** 0.0
4 H 88.375 64.089 43.047 H 0.0 **** 0.0
5 H 88.953 64.836 41.538 H 0.0 **** 0.0
@<TRIPOS>BOND
1 1 2 1
2 1 3 1
3 1 4 1
4 1 5 1
@<TRIPOS>MOLECULE
CH4
5 4
SMALL
USER_CHARGES


@<TRIPOS>ATOM
1 C 90.819 74.998 67.523 C 0.0 **** 0.0
2 H 89.916 74.806 66.944 H 0.0 **** 0.0
3 H 90.839 74.341 68.393 H 0.0 **** 0.0
4 H 90.826 76.037 67.852 H 0.0 **** 0.0
5 H 91.695 74.808 66.903 H 0.0 **** 0.0
@<TRIPOS>BOND
1 1 2 1
2 1 3 1
3 1 4 1
4 1 5 1
@<TRIPOS>MOLECULE
CH4
5 4
SMALL
USER_CHARGES


@<TRIPOS>ATOM
1 C 62.062 73.323 51.023 C 0.0 **** 0.0
2 H 60.992 73.177 50.877 H 0.0 **** 0.0
3 H 62.608 72.843 50.21 H 0.0 **** 0.0
4 H 62.363 72.882 51.973 H 0.0 **** 0.0
5 H 62.285 74.39 51.03 H 0.0 **** 0.0
@<TRIPOS>BOND
1 1 2 1
2 1 3 1
3 1 4 1
4 1 5 1
@<TRIPOS>MOLECULE
CH4
5 4
SMALL
USER_CHARGES


@<TRIPOS>ATOM
1 C 42.459 57.749 17.37 C 0.0 **** 0.0
2 H 42.021 58.735 17.523 H 0.0 **** 0.0
3 H 42.413 57.182 18.3 H 0.0 **** 0.0
4 H 43.499 57.858 17.061 H 0.0 **** 0.0
5 H 41.904 57.221 16.594 H 0.0 **** 0.0
@<TRIPOS>BOND
1 1 2 1
2 1 3 1
3 1 4 1
4 1 5 1
@<TRIPOS>MOLECULE
CH4
5 4
SMALL
USER_CHARGES


@<TRIPOS>ATOM
1 C 31.313 47.407 80.016 C 0.0 **** 0.0
2 H 30.853 47.694 79.07 H 0.0 **** 0.0
3 H 31.663 48.3 80.535 H 0.0 **** 0.0
4 H 32.157 46.745 79.822 H 0.0 **** 0.0
5 H 30.58 46.89 80.634 H 0.0 **** 0.0
@<TRIPOS>BOND
1 1 2 1
2 1 3 1
3 1 4 1
4 1 5 1
@<TRIPOS>MOLECULE
CH4
5 4
SMALL
USER_CHARGES


@<TRIPOS>ATOM
1 C 42.912 72.237 78.066 C 0.0 **** 0.0
2 H 42.596 72.988 77.342 H 0.0 **** 0.0
3 H 43.477 72.718 78.865 H 0.0 **** 0.0
4 H 43.539 71.496 77.572 H 0.0 **** 0.0
5 H 42.034 71.747 78.487 H 0.0 **** 0.0
@<TRIPOS>BOND
1 1 2 1
2 1 3 1
3 1 4 1
4 1 5 1
@<TRIPOS>MOLECULE
CH4
5 4
SMALL
USER_CHARGES


@<TRIPOS>ATOM
1 C 54.948 62.491 55.723 C 0.0 **** 0.0
2 H 54.991 63.484 55.275 H 0.0 **** 0.0
3 H 54.838 62.584 56.803 H 0.0 **** 0.0
4 H 55.868 61.951 55.496 H 0.0 **** 0.0
5 H 54.097 61.945 55.316 H 0.0 **** 0.0
@<TRIPOS>BOND
1 1 2 1
2 1 3 1
3 1 4 1
4 1 5 1
@<TRIPOS>MOLECULE
CH4
5 4
SMALL
USER_CHARGES


@<TRIPOS>ATOM
1 C 42.046 97.449 35.324 C 0.0 **** 0.0
2 H 42.138 98.447 34.895 H 0.0 **** 0.0
3 H 42.4 96.71 34.604 H 0.0 **** 0.0
4 H 41.001 97.252 35.563 H 0.0 **** 0.0
5 H 42.645 97.388 36.233 H 0.0 **** 0.0
@<TRIPOS>BOND
1 1 2 1
2 1 3 1
3 1 4 1
4 1 5 1
@<TRIPOS>MOLECULE
CH4
5 4
SMALL
USER_CHARGES


@<TRIPOS>ATOM
1 C 85.113 27.247 52.643 C 0.0 **** 0.0
2 H 85.366 27.192 53.702 H 0.0 **** 0.0
3 H 85.233 28.272 52.293 H 0.0 **** 0.0
4 H 84.079 26.932 52.5 H 0.0 **** 0.0
5 H 85.774 26.59 52.077 H 0.0 **** 0.0
@<TRIPOS>BOND
1 1 2 1
2 1 3 1
3 1 4 1
4 1 5 1
@<TRIPOS>MOLECULE
CH4
5 4
SMALL
USER_CHARGES


@<TRIPOS>ATOM
1 C 92.089 64.742 76.673 C 0.0 **** 0.0
2 H 92.231 65.577 77.359 H 0.0 **** 0.0
3 H 91.789 63.858 77.235 H 0.0 **** 0.0
4 H 93.023 64.541 76.148 H 0.0 **** 0.0
5 H 91.313 64.995 75.95 H 0.0 **** 0.0
@<TRIPOS>BOND
1 1 2 1
2 1 3 1
3 1 4 1
4 1 5 1
@<TRIPOS>MOLECULE
CH4
5 4
SMALL
USER_CHARGES


@<TRIPOS>ATOM
1 C 30.618 92.308 25.495 C 0.0 **** 0.0
2 H 30.002 91.774 26.218 H 0.0 **** 0.0
3 H 30.064 92.429 24.564 H 0.0 **** 0.0
4 H 31.529 91.739 25.304 H 0.0 **** 0.0
5 H 30.879 93.288 25.894 H 0.0 **** 0.0
@<TRIPOS>BOND
1 1 2 1
2 1 3 1
3 1 4 1
4 1 5 1
@<TRIPOS>MOLECULE
CH4
5 4
SMALL
USER_CHARGES


@<TRIPOS>ATOM
1 C 28.477 55.476 49.833 C 0.0 **** 0.0
2 H 28.219 54.972 48.902 H 0.0 **** 0.0
3 H 29.472 55.162 50.152 H 0.0 **** 0.0
4 H 27.75 55.215 50.601 H 0.0 **** 0.0
5 H 28.469 56.555 49.676 H 0.0 **** 0.0
@<TRIPOS>BOND
1 1 2 1
2 1 3 1
3 1 4 1
4 1 5 1
@<TRIPOS>MOLECULE
CH4
5 4
SMALL
USER_CHARGES


@<TRIPOS>ATOM
1 C 89.684 41.799 14.224 C 0.0 **** 0.0
2 H 89.708 41.69 13.14 H 0.0 **** 0.0
3 H 90.593 41.376 14.652 H 0.0 **** 0.0
4 H 88.816 41.272 14.622 H 0.0 **** 0.0
5 H 89.617 42.856 14.482 H 0.0 **** 0.0
@<TRIPOS>BOND
1 1 2 1
2 1 3 1
3 1 4 1
4 1 5 1
@<TRIPOS>MOLECULE
CH4
5 4
SMALL
USER_CHARGES


@<TRIPOS>ATOM
1 C 81.464 91.442 38.095 C 0.0 **** 0.0
2 H 80.724 91.01 37.422 H 0.0 **** 0.0
3 H 82.461 91.308 37.673 H 0.0 **** 0.0
4 H 81.409 90.944 39.063 H 0.0 **** 0.0
5 H 81.263 92.506 38.221 H 0.0 **** 0.0
@<TRIPOS>BOND
1 1 2 1
2 1 3 1
3 1 4 1
4 1 5 1
@<TRIPOS>MOLECULE
CH4
5 4
SMALL
USER_CHARGES


@<TRIPOS>ATOM
1 C 71.782 67.962 42.941 C 0.0 **** 0.0
2 H 72.234 68.679 43.626 H 0.0 **** 0.0
3 H 70.776 68.293 42.682 H 0.0 **** 0.0
4 H 71.731 66.984 43.42 H 0.0 **** 0.0
5 H 72.386 67.893 42.037 H 0.0 **** 0.0
@<TRIPOS>BOND
1 1 2 1
2 1 3 1
3 1 4 1
4 1 5 1
@<TRIPOS>MOLECULE
CH4
5 4
SMALL
USER_CHARGES


@<TRIPOS>ATOM
1 C 71.121 53.731 30.492 C 0.0 **** 0.0
2 H 71.301 54.778 30.25 H 0.0 **** 0.0
3 H 71.948 53.125 30.121 H 0.0 **** 0.0
4 H 70.192 53.404 30.024 H 0.0 **** 0.0
5 H 71.043 53.616 31.573 H 0.0 **** 0.0
@<TRIPOS>BOND
1 1 2 1
2 1 3 1
3 1 4 1
4 1 5 1
@<TRIPOS>MOLECULE
CH4
5 4
SMALL
USER_CHARGES


@<TRIPOS>ATOM
1 C 17.204 66.331 96.824 C 0.0 **** 0.0
2 H 16.305 65.771 97.084 H 0.0 **** 0.0
3 H 17.71 65.84 95.992 H 0.0 **** 0.0
4 H 17.871 66.366 97.685 H 0.0 **** 0.0
5 H 16.929 67.345 96.535 H 0.0 **** 0.0
@<TRIPOS>BOND
1 1 2 1
2 1 3 1
3 1 4 1
4 1 5 1
@<TRIPOS>MOLECULE
CH4
5 4
SMALL
USER_CHARGES


@<TRIPOS>ATOM
1 C 63.758 79.094 6.505 C 0.0 **** 0.0
2 H 62.842 79.185 5.922 H 0.0 **** 0.0
3 H 64.04 80.073 6.893 H 0.0 **** 0.0
4 H 64.556 78.71 5.869 H 0.0 **** 0.0
5 H 63.593 78.407 7.335 H 0.0 **** 0.0
@<TRIPOS>BOND
1 1 2 1
2 1 3 1
3 1 4 1
4 1 5 1
@<TRIPOS>MOLECULE
CH4
5 4
SMALL
USER_CHARGES


@<TRIPOS>ATOM
1 C 34.423 58.887 20.768 C 0.0 **** 0.0
2 H 35.048 58.371 21.496 H 0.0 **** 0.0
3 H 33.566 58.262 20.516 H 0.0 **** 0.0
4 H 35.004 59.087 19.868 H 0.0 **** 0.0
5 H 34.074 59.829 21.192 H 0.0 **** 0.0
@<TRIPOS>BOND
1 1 2 1
2 1 3 1
3 1 4 1
4 1 5 1
@<TRIPOS>MOLECULE
CH4
5 4
SMALL
USER_CHARGES


@<TRIPOS>ATOM
1 C 28.524 57.691 24.937 C 0.0 **** 0.0
2 H 29.129 58.424 25.472 H 0.0 **** 0.0
3 H 27.538 57.63 25.396 H 0.0 **** 0.0
4 H 29.009 56.716 24.985 H 0.0 **** 0.0
5 H 28.423 57.996 23.895 H 0.0 **** 0.0
@<TRIPOS>BOND
1 1 2 1
2 1 3 1
3 1 4 1
4 1 5 1
@<TRIPOS>MOLECULE
CH4
5 4
SMALL
USER_CHARGES


@<TRIPOS>ATOM
1 C 63.174 19.651 45.792 C 0.0 **** 0.0
2 H 62.949 20.101 44.825 H 0.0 **** 0.0
3 H 64.191 19.258 45.782 H 0.0 **** 0.0
4 H 62.472 18.84 45.987 H 0.0 **** 0.0
5 H 63.083 20.406 46.573 H 0.0 **** 0.0
@<TRIPOS>BOND
1 1 2 1
2 1 3 1
3 1 4 1
4 1 5 1
@<TRIPOS>MOLECULE
CH4
5 4
SMALL
USER_CHARGES


@<TRIPOS>ATOM
1 C 46.36 30.119 47.991 C 0.0 **** 0.0
2 H 47.341 30.58 47.874 H 0.0 **** 0.0
3 H 45.585 30.867 47.817 H 0.0 **** 0.0
4 H 46.263 29.723 49.002 H 0.0 **** 0.0
5 H 46.251 29.309 47.271 H 0.0 **** 0.0
@<TRIPOS>BOND
1 1 2 1
2 1 3 1
3 1 4 1
4 1 5 1
@<TRIPOS>MOLECULE
CH4
5 4
SMALL
USER_CHARGES


@<TRIPOS>ATOM
1 C 92.821 91.248 6.633 C 0.0 **** 0.0
2 H 92.318 92.185 6.874 H 0.0 **** 0.0
3 H 93.861 91.301 6.957 H 0.0 **** 0.0
4 H 92.784 91.083 5.556 H 0.0 **** 0.0
5 H 92.322 90.425 7.144 H 0.0 **** 0.0
@<TRIPOS>BOND
1 1 2 1
2 1 3 1
3 1 4 1
4 1 5 1
@<TRIPOS>MOLECULE
CH4
5 4
SMALL
USER_CHARGES


@<TRIPOS>ATOM
1 C 74.047 22.224 82.68 C 0.0 **** 0.0
2 H 74.998 22.659 82.987 H 0.0 **** 0.0
3 H 73.332 22.298 83.5 H 0.0 **** 0.0
4 H 74.194 21.176 82.419 H 0.0 **** 0.0
5 H 73.664 22.764 81.814 H 0.0 **** 0.0
@<TRIPOS>BOND
1 1 2 1
2 1 3 1
3 1 4 1
4 1 5 1
@<TRIPOS>MOLECULE
CH4
5 4
SMALL
USER_CHARGES


@<TRIPOS>ATOM
1 C 85.332 25.842 9.859 C 0.0 **** 0.0
2 H 84.249 25.818 9.978 H 0.0 **** 0.0
3 H 85.666 26.877 9.773 H 0.0 **** 0.0
4 H 85.611 25.294 8.959 H 0.0 **** 0.0
5 H 85.803 25.379 10.727 H 0.0 **** 0.0
@<TRIPOS>BOND
1 1 2 1
2 1 3 1
3 1 4 1
4 1 5 1
@<TRIPOS>MOLECULE
CH4
5 4
SMALL
USER_CHARGES


@<TRIPOS>ATOM
1 C 10.251 73.535 13.387 C 0.0 **** 0.0
2 H 9.398 74.117 13.039 H 0.0 **** 0.0
3 H 10.705 73.014 12.544 H 0.0 **** 0.0
4 H 9.917 72.808 14.127 H 0.0 **** 0.0
5 H 10.985 74.202 13.84 H 0.0 **** 0.0
@<TRIPOS>BOND
1 1 2 1
2 1 3 1
3 1 4 1
4 1 5 1
@<TRIPOS>MOLECULE
CH4
5 4
SMALL
USER_CHARGES


@<TRIPOS>ATOM
1 C 90.291 73.333 12.765 C 0.0 **** 0.0
2 H 90.465 73.65 13.793 H 0.0 **** 0.0
3 H 89.558 73.992 12.301 H 0.0 **** 0.0
4 H 89.916 72.309 12.759 H 0.0 **** 0.0
5 H 91.227 73.38 12.207 H 0.0 **** 0.0
@<TRIPOS>BOND
1 1 2 1
2 1 3 1
3 1 4 1
4 1 5 1
@<TRIPOS>MOLECULE
CH4
5 4
SMALL
USER_CHARGES


@<TRIPOS>ATOM
1 C 38.962 90.259 38.938 C 0.0 **** 0.0
2 H 38.903 89.462 38.197 H 0.0 **** 0.0
3 H 38.734 89.855 39.925 H 0.0 **** 0.0
4 H 38.242 91.04 38.69 H 0.0 **** 0.0
5 H 39.967 90.68 38.94 H 0.0 **** 0.0
@<TRIPOS>BOND
1 1 2 1
2 1 3 1
3 1 4 1
4 1 5 1
@<TRIPOS>MOLECULE
CH4
5 4
SMALL
USER_CHARGES


@<TRIPOS>ATOM
1 C 53.242 8.474 36.568 C 0.0 **** 0.0
2 H 53.797 9.319 36.976 H 0.0 **** 0.0
3 H 53.227 7.664 37.296 H 0.0 **** 0.0
4 H 53.723 8.132 35.652 H 0.0 **** 0.0
5 H 52.22 8.784 36.348 H 0.0 **** 0.0
@<TRIPOS>BOND
1 1 5 1
2 1 2 1
3 1 3 1
4 1 4 1
@<TRIPOS>MOLECULE
CH4
5 4
SMALL
USER_CHARGES


@<TRIPOS>ATOM
1 C 92.385 4.419 76.1 C 0.0 **** 0.0
2 H 92.388 4.425 75.01 H 0.0 **** 0.0
3 H 91.402 4.721 76.462 H 0.0 **** 0.0
4 H 93.139 5.115 76.469 H 0.0 **** 0.0
5 H 92.612 3.415 76.459 H 0.0 **** 0.0
@<TRIPOS>BOND
1 1 2 1
2 1 3 1
3 1 4 1
4 1 5 1
@<TRIPOS>MOLECULE
CH4
5 4
SMALL
USER_CHARGES


@<TRIPOS>ATOM
1 C 78.987 52.27 80.702 C 0.0 **** 0.0
2 H 79.665 52.302 79.849 H 0.0 **** 0.0
3 H 79.566 52.237 81.625 H 0.0 **** 0.0
4 H 78.36 51.381 80.634 H 0.0 **** 0.0
5 H 78.358 53.16 80.699 H 0.0 **** 0.0
@<TRIPOS>BOND
1 1 2 1
2 1 3 1
3 1 4 1
4 1 5 1
@<TRIPOS>MOLECULE
CH4
5 4
SMALL
USER_CHARGES


@<TRIPOS>ATOM
1 C 25.035 98.073 66.142 C 0.0 **** 0.0
2 H 25.291 97.161 65.602 H 0.0 **** 0.0
3 H 25.231 98.938 65.509 H 0.0 **** 0.0
4 H 25.639 98.14 67.047 H 0.0 **** 0.0
5 H 23.979 98.05 66.411 H 0.0 **** 0.0
@<TRIPOS>BOND
1 1 2 1
2 1 3 1
3 1 4 1
4 1 5 1
@<TRIPOS>MOLECULE
CH4
5 4
SMALL
USER_CHARGES


@<TRIPOS>ATOM
1 C 12.133 17.056 31.24 C 0.0 **** 0.0
2 H 12.42 16.903 32.28 H 0.0 **** 0.0
3 H 12.062 18.124 31.035 H 0.0 **** 0.0
4 H 11.166 16.586 31.057 H 0.0 **** 0.0
5 H 12.883 16.609 30.587 H 0.0 **** 0.0
@<TRIPOS>BOND
1 1 2 1
2 1 3 1
3 1 4 1
4 1 5 1
@<TRIPOS>MOLECULE
CH4
5 4
SMALL
USER_CHARGES


@<TRIPOS>ATOM
1 C 22.498 21.581 47.452 C 0.0 **** 0.0
2 H 22.496 21.577 48.542 H 0.0 **** 0.0
3 H 23.405 22.068 47.093 H 0.0 **** 0.0
4 H 21.625 22.125 47.09 H 0.0 **** 0.0
5 H 22.465 20.555 47.085 H 0.0 **** 0.0
@<TRIPOS>BOND
1 1 2 1
2 1 3 1
3 1 4 1
4 1 5 1
@<TRIPOS>MOLECULE
CH4
5 4
SMALL
USER_CHARGES


@<TRIPOS>ATOM
1 C 49.119 1.836 26.853 C 0.0 **** 0.0
2 H 50.056 1.648 26.329 H 0.0 **** 0.0
3 H 48.632 0.887 27.078 H 0.0 **** 0.0
4 H 48.466 2.44 26.224 H 0.0 **** 0.0
5 H 49.324 2.369 27.782 H 0.0 **** 0.0
@<TRIPOS>BOND
1 1 2 1
2 1 3 1
3 1 4 1
4 1 5 1
@<TRIPOS>MOLECULE
CH4
5 4
SMALL
USER_CHARGES


@<TRIPOS>ATOM
1 C 23.161 42.043 3.778 C 0.0 **** 0.0
2 H 22.17 42.189 4.207 H 0.0 **** 0.0
3 H 23.424 42.908 3.169 H 0.0 **** 0.0
4 H 23.159 41.147 3.156 H 0.0 **** 0.0
5 H 23.89 41.927 4.58 H 0.0 **** 0.0
@<TRIPOS>BOND
1 1 2 1
2 1 3 1
3 1 4 1
4 1 5 1
@<TRIPOS>MOLECULE
CH4
5 4
SMALL
USER_CHARGES


@<TRIPOS>ATOM
1 C 14.615 29.52 41.455 C 0.0 **** 0.0
2 H 14.663 29.051 40.473 H 0.0 **** 0.0
3 H 14.177 30.514 41.363 H 0.0 **** 0.0
4 H 15.621 29.604 41.867 H 0.0 **** 0.0
5 H 14.001 28.912 42.119 H 0.0 **** 0.0
@<TRIPOS>BOND
1 1 2 1
2 1 3 1
3 1 4 1
4 1 5 1
@<TRIPOS>MOLECULE
CH4
5 4
SMALL
USER_CHARGES


@<TRIPOS>ATOM
1 C 74.258 39.682 38.13 C 0.0 **** 0.0
2 H 74.73 39.925 37.178 H 0.0 **** 0.0
3 H 73.9 40.598 38.601 H 0.0 **** 0.0
4 H 74.984 39.197 38.782 H 0.0 **** 0.0
5 H 73.418 39.01 37.957 H 0.0 **** 0.0
@<TRIPOS>BOND
1 1 2 1
2 1 3 1
3 1 4 1
4 1 5 1
@<TRIPOS>MOLECULE
CH4
5 4
SMALL
USER_CHARGES


@<TRIPOS>ATOM
1 C 12.616 75.89 62.074 C 0.0 **** 0.0
2 H 12.589 76.583 62.915 H 0.0 **** 0.0
3 H 13.505 76.084 61.473 H 0.0 **** 0.0
4 H 11.726 76.028 61.461 H 0.0 **** 0.0
5 H 12.646 74.867 62.447 H 0.0 **** 0.0
@<TRIPOS>BOND
1 1 2 1
2 1 3 1
3 1 4 1
4 1 5 1
@<TRIPOS>MOLECULE
CH4
5 4
SMALL
USER_CHARGES


@<TRIPOS>ATOM
1 C 28.233 6.466 66.856 C 0.0 **** 0.0
2 H 27.633 6.001 67.639 H 0.0 **** 0.0
3 H 28.481 5.722 66.099 H 0.0 **** 0.0
4 H 29.15 6.864 67.29 H 0.0 **** 0.0
5 H 27.666 7.276 66.398 H 0.0 **** 0.0
@<TRIPOS>BOND
1 1 2 1
2 1 3 1
3 1 4 1
4 1 5 1
@<TRIPOS>MOLECULE
CH4
5 4
SMALL
USER_CHARGES


@<TRIPOS>ATOM
1 C 37.173 21.455 4.838 C 0.0 **** 0.0
2 H 37.191 21.498 5.927 H 0.0 **** 0.0
3 H 36.23 21.019 4.507 H 0.0 **** 0.0
4 H 38.001 20.841 4.484 H 0.0 **** 0.0
5 H 37.269 22.463 4.433 H 0.0 **** 0.0
@<TRIPOS>BOND
1 1 2 1
2 1 3 1
3 1 4 1
4 1 5 1
@<TRIPOS>MOLECULE
CH4
5 4
SMALL
USER_CHARGES


@<TRIPOS>ATOM
1 C 60.883 40.03 78.749 C 0.0 **** 0.0
2 H 59.925 39.61 79.056 H 0.0 **** 0.0
3 H 60.88 41.106 78.923 H 0.0 **** 0.0
4 H 61.043 39.833 77.689 H 0.0 **** 0.0
5 H 61.684 39.57 79.329 H 0.0 **** 0.0
@<TRIPOS>BOND
1 1 2 1
2 1 3 1
3 1 4 1
4 1 5 1
@<TRIPOS>MOLECULE
CH4
5 4
SMALL
USER_CHARGES


@<TRIPOS>ATOM
1 C 72.04 36.741 76.833 C 0.0 **** 0.0
2 H 71.754 37.544 76.153 H 0.0 **** 0.0
3 H 72.189 35.821 76.267 H 0.0 **** 0.0
4 H 71.252 36.592 77.571 H 0.0 **** 0.0
5 H 72.967 37.009 77.341 H 0.0 **** 0.0
@<TRIPOS>BOND
1 1 2 1
2 1 3 1
3 1 4 1
4 1 5 1
@<TRIPOS>MOLECULE
CH4
5 4
SMALL
USER_CHARGES


@<TRIPOS>ATOM
1 C 96.029 90.345 30.025 C 0.0 **** 0.0
2 H 96.712 89.732 29.436 H 0.0 **** 0.0
3 H 95.322 89.7 30.547 H 0.0 **** 0.0
4 H 95.485 91.02 29.364 H 0.0 **** 0.0
5 H 96.597 90.926 30.751 H 0.0 **** 0.0
@<TRIPOS>BOND
1 1 2 1
2 1 3 1
3 1 4 1
4 1 5 1
@<TRIPOS>MOLECULE
CH4
5 4
SMALL
USER_CHARGES


@<TRIPOS>ATOM
1 C 16.667 39.304 33.757 C 0.0 **** 0.0
2 H 16.869 39.437 32.694 H 0.0 **** 0.0
3 H 17.304 38.513 34.152 H 0.0 **** 0.0
4 H 15.621 39.032 33.896 H 0.0 **** 0.0
5 H 16.873 40.235 34.285 H 0.0 **** 0.0
@<TRIPOS>BOND
1 1 2 1
2 1 3 1
3 1 4 1
4 1 5 1
@<TRIPOS>MOLECULE
CH4
5 4
SMALL
USER_CHARGES


@<TRIPOS>ATOM
1 C 20.8 84.624 40.059 C 0.0 **** 0.0
2 H 20.995 85.215 39.164 H 0.0 **** 0.0
3 H 20.916 83.565 39.827 H 0.0 **** 0.0
4 H 19.783 84.812 40.403 H 0.0 **** 0.0
5 H 21.506 84.906 40.84 H 0.0 **** 0.0
@<TRIPOS>BOND
1 1 2 1
2 1 3 1
3 1 4 1
4 1 5 1
@<TRIPOS>MOLECULE
CH4
5 4
SMALL
USER_CHARGES


@<TRIPOS>ATOM
1 C 91.656 31.467 76.944 C 0.0 **** 0.0
2 H 91.748 31.506 75.859 H 0.0 **** 0.0
3 H 90.824 32.096 77.261 H 0.0 **** 0.0
4 H 92.578 31.827 77.399 H 0.0 **** 0.0
5 H 91.474 30.439 77.257 H 0.0 **** 0.0
@<TRIPOS>BOND
1 1 2 1
2 1 3 1
3 1 4 1
4 1 5 1
@<TRIPOS>MOLECULE
CH4
5 4
SMALL
USER_CHARGES


@<TRIPOS>ATOM
1 C 31.646 15.535 94.982 C 0.0 **** 0.0
2 H 31.519 15.371 96.052 H 0.0 **** 0.0
3 H 32.342 14.797 94.582 H 0.0 **** 0.0
4 H 32.041 16.536 94.813 H 0.0 **** 0.0
5 H 30.683 15.434 94.482 H 0.0 **** 0.0
@<TRIPOS>BOND
1 1 2 1
2 1 3 1
3 1 4 1
4 1 5 1
@<TRIPOS>MOLECULE
CH4
5 4
SMALL
USER_CHARGES


@<TRIPOS>ATOM
1 C 75.873 13.519 90.858 C 0.0 **** 0.0
2 H 74.934 13.075 90.529 H 0.0 **** 0.0
3 H 76.091 14.399 90.253 H 0.0 **** 0.0
4 H 76.678 12.792 90.745 H 0.0 **** 0.0
5 H 75.791 13.809 91.906 H 0.0 **** 0.0
@<TRIPOS>BOND
1 1 2 1
2 1 3 1
3 1 4 1
4 1 5 1
@<TRIPOS>MOLECULE
CH4
5 4
SMALL
USER_CHARGES


@<TRIPOS>ATOM
1 C 27.483 29.648 39.187 C 0.0 **** 0.0
2 H 27.038 30.25 38.395 H 0.0 **** 0.0
3 H 28.431 29.235 38.84 H 0.0 **** 0.0
4 H 26.806 28.834 39.448 H 0.0 **** 0.0
5 H 27.657 30.272 40.064 H 0.0 **** 0.0
@<TRIPOS>BOND
1 1 2 1
2 1 3 1
3 1 4 1
4 1 5 1
@<TRIPOS>MOLECULE
CH4
5 4
SMALL
USER_CHARGES


@<TRIPOS>ATOM
1 C 87.325 37.806 69.808 C 0.0 **** 0.0
2 H 86.718 37.738 68.905 H 0.0 **** 0.0
3 H 88.147 37.093 69.748 H 0.0 **** 0.0
4 H 86.708 37.578 70.677 H 0.0 **** 0.0
5 H 87.725 38.816 69.901 H 0.0 **** 0.0
@<TRIPOS>BOND
1 1 2 1
2 1 3 1
3 1 4 1
4 1 5 1
@<TRIPOS>MOLECULE
CH4
5 4
SMALL
USER_CHARGES


@<TRIPOS>ATOM
1 C 86.915 1.753 95.946 C 0.0 **** 0.0
2 H 87.903 1.292 95.933 H 0.0 **** 0.0
3 H 86.288 1.248 96.681 H 0.0 **** 0.0
4 H 86.461 1.667 94.959 H 0.0 **** 0.0
5 H 87.009 2.806 96.212 H 0.0 **** 0.0
@<TRIPOS>BOND
1 1 2 1
2 1 3 1
3 1 4 1
4 1 5 1
@<TRIPOS>MOLECULE
CH4
5 4
SMALL
USER_CHARGES


@<TRIPOS>ATOM
1 C 61.351 63.012 29.019 C 0.0 **** 0.0
2 H 61.888 62.211 29.528 H 0.0 **** 0.0
3 H 61.33 63.897 29.655 H 0.0 **** 0.0
4 H 60.33 62.689 28.811 H 0.0 **** 0.0
5 H 61.855 63.249 28.082 H 0.0 **** 0.0
@<TRIPOS>BOND
1 1 2 1
2 1 3 1
3 1 4 1
4 1 5 1
@<TRIPOS>MOLECULE
CH4
5 4
SMALL
USER_CHARGES


@<TRIPOS>ATOM
1 C 44.816 64.479 51.182 C 0.0 **** 0.0
2 H 44.851 63.766 50.358 H 0.0 **** 0.0
3 H 43.834 64.439 51.655 H 0.0 **** 0.0
4 H 44.994 65.484 50.8 H 0.0 **** 0.0
5 H 45.583 64.227 51.914 H 0.0 **** 0.0
@<TRIPOS>BOND
1 1 2 1
2 1 3 1
3 1 4 1
4 1 5 1
@<TRIPOS>MOLECULE
CH4
5 4
SMALL
USER_CHARGES


@<TRIPOS>ATOM
1 C 52.482 58.332 23.916 C 0.0 **** 0.0
2 H 52.72 58.731 22.93 H 0.0 **** 0.0
3 H 53.315 57.724 24.272 H 0.0 **** 0.0
4 H 51.585 57.716 23.852 H 0.0 **** 0.0
5 H 52.31 59.155 24.609 H 0.0 **** 0.0
@<TRIPOS>BOND
1 1 2 1
2 1 3 1
3 1 4 1
4 1 5 1
@<TRIPOS>MOLECULE
CH4
5 4
SMALL
USER_CHARGES


@<TRIPOS>ATOM
1 C 69.887 76.879 21.648 C 0.0 **** 0.0
2 H 70.938 76.784 21.919 H 0.0 **** 0.0
3 H 69.402 75.906 21.731 H 0.0 **** 0.0
4 H 69.807 77.238 20.622 H 0.0 **** 0.0
5 H 69.4 77.586 22.319 H 0.0 **** 0.0
@<TRIPOS>BOND
1 1 2 1
2 1 3 1
3 1 4 1
4 1 5 1
@<TRIPOS>MOLECULE
CH4
5 4
SMALL
USER_CHARGES


@<TRIPOS>ATOM
1 C 28.789 37.547 5.134 C 0.0 **** 0.0
2 H 29.637 37.055 5.61 H 0.0 **** 0.0
3 H 28.697 38.564 5.517 H 0.0 **** 0.0
4 H 27.877 36.992 5.354 H 0.0 **** 0.0
5 H 28.944 37.577 4.056 H 0.0 **** 0.0
@<TRIPOS>BOND
1 1 2 1
2 1 3 1
3 1 4 1
4 1 5 1
@<TRIPOS>MOLECULE
CH4
5 4
SMALL
USER_CHARGES


@<TRIPOS>ATOM
1 C 70.431 82.337 93.102 C 0.0 **** 0.0
2 H 69.743 82.268 92.26 H 0.0 **** 0.0
3 H 71.42 81.997 92.791 H 0.0 **** 0.0
4 H 70.071 81.709 93.918 H 0.0 **** 0.0
5 H 70.491 83.372 93.439 H 0.0 **** 0.0
@<TRIPOS>BOND
1 1 2 1
2 1 3 1
3 1 4 1
4 1 5 1
@<TRIPOS>MOLECULE
CH4
5 4
SMALL
USER_CHARGES


@<TRIPOS>ATOM
1 C 25.216 42.953 47.327 C 0.0 **** 0.0
2 H 25.245 42.976 46.238 H 0.0 **** 0.0
3 H 26.234 42.911 47.716 H 0.0 **** 0.0
4 H 24.663 42.074 47.657 H 0.0 **** 0.0
5 H 24.723 43.852 47.696 H 0.0 **** 0.0
@<TRIPOS>BOND
1 1 2 1
2 1 3 1
3 1 4 1
4 1 5 1
@<TRIPOS>MOLECULE
CH4
5 4
SMALL
USER_CHARGES


@<TRIPOS>ATOM
1 C 74.431 28.772 36.018 C 0.0 **** 0.0
2 H 74.54 29.461 35.181 H 0.0 **** 0.0
3 H 74.208 27.774 35.64 H 0.0 **** 0.0
4 H 73.618 29.107 36.662 H 0.0 **** 0.0
5 H 75.359 28.745 36.589 H 0.0 **** 0.0
@<TRIPOS>BOND
1 1 2 1
2 1 3 1
3 1 4 1
4 1 5 1
@<TRIPOS>MOLECULE
CH4
5 4
SMALL
USER_CHARGES


@<TRIPOS>ATOM
1 C 92.325 74.873 92.383 C 0.0 **** 0.0
2 H 91.653 75.042 91.542 H 0.0 **** 0.0
3 H 91.977 74.015 92.959 H 0.0 **** 0.0
4 H 92.34 75.757 93.02 H 0.0 **** 0.0
5 H 93.33 74.677 92.01 H 0.0 **** 0.0
@<TRIPOS>BOND
1 1 2 1
2 1 3 1
3 1 4 1
4 1 5 1
@<TRIPOS>MOLECULE
CH4
5 4
SMALL
USER_CHARGES


@<TRIPOS>ATOM
1 C 86.912 32.175 36.75 C 0.0 **** 0.0
2 H 86.363 32.566 35.893 H 0.0 **** 0.0
3 H 87.909 31.869 36.433 H 0.0 **** 0.0
4 H 86.381 31.316 37.16 H 0.0 **** 0.0
5 H 86.994 32.949 37.512 H 0.0 **** 0.0
@<TRIPOS>BOND
1 1 2 1
2 1 3 1
3 1 4 1
4 1 5 1
@<TRIPOS>MOLECULE
CH4
5 4
SMALL
USER_CHARGES


@<TRIPOS>ATOM
1 C 94.951 75.438 52.117 C 0.0 **** 0.0
2 H 93.871 75.517 52.241 H 0.0 **** 0.0
3 H 95.33 76.345 51.646 H 0.0 **** 0.0
4 H 95.182 74.578 51.488 H 0.0 **** 0.0
5 H 95.42 75.311 53.093 H 0.0 **** 0.0
@<TRIPOS>BOND
1 1 4 1
2 1 5 1
3 1 2 1
4 1 3 1
@<TRIPOS>MOLECULE
CH4
5 4
SMALL
USER_CHARGES


@<TRIPOS>ATOM
1 C 93.589 80.607 11.565 C 0.0 **** 0.0
2 H 93.31 80.194 12.534 H 0.0 **** 0.0
3 H 94.356 81.369 11.702 H 0.0 **** 0.0
4 H 92.712 81.054 11.095 H 0.0 **** 0.0
5 H 93.976 79.812 10.928 H 0.0 **** 0.0
@<TRIPOS>BOND
1 1 2 1
2 1 3 1
3 1 4 1
4 1 5 1
@<TRIPOS>MOLECULE
CH4
5 4
SMALL
USER_CHARGES


@<TRIPOS>ATOM
1 C 94.123 37.079 63.229 C 0.0 **** 0.0
2 H 94.441 38.121 63.189 H 0.0 **** 0.0
3 H 94.955 36.435 62.942 H 0.0 **** 0.0
4 H 93.291 36.926 62.543 H 0.0 **** 0.0
5 H 93.807 36.835 64.244 H 0.0 **** 0.0
@<TRIPOS>BOND
1 1 2 1
2 1 3 1
3 1 4 1
4 1 5 1
@<TRIPOS>MOLECULE
CH4
5 4
SMALL
USER_CHARGES


@<TRIPOS>ATOM
1 C 88.989 1.515 62.496 C 0.0 **** 0.0
2 H 89.954 1.266 62.936 H 0.0 **** 0.0
3 H 88.617 2.44 62.937 H 0.0 **** 0.0
4 H 88.282 0.709 62.69 H 0.0 **** 0.0
5 H 89.104 1.647 61.42 H 0.0 **** 0.0
@<TRIPOS>BOND
1 1 2 1
2 1 3 1
3 1 4 1
4 1 5 1
@<TRIPOS>MOLECULE
CH4
5 4
SMALL
USER_CHARGES


@<TRIPOS>ATOM
1 C 88.101 50.769 79.112 C 0.0 **** 0.0
2 H 87.714 50.123 79.901 H 0.0 **** 0.0
3 H 89.182 50.649 79.043 H 0.0 **** 0.0
4 H 87.864 51.807 79.344 H 0.0 **** 0.0
5 H 87.643 50.495 78.162 H 0.0 **** 0.0
@<TRIPOS>BOND
1 1 2 1
2 1 3 1
3 1 4 1
4 1 5 1
@<TRIPOS>MOLECULE
CH4
5 4
SMALL
USER_CHARGES


@<TRIPOS>ATOM
1 C 46.881 12.489 18.77 C 0.0 **** 0.0
2 H 46.919 12.423 19.857 H 0.0 **** 0.0
3 H 45.869 12.273 18.428 H 0.0 **** 0.0
4 H 47.573 11.766 18.338 H 0.0 **** 0.0
5 H 47.164 13.494 18.457 H 0.0 **** 0.0
@<TRIPOS>BOND
1 1 2 1
2 1 3 1
3 1 4 1
4 1 5 1
@<TRIPOS>MOLECULE
CH4
5 4
SMALL
USER_CHARGES


@<TRIPOS>ATOM
1 C 6.992 49.628 44.702 C 0.0 **** 0.0
2 H 6.822 49.937 43.671 H 0.0 **** 0.0
3 H 8.059 49.476 44.864 H 0.0 **** 0.0
4 H 6.459 48.697 44.894 H 0.0 **** 0.0
5 H 6.628 50.401 45.379 H 0.0 **** 0.0
@<TRIPOS>BOND
1 1 2 1
2 1 3 1
3 1 4 1
4 1 5 1
@<TRIPOS>MOLECULE
CH4
5 4
SMALL
USER_CHARGES


@<TRIPOS>ATOM
1 C 61.93 14.798 33.15 C 0.0 **** 0.0
2 H 61.773 14.736 34.227 H 0.0 **** 0.0
3 H 62.513 15.691 32.92 H 0.0 **** 0.0
4 H 60.966 14.853 32.645 H 0.0 **** 0.0
5 H 62.469 13.914 32.81 H 0.0 **** 0.0
@<TRIPOS>BOND
1 1 2 1
2 1 3 1
3 1 4 1
4 1 5 1
@<TRIPOS>MOLECULE
CH4
5 4
SMALL
USER_CHARGES


@<TRIPOS>ATOM
1 C 26.063 3.838 92.756 C 0.0 **** 0.0
2 H 26.052 2.871 92.253 H 0.0 **** 0.0
3 H 26.557 3.739 93.723 H 0.0 **** 0.0
4 H 25.039 4.182 92.904 H 0.0 **** 0.0
5 H 26.603 4.56 92.144 H 0.0 **** 0.0
@<TRIPOS>BOND
1 1 2 1
2 1 3 1
3 1 4 1
4 1 5 1
@<TRIPOS>MOLECULE
CH4
5 4
SMALL
USER_CHARGES


@<TRIPOS>ATOM
1 C 92.305 81.621 40.137 C 0.0 **** 0.0
2 H 92.44 82.687 39.957 H 0.0 **** 0.0
3 H 92.92 81.315 40.983 H 0.0 **** 0.0
4 H 92.604 81.062 39.25 H 0.0 **** 0.0
5 H 91.257 81.419 40.357 H 0.0 **** 0.0
@<TRIPOS>BOND
1 1 2 1
2 1 3 1
3 1 4 1
4 1 5 1
@<TRIPOS>MOLECULE
CH4
5 4
SMALL
USER_CHARGES


@<TRIPOS>ATOM
1 C 1.014 5.427 72.769 C 0.0 **** 0.0
2 H 1.268 5.139 73.789 H 0.0 **** 0.0
3 H 0.014 5.064 72.528 H 0.0 **** 0.0
4 H 1.735 4.991 72.078 H 0.0 **** 0.0
5 H 1.037 6.513 72.682 H 0.0 **** 0.0
@<TRIPOS>BOND
1 1 2 1
2 1 3 1
3 1 4 1
4 1 5 1
@<TRIPOS>MOLECULE
CH4
5 4
SMALL
USER_CHARGES


@<TRIPOS>ATOM
1 C 89.57 11.585 18.211 C 0.0 **** 0.0
2 H 89.164 10.626 17.887 H 0.0 **** 0.0
3 H 90.116 12.044 17.386 H 0.0 **** 0.0
4 H 90.246 11.427 19.051 H 0.0 **** 0.0
5 H 88.755 12.24 18.518 H 0.0 **** 0.0
@<TRIPOS>BOND
1 1 2 1
2 1 3 1
3 1 4 1
4 1 5 1
@<TRIPOS>MOLECULE
CH4
5 4
SMALL
USER_CHARGES


@<TRIPOS>ATOM
1 C 57.655 46.988 20.295 C 0.0 **** 0.0
2 H 58.44 47.314 19.612 H 0.0 **** 0.0
3 H 57.341 47.827 20.915 H 0.0 **** 0.0
4 H 58.037 46.189 20.931 H 0.0 **** 0.0
5 H 56.804 46.621 19.721 H 0.0 **** 0.0
@<TRIPOS>BOND
1 1 2 1
2 1 4 1
3 1 5 1
4 1 3 1
@<TRIPOS>MOLECULE
CH4
5 4
SMALL
USER_CHARGES


@<TRIPOS>ATOM
1 C 18.928 10.879 80.962 C 0.0 **** 0.0
2 H 17.892 11.086 80.693 H 0.0 **** 0.0
3 H 19.573 11.089 80.108 H 0.0 **** 0.0
4 H 19.028 9.831 81.245 H 0.0 **** 0.0
5 H 19.219 11.512 81.801 H 0.0 **** 0.0
@<TRIPOS>BOND
1 1 2 1
2 1 3 1
3 1 4 1
4 1 5 1
@<TRIPOS>MOLECULE
CH4
5 4
SMALL
USER_CHARGES


@<TRIPOS>ATOM
1 C 52.981 95.547 36.732 C 0.0 **** 0.0
2 H 51.899 95.596 36.612 H 0.0 **** 0.0
3 H 53.307 94.509 36.674 H 0.0 **** 0.0
4 H 53.257 95.962 37.701 H 0.0 **** 0.0
5 H 53.46 96.124 35.94 H 0.0 **** 0.0
@<TRIPOS>BOND
1 1 2 1
2 1 3 1
3 1 4 1
4 1 5 1
@<TRIPOS>MOLECULE
CH4
5 4
SMALL
USER_CHARGES


@<TRIPOS>ATOM
1 C 53.732 21.332 7.23 C 0.0 **** 0.0
2 H 53.573 21.561 6.176 H 0.0 **** 0.0
3 H 54.129 20.321 7.326 H 0.0 **** 0.0
4 H 52.785 21.404 7.764 H 0.0 **** 0.0
5 H 54.443 22.043 7.652 H 0.0 **** 0.0
@<TRIPOS>BOND
1 1 2 1
2 1 3 1
3 1 4 1
4 1 5 1
@<TRIPOS>MOLECULE
CH4
5 4
SMALL
USER_CHARGES


@<TRIPOS>ATOM
1 C 15.915 58.248 22.489 C 0.0 **** 0.0
2 H 15.945 58.182 21.402 H 0.0 **** 0.0
3 H 16.704 58.916 22.834 H 0.0 **** 0.0
4 H 16.064 57.257 22.918 H 0.0 **** 0.0
5 H 14.946 58.638 22.802 H 0.0 **** 0.0
@<TRIPOS>BOND
1 1 2 1
2 1 3 1
3 1 4 1
4 1 5 1
@<TRIPOS>MOLECULE
CH4
5 4
SMALL
USER_CHARGES


@<TRIPOS>ATOM
1 C 25.28 68.332 37.505 C 0.0 **** 0.0
2 H 25.454 68.627 38.539 H 0.0 **** 0.0
3 H 26.237 68.178 37.005 H 0.0 **** 0.0
4 H 24.724 69.117 36.992 H 0.0 **** 0.0
5 H 24.705 67.406 37.483 H 0.0 **** 0.0
@<TRIPOS>BOND
1 1 2 1
2 1 3 1
3 1 4 1
4 1 5 1
@<TRIPOS>MOLECULE
CH4
5 4
SMALL
USER_CHARGES


@<TRIPOS>ATOM
1 C 0.816 80.843 29.204 C 0.0 **** 0.0
2 H 0.758 80.93 30.289 H 0.0 **** 0.0
3 H 0.659 81.822 28.752 H 0.0 **** 0.0
4 H 0.048 80.153 28.854 H 0.0 **** 0.0
5 H 1.799 80.465 28.922 H 0.0 **** 0.0
@<TRIPOS>BOND
1 1 2 1
2 1 3 1
3 1 4 1
4 1 5 1
@<TRIPOS>MOLECULE
CH4
5 4
SMALL
USER_CHARGES


@<TRIPOS>ATOM
1 C 22.35 76.364 24.187 C 0.0 **** 0.0
2 H 21.519 75.727 24.49 H 0.0 **** 0.0
3 H 23.279 75.968 24.598 H 0.0 **** 0.0
4 H 22.189 77.375 24.56 H 0.0 **** 0.0
5 H 22.413 76.384 23.099 H 0.0 **** 0.0
@<TRIPOS>BOND
1 1 2 1
2 1 3 1
3 1 4 1
4 1 5 1
@<TRIPOS>MOLECULE
CH4
5 4
SMALL
USER_CHARGES


@<TRIPOS>ATOM
1 C 16.342 37.827 21.794 C 0.0 **** 0.0
2 H 16.357 38.845 21.405 H 0.0 **** 0.0
3 H 15.633 37.764 22.619 H 0.0 **** 0.0
4 H 17.338 37.559 22.149 H 0.0 **** 0.0
5 H 16.042 37.14 21.003 H 0.0 **** 0.0
@<TRIPOS>BOND
1 1 2 1
2 1 3 1
3 1 4 1
4 1 5 1
@<TRIPOS>MOLECULE
CH4
5 4
SMALL
USER_CHARGES


@<TRIPOS>ATOM
1 C 95.446 3.129 77.503 C 0.0 **** 0.0
2 H 94.857 4.001 77.789 H 0.0 **** 0.0
3 H 96.506 3.347 77.639 H 0.0 **** 0.0
4 H 95.255 2.889 76.457 H 0.0 **** 0.0
5 H 95.166 2.281 78.128 H 0.0 **** 0.0
@<TRIPOS>BOND
1 1 2 1
2 1 3 1
3 1 4 1
4 1 5 1
@<TRIPOS>MOLECULE
CH4
5 4
SMALL
USER_CHARGES


@<TRIPOS>ATOM
1 C 61.493 58.253 60.514 C 0.0 **** 0.0
2 H 62.45 58.07 61.003 H 0.0 **** 0.0
3 H 61.17 59.274 60.719 H 0.0 **** 0.0
4 H 60.751 57.552 60.895 H 0.0 **** 0.0
5 H 61.604 58.116 59.438 H 0.0 **** 0.0
@<TRIPOS>BOND
1 1 2 1
2 1 3 1
3 1 4 1
4 1 5 1
@<TRIPOS>MOLECULE
CH4
5 4
SMALL
USER_CHARGES


@<TRIPOS>ATOM
1 C 45.401 48.436 26.09 C 0.0 **** 0.0
2 H 44.66 48.068 26.8 H 0.0 **** 0.0
3 H 46.156 47.667 25.924 H 0.0 **** 0.0
4 H 45.875 49.331 26.491 H 0.0 **** 0.0
5 H 44.911 48.675 25.146 H 0.0 **** 0.0
@<TRIPOS>BOND
1 1 2 1
2 1 3 1
3 1 4 1
4 1 5 1
@<TRIPOS>MOLECULE
CH4
5 4
SMALL
USER_CHARGES


@<TRIPOS>ATOM
1 C 41.699 32.599 68.765 C 0.0 **** 0.0
2 H 41.433 32.306 69.781 H 0.0 **** 0.0
3 H 40.872 33.153 68.32 H 0.0 **** 0.0
4 H 41.901 31.708 68.171 H 0.0 **** 0.0
5 H 42.588 33.229 68.79 H 0.0 **** 0.0
@<TRIPOS>BOND
1 1 2 1
2 1 3 1
3 1 4 1
4 1 5 1
@<TRIPOS>MOLECULE
CH4
5 4
SMALL
USER_CHARGES


@<TRIPOS>ATOM
1 C 87.66 40.423 94.963 C 0.0 **** 0.0
2 H 87.575 40.654 96.025 H 0.0 **** 0.0
3 H 86.664 40.297 94.538 H 0.0 **** 0.0
4 H 88.229 39.502 94.836 H 0.0 **** 0.0
5 H 88.173 41.239 94.454 H 0.0 **** 0.0
@<TRIPOS>BOND
1 1 5 1
2 1 2 1
3 1 3 1
4 1 4 1
@<TRIPOS>MOLECULE
CH4
5 4
SMALL
USER_CHARGES


@<TRIPOS>ATOM
1 C 72.093 80.236 84.442 C 0.0 **** 0.0
2 H 71.256 80.401 83.764 H 0.0 **** 0.0
3 H 72.211 81.105 85.091 H 0.0 **** 0.0
4 H 73.005 80.088 83.865 H 0.0 **** 0.0
5 H 71.899 79.352 85.05 H 0.0 **** 0.0
@<TRIPOS>BOND
1 1 2 1
2 1 3 1
3 1 4 1
4 1 5 1
@<TRIPOS>MOLECULE
CH4
5 4
SMALL
USER_CHARGES


@<TRIPOS>ATOM
1 C 45.034 86.453 50.13 C 0.0 **** 0.0
2 H 45.41 86.806 51.091 H 0.0 **** 0.0
3 H 45.874 86.228 49.472 H 0.0 **** 0.0
4 H 44.414 87.226 49.677 H 0.0 **** 0.0
5 H 44.439 85.552 50.282 H 0.0 **** 0.0
@<TRIPOS>BOND
1 1 2 1
2 1 3 1
3 1 4 1
4 1 5 1
@<TRIPOS>MOLECULE
CH4
5 4
SMALL
USER_CHARGES


@<TRIPOS>ATOM
1 C 43.67 90.642 19.951 C 0.0 **** 0.0
2 H 43.94 90.982 20.951 H 0.0 **** 0.0
3 H 42.584 90.595 19.865 H 0.0 **** 0.0
4 H 44.092 89.652 19.779 H 0.0 **** 0.0
5 H 44.064 91.339 19.212 H 0.0 **** 0.0
@<TRIPOS>BOND
1 1 2 1
2 1 3 1
3 1 4 1
4 1 5 1
@<TRIPOS>MOLECULE
CH4
5 4
SMALL
USER_CHARGES


@<TRIPOS>ATOM
1 C 53.17 58.776 62.584 C 0.0 **** 0.0
2 H 53.25 58.72 61.499 H 0.0 **** 0.0
3 H 53.268 57.777 63.008 H 0.0 **** 0.0
4 H 52.199 59.192 62.856 H 0.0 **** 0.0
5 H 53.961 59.416 62.974 H 0.0 **** 0.0
@<TRIPOS>BOND
1 1 2 1
2 1 3 1
3 1 4 1
4 1 5 1
@<TRIPOS>MOLECULE
CH4
5 4
SMALL
USER_CHARGES


@<TRIPOS>ATOM
1 C 65.188 8.255 36.524 C 0.0 **** 0.0
2 H 64.376 8.921 36.816 H 0.0 **** 0.0
3 H 65.092 8.006 35.467 H 0.0 **** 0.0
4 H 65.141 7.343 37.119 H 0.0 **** 0.0
5 H 66.143 8.751 36.695 H 0.0 **** 0.0
@<TRIPOS>BOND
1 1 2 1
2 1 3 1
3 1 4 1
4 1 5 1
@<TRIPOS>MOLECULE
CH4
5 4
SMALL
USER_CHARGES


@<TRIPOS>ATOM
1 C 93.072 70.904 81.544 C 0.0 **** 0.0
2 H 93.677 71.561 82.17 H 0.0 **** 0.0
3 H 92.664 71.473 80.709 H 0.0 **** 0.0
4 H 92.255 70.49 82.136 H 0.0 **** 0.0
5 H 93.693 70.093 81.164 H 0.0 **** 0.0
@<TRIPOS>BOND
1 1 2 1
2 1 3 1
3 1 4 1
4 1 5 1
@<TRIPOS>MOLECULE
CH4
5 4
SMALL
USER_CHARGES


@<TRIPOS>ATOM
1 C 23.048 95.015 13.051 C 0.0 **** 0.0
2 H 23.691 94.585 13.82 H 0.0 **** 0.0
3 H 22.71 94.226 12.379 H 0.0 **** 0.0
4 H 23.607 95.76 12.485 H 0.0 **** 0.0
5 H 22.186 95.487 13.521 H 0.0 **** 0.0
@<TRIPOS>BOND
1 1 2 1
2 1 3 1
3 1 4 1
4 1 5 1
@<TRIPOS>MOLECULE
CH4
5 4
SMALL
USER_CHARGES


@<TRIPOS>ATOM
1 C 90.568 45.21 72.149 C 0.0 **** 0.0
2 H 89.943 44.598 71.498 H 0.0 **** 0.0
3 H 91.062 44.572 72.882 H 0.0 **** 0.0
4 H 89.947 45.943 72.664 H 0.0 **** 0.0
5 H 91.319 45.726 71.551 H 0.0 **** 0.0
@<TRIPOS>BOND
1 1 2 1
2 1 3 1
3 1 4 1
4 1 5 1
@<TRIPOS>MOLECULE
CH4
5 4
SMALL
USER_CHARGES


@<TRIPOS>ATOM
1 C 57.548 0.976 38.827 C 0.0 **** 0.0
2 H 56.863 1.021 39.673 H 0.0 **** 0.0
3 H 58.033 -0.0 38.803 H 0.0 **** 0.0
4 H 58.304 1.755 38.931 H 0.0 **** 0.0
5 H 56.993 1.13 37.902 H 0.0 **** 0.0
@<TRIPOS>BOND
1 1 2 1
2 1 3 1
3 1 4 1
4 1 5 1
@<TRIPOS>MOLECULE
CH4
5 4
SMALL
USER_CHARGES


@<TRIPOS>ATOM
1 C 60.126 89.98 83.587 C 0.0 **** 0.0
2 H 60.401 89.683 84.599 H 0.0 **** 0.0
3 H 61.027 90.085 82.982 H 0.0 **** 0.0
4 H 59.596 90.932 83.62 H 0.0 **** 0.0
5 H 59.48 89.219 83.148 H 0.0 **** 0.0
@<TRIPOS>BOND
1 1 2 1
2 1 3 1
3 1 4 1
4 1 5 1
@<TRIPOS>MOLECULE
CH4
5 4
SMALL
USER_CHARGES


@<TRIPOS>ATOM
1 C 39.304 73.017 69.614 C 0.0 **** 0.0
2 H 39.183 74.09 69.464 H 0.0 **** 0.0
3 H 39.048 72.763 70.643 H 0.0 **** 0.0
4 H 40.339 72.737 69.417 H 0.0 **** 0.0
5 H 38.646 72.479 68.932 H 0.0 **** 0.0
@<TRIPOS>BOND
1 1 2 1
2 1 3 1
3 1 4 1
4 1 5 1
@<TRIPOS>MOLECULE
CH4
5 4
SMALL
USER_CHARGES


@<TRIPOS>ATOM
1 C 57.555 81.779 88.708 C 0.0 **** 0.0
2 H 58.107 81.599 89.631 H 0.0 **** 0.0
3 H 56.703 81.101 88.656 H 0.0 **** 0.0
4 H 58.21 81.605 87.854 H 0.0 **** 0.0
5 H 57.202 82.81 88.691 H 0.0 **** 0.0
@<TRIPOS>BOND
1 1 2 1
2 1 3 1
3 1 4 1
4 1 5 1
@<TRIPOS>MOLECULE
CH4
5 4
SMALL
USER_CHARGES


@<TRIPOS>ATOM
1 C 41.422 40.645 60.325 C 0.0 **** 0.0
2 H 41.966 39.974 60.989 H 0.0 **** 0.0
3 H 42.019 40.834 59.432 H 0.0 **** 0.0
4 H 41.229 41.587 60.838 H 0.0 **** 0.0
5 H 40.476 40.186 60.039 H 0.0 **** 0.0
@<TRIPOS>BOND
1 1 2 1
2 1 3 1
3 1 4 1
4 1 5 1
@<TRIPOS>MOLECULE
CH4
5 4
SMALL
USER_CHARGES


@<TRIPOS>ATOM
1 C 37.787 21.875 11.512 C 0.0 **** 0.0
2 H 38.136 21.756 10.487 H 0.0 **** 0.0
3 H 36.75 21.548 11.584 H 0.0 **** 0.0
4 H 37.858 22.925 11.8 H 0.0 **** 0.0
5 H 38.406 21.274 12.178 H 0.0 **** 0.0
@<TRIPOS>BOND
1 1 2 1
2 1 3 1
3 1 4 1
4 1 5 1
@<TRIPOS>MOLECULE
CH4
5 4
SMALL
USER_CHARGES


@<TRIPOS>ATOM
1 C 76.788 42.39 72.634 C 0.0 **** 0.0
2 H 77.227 42.314 71.64 H 0.0 **** 0.0
3 H 77.581 42.396 73.382 H 0.0 **** 0.0
4 H 76.131 41.537 72.808 H 0.0 **** 0.0
5 H 76.212 43.313 72.707 H 0.0 **** 0.0
@<TRIPOS>BOND
1 1 2 1
2 1 3 1
3 1 4 1
4 1 5 1
@<TRIPOS>MOLECULE
CH4
5 4
SMALL
USER_CHARGES


@<TRIPOS>ATOM
1 C 19.34 40.66 4.239 C 0.0 **** 0.0
2 H 18.831 40.127 5.042 H 0.0 **** 0.0
3 H 19.723 41.608 4.619 H 0.0 **** 0.0
4 H 18.638 40.851 3.428 H 0.0 **** 0.0
5 H 20.168 40.056 3.869 H 0.0 **** 0.0
@<TRIPOS>BOND
1 1 2 1
2 1 3 1
3 1 4 1
4 1 5 1
@<TRIPOS>MOLECULE
CH4
5 4
SMALL
USER_CHARGES


@<TRIPOS>ATOM
1 C 23.351 69.152 72.722 C 0.0 **** 0.0
2 H 23.168 68.153 73.118 H 0.0 **** 0.0
3 H 24.329 69.178 72.241 H 0.0 **** 0.0
4 H 23.327 69.876 73.537 H 0.0 **** 0.0
5 H 22.58 69.4 71.993 H 0.0 **** 0.0
@<TRIPOS>BOND
1 1 2 1
2 1 3 1
3 1 4 1
4 1 5 1
@<TRIPOS>MOLECULE
CH4
5 4
SMALL
USER_CHARGES


@<TRIPOS>ATOM
1 C 90.812 83.121 45.027 C 0.0 **** 0.0
2 H 90.85 84.114 45.475 H 0.0 **** 0.0
3 H 90.42 82.409 45.754 H 0.0 **** 0.0
4 H 91.816 82.819 44.727 H 0.0 **** 0.0
5 H 90.163 83.142 44.152 H 0.0 **** 0.0
@<TRIPOS>BOND
1 1 2 1
2 1 3 1
3 1 4 1
4 1 5 1
@<TRIPOS>MOLECULE
CH4
5 4
SMALL
USER_CHARGES


@<TRIPOS>ATOM
1 C 20.264 3.919 18.507 C 0.0 **** 0.0
2 H 20.009 4.34 19.479 H 0.0 **** 0.0
3 H 20.479 4.726 17.807 H 0.0 **** 0.0
4 H 19.426 3.329 18.136 H 0.0 **** 0.0
5 H 21.142 3.28 18.608 H 0.0 **** 0.0
@<TRIPOS>BOND
1 1 2 1
2 1 3 1
3 1 4 1
4 1 5 1
@<TRIPOS>MOLECULE
CH4
5 4
SMALL
USER_CHARGES


@<TRIPOS>ATOM
1 C 31.07 86.091 71.621 C 0.0 **** 0.0
2 H 30.548 85.932 72.565 H 0.0 **** 0.0
3 H 30.664 85.419 70.864 H 0.0 **** 0.0
4 H 32.133 85.887 71.756 H 0.0 **** 0.0
5 H 30.936 87.124 71.301 H 0.0 **** 0.0
@<TRIPOS>BOND
1 1 2 1
2 1 3 1
3 1 4 1
4 1 5 1
@<TRIPOS>MOLECULE
CH4
5 4
SMALL
USER_CHARGES


@<TRIPOS>ATOM
1 C 40.957 29.308 85.882 C 0.0 **** 0.0
2 H 41.741 28.652 86.261 H 0.0 **** 0.0
3 H 40.545 28.889 84.964 H 0.0 **** 0.0
4 H 41.375 30.293 85.677 H 0.0 **** 0.0
5 H 40.167 29.396 86.628 H 0.0 **** 0.0
@<TRIPOS>BOND
1 1 2 1
2 1 3 1
3 1 4 1
4 1 5 1
@<TRIPOS>MOLECULE
CH4
5 4
SMALL
USER_CHARGES


@<TRIPOS>ATOM
1 C 45.095 83.808 86.188 C 0.0 **** 0.0
2 H 45.691 84.49 85.581 H 0.0 **** 0.0
3 H 45.6 82.844 86.252 H 0.0 **** 0.0
4 H 44.115 83.677 85.73 H 0.0 **** 0.0
5 H 44.976 84.223 87.189 H 0.0 **** 0.0
@<TRIPOS>BOND
1 1 2 1
2 1 3 1
3 1 4 1
4 1 5 1
@<TRIPOS>MOLECULE
CH4
5 4
SMALL
USER_CHARGES


@<TRIPOS>ATOM
1 C 72.56 46.415 4.726 C 0.0 **** 0.0
2 H 72.907 45.397 4.902 H 0.0 **** 0.0
3 H 73.409 47.049 4.471 H 0.0 **** 0.0
4 H 72.079 46.795 5.627 H 0.0 **** 0.0
5 H 71.844 46.417 3.904 H 0.0 **** 0.0
@<TRIPOS>BOND
1 1 2 1
2 1 3 1
3 1 4 1
4 1 5 1
@<TRIPOS>MOLECULE
CH4
5 4
SMALL
USER_CHARGES


@<TRIPOS>ATOM
1 C 2.542 30.977 11.631 C 0.0 **** 0.0
2 H 2.089 30.835 12.612 H 0.0 **** 0.0
3 H 3.361 30.268 11.503 H 0.0 **** 0.0
4 H 2.926 31.994 11.551 H 0.0 **** 0.0
5 H 1.792 30.81 10.858 H 0.0 **** 0.0
@<TRIPOS>BOND
1 1 2 1
2 1 3 1
3 1 4 1
4 1 5 1
@<TRIPOS>MOLECULE
CH4
5 4
SMALL
USER_CHARGES


@<TRIPOS>ATOM
1 C 9.808 16.014 25.975 C 0.0 **** 0.0
2 H 10.399 16.922 25.851 H 0.0 **** 0.0
3 H 8.793 16.28 26.272 H 0.0 **** 0.0
4 H 10.261 15.388 26.744 H 0.0 **** 0.0
5 H 9.78 15.468 25.032 H 0.0 **** 0.0
@<TRIPOS>BOND
1 1 2 1
2 1 3 1
3 1 4 1
4 1 5 1
@<TRIPOS>MOLECULE
CH4
5 4
SMALL
USER_CHARGES


@<TRIPOS>ATOM
1 C 96.065 50.649 40.017 C 0.0 **** 0.0
2 H 95.232 49.946 40.043 H 0.0 **** 0.0
3 H 95.706 51.624 39.687 H 0.0 **** 0.0
4 H 96.824 50.287 39.323 H 0.0 **** 0.0
5 H 96.496 50.738 41.014 H 0.0 **** 0.0
@<TRIPOS>BOND
1 1 2 1
2 1 3 1
3 1 4 1
4 1 5 1
@<TRIPOS>MOLECULE
CH4
5 4
SMALL
USER_CHARGES


@<TRIPOS>ATOM
1 C 16.029 74.431 4.614 C 0.0 **** 0.0
2 H 15.435 75.329 4.447 H 0.0 **** 0.0
3 H 15.368 73.567 4.69 H 0.0 **** 0.0
4 H 16.597 74.538 5.538 H 0.0 **** 0.0
5 H 16.716 74.29 3.779 H 0.0 **** 0.0
@<TRIPOS>BOND
1 1 2 1
2 1 3 1
3 1 4 1
4 1 5 1
@<TRIPOS>MOLECULE
CH4
5 4
SMALL
USER_CHARGES


@<TRIPOS>ATOM
1 C 77.98 91.013 65.076 C 0.0 **** 0.0
2 H 78.0 91.0 66.166 H 0.0 **** 0.0
3 H 77.184 91.676 64.736 H 0.0 **** 0.0
4 H 77.797 90.005 64.704 H 0.0 **** 0.0
5 H 78.937 91.371 64.699 H 0.0 **** 0.0
@<TRIPOS>BOND
1 1 2 1
2 1 3 1
3 1 4 1
4 1 5 1
@<TRIPOS>MOLECULE
CH4
5 4
SMALL
USER_CHARGES


@<TRIPOS>ATOM
1 C 92.111 87.127 31.445 C 0.0 **** 0.0
2 H 91.253 86.804 32.035 H 0.0 **** 0.0
3 H 91.988 86.795 30.414 H 0.0 **** 0.0
4 H 93.021 86.694 31.861 H 0.0 **** 0.0
5 H 92.18 88.214 31.472 H 0.0 **** 0.0
@<TRIPOS>BOND
1 1 2 1
2 1 3 1
3 1 4 1
4 1 5 1
@<TRIPOS>MOLECULE
CH4
5 4
SMALL
USER_CHARGES


@<TRIPOS>ATOM
1 C 90.495 52.884 75.569 C 0.0 **** 0.0
2 H 90.635 53.612 74.77 H 0.0 **** 0.0
3 H 90.613 53.377 76.534 H 0.0 **** 0.0
4 H 91.237 52.092 75.472 H 0.0 **** 0.0
5 H 89.495 52.456 75.499 H 0.0 **** 0.0
@<TRIPOS>BOND
1 1 2 1
2 1 3 1
3 1 4 1
4 1 5 1
@<TRIPOS>MOLECULE
CH4
5 4
SMALL
USER_CHARGES


@<TRIPOS>ATOM
1 C 14.109 21.037 32.015 C 0.0 **** 0.0
2 H 14.085 21.136 33.1 H 0.0 **** 0.0
3 H 13.826 21.985 31.557 H 0.0 **** 0.0
4 H 13.41 20.26 31.705 H 0.0 **** 0.0
5 H 15.117 20.767 31.697 H 0.0 **** 0.0
@<TRIPOS>BOND
1 1 2 1
2 1 3 1
3 1 4 1
4 1 5 1
@<TRIPOS>MOLECULE
CH4
5 4
SMALL
USER_CHARGES


@<TRIPOS>ATOM
1 C 32.12 36.526 84.973 C 0.0 **** 0.0
2 H 31.92 37.583 85.148 H 0.0 **** 0.0
3 H 31.614 35.93 85.733 H 0.0 **** 0.0
4 H 33.194 36.346 85.025 H 0.0 **** 0.0
5 H 31.752 36.246 83.986 H 0.0 **** 0.0
@<TRIPOS>BOND
1 1 2 1
2 1 3 1
3 1 4 1
4 1 5 1
@<TRIPOS>MOLECULE
CH4
5 4
SMALL
USER_CHARGES


@<TRIPOS>ATOM
1 C 75.342 19.089 81.684 C 0.0 **** 0.0
2 H 76.112 18.343 81.49 H 0.0 **** 0.0
3 H 75.274 19.27 82.757 H 0.0 **** 0.0
4 H 74.383 18.726 81.315 H 0.0 **** 0.0
5 H 75.6 20.017 81.174 H 0.0 **** 0.0
@<TRIPOS>BOND
1 1 2 1
2 1 3 1
3 1 4 1
4 1 5 1
@<TRIPOS>MOLECULE
CH4
5 4
SMALL
USER_CHARGES


@<TRIPOS>ATOM
1 C 17.859 71.215 82.052 C 0.0 **** 0.0
2 H 17.818 71.032 80.979 H 0.0 **** 0.0
3 H 16.866 71.484 82.413 H 0.0 **** 0.0
4 H 18.553 72.031 82.255 H 0.0 **** 0.0
5 H 18.199 70.313 82.561 H 0.0 **** 0.0
@<TRIPOS>BOND
1 1 2 1
2 1 3 1
3 1 4 1
4 1 5 1
@<TRIPOS>MOLECULE
CH4
5 4
SMALL
USER_CHARGES


@<TRIPOS>ATOM
1 C 44.843 82.307 26.751 C 0.0 **** 0.0
2 H 43.861 82.159 26.302 H 0.0 **** 0.0
3 H 44.923 83.331 27.118 H 0.0 **** 0.0
4 H 45.615 82.127 26.003 H 0.0 **** 0.0
5 H 44.971 81.612 27.581 H 0.0 **** 0.0
@<TRIPOS>BOND
1 1 2 1
2 1 3 1
3 1 4 1
4 1 5 1
@<TRIPOS>MOLECULE
CH4
5 4
SMALL
USER_CHARGES


@<TRIPOS>ATOM
1 C 62.445 7.389 96.216 C 0.0 **** 0.0
2 H 62.77 7.399 97.257 H 0.0 **** 0.0
3 H 61.606 6.703 96.104 H 0.0 **** 0.0
4 H 63.27 7.063 95.582 H 0.0 **** 0.0
5 H 62.136 8.393 95.923 H 0.0 **** 0.0
@<TRIPOS>BOND
1 1 2 1
2 1 3 1
3 1 4 1
4 1 5 1
@<TRIPOS>MOLECULE
CH4
5 4
SMALL
USER_CHARGES


@<TRIPOS>ATOM
1 C 28.607 87.833 30.664 C 0.0 **** 0.0
2 H 29.176 87.082 30.116 H 0.0 **** 0.0
3 H 27.762 88.161 30.058 H 0.0 **** 0.0
4 H 29.249 88.686 30.884 H 0.0 **** 0.0
5 H 28.241 87.403 31.596 H 0.0 **** 0.0
@<TRIPOS>BOND
1 1 2 1
2 1 3 1
3 1 4 1
4 1 5 1
@<TRIPOS>MOLECULE
CH4
5 4
SMALL
USER_CHARGES


@<TRIPOS>ATOM
1 C 8.351 33.81 12.124 C 0.0 **** 0.0
2 H 8.1 33.816 11.063 H 0.0 **** 0.0
3 H 8.466 32.78 12.464 H 0.0 **** 0.0
4 H 7.552 34.292 12.688 H 0.0 **** 0.0
5 H 9.284 34.351 12.28 H 0.0 **** 0.0
@<TRIPOS>BOND
1 1 2 1
2 1 3 1
3 1 4 1
4 1 5 1
@<TRIPOS>MOLECULE
CH4
5 4
SMALL
USER_CHARGES


@<TRIPOS>ATOM
1 C 75.552 54.955 41.999 C 0.0 **** 0.0
2 H 76.42 55.613 42.044 H 0.0 **** 0.0
3 H 74.901 55.155 42.851 H 0.0 **** 0.0
4 H 75.881 53.917 42.029 H 0.0 **** 0.0
5 H 75.006 55.137 41.074 H 0.0 **** 0.0
@<TRIPOS>BOND
1 1 2 1
2 1 3 1
3 1 4 1
4 1 5 1
@<TRIPOS>MOLECULE
CH4
5 4
SMALL
USER_CHARGES


@<TRIPOS>ATOM
1 C 82.123 22.333 31.904 C 0.0 **** 0.0
2 H 81.597 22.991 32.596 H 0.0 **** 0.0
3 H 82.787 22.926 31.274 H 0.0 **** 0.0
4 H 81.4 21.81 31.28 H 0.0 **** 0.0
5 H 82.709 21.607 32.468 H 0.0 **** 0.0
@<TRIPOS>BOND
1 1 2 1
2 1 3 1
3 1 4 1
4 1 5 1
@<TRIPOS>MOLECULE
CH4
5 4
SMALL
USER_CHARGES


@<TRIPOS>ATOM
1 C 71.422 26.5 1.007 C 0.0 **** 0.0
2 H 72.045 27.195 1.57 H 0.0 **** 0.0
3 H 70.525 26.268 1.582 H 0.0 **** 0.0
4 H 71.981 25.583 0.818 H 0.0 **** 0.0
5 H 71.138 26.954 0.057 H 0.0 **** 0.0
@<TRIPOS>BOND
1 1 2 1
2 1 3 1
3 1 4 1
4 1 5 1
@<TRIPOS>MOLECULE
CH4
5 4
SMALL
USER_CHARGES


@<TRIPOS>ATOM
1 C 66.143 92.997 55.173 C 0.0 **** 0.0
2 H 65.305 92.322 55.001 H 0.0 **** 0.0
3 H 67.063 92.419 55.261 H 0.0 **** 0.0
4 H 65.976 93.557 56.093 H 0.0 **** 0.0
5 H 66.228 93.69 54.336 H 0.0 **** 0.0
@<TRIPOS>BOND
1 1 5 1
2 1 2 1
3 1 3 1
4 1 4 1
@<TRIPOS>MOLECULE
CH4
5 4
SMALL
USER_CHARGES


@<TRIPOS>ATOM
1 C 47.371 92.291 45.065 C 0.0 **** 0.0
2 H 47.154 92.13 46.121 H 0.0 **** 0.0
3 H 48.1 93.095 44.962 H 0.0 **** 0.0
4 H 46.453 92.563 44.544 H 0.0 **** 0.0
5 H 47.775 91.375 44.634 H 0.0 **** 0.0
@<TRIPOS>BOND
1 1 2 1
2 1 3 1
3 1 4 1
4 1 5 1
@<TRIPOS>MOLECULE
CH4
5 4
SMALL
USER_CHARGES


@<TRIPOS>ATOM
1 C 76.538 26.248 41.961 C 0.0 **** 0.0
2 H 75.998 25.678 41.205 H 0.0 **** 0.0
3 H 75.871 26.992 42.4 H 0.0 **** 0.0
4 H 77.389 26.749 41.5 H 0.0 **** 0.0
5 H 76.892 25.573 42.74 H 0.0 **** 0.0
@<TRIPOS>BOND
1 1 2 1
2 1 3 1
3 1 4 1
4 1 5 1
@<TRIPOS>MOLECULE
CH4
5 4
SMALL
USER_CHARGES


@<TRIPOS>ATOM
1 C 67.069 82.224 43.995 C 0.0 **** 0.0
2 H 67.663 81.412 43.579 H 0.0 **** 0.0
3 H 67.732 82.996 44.388 H 0.0 **** 0.0
4 H 66.442 81.84 44.8 H 0.0 **** 0.0
5 H 66.438 82.65 43.215 H 0.0 **** 0.0
@<TRIPOS>BOND
1 1 2 1
2 1 3 1
3 1 4 1
4 1 5 1
@<TRIPOS>MOLECULE
CH4
5 4
SMALL
USER_CHARGES


@<TRIPOS>ATOM
1 C 82.83 35.113 43.597 C 0.0 **** 0.0
2 H 82.621 35.858 44.365 H 0.0 **** 0.0
3 H 82.607 34.119 43.985 H 0.0 **** 0.0
4 H 83.882 35.167 43.316 H 0.0 **** 0.0
5 H 82.21 35.309 42.722 H 0.0 **** 0.0
@<TRIPOS>BOND
1 1 2 1
2 1 3 1
3 1 4 1
4 1 5 1
@<TRIPOS>MOLECULE
CH4
5 4
SMALL
USER_CHARGES


@<TRIPOS>ATOM
1 C 30.733 36.514 18.968 C 0.0 **** 0.0
2 H 30.865 36.539 20.05 H 0.0 **** 0.0
3 H 31.482 35.856 18.527 H 0.0 **** 0.0
4 H 30.85 37.52 18.565 H 0.0 **** 0.0
5 H 29.737 36.141 18.732 H 0.0 **** 0.0
@<TRIPOS>BOND
1 1 2 1
2 1 3 1
3 1 4 1
4 1 5 1
@<TRIPOS>MOLECULE
CH4
5 4
SMALL
USER_CHARGES


@<TRIPOS>ATOM
1 C 22.509 25.688 33.456 C 0.0 **** 0.0
2 H 22.225 25.922 34.482 H 0.0 **** 0.0
3 H 21.846 26.213 32.767 H 0.0 **** 0.0
4 H 22.426 24.614 33.292 H 0.0 **** 0.0
5 H 23.537 26.005 33.282 H 0.0 **** 0.0
@<TRIPOS>BOND
1 1 2 1
2 1 3 1
3 1 4 1
4 1 5 1
@<TRIPOS>MOLECULE
CH4
5 4
SMALL
USER_CHARGES


@<TRIPOS>ATOM
1 C 78.133 62.644 93.497 C 0.0 **** 0.0
2 H 77.51 62.411 94.361 H 0.0 **** 0.0
3 H 77.831 63.606 93.081 H 0.0 **** 0.0
4 H 78.012 61.868 92.742 H 0.0 **** 0.0
5 H 79.177 62.693 93.804 H 0.0 **** 0.0
@<TRIPOS>BOND
1 1 2 1
2 1 3 1
3 1 4 1
4 1 5 1
@<TRIPOS>MOLECULE
CH4
5 4
SMALL
USER_CHARGES


@<TRIPOS>ATOM
1 C 15.8 14.544 71.417 C 0.0 **** 0.0
2 H 15.269 14.995 70.579 H 0.0 **** 0.0
3 H 16.604 15.208 71.737 H 0.0 **** 0.0
4 H 16.22 13.587 71.108 H 0.0 **** 0.0
5 H 15.107 14.387 72.244 H 0.0 **** 0.0
@<TRIPOS>BOND
1 1 2 1
2 1 3 1
3 1 4 1
4 1 5 1
@<TRIPOS>MOLECULE
CH4
5 4
SMALL
USER_CHARGES


@<TRIPOS>ATOM
1 C 55.649 63.354 74.024 C 0.0 **** 0.0
2 H 55.194 62.399 74.286 H 0.0 **** 0.0
3 H 56.675 63.38 74.392 H 0.0 **** 0.0
4 H 55.079 64.164 74.478 H 0.0 **** 0.0
5 H 55.648 63.471 72.941 H 0.0 **** 0.0
@<TRIPOS>BOND
1 1 2 1
2 1 3 1
3 1 4 1
4 1 5 1
@<TRIPOS>MOLECULE
CH4
5 4
SMALL
USER_CHARGES


@<TRIPOS>ATOM
1 C 62.866 2.991 92.886 C 0.0 **** 0.0
2 H 61.915 3.316 92.463 H 0.0 **** 0.0
3 H 63.325 3.819 93.425 H 0.0 **** 0.0
4 H 63.529 2.668 92.083 H 0.0 **** 0.0
5 H 62.694 2.161 93.571 H 0.0 **** 0.0
@<TRIPOS>BOND
1 1 2 1
2 1 3 1
3 1 4 1
4 1 5 1
@<TRIPOS>MOLECULE
CH4
5 4
SMALL
USER_CHARGES


@<TRIPOS>ATOM
1 C 60.964 20.983 79.998 C 0.0 **** 0.0
2 H 61.387 21.644 80.754 H 0.0 **** 0.0
3 H 60.596 20.074 80.474 H 0.0 **** 0.0
4 H 61.733 20.726 79.269 H 0.0 **** 0.0
5 H 60.14 21.488 79.494 H 0.0 **** 0.0
@<TRIPOS>BOND
1 1 2 1
2 1 3 1
3 1 4 1
4 1 5 1
@<TRIPOS>MOLECULE
CH4
5 4
SMALL
USER_CHARGES


@<TRIPOS>ATOM
1 C 39.778 83.532 98.079 C 0.0 **** 0.0
2 H 40.382 82.921 97.408 H 0.0 **** 0.0
3 H 39.588 82.981 99.0 H 0.0 **** 0.0
4 H 38.83 83.772 97.596 H 0.0 **** 0.0
5 H 40.312 84.454 98.31 H 0.0 **** 0.0
@<TRIPOS>BOND
1 1 2 1
2 1 3 1
3 1 4 1
4 1 5 1
@<TRIPOS>MOLECULE
CH4
5 4
SMALL
USER_CHARGES


@<TRIPOS>ATOM
1 C 73.805 12.373 24.701 C 0.0 **** 0.0
2 H 73.256 13.292 24.495 H 0.0 **** 0.0
3 H 74.475 12.156 23.869 H 0.0 **** 0.0
4 H 73.101 11.55 24.826 H 0.0 **** 0.0
5 H 74.387 12.495 25.615 H 0.0 **** 0.0
@<TRIPOS>BOND
1 1 2 1
2 1 3 1
3 1 4 1
4 1 5 1
@<TRIPOS>MOLECULE
CH4
5 4
SMALL
USER_CHARGES


@<TRIPOS>ATOM
1 C 55.634 7.068 69.459 C 0.0 **** 0.0
2 H 55.541 5.984 69.51 H 0.0 **** 0.0
3 H 54.765 7.53 69.928 H 0.0 **** 0.0
4 H 55.692 7.378 68.415 H 0.0 **** 0.0
5 H 56.539 7.38 69.981 H 0.0 **** 0.0
@<TRIPOS>BOND
1 1 2 1
2 1 3 1
3 1 4 1
4 1 5 1
@<TRIPOS>MOLECULE
CH4
5 4
SMALL
USER_CHARGES


@<TRIPOS>ATOM
1 C 22.888 65.82 70.704 C 0.0 **** 0.0
2 H 23.534 66.419 70.062 H 0.0 **** 0.0
3 H 23.497 65.276 71.426 H 0.0 **** 0.0
4 H 22.327 65.112 70.094 H 0.0 **** 0.0
5 H 22.194 66.474 71.232 H 0.0 **** 0.0
@<TRIPOS>BOND
1 1 2 1
2 1 3 1
3 1 4 1
4 1 5 1
@<TRIPOS>MOLECULE
CH4
5 4
SMALL
USER_CHARGES


@<TRIPOS>ATOM
1 C 44.937 90.695 55.346 C 0.0 **** 0.0
2 H 45.108 90.738 56.421 H 0.0 **** 0.0
3 H 44.309 89.835 55.112 H 0.0 **** 0.0
4 H 45.892 90.598 54.83 H 0.0 **** 0.0
5 H 44.439 91.608 55.02 H 0.0 **** 0.0
@<TRIPOS>BOND
1 1 2 1
2 1 3 1
3 1 4 1
4 1 5 1
@<TRIPOS>MOLECULE
CH4
5 4
SMALL
USER_CHARGES


@<TRIPOS>ATOM
1 C 76.033 50.39 38.115 C 0.0 **** 0.0
2 H 75.853 49.754 37.248 H 0.0 **** 0.0
3 H 77.083 50.324 38.401 H 0.0 **** 0.0
4 H 75.409 50.058 38.944 H 0.0 **** 0.0
5 H 75.788 51.422 37.865 H 0.0 **** 0.0
@<TRIPOS>BOND
1 1 2 1
2 1 3 1
3 1 4 1
4 1 5 1
@<TRIPOS>MOLECULE
CH4
5 4
SMALL
USER_CHARGES


@<TRIPOS>ATOM
1 C 37.194 7.189 77.341 C 0.0 **** 0.0
2 H 37.874 8.041 77.338 H 0.0 **** 0.0
3 H 36.173 7.539 77.189 H 0.0 **** 0.0
4 H 37.263 6.672 78.298 H 0.0 **** 0.0
5 H 37.467 6.504 76.538 H 0.0 **** 0.0
@<TRIPOS>BOND
1 1 2 1
2 1 3 1
3 1 4 1
4 1 5 1
@<TRIPOS>MOLECULE
CH4
5 4
SMALL
USER_CHARGES


@<TRIPOS>ATOM
1 C 88.248 61.697 74.049 C 0.0 **** 0.0
2 H 88.255 61.679 72.959 H 0.0 **** 0.0
3 H 87.861 60.749 74.425 H 0.0 **** 0.0
4 H 87.612 62.512 74.394 H 0.0 **** 0.0
5 H 89.263 61.847 74.417 H 0.0 **** 0.0
@<TRIPOS>BOND
1 1 2 1
2 1 3 1
3 1 4 1
4 1 5 1
@<TRIPOS>MOLECULE
CH4
5 4
SMALL
USER_CHARGES


@<TRIPOS>ATOM
1 C 25.701 71.332 61.131 C 0.0 **** 0.0
2 H 25.144 71.174 60.207 H 0.0 **** 0.0
3 H 26.627 70.758 61.099 H 0.0 **** 0.0
4 H 25.099 71.004 61.978 H 0.0 **** 0.0
5 H 25.933 72.392 61.238 H 0.0 **** 0.0
@<TRIPOS>BOND
1 1 2 1
2 1 3 1
3 1 4 1
4 1 5 1
@<TRIPOS>MOLECULE
CH4
5 4
SMALL
USER_CHARGES


@<TRIPOS>ATOM
1 C 91.301 72.652 54.926 C 0.0 **** 0.0
2 H 91.372 72.684 53.839 H 0.0 **** 0.0
3 H 91.318 71.614 55.26 H 0.0 **** 0.0
4 H 90.37 73.121 55.243 H 0.0 **** 0.0
5 H 92.145 73.188 55.362 H 0.0 **** 0.0
@<TRIPOS>BOND
1 1 2 1
2 1 3 1
3 1 4 1
4 1 5 1
@<TRIPOS>MOLECULE
CH4
5 4
SMALL
USER_CHARGES


@<TRIPOS>ATOM
1 C 53.402 67.794 39.725 C 0.0 **** 0.0
2 H 54.192 67.454 40.394 H 0.0 **** 0.0
3 H 53.067 66.961 39.106 H 0.0 **** 0.0
4 H 53.784 68.591 39.087 H 0.0 **** 0.0
5 H 52.565 68.17 40.314 H 0.0 **** 0.0
@<TRIPOS>BOND
1 1 2 1
2 1 3 1
3 1 4 1
4 1 5 1
@<TRIPOS>MOLECULE
CH4
5 4
SMALL
USER_CHARGES


@<TRIPOS>ATOM
1 C 90.016 79.726 79.595 C 0.0 **** 0.0
2 H 90.601 78.88 79.235 H 0.0 **** 0.0
3 H 88.958 79.542 79.407 H 0.0 **** 0.0
4 H 90.326 80.631 79.073 H 0.0 **** 0.0
5 H 90.178 79.851 80.666 H 0.0 **** 0.0
@<TRIPOS>BOND
1 1 2 1
2 1 3 1
3 1 4 1
4 1 5 1
@<TRIPOS>MOLECULE
CH4
5 4
SMALL
USER_CHARGES


@<TRIPOS>ATOM
1 C 66.451 24.07 32.597 C 0.0 **** 0.0
2 H 66.85 24.72 33.375 H 0.0 **** 0.0
3 H 65.361 24.102 32.621 H 0.0 **** 0.0
4 H 66.788 23.048 32.768 H 0.0 **** 0.0
5 H 66.803 24.411 31.623 H 0.0 **** 0.0
@<TRIPOS>BOND
1 1 2 1
2 1 3 1
3 1 4 1
4 1 5 1
@<TRIPOS>MOLECULE
CH4
5 4
SMALL
USER_CHARGES


@<TRIPOS>ATOM
1 C 60.095 62.664 44.38 C 0.0 **** 0.0
2 H 60.301 62.406 45.419 H 0.0 **** 0.0
3 H 59.679 61.797 43.866 H 0.0 **** 0.0
4 H 61.021 62.967 43.891 H 0.0 **** 0.0
5 H 59.38 63.485 44.345 H 0.0 **** 0.0
@<TRIPOS>BOND
1 1 2 1
2 1 3 1
3 1 4 1
4 1 5 1
@<TRIPOS>MOLECULE
CH4
5 4
SMALL
USER_CHARGES


@<TRIPOS>ATOM
1 C 89.098 1.994 51.033 C 0.0 **** 0.0
2 H 90.081 1.526 50.976 H 0.0 **** 0.0
3 H 88.491 1.475 51.775 H 0.0 **** 0.0
4 H 88.611 1.936 50.06 H 0.0 **** 0.0
5 H 89.21 3.039 51.322 H 0.0 **** 0.0
@<TRIPOS>BOND
1 1 2 1
2 1 3 1
3 1 4 1
4 1 5 1
@<TRIPOS>MOLECULE
CH4
5 4
SMALL
USER_CHARGES


@<TRIPOS>ATOM
1 C 44.168 18.498 7.713 C 0.0 **** 0.0
2 H 44.743 18.176 6.845 H 0.0 **** 0.0
3 H 43.169 18.062 7.669 H 0.0 **** 0.0
4 H 44.09 19.585 7.714 H 0.0 **** 0.0
5 H 44.669 18.169 8.624 H 0.0 **** 0.0
@<TRIPOS>BOND
1 1 2 1
2 1 3 1
3 1 4 1
4 1 5 1
@<TRIPOS>MOLECULE
CH4
5 4
SMALL
USER_CHARGES


@<TRIPOS>ATOM
1 C 90.092 70.074 34.004 C 0.0 **** 0.0
2 H 89.811 70.189 35.051 H 0.0 **** 0.0
3 H 89.346 69.464 33.493 H 0.0 **** 0.0
4 H 91.065 69.588 33.941 H 0.0 **** 0.0
5 H 90.144 71.056 33.533 H 0.0 **** 0.0
@<TRIPOS>BOND
1 1 2 1
2 1 3 1
3 1 4 1
4 1 5 1
@<TRIPOS>MOLECULE
CH4
5 4
SMALL
USER_CHARGES


@<TRIPOS>ATOM
1 C 39.06 32.459 72.582 C 0.0 **** 0.0
2 H 39.214 33.509 72.333 H 0.0 **** 0.0
3 H 39.33 31.839 71.727 H 0.0 **** 0.0
4 H 38.012 32.295 72.833 H 0.0 **** 0.0
5 H 39.683 32.193 73.436 H 0.0 **** 0.0
@<TRIPOS>BOND
1 1 2 1
2 1 3 1
3 1 4 1
4 1 5 1
@<TRIPOS>MOLECULE
CH4
5 4
SMALL
USER_CHARGES


@<TRIPOS>ATOM
1 C 66.624 57.782 66.696 C 0.0 **** 0.0
2 H 66.021 57.857 65.791 H 0.0 **** 0.0
3 H 65.969 57.754 67.568 H 0.0 **** 0.0
4 H 67.285 58.646 66.765 H 0.0 **** 0.0
5 H 67.22 56.87 66.66 H 0.0 **** 0.0
@<TRIPOS>BOND
1 1 2 1
2 1 3 1
3 1 4 1
4 1 5 1
@<TRIPOS>MOLECULE
CH4
5 4
SMALL
USER_CHARGES


@<TRIPOS>ATOM
1 C 70.842 17.909 68.714 C 0.0 **** 0.0
2 H 71.544 17.948 69.547 H 0.0 **** 0.0
3 H 70.863 16.915 68.267 H 0.0 **** 0.0
4 H 71.124 18.65 67.966 H 0.0 **** 0.0
5 H 69.837 18.124 69.077 H 0.0 **** 0.0
@<TRIPOS>BOND
1 1 2 1
2 1 3 1
3 1 4 1
4 1 5 1
@<TRIPOS>MOLECULE
CH4
5 4
SMALL
USER_CHARGES


@<TRIPOS>ATOM
1 C 75.117 45.857 40.584 C 0.0 **** 0.0
2 H 74.364 46.188 41.298 H 0.0 **** 0.0
3 H 75.848 45.229 41.093 H 0.0 **** 0.0
4 H 75.619 46.726 40.157 H 0.0 **** 0.0
5 H 74.638 45.287 39.789 H 0.0 **** 0.0
@<TRIPOS>BOND
1 1 2 1
2 1 3 1
3 1 4 1
4 1 5 1
@<TRIPOS>MOLECULE
CH4
5 4
SMALL
USER_CHARGES


@<TRIPOS>ATOM
1 C 53.771 95.198 90.722 C 0.0 **** 0.0
2 H 53.572 94.127 90.77 H 0.0 **** 0.0
3 H 53.89 95.498 89.68 H 0.0 **** 0.0
4 H 54.685 95.423 91.272 H 0.0 **** 0.0
5 H 52.937 95.743 91.164 H 0.0 **** 0.0
@<TRIPOS>BOND
1 1 2 1
2 1 3 1
3 1 4 1
4 1 5 1
@<TRIPOS>MOLECULE
CH4
5 4
SMALL
USER_CHARGES


@<TRIPOS>ATOM
1 C 52.881 10.172 85.457 C 0.0 **** 0.0
2 H 53.339 9.894 86.407 H 0.0 **** 0.0
3 H 52.094 9.459 85.212 H 0.0 **** 0.0
4 H 53.638 10.162 84.673 H 0.0 **** 0.0
5 H 52.454 11.171 85.538 H 0.0 **** 0.0
@<TRIPOS>BOND
1 1 3 1
2 1 4 1
3 1 5 1
4 1 2 1
@<TRIPOS>MOLECULE
CH4
5 4
SMALL
USER_CHARGES


@<TRIPOS>ATOM
1 C 2.804 21.779 33.585 C 0.0 **** 0.0
2 H 2.237 21.927 32.666 H 0.0 **** 0.0
3 H 3.819 22.154 33.449 H 0.0 **** 0.0
4 H 2.838 20.717 33.824 H 0.0 **** 0.0
5 H 2.322 22.32 34.399 H 0.0 **** 0.0
@<TRIPOS>BOND
1 1 2 1
2 1 3 1
3 1 4 1
4 1 5 1
@<TRIPOS>MOLECULE
CH4
5 4
SMALL
USER_CHARGES


@<TRIPOS>ATOM
1 C 52.428 19.514 30.015 C 0.0 **** 0.0
2 H 52.535 18.499 29.631 H 0.0 **** 0.0
3 H 51.717 20.063 29.397 H 0.0 **** 0.0
4 H 53.396 20.016 29.988 H 0.0 **** 0.0
5 H 52.066 19.477 31.042 H 0.0 **** 0.0
@<TRIPOS>BOND
1 1 2 1
2 1 3 1
3 1 4 1
4 1 5 1
@<TRIPOS>MOLECULE
CH4
5 4
SMALL
USER_CHARGES


@<TRIPOS>ATOM
1 C 40.762 23.437 52.985 C 0.0 **** 0.0
2 H 41.082 22.703 53.724 H 0.0 **** 0.0
3 H 40.036 24.113 53.437 H 0.0 **** 0.0
4 H 40.304 22.925 52.139 H 0.0 **** 0.0
5 H 41.625 24.007 52.642 H 0.0 **** 0.0
@<TRIPOS>BOND
1 1 2 1
2 1 3 1
3 1 4 1
4 1 5 1
@<TRIPOS>MOLECULE
CH4
5 4
SMALL
USER_CHARGES


@<TRIPOS>ATOM
1 C 10.821 14.607 79.982 C 0.0 **** 0.0
2 H 10.798 15.681 79.797 H 0.0 **** 0.0
3 H 11.024 14.425 81.038 H 0.0 **** 0.0
4 H 11.605 14.151 79.378 H 0.0 **** 0.0
5 H 9.858 14.172 79.717 H 0.0 **** 0.0
@<TRIPOS>BOND
1 1 2 1
2 1 3 1
3 1 4 1
4 1 5 1
@<TRIPOS>MOLECULE
CH4
5 4
SMALL
USER_CHARGES


@<TRIPOS>ATOM
1 C 89.143 29.29 86.906 C 0.0 **** 0.0
2 H 89.528 28.619 87.673 H 0.0 **** 0.0
3 H 89.186 28.794 85.936 H 0.0 **** 0.0
4 H 89.748 30.196 86.878 H 0.0 **** 0.0
5 H 88.11 29.549 87.136 H 0.0 **** 0.0
@<TRIPOS>BOND
1 1 3 1
2 1 4 1
3 1 5 1
4 1 2 1
@<TRIPOS>MOLECULE
CH4
5 4
SMALL
USER_CHARGES


@<TRIPOS>ATOM
1 C 73.347 48.219 97.174 C 0.0 **** 0.0
2 H 73.427 48.84 98.066 H 0.0 **** 0.0
3 H 74.342 48.048 96.761 H 0.0 **** 0.0
4 H 72.728 48.724 96.433 H 0.0 **** 0.0
5 H 72.894 47.263 97.436 H 0.0 **** 0.0
@<TRIPOS>BOND
1 1 2 1
2 1 3 1
3 1 4 1
4 1 5 1
@<TRIPOS>MOLECULE
CH4
5 4
SMALL
USER_CHARGES


@<TRIPOS>ATOM
1 C 67.487 36.701 64.819 C 0.0 **** 0.0
2 H 68.317 36.438 64.163 H 0.0 **** 0.0
3 H 67.26 35.858 65.472 H 0.0 **** 0.0
4 H 66.611 36.941 64.217 H 0.0 **** 0.0
5 H 67.761 37.565 65.423 H 0.0 **** 0.0
@<TRIPOS>BOND
1 1 2 1
2 1 3 1
3 1 4 1
4 1 5 1
@<TRIPOS>MOLECULE
CH4
5 4
SMALL
USER_CHARGES


@<TRIPOS>ATOM
1 C 22.428 66.836 85.782 C 0.0 **** 0.0
2 H 22.924 66.402 86.651 H 0.0 **** 0.0
3 H 22.704 67.887 85.693 H 0.0 **** 0.0
4 H 21.348 66.752 85.902 H 0.0 **** 0.0
5 H 22.736 66.301 84.884 H 0.0 **** 0.0
@<TRIPOS>BOND
1 1 2 1
2 1 3 1
3 1 4 1
4 1 5 1
@<TRIPOS>MOLECULE
CH4
5 4
SMALL
USER_CHARGES


@<TRIPOS>ATOM
1 C 59.46 17.428 16.499 C 0.0 **** 0.0
2 H 59.481 17.476 15.411 H 0.0 **** 0.0
3 H 60.464 17.223 16.873 H 0.0 **** 0.0
4 H 58.785 16.633 16.815 H 0.0 **** 0.0
5 H 59.111 18.381 16.898 H 0.0 **** 0.0
@<TRIPOS>BOND
1 1 2 1
2 1 3 1
3 1 4 1
4 1 5 1
@<TRIPOS>MOLECULE
CH4
5 4
SMALL
USER_CHARGES


@<TRIPOS>ATOM
1 C 72.249 61.054 35.072 C 0.0 **** 0.0
2 H 72.437 59.982 35.14 H 0.0 **** 0.0
3 H 71.295 61.285 35.547 H 0.0 **** 0.0
4 H 72.216 61.352 34.024 H 0.0 **** 0.0
5 H 73.048 61.596 35.579 H 0.0 **** 0.0
@<TRIPOS>BOND
1 1 2 1
2 1 3 1
3 1 4 1
4 1 5 1
@<TRIPOS>MOLECULE
CH4
5 4
SMALL
USER_CHARGES


@<TRIPOS>ATOM
1 C 27.875 9.41 39.069 C 0.0 **** 0.0
2 H 27.799 9.516 37.987 H 0.0 **** 0.0
3 H 28.924 9.443 39.365 H 0.0 **** 0.0
4 H 27.442 8.456 39.371 H 0.0 **** 0.0
5 H 27.335 10.223 39.553 H 0.0 **** 0.0
@<TRIPOS>BOND
1 1 2 1
2 1 3 1
3 1 4 1
4 1 5 1
@<TRIPOS>MOLECULE
CH4
5 4
SMALL
USER_CHARGES


@<TRIPOS>ATOM
1 C 30.67 25.472 51.016 C 0.0 **** 0.0
2 H 30.146 24.518 51.078 H 0.0 **** 0.0
3 H 30.969 25.787 52.016 H 0.0 **** 0.0
4 H 30.009 26.222 50.581 H 0.0 **** 0.0
5 H 31.555 25.36 50.39 H 0.0 **** 0.0
@<TRIPOS>BOND
1 1 2 1
2 1 3 1
3 1 4 1
4 1 5 1
@<TRIPOS>MOLECULE
CH4
5 4
SMALL
USER_CHARGES


@<TRIPOS>ATOM
1 C 38.963 67.852 7.722 C 0.0 **** 0.0
2 H 38.241 68.277 7.025 H 0.0 **** 0.0
3 H 39.907 68.391 7.642 H 0.0 **** 0.0
4 H 39.123 66.801 7.483 H 0.0 **** 0.0
5 H 38.58 67.939 8.739 H 0.0 **** 0.0
@<TRIPOS>BOND
1 1 2 1
2 1 3 1
3 1 4 1
4 1 5 1
@<TRIPOS>MOLECULE
CH4
5 4
SMALL
USER_CHARGES


@<TRIPOS>ATOM
1 C 85.726 25.796 15.739 C 0.0 **** 0.0
2 H 84.938 25.91 16.484 H 0.0 **** 0.0
3 H 85.337 25.245 14.881 H 0.0 **** 0.0
4 H 86.561 25.248 16.175 H 0.0 **** 0.0
5 H 86.065 26.78 15.416 H 0.0 **** 0.0
@<TRIPOS>BOND
1 1 2 1
2 1 3 1
3 1 4 1
4 1 5 1
@<TRIPOS>MOLECULE
CH4
5 4
SMALL
USER_CHARGES


@<TRIPOS>ATOM
1 C 94.729 24.047 59.445 C 0.0 **** 0.0
2 H 94.439 24.196 60.485 H 0.0 **** 0.0
3 H 95.759 24.376 59.304 H 0.0 **** 0.0
4 H 94.07 24.628 58.798 H 0.0 **** 0.0
5 H 94.646 22.99 59.192 H 0.0 **** 0.0
@<TRIPOS>BOND
1 1 2 1
2 1 3 1
3 1 4 1
4 1 5 1
@<TRIPOS>MOLECULE
CH4
5 4
SMALL
USER_CHARGES


@<TRIPOS>ATOM
1 C 74.648 13.646 48.89 C 0.0 **** 0.0
2 H 74.58 13.736 47.805 H 0.0 **** 0.0
3 H 73.728 14.014 49.343 H 0.0 **** 0.0
4 H 75.492 14.233 49.251 H 0.0 **** 0.0
5 H 74.793 12.599 49.158 H 0.0 **** 0.0
@<TRIPOS>BOND
1 1 2 1
2 1 3 1
3 1 4 1
4 1 5 1
@<TRIPOS>MOLECULE
CH4
5 4
SMALL
USER_CHARGES


@<TRIPOS>ATOM
1 C 24.667 76.039 18.581 C 0.0 **** 0.0
2 H 24.135 75.577 17.75 H 0.0 **** 0.0
3 H 25.737 75.858 18.473 H 0.0 **** 0.0
4 H 24.319 75.609 19.52 H 0.0 **** 0.0
5 H 24.478 77.113 18.582 H 0.0 **** 0.0
@<TRIPOS>BOND
1 1 2 1
2 1 3 1
3 1 4 1
4 1 5 1
@<TRIPOS>MOLECULE
CH4
5 4
SMALL
USER_CHARGES


@<TRIPOS>ATOM
1 C 31.648 97.905 10.318 C 0.0 **** 0.0
2 H 32.057 98.012 9.313 H 0.0 **** 0.0
3 H 32.036 98.7 10.955 H 0.0 **** 0.0
4 H 31.937 96.937 10.727 H 0.0 **** 0.0
5 H 30.56 97.972 10.275 H 0.0 **** 0.0
@<TRIPOS>BOND
1 1 2 1
2 1 3 1
3 1 4 1
4 1 5 1
@<TRIPOS>MOLECULE
CH4
5 4
SMALL
USER_CHARGES


@<TRIPOS>ATOM
1 C 53.564 12.06 49.849 C 0.0 **** 0.0
2 H 53.086 13.004 49.587 H 0.0 **** 0.0
3 H 52.992 11.234 49.425 H 0.0 **** 0.0
4 H 53.6 11.959 50.933 H 0.0 **** 0.0
5 H 54.578 12.043 49.448 H 0.0 **** 0.0
@<TRIPOS>BOND
1 1 2 1
2 1 3 1
3 1 4 1
4 1 5 1
@<TRIPOS>MOLECULE
CH4
5 4
SMALL
USER_CHARGES


@<TRIPOS>ATOM
1 C 35.079 31.78 45.779 C 0.0 **** 0.0
2 H 34.267 32.5 45.882 H 0.0 **** 0.0
3 H 34.831 31.061 44.999 H 0.0 **** 0.0
4 H 35.222 31.257 46.725 H 0.0 **** 0.0
5 H 35.997 32.305 45.512 H 0.0 **** 0.0
@<TRIPOS>BOND
1 1 2 1
2 1 3 1
3 1 4 1
4 1 5 1
@<TRIPOS>MOLECULE
CH4
5 4
SMALL
USER_CHARGES


@<TRIPOS>ATOM
1 C 25.325 31.259 6.36 C 0.0 **** 0.0
2 H 24.563 31.912 6.786 H 0.0 **** 0.0
3 H 26.313 31.619 6.65 H 0.0 **** 0.0
4 H 25.241 31.262 5.274 H 0.0 **** 0.0
5 H 25.184 30.245 6.733 H 0.0 **** 0.0
@<TRIPOS>BOND
1 1 2 1
2 1 3 1
3 1 4 1
4 1 5 1
@<TRIPOS>MOLECULE
CH4
5 4
SMALL
USER_CHARGES


@<TRIPOS>ATOM
1 C 95.168 51.621 76.674 C 0.0 **** 0.0
2 H 95.193 51.737 77.758 H 0.0 **** 0.0
3 H 96.152 51.314 76.319 H 0.0 **** 0.0
4 H 94.894 52.57 76.214 H 0.0 **** 0.0
5 H 94.432 50.862 76.408 H 0.0 **** 0.0
@<TRIPOS>BOND
1 1 2 1
2 1 3 1
3 1 4 1
4 1 5 1
@<TRIPOS>MOLECULE
CH4
5 4
SMALL
USER_CHARGES


@<TRIPOS>ATOM
1 C 40.679 89.672 44.659 C 0.0 **** 0.0
2 H 39.951 90.481 44.709 H 0.0 **** 0.0
3 H 40.237 88.817 44.147 H 0.0 **** 0.0
4 H 40.969 89.381 45.669 H 0.0 **** 0.0
5 H 41.559 90.009 44.112 H 0.0 **** 0.0
@<TRIPOS>BOND
1 1 2 1
2 1 3 1
3 1 4 1
4 1 5 1
@<TRIPOS>MOLECULE
CH4
5 4
SMALL
USER_CHARGES


@<TRIPOS>ATOM
1 C 3.269 64.288 37.154 C 0.0 **** 0.0
2 H 3.289 64.316 38.244 H 0.0 **** 0.0
3 H 4.29 64.319 36.772 H 0.0 **** 0.0
4 H 2.714 65.148 36.779 H 0.0 **** 0.0
5 H 2.784 63.37 36.823 H 0.0 **** 0.0
@<TRIPOS>BOND
1 1 2 1
2 1 3 1
3 1 4 1
4 1 5 1
@<TRIPOS>MOLECULE
CH4
5 4
SMALL
USER_CHARGES


@<TRIPOS>ATOM
1 C 70.571 69.522 30.786 C 0.0 **** 0.0
2 H 70.637 69.488 29.699 H 0.0 **** 0.0
3 H 69.595 69.909 31.08 H 0.0 **** 0.0
4 H 71.353 70.173 31.177 H 0.0 **** 0.0
5 H 70.7 68.517 31.189 H 0.0 **** 0.0
@<TRIPOS>BOND
1 1 2 1
2 1 3 1
3 1 4 1
4 1 5 1
@<TRIPOS>MOLECULE
CH4
5 4
SMALL
USER_CHARGES


@<TRIPOS>ATOM
1 C 69.76 63.957 18.565 C 0.0 **** 0.0
2 H 69.71 64.347 19.581 H 0.0 **** 0.0
3 H 70.751 64.148 18.151 H 0.0 **** 0.0
4 H 69.008 64.451 17.949 H 0.0 **** 0.0
5 H 69.572 62.884 18.577 H 0.0 **** 0.0
@<TRIPOS>BOND
1 1 2 1
2 1 3 1
3 1 4 1
4 1 5 1
@<TRIPOS>MOLECULE
CH4
5 4
SMALL
USER_CHARGES


@<TRIPOS>ATOM
1 C 28.053 15.301 93.698 C 0.0 **** 0.0
2 H 28.672 14.404 93.681 H 0.0 **** 0.0
3 H 27.184 15.13 94.333 H 0.0 **** 0.0
4 H 27.724 15.534 92.686 H 0.0 **** 0.0
5 H 28.634 16.135 94.093 H 0.0 **** 0.0
@<TRIPOS>BOND
1 1 2 1
2 1 3 1
3 1 4 1
4 1 5 1
@<TRIPOS>MOLECULE
CH4
5 4
SMALL
USER_CHARGES


@<TRIPOS>ATOM
1 C 89.499 18.955 6.583 C 0.0 **** 0.0
2 H 90.284 19.554 6.122 H 0.0 **** 0.0
3 H 89.777 18.72 7.611 H 0.0 **** 0.0
4 H 89.371 18.03 6.02 H 0.0 **** 0.0
5 H 88.564 19.516 6.579 H 0.0 **** 0.0
@<TRIPOS>BOND
1 1 2 1
2 1 3 1
3 1 4 1
4 1 5 1
@<TRIPOS>MOLECULE
CH4
5 4
SMALL
USER_CHARGES


@<TRIPOS>ATOM
1 C 44.632 35.322 18.698 C 0.0 **** 0.0
2 H 44.517 35.364 17.615 H 0.0 **** 0.0
3 H 45.654 35.036 18.944 H 0.0 **** 0.0
4 H 43.94 34.586 19.108 H 0.0 **** 0.0
5 H 44.415 36.302 19.125 H 0.0 **** 0.0
@<TRIPOS>BOND
1 1 2 1
2 1 3 1
3 1 4 1
4 1 5 1
@<TRIPOS>MOLECULE
CH4
5 4
SMALL
USER_CHARGES


@<TRIPOS>ATOM
1 C 33.62 61.677 16.984 C 0.0 **** 0.0
2 H 33.562 61.837 18.061 H 0.0 **** 0.0
3 H 34.223 62.465 16.533 H 0.0 **** 0.0
4 H 32.616 61.699 16.56 H 0.0 **** 0.0
5 H 34.078 60.708 16.785 H 0.0 **** 0.0
@<TRIPOS>BOND
1 1 2 1
2 1 3 1
3 1 4 1
4 1 5 1
@<TRIPOS>MOLECULE
CH4
5 4
SMALL
USER_CHARGES


@<TRIPOS>ATOM
1 C 34.768 86.453 77.16 C 0.0 **** 0.0
2 H 33.982 86.855 77.799 H 0.0 **** 0.0
3 H 35.176 85.548 77.612 H 0.0 **** 0.0
4 H 35.56 87.193 77.049 H 0.0 **** 0.0
5 H 34.353 86.215 76.181 H 0.0 **** 0.0
@<TRIPOS>BOND
1 1 2 1
2 1 3 1
3 1 4 1
4 1 5 1
@<TRIPOS>MOLECULE
CH4
5 4
SMALL
USER_CHARGES


@<TRIPOS>ATOM
1 C 49.143 55.705 9.852 C 0.0 **** 0.0
2 H 50.053 55.761 9.255 H 0.0 **** 0.0
3 H 49.361 55.218 10.803 H 0.0 **** 0.0
4 H 48.389 55.131 9.313 H 0.0 **** 0.0
5 H 48.768 56.712 10.038 H 0.0 **** 0.0
@<TRIPOS>BOND
1 1 2 1
2 1 3 1
3 1 4 1
4 1 5 1
@<TRIPOS>MOLECULE
CH4
5 4
SMALL
USER_CHARGES


@<TRIPOS>ATOM
1 C 63.745 11.63 17.525 C 0.0 **** 0.0
2 H 62.767 11.225 17.786 H 0.0 **** 0.0
3 H 64.498 11.225 18.201 H 0.0 **** 0.0
4 H 63.723 12.716 17.612 H 0.0 **** 0.0
5 H 63.99 11.353 16.5 H 0.0 **** 0.0
@<TRIPOS>BOND
1 1 2 1
2 1 3 1
3 1 4 1
4 1 5 1
@<TRIPOS>MOLECULE
CH4
5 4
SMALL
USER_CHARGES


@<TRIPOS>ATOM
1 C 77.788 52.855 27.886 C 0.0 **** 0.0
2 H 78.095 53.008 26.852 H 0.0 **** 0.0
3 H 77.037 53.598 28.156 H 0.0 **** 0.0
4 H 78.653 52.959 28.541 H 0.0 **** 0.0
5 H 77.367 51.856 27.996 H 0.0 **** 0.0
@<TRIPOS>BOND
1 1 2 1
2 1 3 1
3 1 4 1
4 1 5 1
@<TRIPOS>MOLECULE
CH4
5 4
SMALL
USER_CHARGES


@<TRIPOS>ATOM
1 C 77.355 50.934 59.915 C 0.0 **** 0.0
2 H 76.495 50.277 59.78 H 0.0 **** 0.0
3 H 78.213 50.346 60.242 H 0.0 **** 0.0
4 H 77.122 51.688 60.666 H 0.0 **** 0.0
5 H 77.588 51.423 58.969 H 0.0 **** 0.0
@<TRIPOS>BOND
1 1 2 1
2 1 3 1
3 1 4 1
4 1 5 1
@<TRIPOS>MOLECULE
CH4
5 4
SMALL
USER_CHARGES


@<TRIPOS>ATOM
1 C 23.374 22.517 22.319 C 0.0 **** 0.0
2 H 24.249 22.75 21.711 H 0.0 **** 0.0
3 H 23.633 21.749 23.047 H 0.0 **** 0.0
4 H 22.572 22.155 21.676 H 0.0 **** 0.0
5 H 23.044 23.416 22.84 H 0.0 **** 0.0
@<TRIPOS>BOND
1 1 2 1
2 1 3 1
3 1 4 1
4 1 5 1
@<TRIPOS>MOLECULE
CH4
5 4
SMALL
USER_CHARGES


@<TRIPOS>ATOM
1 C 57.786 87.276 93.305 C 0.0 **** 0.0
2 H 57.852 87.324 92.218 H 0.0 **** 0.0
3 H 58.165 86.314 93.649 H 0.0 **** 0.0
4 H 56.746 87.388 93.611 H 0.0 **** 0.0
5 H 58.382 88.078 93.74 H 0.0 **** 0.0
@<TRIPOS>BOND
1 1 2 1
2 1 3 1
3 1 4 1
4 1 5 1
@<TRIPOS>MOLECULE
CH4
5 4
SMALL
USER_CHARGES


@<TRIPOS>ATOM
1 C 24.771 90.352 30.686 C 0.0 **** 0.0
2 H 24.533 90.565 31.728 H 0.0 **** 0.0
3 H 24.601 89.295 30.483 H 0.0 **** 0.0
4 H 25.817 90.595 30.496 H 0.0 **** 0.0
5 H 24.135 90.954 30.038 H 0.0 **** 0.0
@<TRIPOS>BOND
1 1 2 1
2 1 3 1
3 1 4 1
4 1 5 1
@<TRIPOS>MOLECULE
CH4
5 4
SMALL
USER_CHARGES


@<TRIPOS>ATOM
1 C 1.88 70.064 52.125 C 0.0 **** 0.0
2 H 1.097 69.436 52.551 H 0.0 **** 0.0
3 H 2.642 70.257 52.881 H 0.0 **** 0.0
4 H 1.448 71.008 51.794 H 0.0 **** 0.0
5 H 2.332 69.553 51.275 H 0.0 **** 0.0
@<TRIPOS>BOND
1 1 2 1
2 1 3 1
3 1 4 1
4 1 5 1
@<TRIPOS>MOLECULE
CH4
5 4
SMALL
USER_CHARGES


@<TRIPOS>ATOM
1 C 51.9 71.867 65.683 C 0.0 **** 0.0
2 H 51.917 72.84 66.174 H 0.0 **** 0.0
3 H 50.889 71.652 65.338 H 0.0 **** 0.0
4 H 52.216 71.098 66.388 H 0.0 **** 0.0
5 H 52.58 71.88 64.83 H 0.0 **** 0.0
@<TRIPOS>BOND
1 1 2 1
2 1 3 1
3 1 4 1
4 1 5 1
@<TRIPOS>MOLECULE
CH4
5 4
SMALL
USER_CHARGES


@<TRIPOS>ATOM
1 C 24.403 32.854 75.617 C 0.0 **** 0.0
2 H 25.137 32.049 75.611 H 0.0 **** 0.0
3 H 24.703 33.614 76.339 H 0.0 **** 0.0
4 H 23.428 32.453 75.895 H 0.0 **** 0.0
5 H 24.343 33.299 74.624 H 0.0 **** 0.0
@<TRIPOS>BOND
1 1 2 1
2 1 3 1
3 1 4 1
4 1 5 1
@<TRIPOS>MOLECULE
CH4
5 4
SMALL
USER_CHARGES


@<TRIPOS>ATOM
1 C 38.577 75.689 59.562 C 0.0 **** 0.0
2 H 38.298 74.788 59.015 H 0.0 **** 0.0
3 H 38.375 76.565 58.945 H 0.0 **** 0.0
4 H 39.639 75.652 59.805 H 0.0 **** 0.0
5 H 37.995 75.75 60.482 H 0.0 **** 0.0
@<TRIPOS>BOND
1 1 2 1
2 1 3 1
3 1 4 1
4 1 5 1
@<TRIPOS>MOLECULE
CH4
5 4
SMALL
USER_CHARGES


@<TRIPOS>ATOM
1 C 50.033 42.654 41.751 C 0.0 **** 0.0
2 H 49.676 43.093 42.683 H 0.0 **** 0.0
3 H 49.617 41.653 41.639 H 0.0 **** 0.0
4 H 51.121 42.596 41.771 H 0.0 **** 0.0
5 H 49.718 43.276 40.913 H 0.0 **** 0.0
@<TRIPOS>BOND
1 1 2 1
2 1 3 1
3 1 4 1
4 1 5 1
@<TRIPOS>MOLECULE
CH4
5 4
SMALL
USER_CHARGES


@<TRIPOS>ATOM
1 C 30.004 60.996 83.267 C 0.0 **** 0.0
2 H 29.165 60.485 83.74 H 0.0 **** 0.0
3 H 30.74 60.261 82.942 H 0.0 **** 0.0
4 H 30.463 61.679 83.983 H 0.0 **** 0.0
5 H 29.647 61.559 82.405 H 0.0 **** 0.0
@<TRIPOS>BOND
1 1 2 1
2 1 3 1
3 1 4 1
4 1 5 1
@<TRIPOS>MOLECULE
CH4
5 4
SMALL
USER_CHARGES


@<TRIPOS>ATOM
1 C 93.228 74.02 49.732 C 0.0 **** 0.0
2 H 93.585 74.993 49.396 H 0.0 **** 0.0
3 H 93.027 74.056 50.803 H 0.0 **** 0.0
4 H 93.987 73.265 49.529 H 0.0 **** 0.0
5 H 92.311 73.766 49.199 H 0.0 **** 0.0
@<TRIPOS>BOND
1 1 2 1
2 1 3 1
3 1 4 1
4 1 5 1
@<TRIPOS>MOLECULE
CH4
5 4
SMALL
USER_CHARGES


@<TRIPOS>ATOM
1 C 42.973 47.35 92.456 C 0.0 **** 0.0
2 H 43.729 47.182 91.689 H 0.0 **** 0.0
3 H 42.14 47.908 92.027 H 0.0 **** 0.0
4 H 43.408 47.92 93.277 H 0.0 **** 0.0
5 H 42.614 46.391 92.829 H 0.0 **** 0.0
@<TRIPOS>BOND
1 1 2 1
2 1 3 1
3 1 4 1
4 1 5 1
@<TRIPOS>MOLECULE
CH4
5 4
SMALL
USER_CHARGES


@<TRIPOS>ATOM
1 C 82.761 55.794 78.962 C 0.0 **** 0.0
2 H 82.482 56.277 78.026 H 0.0 **** 0.0
3 H 81.88 55.335 79.411 H 0.0 **** 0.0
4 H 83.172 56.537 79.646 H 0.0 **** 0.0
5 H 83.511 55.028 78.765 H 0.0 **** 0.0
@<TRIPOS>BOND
1 1 2 1
2 1 3 1
3 1 4 1
4 1 5 1
@<TRIPOS>MOLECULE
CH4
5 4
SMALL
USER_CHARGES


@<TRIPOS>ATOM
1 C 79.801 4.808 80.612 C 0.0 **** 0.0
2 H 80.314 5.766 80.522 H 0.0 **** 0.0
3 H 78.732 4.952 80.452 H 0.0 **** 0.0
4 H 79.968 4.4 81.609 H 0.0 **** 0.0
5 H 80.191 4.116 79.865 H 0.0 **** 0.0
@<TRIPOS>BOND
1 1 2 1
2 1 3 1
3 1 4 1
4 1 5 1
@<TRIPOS>MOLECULE
CH4
5 4
SMALL
USER_CHARGES


@<TRIPOS>ATOM
1 C 68.866 55.948 55.733 C 0.0 **** 0.0
2 H 68.521 56.558 56.567 H 0.0 **** 0.0
3 H 68.02 55.416 55.297 H 0.0 **** 0.0
4 H 69.603 55.228 56.091 H 0.0 **** 0.0
5 H 69.322 56.588 54.978 H 0.0 **** 0.0
@<TRIPOS>BOND
1 1 2 1
2 1 3 1
3 1 4 1
4 1 5 1
@<TRIPOS>MOLECULE
CH4
5 4
SMALL
USER_CHARGES


@<TRIPOS>ATOM
1 C 77.65 85.535 11.065 C 0.0 **** 0.0
2 H 77.019 84.671 11.276 H 0.0 **** 0.0
3 H 77.437 86.324 11.786 H 0.0 **** 0.0
4 H 77.444 85.897 10.058 H 0.0 **** 0.0
5 H 78.698 85.246 11.141 H 0.0 **** 0.0
@<TRIPOS>BOND
1 1 2 1
2 1 3 1
3 1 4 1
4 1 5 1
@<TRIPOS>MOLECULE
CH4
5 4
SMALL
USER_CHARGES


@<TRIPOS>ATOM
1 C 45.117 30.602 97.664 C 0.0 **** 0.0
2 H 45.249 30.868 98.713 H 0.0 **** 0.0
3 H 44.685 29.603 97.595 H 0.0 **** 0.0
4 H 46.084 30.616 97.162 H 0.0 **** 0.0
5 H 44.449 31.321 97.189 H 0.0 **** 0.0
@<TRIPOS>BOND
1 1 2 1
2 1 3 1
3 1 4 1
4 1 5 1
@<TRIPOS>MOLECULE
CH4
5 4
SMALL
USER_CHARGES


@<TRIPOS>ATOM
1 C 25.357 39.468 45.623 C 0.0 **** 0.0
2 H 25.908 40.107 44.934 H 0.0 **** 0.0
3 H 24.889 40.082 46.393 H 0.0 **** 0.0
4 H 26.042 38.76 46.089 H 0.0 **** 0.0
5 H 24.588 38.922 45.076 H 0.0 **** 0.0
@<TRIPOS>BOND
1 1 2 1
2 1 3 1
3 1 4 1
4 1 5 1
@<TRIPOS>MOLECULE
CH4
5 4
SMALL
USER_CHARGES


@<TRIPOS>ATOM
1 C 48.573 84.532 9.007 C 0.0 **** 0.0
2 H 47.93 83.682 8.776 H 0.0 **** 0.0
3 H 49.58 84.335 8.64 H 0.0 **** 0.0
4 H 48.602 84.682 10.086 H 0.0 **** 0.0
5 H 48.178 85.427 8.526 H 0.0 **** 0.0
@<TRIPOS>BOND
1 1 2 1
2 1 3 1
3 1 4 1
4 1 5 1
@<TRIPOS>MOLECULE
CH4
5 4
SMALL
USER_CHARGES


@<TRIPOS>ATOM
1 C 92.856 37.673 45.949 C 0.0 **** 0.0
2 H 93.395 36.727 45.891 H 0.0 **** 0.0
3 H 93.562 38.482 46.138 H 0.0 **** 0.0
4 H 92.129 37.627 46.76 H 0.0 **** 0.0
5 H 92.338 37.854 45.007 H 0.0 **** 0.0
@<TRIPOS>BOND
1 1 2 1
2 1 3 1
3 1 4 1
4 1 5 1
@<TRIPOS>MOLECULE
CH4
5 4
SMALL
USER_CHARGES


@<TRIPOS>ATOM
1 C 21.87 97.738 95.802 C 0.0 **** 0.0
2 H 21.74 98.18 96.79 H 0.0 **** 0.0
3 H 21.943 98.529 95.056 H 0.0 **** 0.0
4 H 21.016 97.1 95.575 H 0.0 **** 0.0
5 H 22.782 97.141 95.79 H 0.0 **** 0.0
@<TRIPOS>BOND
1 1 2 1
2 1 3 1
3 1 4 1
4 1 5 1
@<TRIPOS>MOLECULE
CH4
5 4
SMALL
USER_CHARGES


@<TRIPOS>ATOM
1 C 46.074 42.445 48.792 C 0.0 **** 0.0
2 H 46.504 43.22 48.157 H 0.0 **** 0.0
3 H 45.034 42.279 48.508 H 0.0 **** 0.0
4 H 46.121 42.761 49.834 H 0.0 **** 0.0
5 H 46.637 41.52 48.667 H 0.0 **** 0.0
@<TRIPOS>BOND
1 1 2 1
2 1 3 1
3 1 4 1
4 1 5 1
@<TRIPOS>MOLECULE
CH4
5 4
SMALL
USER_CHARGES


@<TRIPOS>ATOM
1 C 35.479 73.313 65.896 C 0.0 **** 0.0
2 H 34.722 74.055 66.15 H 0.0 **** 0.0
3 H 36.033 73.646 65.018 H 0.0 **** 0.0
4 H 34.996 72.36 65.683 H 0.0 **** 0.0
5 H 36.165 73.194 66.735 H 0.0 **** 0.0
@<TRIPOS>BOND
1 1 2 1
2 1 3 1
3 1 4 1
4 1 5 1
@<TRIPOS>MOLECULE
CH4
5 4
SMALL
USER_CHARGES


@<TRIPOS>ATOM
1 C 49.092 59.995 96.187 C 0.0 **** 0.0
2 H 49.202 59.504 95.22 H 0.0 **** 0.0
3 H 49.964 59.781 96.804 H 0.0 **** 0.0
4 H 48.195 59.622 96.683 H 0.0 **** 0.0
5 H 49.005 61.071 96.04 H 0.0 **** 0.0
@<TRIPOS>BOND
1 1 4 1
2 1 2 1
3 1 3 1
4 1 5 1
@<TRIPOS>MOLECULE
CH4
5 4
SMALL
USER_CHARGES


@<TRIPOS>ATOM
1 C 15.06 13.502 84.882 C 0.0 **** 0.0
2 H 14.245 12.84 84.589 H 0.0 **** 0.0
3 H 14.701 14.21 85.63 H 0.0 **** 0.0
4 H 15.418 14.046 84.008 H 0.0 **** 0.0
5 H 15.874 12.911 85.301 H 0.0 **** 0.0
@<TRIPOS>BOND
1 1 2 1
2 1 3 1
3 1 4 1
4 1 5 1
@<TRIPOS>MOLECULE
CH4
5 4
SMALL
USER_CHARGES


@<TRIPOS>ATOM
1 C 63.873 22.594 27.296 C 0.0 **** 0.0
2 H 62.94 22.845 27.8 H 0.0 **** 0.0
3 H 64.713 22.813 27.955 H 0.0 **** 0.0
4 H 63.963 23.183 26.383 H 0.0 **** 0.0
5 H 63.875 21.533 27.045 H 0.0 **** 0.0
@<TRIPOS>BOND
1 1 2 1
2 1 3 1
3 1 4 1
4 1 5 1
@<TRIPOS>MOLECULE
CH4
5 4
SMALL
USER_CHARGES


@<TRIPOS>ATOM
1 C 12.186 48.848 19.485 C 0.0 **** 0.0
2 H 13.123 48.426 19.122 H 0.0 **** 0.0
3 H 12.027 49.825 19.029 H 0.0 **** 0.0
4 H 12.232 48.955 20.569 H 0.0 **** 0.0
5 H 11.362 48.184 19.221 H 0.0 **** 0.0
@<TRIPOS>BOND
1 1 2 1
2 1 3 1
3 1 4 1
4 1 5 1
@<TRIPOS>MOLECULE
CH4
5 4
SMALL
USER_CHARGES


@<TRIPOS>ATOM
1 C 53.578 57.074 4.066 C 0.0 **** 0.0
2 H 54.081 56.127 4.263 H 0.0 **** 0.0
3 H 53.9 57.815 4.797 H 0.0 **** 0.0
4 H 52.499 56.934 4.14 H 0.0 **** 0.0
5 H 53.832 57.417 3.063 H 0.0 **** 0.0
@<TRIPOS>BOND
1 1 2 1
2 1 3 1
3 1 5 1
4 1 4 1
@<TRIPOS>MOLECULE
CH4
5 4
SMALL
USER_CHARGES


@<TRIPOS>ATOM
1 C 82.889 58.617 64.001 C 0.0 **** 0.0
2 H 82.878 58.609 62.911 H 0.0 **** 0.0
3 H 82.671 57.616 64.374 H 0.0 **** 0.0
4 H 82.134 59.313 64.366 H 0.0 **** 0.0
5 H 83.872 58.93 64.352 H 0.0 **** 0.0
@<TRIPOS>BOND
1 1 2 1
2 1 3 1
3 1 4 1
4 1 5 1
@<TRIPOS>MOLECULE
CH4
5 4
SMALL
USER_CHARGES


@<TRIPOS>ATOM
1 C 73.098 26.121 18.613 C 0.0 **** 0.0
2 H 73.641 25.203 18.39 H 0.0 **** 0.0
3 H 73.758 26.816 19.132 H 0.0 **** 0.0
4 H 72.241 25.891 19.247 H 0.0 **** 0.0
5 H 72.752 26.573 17.684 H 0.0 **** 0.0
@<TRIPOS>BOND
1 1 2 1
2 1 3 1
3 1 4 1
4 1 5 1
@<TRIPOS>MOLECULE
CH4
5 4
SMALL
USER_CHARGES


@<TRIPOS>ATOM
1 C 79.382 72.089 60.856 C 0.0 **** 0.0
2 H 78.432 71.584 61.033 H 0.0 **** 0.0
3 H 79.95 71.54 60.105 H 0.0 **** 0.0
4 H 79.95 72.129 61.785 H 0.0 **** 0.0
5 H 79.194 73.102 60.501 H 0.0 **** 0.0
@<TRIPOS>BOND
1 1 2 1
2 1 3 1
3 1 4 1
4 1 5 1
@<TRIPOS>MOLECULE
CH4
5 4
SMALL
USER_CHARGES


@<TRIPOS>ATOM
1 C 11.655 80.874 67.248 C 0.0 **** 0.0
2 H 12.737 80.956 67.351 H 0.0 **** 0.0
3 H 11.273 81.751 66.725 H 0.0 **** 0.0
4 H 11.2 80.812 68.236 H 0.0 **** 0.0
5 H 11.412 79.977 66.679 H 0.0 **** 0.0
@<TRIPOS>BOND
1 1 2 1
2 1 3 1
3 1 4 1
4 1 5 1
@<TRIPOS>MOLECULE
CH4
5 4
SMALL
USER_CHARGES


@<TRIPOS>ATOM
1 C 3.728 90.886 71.556 C 0.0 **** 0.0
2 H 4.334 91.741 71.857 H 0.0 **** 0.0
3 H 3.048 91.185 70.758 H 0.0 **** 0.0
4 H 3.152 90.53 72.41 H 0.0 **** 0.0
5 H 4.379 90.088 71.199 H 0.0 **** 0.0
@<TRIPOS>BOND
1 1 4 1
2 1 5 1
3 1 2 1
4 1 3 1
@<TRIPOS>MOLECULE
CH4
5 4
SMALL
USER_CHARGES


@<TRIPOS>ATOM
1 C 76.197 95.958 73.738 C 0.0 **** 0.0
2 H 76.448 96.917 74.191 H 0.0 **** 0.0
3 H 76.564 95.935 72.712 H 0.0 **** 0.0
4 H 75.115 95.827 73.741 H 0.0 **** 0.0
5 H 76.662 95.155 74.309 H 0.0 **** 0.0
@<TRIPOS>BOND
1 1 5 1
2 1 3 1
3 1 4 1
4 1 2 1
@<TRIPOS>MOLECULE
CH4
5 4
SMALL
USER_CHARGES


@<TRIPOS>ATOM
1 C 6.343 53.986 69.655 C 0.0 **** 0.0
2 H 6.419 53.75 68.593 H 0.0 **** 0.0
3 H 5.337 54.341 69.877 H 0.0 **** 0.0
4 H 7.067 54.761 69.907 H 0.0 **** 0.0
5 H 6.551 53.091 70.241 H 0.0 **** 0.0
@<TRIPOS>BOND
1 1 2 1
2 1 3 1
3 1 4 1
4 1 5 1
@<TRIPOS>MOLECULE
CH4
5 4
SMALL
USER_CHARGES


@<TRIPOS>ATOM
1 C 80.418 8.706 2.983 C 0.0 **** 0.0
2 H 81.144 9.312 2.441 H 0.0 **** 0.0
3 H 79.488 9.266 3.092 H 0.0 **** 0.0
4 H 80.813 8.461 3.969 H 0.0 **** 0.0
5 H 80.226 7.787 2.429 H 0.0 **** 0.0
@<TRIPOS>BOND
1 1 2 1
2 1 3 1
3 1 4 1
4 1 5 1
@<TRIPOS>MOLECULE
CH4
5 4
SMALL
USER_CHARGES


@<TRIPOS>ATOM
1 C 17.06 45.804 48.415 C 0.0 **** 0.0
2 H 16.144 45.266 48.66 H 0.0 **** 0.0
3 H 16.956 46.27 47.435 H 0.0 **** 0.0
4 H 17.898 45.106 48.399 H 0.0 **** 0.0
5 H 17.241 46.572 49.166 H 0.0 **** 0.0
@<TRIPOS>BOND
1 1 2 1
2 1 3 1
3 1 4 1
4 1 5 1
@<TRIPOS>MOLECULE
CH4
5 4
SMALL
USER_CHARGES


@<TRIPOS>ATOM
1 C 62.307 80.98 8.926 C 0.0 **** 0.0
2 H 62.567 81.705 9.697 H 0.0 **** 0.0
3 H 61.349 80.52 9.17 H 0.0 **** 0.0
4 H 63.077 80.211 8.875 H 0.0 **** 0.0
5 H 62.233 81.485 7.963 H 0.0 **** 0.0
@<TRIPOS>BOND
1 1 2 1
2 1 3 1
3 1 4 1
4 1 5 1
@<TRIPOS>MOLECULE
CH4
5 4
SMALL
USER_CHARGES


@<TRIPOS>ATOM
1 C 60.206 60.055 18.67 C 0.0 **** 0.0
2 H 60.253 59.964 17.585 H 0.0 **** 0.0
3 H 60.928 60.802 19.003 H 0.0 **** 0.0
4 H 60.441 59.093 19.125 H 0.0 **** 0.0
5 H 59.203 60.362 18.966 H 0.0 **** 0.0
@<TRIPOS>BOND
1 1 2 1
2 1 3 1
3 1 4 1
4 1 5 1
@<TRIPOS>MOLECULE
CH4
5 4
SMALL
USER_CHARGES


@<TRIPOS>ATOM
1 C 53.417 89.537 28.512 C 0.0 **** 0.0
2 H 53.074 89.056 29.427 H 0.0 **** 0.0
3 H 52.558 89.921 27.96 H 0.0 **** 0.0
4 H 53.95 88.812 27.897 H 0.0 **** 0.0
5 H 54.085 90.361 28.763 H 0.0 **** 0.0
@<TRIPOS>BOND
1 1 2 1
2 1 3 1
3 1 4 1
4 1 5 1
@<TRIPOS>MOLECULE
CH4
5 4
SMALL
USER_CHARGES


@<TRIPOS>ATOM
1 C 51.723 65.876 52.244 C 0.0 **** 0.0
2 H 52.719 66.304 52.125 H 0.0 **** 0.0
3 H 51.462 65.309 51.351 H 0.0 **** 0.0
4 H 50.999 66.678 52.391 H 0.0 **** 0.0
5 H 51.714 65.215 53.111 H 0.0 **** 0.0
@<TRIPOS>BOND
1 1 2 1
2 1 3 1
3 1 4 1
4 1 5 1
@<TRIPOS>MOLECULE
CH4
5 4
SMALL
USER_CHARGES


@<TRIPOS>ATOM
1 C 46.652 26.824 13.899 C 0.0 **** 0.0
2 H 46.351 26.911 14.943 H 0.0 **** 0.0
3 H 46.786 25.772 13.646 H 0.0 **** 0.0
4 H 47.591 27.357 13.747 H 0.0 **** 0.0
5 H 45.882 27.257 13.261 H 0.0 **** 0.0
@<TRIPOS>BOND
1 1 2 1
2 1 3 1
3 1 4 1
4 1 5 1
@<TRIPOS>MOLECULE
CH4
5 4
SMALL
USER_CHARGES


@<TRIPOS>ATOM
1 C 47.348 73.597 39.91 C 0.0 **** 0.0
2 H 48.003 74.316 39.418 H 0.0 **** 0.0
3 H 47.686 72.585 39.686 H 0.0 **** 0.0
4 H 46.328 73.728 39.548 H 0.0 **** 0.0
5 H 47.375 73.759 40.987 H 0.0 **** 0.0
@<TRIPOS>BOND
1 1 2 1
2 1 3 1
3 1 4 1
4 1 5 1
@<TRIPOS>MOLECULE
CH4
5 4
SMALL
USER_CHARGES


@<TRIPOS>ATOM
1 C 36.886 0.914 46.671 C 0.0 **** 0.0
2 H 36.208 1.584 46.142 H 0.0 **** 0.0
3 H 37.264 1.412 47.565 H 0.0 **** 0.0
4 H 37.72 0.653 46.02 H 0.0 **** 0.0
5 H 36.351 0.009 46.958 H 0.0 **** 0.0
@<TRIPOS>BOND
1 1 2 1
2 1 3 1
3 1 4 1
4 1 5 1
@<TRIPOS>MOLECULE
CH4
5 4
SMALL
USER_CHARGES


@<TRIPOS>ATOM
1 C 77.033 11.969 17.945 C 0.0 **** 0.0
2 H 76.955 12.079 19.026 H 0.0 **** 0.0
3 H 76.208 12.498 17.466 H 0.0 **** 0.0
4 H 76.987 10.912 17.683 H 0.0 **** 0.0
5 H 77.98 12.388 17.604 H 0.0 **** 0.0
@<TRIPOS>BOND
1 1 2 1
2 1 3 1
3 1 4 1
4 1 5 1
@<TRIPOS>MOLECULE
CH4
5 4
SMALL
USER_CHARGES


@<TRIPOS>ATOM
1 C 25.615 27.187 84.022 C 0.0 **** 0.0
2 H 26.463 27.526 84.617 H 0.0 **** 0.0
3 H 25.901 27.149 82.971 H 0.0 **** 0.0
4 H 24.783 27.881 84.147 H 0.0 **** 0.0
5 H 25.313 26.194 84.354 H 0.0 **** 0.0
@<TRIPOS>BOND
1 1 2 1
2 1 3 1
3 1 4 1
4 1 5 1
@<TRIPOS>MOLECULE
CH4
5 4
SMALL
USER_CHARGES


@<TRIPOS>ATOM
1 C 25.363 15.308 61.273 C 0.0 **** 0.0
2 H 25.112 14.677 60.42 H 0.0 **** 0.0
3 H 24.721 15.052 62.116 H 0.0 **** 0.0
4 H 25.216 16.354 61.007 H 0.0 **** 0.0
5 H 26.406 15.147 61.549 H 0.0 **** 0.0
@<TRIPOS>BOND
1 1 2 1
2 1 3 1
3 1 4 1
4 1 5 1
@<TRIPOS>MOLECULE
CH4
5 4
SMALL
USER_CHARGES


@<TRIPOS>ATOM
1 C 78.182 80.309 50.74 C 0.0 **** 0.0
2 H 79.059 79.811 50.328 H 0.0 **** 0.0
3 H 78.457 81.309 51.077 H 0.0 **** 0.0
4 H 77.799 79.734 51.583 H 0.0 **** 0.0
5 H 77.413 80.383 49.971 H 0.0 **** 0.0
@<TRIPOS>BOND
1 1 2 1
2 1 3 1
3 1 4 1
4 1 5 1
@<TRIPOS>MOLECULE
CH4
5 4
SMALL
USER_CHARGES


@<TRIPOS>ATOM
1 C 60.509 33.399 31.898 C 0.0 **** 0.0
2 H 60.903 32.784 32.708 H 0.0 **** 0.0
3 H 59.752 32.837 31.35 H 0.0 **** 0.0
4 H 61.32 33.671 31.222 H 0.0 **** 0.0
5 H 60.063 34.302 32.313 H 0.0 **** 0.0
@<TRIPOS>BOND
1 1 2 1
2 1 3 1
3 1 4 1
4 1 5 1
@<TRIPOS>MOLECULE
CH4
5 4
SMALL
USER_CHARGES


@<TRIPOS>ATOM
1 C 45.27 81.938 37.13 C 0.0 **** 0.0
2 H 45.443 82.446 36.181 H 0.0 **** 0.0
3 H 45.546 82.599 37.951 H 0.0 **** 0.0
4 H 45.877 81.033 37.173 H 0.0 **** 0.0
5 H 44.216 81.673 37.213 H 0.0 **** 0.0
@<TRIPOS>BOND
1 1 2 1
2 1 3 1
3 1 4 1
4 1 5 1
@<TRIPOS>MOLECULE
CH4
5 4
SMALL
USER_CHARGES


@<TRIPOS>ATOM
1 C 9.17 54.818 28.141 C 0.0 **** 0.0
2 H 9.664 54.467 27.235 H 0.0 **** 0.0
3 H 8.872 55.859 28.013 H 0.0 **** 0.0
4 H 9.858 54.738 28.983 H 0.0 **** 0.0
5 H 8.288 54.208 28.334 H 0.0 **** 0.0
@<TRIPOS>BOND
1 1 2 1
2 1 3 1
3 1 4 1
4 1 5 1
@<TRIPOS>MOLECULE
CH4
5 4
SMALL
USER_CHARGES


@<TRIPOS>ATOM
1 C 35.242 3.622 1.438 C 0.0 **** 0.0
2 H 36.091 3.432 0.781 H 0.0 **** 0.0
3 H 34.807 4.592 1.199 H 0.0 **** 0.0
4 H 35.579 3.619 2.475 H 0.0 **** 0.0
5 H 34.493 2.843 1.297 H 0.0 **** 0.0
@<TRIPOS>BOND
1 1 2 1
2 1 3 1
3 1 4 1
4 1 5 1
@<TRIPOS>MOLECULE
CH4
5 4
SMALL
USER_CHARGES


@<TRIPOS>ATOM
1 C 82.119 67.789 50.619 C 0.0 **** 0.0
2 H 82.163 68.851 50.859 H 0.0 **** 0.0
3 H 82.975 67.52 50.001 H 0.0 **** 0.0
4 H 81.197 67.577 50.077 H 0.0 **** 0.0
5 H 82.139 67.208 51.542 H 0.0 **** 0.0
@<TRIPOS>BOND
1 1 2 1
2 1 3 1
3 1 4 1
4 1 5 1
@<TRIPOS>MOLECULE
CH4
5 4
SMALL
USER_CHARGES


@<TRIPOS>ATOM
1 C 49.199 79.759 6.307 C 0.0 **** 0.0
2 H 48.934 79.882 7.357 H 0.0 **** 0.0
3 H 48.291 79.639 5.715 H 0.0 **** 0.0
4 H 49.827 78.876 6.192 H 0.0 **** 0.0
5 H 49.744 80.639 5.965 H 0.0 **** 0.0
@<TRIPOS>BOND
1 1 2 1
2 1 3 1
3 1 4 1
4 1 5 1
@<TRIPOS>MOLECULE
CH4
5 4
SMALL
USER_CHARGES


@<TRIPOS>ATOM
1 C 45.173 97.842 87.939 C 0.0 **** 0.0
2 H 45.53 98.561 87.201 H 0.0 **** 0.0
3 H 45.302 96.831 87.553 H 0.0 **** 0.0
4 H 44.117 98.023 88.139 H 0.0 **** 0.0
5 H 45.742 97.956 88.861 H 0.0 **** 0.0
@<TRIPOS>BOND
1 1 2 1
2 1 3 1
3 1 4 1
4 1 5 1
@<TRIPOS>MOLECULE
CH4
5 4
SMALL
USER_CHARGES


@<TRIPOS>ATOM
1 C 31.817 31.383 41.952 C 0.0 **** 0.0
2 H 30.837 31.757 42.249 H 0.0 **** 0.0
3 H 32.066 31.765 40.962 H 0.0 **** 0.0
4 H 31.797 30.293 41.927 H 0.0 **** 0.0
5 H 32.566 31.716 42.67 H 0.0 **** 0.0
@<TRIPOS>BOND
1 1 2 1
2 1 3 1
3 1 4 1
4 1 5 1
@<TRIPOS>MOLECULE
CH4
5 4
SMALL
USER_CHARGES


@<TRIPOS>ATOM
1 C 48.565 62.411 12.47 C 0.0 **** 0.0
2 H 48.299 62.723 11.46 H 0.0 **** 0.0
3 H 48.52 63.27 13.14 H 0.0 **** 0.0
4 H 49.576 62.003 12.47 H 0.0 **** 0.0
5 H 47.866 61.648 12.811 H 0.0 **** 0.0
@<TRIPOS>BOND
1 1 2 1
2 1 3 1
3 1 4 1
4 1 5 1
@<TRIPOS>MOLECULE
CH4
5 4
SMALL
USER_CHARGES


@<TRIPOS>ATOM
1 C 10.936 19.991 34.958 C 0.0 **** 0.0
2 H 10.802 19.78 36.019 H 0.0 **** 0.0
3 H 11.622 19.262 34.526 H 0.0 **** 0.0
4 H 11.346 20.994 34.836 H 0.0 **** 0.0
5 H 9.973 19.929 34.451 H 0.0 **** 0.0
@<TRIPOS>BOND
1 1 2 1
2 1 3 1
3 1 4 1
4 1 5 1
@<TRIPOS>MOLECULE
CH4
5 4
SMALL
USER_CHARGES


@<TRIPOS>ATOM
1 C 42.912 69.59 36.541 C 0.0 **** 0.0
2 H 42.861 69.485 37.625 H 0.0 **** 0.0
3 H 42.413 70.513 36.243 H 0.0 **** 0.0
4 H 42.418 68.741 36.07 H 0.0 **** 0.0
5 H 43.956 69.623 36.229 H 0.0 **** 0.0
@<TRIPOS>BOND
1 1 2 1
2 1 3 1
3 1 4 1
4 1 5 1
@<TRIPOS>MOLECULE
CH4
5 4
SMALL
USER_CHARGES


@<TRIPOS>ATOM
1 C 88.071 32.968 24.258 C 0.0 **** 0.0
2 H 87.635 33.196 23.285 H 0.0 **** 0.0
3 H 88.025 33.853 24.893 H 0.0 **** 0.0
4 H 89.111 32.668 24.127 H 0.0 **** 0.0
5 H 87.514 32.156 24.725 H 0.0 **** 0.0
@<TRIPOS>BOND
1 1 2 1
2 1 3 1
3 1 4 1
4 1 5 1
@<TRIPOS>MOLECULE
CH4
5 4
SMALL
USER_CHARGES


@<TRIPOS>ATOM
1 C 17.107 6.811 37.024 C 0.0 **** 0.0
2 H 18.159 6.991 37.248 H 0.0 **** 0.0
3 H 16.578 7.763 36.977 H 0.0 **** 0.0
4 H 16.67 6.19 37.805 H 0.0 **** 0.0
5 H 17.023 6.301 36.064 H 0.0 **** 0.0
@<TRIPOS>BOND
1 1 2 1
2 1 3 1
3 1 4 1
4 1 5 1
@<TRIPOS>MOLECULE
CH4
5 4
SMALL
USER_CHARGES


@<TRIPOS>ATOM
1 C 43.404 51.146 71.839 C 0.0 **** 0.0
2 H 42.553 51.033 71.167 H 0.0 **** 0.0
3 H 44.251 51.554 71.288 H 0.0 **** 0.0
4 H 43.672 50.173 72.252 H 0.0 **** 0.0
5 H 43.137 51.824 72.65 H 0.0 **** 0.0
@<TRIPOS>BOND
1 1 2 1
2 1 3 1
3 1 4 1
4 1 5 1
@<TRIPOS>MOLECULE
CH4
5 4
SMALL
USER_CHARGES


@<TRIPOS>ATOM
1 C 44.639 23.622 22.984 C 0.0 **** 0.0
2 H 44.134 23.535 23.946 H 0.0 **** 0.0
3 H 45.069 22.658 22.711 H 0.0 **** 0.0
4 H 45.431 24.367 23.056 H 0.0 **** 0.0
5 H 43.92 23.928 22.223 H 0.0 **** 0.0
@<TRIPOS>BOND
1 1 2 1
2 1 3 1
3 1 4 1
4 1 5 1
@<TRIPOS>MOLECULE
CH4
5 4
SMALL
USER_CHARGES


@<TRIPOS>ATOM
1 C 10.517 16.896 34.685 C 0.0 **** 0.0
2 H 10.013 17.684 34.125 H 0.0 **** 0.0
3 H 10.386 17.07 35.753 H 0.0 **** 0.0
4 H 11.58 16.901 34.443 H 0.0 **** 0.0
5 H 10.088 15.93 34.418 H 0.0 **** 0.0
@<TRIPOS>BOND
1 1 2 1
2 1 3 1
3 1 4 1
4 1 5 1
@<TRIPOS>MOLECULE
CH4
5 4
SMALL
USER_CHARGES


@<TRIPOS>ATOM
1 C 94.013 0.897 15.35 C 0.0 **** 0.0
2 H 94.175 1.934 15.057 H 0.0 **** 0.0
3 H 94.836 0.566 15.983 H 0.0 **** 0.0
4 H 93.966 0.271 14.458 H 0.0 **** 0.0
5 H 93.075 0.817 15.9 H 0.0 **** 0.0
@<TRIPOS>BOND
1 1 2 1
2 1 3 1
3 1 4 1
4 1 5 1
@<TRIPOS>MOLECULE
CH4
5 4
SMALL
USER_CHARGES


@<TRIPOS>ATOM
1 C 1.66 84.32 94.476 C 0.0 **** 0.0
2 H 2.521 84.935 94.213 H 0.0 **** 0.0
3 H 1.738 84.015 95.52 H 0.0 **** 0.0
4 H 1.637 83.436 93.84 H 0.0 **** 0.0
5 H 0.745 84.895 94.333 H 0.0 **** 0.0
@<TRIPOS>BOND
1 1 2 1
2 1 3 1
3 1 4 1
4 1 5 1
@<TRIPOS>MOLECULE
CH4
5 4
SMALL
USER_CHARGES


@<TRIPOS>ATOM
1 C 66.979 38.788 42.321 C 0.0 **** 0.0
2 H 67.45 38.053 41.668 H 0.0 **** 0.0
3 H 66.063 38.371 42.737 H 0.0 **** 0.0
4 H 66.743 39.684 41.746 H 0.0 **** 0.0
5 H 67.663 39.045 43.13 H 0.0 **** 0.0
@<TRIPOS>BOND
1 1 2 1
2 1 3 1
3 1 4 1
4 1 5 1
@<TRIPOS>MOLECULE
CH4
5 4
SMALL
USER_CHARGES


@<TRIPOS>ATOM
1 C 94.787 88.089 34.382 C 0.0 **** 0.0
2 H 94.456 87.392 35.152 H 0.0 **** 0.0
3 H 94.945 87.549 33.448 H 0.0 **** 0.0
4 H 95.721 88.557 34.694 H 0.0 **** 0.0
5 H 94.027 88.856 34.235 H 0.0 **** 0.0
@<TRIPOS>BOND
1 1 2 1
2 1 3 1
3 1 4 1
4 1 5 1
@<TRIPOS>MOLECULE
CH4
5 4
SMALL
USER_CHARGES


@<TRIPOS>ATOM
1 C 47.87 86.571 29.858 C 0.0 **** 0.0
2 H 47.717 86.387 28.795 H 0.0 **** 0.0
3 H 46.993 87.071 30.269 H 0.0 **** 0.0
4 H 48.747 87.205 29.994 H 0.0 **** 0.0
5 H 48.024 85.623 30.373 H 0.0 **** 0.0
@<TRIPOS>BOND
1 1 2 1
2 1 3 1
3 1 4 1
4 1 5 1
@<TRIPOS>MOLECULE
CH4
5 4
SMALL
USER_CHARGES


@<TRIPOS>ATOM
1 C 75.39 91.817 93.847 C 0.0 **** 0.0
2 H 76.192 91.669 94.57 H 0.0 **** 0.0
3 H 74.765 90.924 93.81 H 0.0 **** 0.0
4 H 75.819 92.001 92.862 H 0.0 **** 0.0
5 H 74.785 92.673 94.145 H 0.0 **** 0.0
@<TRIPOS>BOND
1 1 2 1
2 1 3 1
3 1 4 1
4 1 5 1
@<TRIPOS>MOLECULE
CH4
5 4
SMALL
USER_CHARGES


@<TRIPOS>ATOM
1 C 1.321 26.575 39.761 C 0.0 **** 0.0
2 H 0.864 27.45 40.223 H 0.0 **** 0.0
3 H 1.79 25.962 40.531 H 0.0 **** 0.0
4 H 2.076 26.897 39.043 H 0.0 **** 0.0
5 H 0.556 25.993 39.248 H 0.0 **** 0.0
@<TRIPOS>BOND
1 1 2 1
2 1 3 1
3 1 4 1
4 1 5 1
@<TRIPOS>MOLECULE
CH4
5 4
SMALL
USER_CHARGES


@<TRIPOS>ATOM
1 C 68.588 53.148 7.192 C 0.0 **** 0.0
2 H 68.327 53.08 6.136 H 0.0 **** 0.0
3 H 69.589 53.567 7.293 H 0.0 **** 0.0
4 H 68.563 52.153 7.637 H 0.0 **** 0.0
5 H 67.871 53.792 7.702 H 0.0 **** 0.0
@<TRIPOS>BOND
1 1 2 1
2 1 3 1
3 1 4 1
4 1 5 1
@<TRIPOS>MOLECULE
CH4
5 4
SMALL
USER_CHARGES


@<TRIPOS>ATOM
1 C 26.233 29.215 56.712 C 0.0 **** 0.0
2 H 26.551 30.045 57.343 H 0.0 **** 0.0
3 H 27.006 28.447 56.704 H 0.0 **** 0.0
4 H 26.066 29.575 55.696 H 0.0 **** 0.0
5 H 25.307 28.795 57.105 H 0.0 **** 0.0
@<TRIPOS>BOND
1 1 2 1
2 1 3 1
3 1 4 1
4 1 5 1
@<TRIPOS>MOLECULE
CH4
5 4
SMALL
USER_CHARGES


@<TRIPOS>ATOM
1 C 96.801 37.81 8.126 C 0.0 **** 0.0
2 H 95.886 38.36 7.907 H 0.0 **** 0.0
3 H 96.986 37.083 7.336 H 0.0 **** 0.0
4 H 96.695 37.293 9.08 H 0.0 **** 0.0
5 H 97.638 38.507 8.183 H 0.0 **** 0.0
@<TRIPOS>BOND
1 1 2 1
2 1 3 1
3 1 4 1
4 1 5 1
@<TRIPOS>MOLECULE
CH4
5 4
SMALL
USER_CHARGES


@<TRIPOS>ATOM
1 C 51.283 50.842 60.801 C 0.0 **** 0.0
2 H 50.384 51.404 60.549 H 0.0 **** 0.0
3 H 52.109 51.178 60.174 H 0.0 **** 0.0
4 H 51.106 49.78 60.631 H 0.0 **** 0.0
5 H 51.532 51.005 61.849 H 0.0 **** 0.0
@<TRIPOS>BOND
1 1 2 1
2 1 3 1
3 1 4 1
4 1 5 1
@<TRIPOS>MOLECULE
CH4
5 4
SMALL
USER_CHARGES


@<TRIPOS>ATOM
1 C 94.378 67.643 77.908 C 0.0 **** 0.0
2 H 95.173 67.793 77.176 H 0.0 **** 0.0
3 H 93.429 67.973 77.484 H 0.0 **** 0.0
4 H 94.597 68.222 78.805 H 0.0 **** 0.0
5 H 94.314 66.586 78.164 H 0.0 **** 0.0
@<TRIPOS>BOND
1 1 2 1
2 1 3 1
3 1 4 1
4 1 5 1
@<TRIPOS>MOLECULE
CH4
5 4
SMALL
USER_CHARGES


@<TRIPOS>ATOM
1 C 41.912 26.409 75.122 C 0.0 **** 0.0
2 H 41.942 25.644 74.347 H 0.0 **** 0.0
3 H 42.183 25.966 76.08 H 0.0 **** 0.0
4 H 40.906 26.824 75.185 H 0.0 **** 0.0
5 H 42.617 27.203 74.876 H 0.0 **** 0.0
@<TRIPOS>BOND
1 1 2 1
2 1 3 1
3 1 4 1
4 1 5 1
@<TRIPOS>MOLECULE
CH4
5 4
SMALL
USER_CHARGES


@<TRIPOS>ATOM
1 C 89.813 16.363 60.995 C 0.0 **** 0.0
2 H 89.655 16.961 61.892 H 0.0 **** 0.0
3 H 90.684 15.723 61.134 H 0.0 **** 0.0
4 H 89.978 17.023 60.143 H 0.0 **** 0.0
5 H 88.933 15.746 60.811 H 0.0 **** 0.0
@<TRIPOS>BOND
1 1 2 1
2 1 3 1
3 1 4 1
4 1 5 1
@<TRIPOS>MOLECULE
CH4
5 4
SMALL
USER_CHARGES


@<TRIPOS>ATOM
1 C 20.434 14.479 33.654 C 0.0 **** 0.0
2 H 19.662 14.084 34.315 H 0.0 **** 0.0
3 H 20.013 15.273 33.038 H 0.0 **** 0.0
4 H 20.807 13.68 33.014 H 0.0 **** 0.0
5 H 21.254 14.878 34.251 H 0.0 **** 0.0
@<TRIPOS>BOND
1 1 2 1
2 1 3 1
3 1 4 1
4 1 5 1
@<TRIPOS>MOLECULE
CH4
5 4
SMALL
USER_CHARGES


@<TRIPOS>ATOM
1 C 90.02 15.078 90.581 C 0.0 **** 0.0
2 H 90.069 15.816 91.382 H 0.0 **** 0.0
3 H 90.179 15.572 89.622 H 0.0 **** 0.0
4 H 89.039 14.602 90.587 H 0.0 **** 0.0
5 H 90.791 14.324 90.735 H 0.0 **** 0.0
@<TRIPOS>BOND
1 1 2 1
2 1 3 1
3 1 4 1
4 1 5 1
@<TRIPOS>MOLECULE
CH4
5 4
SMALL
USER_CHARGES


@<TRIPOS>ATOM
1 C 46.774 3.264 87.181 C 0.0 **** 0.0
2 H 46.779 2.949 86.138 H 0.0 **** 0.0
3 H 45.748 3.441 87.502 H 0.0 **** 0.0
4 H 47.352 4.182 87.286 H 0.0 **** 0.0
5 H 47.218 2.482 87.798 H 0.0 **** 0.0
@<TRIPOS>BOND
1 1 2 1
2 1 3 1
3 1 4 1
4 1 5 1
@<TRIPOS>MOLECULE
CH4
5 4
SMALL
USER_CHARGES


@<TRIPOS>ATOM
1 C 43.372 48.42 68.417 C 0.0 **** 0.0
2 H 42.508 48.618 67.783 H 0.0 **** 0.0
3 H 43.657 49.333 68.94 H 0.0 **** 0.0
4 H 44.204 48.079 67.801 H 0.0 **** 0.0
5 H 43.119 47.648 69.145 H 0.0 **** 0.0
@<TRIPOS>BOND
1 1 2 1
2 1 3 1
3 1 4 1
4 1 5 1
@<TRIPOS>MOLECULE
CH4
5 4
SMALL
USER_CHARGES


@<TRIPOS>ATOM
1 C 35.839 6.671 15.721 C 0.0 **** 0.0
2 H 34.841 6.282 15.518 H 0.0 **** 0.0
3 H 36.14 7.339 14.913 H 0.0 **** 0.0
4 H 36.545 5.843 15.789 H 0.0 **** 0.0
5 H 35.83 7.22 16.663 H 0.0 **** 0.0
@<TRIPOS>BOND
1 1 2 1
2 1 3 1
3 1 4 1
4 1 5 1
@<TRIPOS>MOLECULE
CH4
5 4
SMALL
USER_CHARGES


@<TRIPOS>ATOM
1 C 14.403 49.39 98.137 C 0.0 **** 0.0
2 H 14.848 49.918 98.98 H 0.0 **** 0.0
3 H 13.321 49.519 98.157 H 0.0 **** 0.0
4 H 14.644 48.329 98.205 H 0.0 **** 0.0
5 H 14.8 49.794 97.205 H 0.0 **** 0.0
@<TRIPOS>BOND
1 1 2 1
2 1 3 1
3 1 4 1
4 1 5 1
@<TRIPOS>MOLECULE
CH4
5 4
SMALL
USER_CHARGES


@<TRIPOS>ATOM
1 C 48.325 79.287 52.365 C 0.0 **** 0.0
2 H 48.666 79.638 53.339 H 0.0 **** 0.0
3 H 48.731 78.294 52.175 H 0.0 **** 0.0
4 H 48.668 79.975 51.592 H 0.0 **** 0.0
5 H 47.236 79.243 52.356 H 0.0 **** 0.0
@<TRIPOS>BOND
1 1 2 1
2 1 3 1
3 1 4 1
4 1 5 1
@<TRIPOS>MOLECULE
CH4
5 4
SMALL
USER_CHARGES


@<TRIPOS>ATOM
1 C 89.842 6.5 8.761 C 0.0 **** 0.0
2 H 89.23 6.158 7.926 H 0.0 **** 0.0
3 H 89.988 7.578 8.686 H 0.0 **** 0.0
4 H 90.81 5.999 8.73 H 0.0 **** 0.0
5 H 89.341 6.265 9.699 H 0.0 **** 0.0
@<TRIPOS>BOND
1 1 2 1
2 1 3 1
3 1 4 1
4 1 5 1
@<TRIPOS>MOLECULE
CH4
5 4
SMALL
USER_CHARGES


@<TRIPOS>ATOM
1 C 92.458 46.37 59.715 C 0.0 **** 0.0
2 H 92.862 46.021 60.665 H 0.0 **** 0.0
3 H 91.521 45.853 59.507 H 0.0 **** 0.0
4 H 93.173 46.162 58.919 H 0.0 **** 0.0
5 H 92.277 47.443 59.77 H 0.0 **** 0.0
@<TRIPOS>BOND
1 1 2 1
2 1 3 1
3 1 4 1
4 1 5 1
@<TRIPOS>MOLECULE
CH4
5 4
SMALL
USER_CHARGES


@<TRIPOS>ATOM
1 C 23.1 98.478 13.456 C 0.0 **** 0.0
2 H 23.171 98.518 12.369 H 0.0 **** 0.0
3 H 22.157 98.923 13.774 H 0.0 **** 0.0
4 H 23.93 99.031 13.895 H 0.0 **** 0.0
5 H 23.141 97.44 13.785 H 0.0 **** 0.0
@<TRIPOS>BOND
1 1 2 1
2 1 3 1
3 1 4 1
4 1 5 1
@<TRIPOS>MOLECULE
CH4
5 4
SMALL
USER_CHARGES


@<TRIPOS>ATOM
1 C 35.03 39.984 91.225 C 0.0 **** 0.0
2 H 35.119 40.3 92.264 H 0.0 **** 0.0
3 H 34.031 40.219 90.858 H 0.0 **** 0.0
4 H 35.2 38.91 91.156 H 0.0 **** 0.0
5 H 35.771 40.508 90.621 H 0.0 **** 0.0
@<TRIPOS>BOND
1 1 2 1
2 1 3 1
3 1 4 1
4 1 5 1
@<TRIPOS>MOLECULE
CH4
5 4
SMALL
USER_CHARGES


@<TRIPOS>ATOM
1 C 83.799 58.656 76.135 C 0.0 **** 0.0
2 H 83.807 58.541 77.219 H 0.0 **** 0.0
3 H 83.576 57.696 75.67 H 0.0 **** 0.0
4 H 84.775 59.005 75.8 H 0.0 **** 0.0
5 H 83.037 59.383 75.854 H 0.0 **** 0.0
@<TRIPOS>BOND
1 1 2 1
2 1 3 1
3 1 4 1
4 1 5 1
@<TRIPOS>MOLECULE
CH4
5 4
SMALL
USER_CHARGES


@<TRIPOS>ATOM
1 C 15.983 83.14 39.158 C 0.0 **** 0.0
2 H 14.938 82.853 39.042 H 0.0 **** 0.0
3 H 16.521 82.934 38.232 H 0.0 **** 0.0
4 H 16.428 82.569 39.972 H 0.0 **** 0.0
5 H 16.044 84.205 39.385 H 0.0 **** 0.0
@<TRIPOS>BOND
1 1 2 1
2 1 3 1
3 1 4 1
4 1 5 1
@<TRIPOS>MOLECULE
CH4
5 4
SMALL
USER_CHARGES


@<TRIPOS>ATOM
1 C 1.785 82.538 32.857 C 0.0 **** 0.0
2 H 0.828 82.141 33.195 H 0.0 **** 0.0
3 H 2.341 81.755 32.341 H 0.0 **** 0.0
4 H 2.359 82.885 33.716 H 0.0 **** 0.0
5 H 1.613 83.371 32.175 H 0.0 **** 0.0
@<TRIPOS>BOND
1 1 2 1
2 1 3 1
3 1 4 1
4 1 5 1
@<TRIPOS>MOLECULE
CH4
5 4
SMALL
USER_CHARGES


@<TRIPOS>ATOM
1 C 59.509 27.2 50.004 C 0.0 **** 0.0
2 H 60.307 26.506 50.268 H 0.0 **** 0.0
3 H 59.505 27.356 48.926 H 0.0 **** 0.0
4 H 59.674 28.152 50.509 H 0.0 **** 0.0
5 H 58.55 26.785 50.315 H 0.0 **** 0.0
@<TRIPOS>BOND
1 1 2 1
2 1 3 1
3 1 4 1
4 1 5 1
@<TRIPOS>MOLECULE
CH4
5 4
SMALL
USER_CHARGES


@<TRIPOS>ATOM
1 C 0.47 80.792 37.118 C 0.0 **** 0.0
2 H 0.209 81.824 36.884 H 0.0 **** 0.0
3 H 0.115 80.138 36.321 H 0.0 **** 0.0
4 H 0.002 80.503 38.06 H 0.0 **** 0.0
5 H 1.552 80.702 37.207 H 0.0 **** 0.0
@<TRIPOS>BOND
1 1 2 1
2 1 3 1
3 1 4 1
4 1 5 1
@<TRIPOS>MOLECULE
CH4
5 4
SMALL
USER_CHARGES


@<TRIPOS>ATOM
1 C 85.908 16.633 51.436 C 0.0 **** 0.0
2 H 85.867 17.27 52.32 H 0.0 **** 0.0
3 H 86.423 15.704 51.681 H 0.0 **** 0.0
4 H 86.448 17.149 50.641 H 0.0 **** 0.0
5 H 84.895 16.411 51.102 H 0.0 **** 0.0
@<TRIPOS>BOND
1 1 2 1
2 1 3 1
3 1 4 1
4 1 5 1
@<TRIPOS>MOLECULE
CH4
5 4
SMALL
USER_CHARGES


@<TRIPOS>ATOM
1 C 75.688 33.916 17.056 C 0.0 **** 0.0
2 H 76.188 34.552 17.787 H 0.0 **** 0.0
3 H 75.223 34.538 16.291 H 0.0 **** 0.0
4 H 74.924 33.321 17.556 H 0.0 **** 0.0
5 H 76.419 33.253 16.592 H 0.0 **** 0.0
@<TRIPOS>BOND
1 1 2 1
2 1 3 1
3 1 4 1
4 1 5 1
@<TRIPOS>MOLECULE
CH4
5 4
SMALL
USER_CHARGES


@<TRIPOS>ATOM
1 C 96.871 31.462 5.482 C 0.0 **** 0.0
2 H 96.385 32.048 4.703 H 0.0 **** 0.0
3 H 96.138 31.186 6.24 H 0.0 **** 0.0
4 H 97.664 32.053 5.941 H 0.0 **** 0.0
5 H 97.298 30.56 5.044 H 0.0 **** 0.0
@<TRIPOS>BOND
1 1 2 1
2 1 3 1
3 1 4 1
4 1 5 1
@<TRIPOS>MOLECULE
CH4
5 4
SMALL
USER_CHARGES


@<TRIPOS>ATOM
1 C 78.724 9.193 44.9 C 0.0 **** 0.0
2 H 79.713 8.769 44.724 H 0.0 **** 0.0
3 H 78.804 10.276 44.989 H 0.0 **** 0.0
4 H 78.312 8.781 45.821 H 0.0 **** 0.0
5 H 78.069 8.944 44.065 H 0.0 **** 0.0
@<TRIPOS>BOND
1 1 2 1
2 1 3 1
3 1 4 1
4 1 5 1
@<TRIPOS>MOLECULE
CH4
5 4
SMALL
USER_CHARGES


@<TRIPOS>ATOM
1 C 76.557 78.19 87.138 C 0.0 **** 0.0
2 H 76.568 77.974 86.07 H 0.0 **** 0.0
3 H 76.808 79.239 87.298 H 0.0 **** 0.0
4 H 77.287 77.559 87.644 H 0.0 **** 0.0
5 H 75.563 77.989 87.538 H 0.0 **** 0.0
@<TRIPOS>BOND
1 1 2 1
2 1 3 1
3 1 4 1
4 1 5 1
@<TRIPOS>MOLECULE
CH4
5 4
SMALL
USER_CHARGES


@<TRIPOS>ATOM
1 C 24.559 52.032 45.404 C 0.0 **** 0.0
2 H 24.607 51.916 44.321 H 0.0 **** 0.0
3 H 25.344 52.715 45.731 H 0.0 **** 0.0
4 H 24.701 51.061 45.88 H 0.0 **** 0.0
5 H 23.586 52.435 45.684 H 0.0 **** 0.0
@<TRIPOS>BOND
1 1 5 1
2 1 2 1
3 1 3 1
4 1 4 1
@<TRIPOS>MOLECULE
CH4
5 4
SMALL
USER_CHARGES


@<TRIPOS>ATOM
1 C 81.701 92.951 66.464 C 0.0 **** 0.0
2 H 82.386 92.312 67.02 H 0.0 **** 0.0
3 H 80.81 93.138 67.064 H 0.0 **** 0.0
4 H 81.416 92.457 65.535 H 0.0 **** 0.0
5 H 82.191 93.898 66.236 H 0.0 **** 0.0
@<TRIPOS>BOND
1 1 2 1
2 1 3 1
3 1 4 1
4 1 5 1
@<TRIPOS>MOLECULE
CH4
5 4
SMALL
USER_CHARGES


@<TRIPOS>ATOM
1 C 5.704 71.165 78.315 C 0.0 **** 0.0
2 H 5.593 70.855 79.354 H 0.0 **** 0.0
3 H 4.837 70.833 77.743 H 0.0 **** 0.0
4 H 6.607 70.721 77.898 H 0.0 **** 0.0
5 H 5.777 72.252 78.266 H 0.0 **** 0.0
@<TRIPOS>BOND
1 1 2 1
2 1 3 1
3 1 4 1
4 1 5 1
@<TRIPOS>MOLECULE
CH4
5 4
SMALL
USER_CHARGES


@<TRIPOS>ATOM
1 C 84.794 83.969 34.138 C 0.0 **** 0.0
2 H 84.122 83.937 33.281 H 0.0 **** 0.0
3 H 84.219 84.163 35.044 H 0.0 **** 0.0
4 H 85.527 84.762 33.996 H 0.0 **** 0.0
5 H 85.308 83.012 34.232 H 0.0 **** 0.0
@<TRIPOS>BOND
1 1 2 1
2 1 3 1
3 1 4 1
4 1 5 1
@<TRIPOS>MOLECULE
CH4
5 4
SMALL
USER_CHARGES


@<TRIPOS>ATOM
1 C 55.236 27.431 87.899 C 0.0 **** 0.0
2 H 55.477 28.492 87.962 H 0.0 **** 0.0
3 H 56.081 26.892 87.47 H 0.0 **** 0.0
4 H 54.359 27.295 87.266 H 0.0 **** 0.0
5 H 55.027 27.045 88.897 H 0.0 **** 0.0
@<TRIPOS>BOND
1 1 2 1
2 1 3 1
3 1 4 1
4 1 5 1
@<TRIPOS>MOLECULE
CH4
5 4
SMALL
USER_CHARGES


@<TRIPOS>ATOM
1 C 37.777 55.24 80.125 C 0.0 **** 0.0
2 H 37.679 54.266 79.644 H 0.0 **** 0.0
3 H 38.157 55.964 79.404 H 0.0 **** 0.0
4 H 38.469 55.163 80.963 H 0.0 **** 0.0
5 H 36.802 55.565 80.488 H 0.0 **** 0.0
@<TRIPOS>BOND
1 1 2 1
2 1 3 1
3 1 4 1
4 1 5 1
@<TRIPOS>MOLECULE
CH4
5 4
SMALL
USER_CHARGES


@<TRIPOS>ATOM
1 C 37.257 69.277 88.022 C 0.0 **** 0.0
2 H 36.794 68.439 88.542 H 0.0 **** 0.0
3 H 38.3 69.042 87.811 H 0.0 **** 0.0
4 H 37.205 70.167 88.65 H 0.0 **** 0.0
5 H 36.729 69.462 87.087 H 0.0 **** 0.0
@<TRIPOS>BOND
1 1 2 1
2 1 3 1
3 1 4 1
4 1 5 1
@<TRIPOS>MOLECULE
CH4
5 4
SMALL
USER_CHARGES


@<TRIPOS>ATOM
1 C 47.932 97.363 4.328 C 0.0 **** 0.0
2 H 48.044 97.331 3.244 H 0.0 **** 0.0
3 H 47.837 98.399 4.653 H 0.0 **** 0.0
4 H 48.807 96.913 4.797 H 0.0 **** 0.0
5 H 47.04 96.808 4.617 H 0.0 **** 0.0
@<TRIPOS>BOND
1 1 2 1
2 1 3 1
3 1 4 1
4 1 5 1
@<TRIPOS>MOLECULE
CH4
5 4
SMALL
USER_CHARGES


@<TRIPOS>ATOM
1 C 61.413 19.754 37.284 C 0.0 **** 0.0
2 H 62.377 19.296 37.506 H 0.0 **** 0.0
3 H 61.503 20.374 36.392 H 0.0 **** 0.0
4 H 61.104 20.373 38.127 H 0.0 **** 0.0
5 H 60.671 18.975 37.114 H 0.0 **** 0.0
@<TRIPOS>BOND
1 1 2 1
2 1 3 1
3 1 4 1
4 1 5 1
@<TRIPOS>MOLECULE
CH4
5 4
SMALL
USER_CHARGES


@<TRIPOS>ATOM
1 C 81.694 61.138 43.193 C 0.0 **** 0.0
2 H 81.694 61.138 42.103 H 0.0 **** 0.0
3 H 82.718 61.231 43.556 H 0.0 **** 0.0
4 H 81.263 60.205 43.556 H 0.0 **** 0.0
5 H 81.102 61.978 43.556 H 0.0 **** 0.0
@<TRIPOS>BOND
1 1 2 1
2 1 3 1
3 1 4 1
4 1 5 1
@<TRIPOS>MOLECULE
CH4
5 4
SMALL
USER_CHARGES


@<TRIPOS>ATOM
1 C 66.964 6.944 61.496 C 0.0 **** 0.0
2 H 67.148 6.908 60.422 H 0.0 **** 0.0
3 H 67.261 7.919 61.883 H 0.0 **** 0.0
4 H 67.544 6.165 61.99 H 0.0 **** 0.0
5 H 65.903 6.784 61.688 H 0.0 **** 0.0
@<TRIPOS>BOND
1 1 2 1
2 1 3 1
3 1 4 1
4 1 5 1
@<TRIPOS>MOLECULE
CH4
5 4
SMALL
USER_CHARGES


@<TRIPOS>ATOM
1 C 45.917 0.933 59.453 C 0.0 **** 0.0
2 H 44.851 1.152 59.397 H 0.0 **** 0.0
3 H 46.147 0.5 60.427 H 0.0 **** 0.0
4 H 46.485 1.854 59.321 H 0.0 **** 0.0
5 H 46.185 0.226 58.668 H 0.0 **** 0.0
@<TRIPOS>BOND
1 1 2 1
2 1 3 1
3 1 4 1
4 1 5 1
@<TRIPOS>MOLECULE
CH4
5 4
SMALL
USER_CHARGES


@<TRIPOS>ATOM
1 C 9.696 37.567 38.507 C 0.0 **** 0.0
2 H 9.711 36.518 38.801 H 0.0 **** 0.0
3 H 10.276 38.153 39.221 H 0.0 **** 0.0
4 H 8.667 37.926 38.492 H 0.0 **** 0.0
5 H 10.132 37.672 37.513 H 0.0 **** 0.0
@<TRIPOS>BOND
1 1 2 1
2 1 3 1
3 1 4 1
4 1 5 1
@<TRIPOS>MOLECULE
CH4
5 4
SMALL
USER_CHARGES


@<TRIPOS>ATOM
1 C 37.572 89.358 15.848 C 0.0 **** 0.0
2 H 36.493 89.324 16.002 H 0.0 **** 0.0
3 H 37.913 88.397 15.462 H 0.0 **** 0.0
4 H 38.067 89.565 16.797 H 0.0 **** 0.0
5 H 37.812 90.144 15.133 H 0.0 **** 0.0
@<TRIPOS>BOND
1 1 2 1
2 1 3 1
3 1 4 1
4 1 5 1
@<TRIPOS>MOLECULE
CH4
5 4
SMALL
USER_CHARGES


@<TRIPOS>ATOM
1 C 47.468 70.386 6.402 C 0.0 **** 0.0
2 H 47.087 71.407 6.39 H 0.0 **** 0.0
3 H 46.632 69.687 6.435 H 0.0 **** 0.0
4 H 48.098 70.243 7.28 H 0.0 **** 0.0
5 H 48.056 70.208 5.501 H 0.0 **** 0.0
@<TRIPOS>BOND
1 1 2 1
2 1 3 1
3 1 4 1
4 1 5 1
@<TRIPOS>MOLECULE
CH4
5 4
SMALL
USER_CHARGES


@<TRIPOS>ATOM
1 C 25.73 79.842 36.993 C 0.0 **** 0.0
2 H 26.302 79.242 37.7 H 0.0 **** 0.0
3 H 25.198 80.627 37.53 H 0.0 **** 0.0
4 H 25.013 79.206 36.474 H 0.0 **** 0.0
5 H 26.408 80.292 36.268 H 0.0 **** 0.0
@<TRIPOS>BOND
1 1 2 1
2 1 3 1
3 1 4 1
4 1 5 1
@<TRIPOS>MOLECULE
CH4
5 4
SMALL
USER_CHARGES


@<TRIPOS>ATOM
1 C 9.872 18.038 56.42 C 0.0 **** 0.0
2 H 9.125 17.421 56.918 H 0.0 **** 0.0
3 H 10.209 18.82 57.101 H 0.0 **** 0.0
4 H 9.434 18.493 55.532 H 0.0 **** 0.0
5 H 10.721 17.418 56.131 H 0.0 **** 0.0
@<TRIPOS>BOND
1 1 2 1
2 1 3 1
3 1 4 1
4 1 5 1
@<TRIPOS>MOLECULE
CH4
5 4
SMALL
USER_CHARGES


@<TRIPOS>ATOM
1 C 85.307 37.864 22.01 C 0.0 **** 0.0
2 H 84.53 37.12 21.833 H 0.0 **** 0.0
3 H 84.904 38.67 22.624 H 0.0 **** 0.0
4 H 85.647 38.268 21.056 H 0.0 **** 0.0
5 H 86.146 37.398 22.527 H 0.0 **** 0.0
@<TRIPOS>BOND
1 1 2 1
2 1 3 1
3 1 4 1
4 1 5 1
@<TRIPOS>MOLECULE
CH4
5 4
SMALL
USER_CHARGES


@<TRIPOS>ATOM
1 C 32.182 54.146 45.923 C 0.0 **** 0.0
2 H 31.652 54.978 46.386 H 0.0 **** 0.0
3 H 33.179 54.064 46.357 H 0.0 **** 0.0
4 H 32.266 54.321 44.85 H 0.0 **** 0.0
5 H 31.632 53.222 46.099 H 0.0 **** 0.0
@<TRIPOS>BOND
1 1 2 1
2 1 3 1
3 1 4 1
4 1 5 1
@<TRIPOS>MOLECULE
CH4
5 4
SMALL
USER_CHARGES


@<TRIPOS>ATOM
1 C 63.641 63.428 30.98 C 0.0 **** 0.0
2 H 62.664 63.223 31.418 H 0.0 **** 0.0
3 H 64.126 64.231 31.534 H 0.0 **** 0.0
4 H 63.516 63.728 29.939 H 0.0 **** 0.0
5 H 64.256 62.53 31.028 H 0.0 **** 0.0
@<TRIPOS>BOND
1 1 2 1
2 1 3 1
3 1 4 1
4 1 5 1
@<TRIPOS>MOLECULE
CH4
5 4
SMALL
USER_CHARGES


@<TRIPOS>ATOM
1 C 63.521 64.972 85.164 C 0.0 **** 0.0
2 H 63.859 65.63 85.965 H 0.0 **** 0.0
3 H 64.121 65.148 84.272 H 0.0 **** 0.0
4 H 62.473 65.177 84.945 H 0.0 **** 0.0
5 H 63.63 63.934 85.478 H 0.0 **** 0.0
@<TRIPOS>BOND
1 1 2 1
2 1 3 1
3 1 4 1
4 1 5 1
@<TRIPOS>MOLECULE
CH4
5 4
SMALL
USER_CHARGES


@<TRIPOS>ATOM
1 C 23.243 1.411 14.36 C 0.0 **** 0.0
2 H 23.205 2.176 15.135 H 0.0 **** 0.0
3 H 23.519 0.456 14.806 H 0.0 **** 0.0
4 H 23.984 1.69 13.61 H 0.0 **** 0.0
5 H 22.264 1.323 13.889 H 0.0 **** 0.0
@<TRIPOS>BOND
1 1 2 1
2 1 3 1
3 1 4 1
4 1 5 1
@<TRIPOS>MOLECULE
CH4
5 4
SMALL
USER_CHARGES


@<TRIPOS>ATOM
1 C 3.766 44.469 84.411 C 0.0 **** 0.0
2 H 3.656 45.549 84.309 H 0.0 **** 0.0
3 H 4.705 44.246 84.918 H 0.0 **** 0.0
4 H 3.768 44.009 83.422 H 0.0 **** 0.0
5 H 2.934 44.073 84.994 H 0.0 **** 0.0
@<TRIPOS>BOND
1 1 2 1
2 1 3 1
3 1 4 1
4 1 5 1
@<TRIPOS>MOLECULE
CH4
5 4
SMALL
USER_CHARGES


@<TRIPOS>ATOM
1 C 32.04 1.612 30.123 C 0.0 **** 0.0
2 H 32.885 2.098 30.612 H 0.0 **** 0.0
3 H 31.506 0.997 30.848 H 0.0 **** 0.0
4 H 32.403 0.983 29.31 H 0.0 **** 0.0
5 H 31.366 2.37 29.724 H 0.0 **** 0.0
@<TRIPOS>BOND
1 1 2 1
2 1 3 1
3 1 4 1
4 1 5 1
@<TRIPOS>MOLECULE
CH4
5 4
SMALL
USER_CHARGES


@<TRIPOS>ATOM
1 C 31.705 42.645 63.267 C 0.0 **** 0.0
2 H 31.997 41.695 62.821 H 0.0 **** 0.0
3 H 31.255 42.464 64.244 H 0.0 **** 0.0
4 H 30.982 43.143 62.621 H 0.0 **** 0.0
5 H 32.585 43.277 63.384 H 0.0 **** 0.0
@<TRIPOS>BOND
1 1 2 1
2 1 3 1
3 1 4 1
4 1 5 1
@<TRIPOS>MOLECULE
CH4
5 4
SMALL
USER_CHARGES


@<TRIPOS>ATOM
1 C 74.673 48.027 16.376 C 0.0 **** 0.0
2 H 75.266 48.147 15.469 H 0.0 **** 0.0
3 H 73.653 48.365 16.19 H 0.0 **** 0.0
4 H 75.113 48.619 17.178 H 0.0 **** 0.0
5 H 74.661 46.976 16.664 H 0.0 **** 0.0
@<TRIPOS>BOND
1 1 2 1
2 1 3 1
3 1 4 1
4 1 5 1
@<TRIPOS>MOLECULE
CH4
5 4
SMALL
USER_CHARGES


@<TRIPOS>ATOM
1 C 18.605 95.093 84.331 C 0.0 **** 0.0
2 H 18.133 94.113 84.264 H 0.0 **** 0.0
3 H 17.884 95.863 84.058 H 0.0 **** 0.0
4 H 19.456 95.133 83.651 H 0.0 **** 0.0
5 H 18.948 95.261 85.352 H 0.0 **** 0.0
@<TRIPOS>BOND
1 1 2 1
2 1 3 1
3 1 4 1
4 1 5 1
@<TRIPOS>MOLECULE
CH4
5 4
SMALL
USER_CHARGES


@<TRIPOS>ATOM
1 C 80.706 68.317 8.874 C 0.0 **** 0.0
2 H 81.46 68.112 8.114 H 0.0 **** 0.0
3 H 79.747 68.509 8.392 H 0.0 **** 0.0
4 H 81.004 69.192 9.453 H 0.0 **** 0.0
5 H 80.615 67.457 9.536 H 0.0 **** 0.0
@<TRIPOS>BOND
1 1 2 1
2 1 3 1
3 1 4 1
4 1 5 1
@<TRIPOS>MOLECULE
CH4
5 4
SMALL
USER_CHARGES


@<TRIPOS>ATOM
1 C 72.525 44.663 24.418 C 0.0 **** 0.0
2 H 72.028 45.378 25.074 H 0.0 **** 0.0
3 H 72.142 44.776 23.403 H 0.0 **** 0.0
4 H 72.33 43.651 24.77 H 0.0 **** 0.0
5 H 73.599 44.85 24.425 H 0.0 **** 0.0
@<TRIPOS>BOND
1 1 2 1
2 1 3 1
3 1 4 1
4 1 5 1
@<TRIPOS>MOLECULE
CH4
5 4
SMALL
USER_CHARGES


@<TRIPOS>ATOM
1 C 54.276 1.941 46.525 C 0.0 **** 0.0
2 H 53.818 1.775 45.55 H 0.0 **** 0.0
3 H 53.53 2.341 47.213 H 0.0 **** 0.0
4 H 55.096 2.651 46.425 H 0.0 **** 0.0
5 H 54.658 0.996 46.912 H 0.0 **** 0.0
@<TRIPOS>BOND
1 1 2 1
2 1 3 1
3 1 4 1
4 1 5 1
@<TRIPOS>MOLECULE
CH4
5 4
SMALL
USER_CHARGES


@<TRIPOS>ATOM
1 C 46.056 44.506 19.467 C 0.0 **** 0.0
2 H 45.79 44.945 18.505 H 0.0 **** 0.0
3 H 46.159 45.296 20.211 H 0.0 **** 0.0
4 H 47.0 43.97 19.372 H 0.0 **** 0.0
5 H 45.275 43.813 19.779 H 0.0 **** 0.0
@<TRIPOS>BOND
1 1 2 1
2 1 3 1
3 1 4 1
4 1 5 1
@<TRIPOS>MOLECULE
CH4
5 4
SMALL
USER_CHARGES


@<TRIPOS>ATOM
1 C 81.855 70.028 88.256 C 0.0 **** 0.0
2 H 81.939 70.01 87.169 H 0.0 **** 0.0
3 H 82.609 69.369 88.689 H 0.0 **** 0.0
4 H 80.862 69.687 88.549 H 0.0 **** 0.0
5 H 82.011 71.045 88.615 H 0.0 **** 0.0
@<TRIPOS>BOND
1 1 2 1
2 1 3 1
3 1 4 1
4 1 5 1
@<TRIPOS>MOLECULE
CH4
5 4
SMALL
USER_CHARGES


@<TRIPOS>ATOM
1 C 86.466 53.254 49.76 C 0.0 **** 0.0
2 H 86.617 54.244 50.19 H 0.0 **** 0.0
3 H 87.306 52.611 50.023 H 0.0 **** 0.0
4 H 86.396 53.336 48.675 H 0.0 **** 0.0
5 H 85.543 52.825 50.152 H 0.0 **** 0.0
@<TRIPOS>BOND
1 1 2 1
2 1 3 1
3 1 4 1
4 1 5 1
@<TRIPOS>MOLECULE
CH4
5 4
SMALL
USER_CHARGES


@<TRIPOS>ATOM
1 C 38.309 28.126 1.102 C 0.0 **** 0.0
2 H 38.359 28.253 2.183 H 0.0 **** 0.0
3 H 39.177 27.561 0.762 H 0.0 **** 0.0
4 H 38.3 29.104 0.621 H 0.0 **** 0.0
5 H 37.398 27.586 0.842 H 0.0 **** 0.0
@<TRIPOS>BOND
1 1 2 1
2 1 3 1
3 1 4 1
4 1 5 1
@<TRIPOS>MOLECULE
CH4
5 4
SMALL
USER_CHARGES


@<TRIPOS>ATOM
1 C 59.823 38.777 61.817 C 0.0 **** 0.0
2 H 59.688 38.095 62.657 H 0.0 **** 0.0
3 H 60.836 39.181 61.837 H 0.0 **** 0.0
4 H 59.104 39.592 61.892 H 0.0 **** 0.0
5 H 59.666 38.237 60.883 H 0.0 **** 0.0
@<TRIPOS>BOND
1 1 3 1
2 1 4 1
3 1 5 1
4 1 2 1
@<TRIPOS>MOLECULE
CH4
5 4
SMALL
USER_CHARGES


@<TRIPOS>ATOM
1 C 51.805 54.407 36.621 C 0.0 **** 0.0
2 H 51.613 53.61 35.903 H 0.0 **** 0.0
3 H 50.872 54.923 36.849 H 0.0 **** 0.0
4 H 52.518 55.114 36.196 H 0.0 **** 0.0
5 H 52.218 53.98 37.535 H 0.0 **** 0.0
@<TRIPOS>BOND
1 1 2 1
2 1 3 1
3 1 4 1
4 1 5 1
@<TRIPOS>MOLECULE
CH4
5 4
SMALL
USER_CHARGES


@<TRIPOS>ATOM
1 C 61.924 86.787 57.365 C 0.0 **** 0.0
2 H 61.615 86.036 56.637 H 0.0 **** 0.0
3 H 62.977 86.646 57.607 H 0.0 **** 0.0
4 H 61.325 86.682 58.27 H 0.0 **** 0.0
5 H 61.777 87.782 56.945 H 0.0 **** 0.0
@<TRIPOS>BOND
1 1 2 1
2 1 3 1
3 1 4 1
4 1 5 1
@<TRIPOS>MOLECULE
CH4
5 4
SMALL
USER_CHARGES


@<TRIPOS>ATOM
1 C 65.902 7.739 39.721 C 0.0 **** 0.0
2 H 65.801 8.129 40.734 H 0.0 **** 0.0
3 H 66.834 7.18 39.638 H 0.0 **** 0.0
4 H 65.909 8.567 39.012 H 0.0 **** 0.0
5 H 65.062 7.08 39.5 H 0.0 **** 0.0
@<TRIPOS>BOND
1 1 2 1
2 1 3 1
3 1 4 1
4 1 5 1
@<TRIPOS>MOLECULE
CH4
5 4
SMALL
USER_CHARGES


@<TRIPOS>ATOM
1 C 73.943 54.526 79.585 C 0.0 **** 0.0
2 H 74.865 54.986 79.23 H 0.0 **** 0.0
3 H 74.007 53.444 79.467 H 0.0 **** 0.0
4 H 73.101 54.906 79.006 H 0.0 **** 0.0
5 H 73.798 54.769 80.638 H 0.0 **** 0.0
@<TRIPOS>BOND
1 1 2 1
2 1 3 1
3 1 4 1
4 1 5 1
@<TRIPOS>MOLECULE
CH4
5 4
SMALL
USER_CHARGES


@<TRIPOS>ATOM
1 C 52.479 73.559 14.36 C 0.0 **** 0.0
2 H 53.116 73.467 15.24 H 0.0 **** 0.0
3 H 53.075 73.907 13.515 H 0.0 **** 0.0
4 H 51.683 74.276 14.562 H 0.0 **** 0.0
5 H 52.044 72.589 14.123 H 0.0 **** 0.0
@<TRIPOS>BOND
1 1 2 1
2 1 3 1
3 1 4 1
4 1 5 1
@<TRIPOS>MOLECULE
CH4
5 4
SMALL
USER_CHARGES


@<TRIPOS>ATOM
1 C 53.658 50.204 84.265 C 0.0 **** 0.0
2 H 52.92 50.545 84.99 H 0.0 **** 0.0
3 H 53.53 49.136 84.091 H 0.0 **** 0.0
4 H 54.66 50.392 84.651 H 0.0 **** 0.0
5 H 53.523 50.744 83.328 H 0.0 **** 0.0
@<TRIPOS>BOND
1 1 2 1
2 1 3 1
3 1 4 1
4 1 5 1
@<TRIPOS>MOLECULE
CH4
5 4
SMALL
USER_CHARGES


@<TRIPOS>ATOM
1 C 69.173 8.818 4.407 C 0.0 **** 0.0
2 H 69.694 8.535 3.492 H 0.0 **** 0.0
3 H 68.926 7.922 4.976 H 0.0 **** 0.0
4 H 68.257 9.351 4.152 H 0.0 **** 0.0
5 H 69.815 9.464 5.005 H 0.0 **** 0.0
@<TRIPOS>BOND
1 1 2 1
2 1 3 1
3 1 4 1
4 1 5 1
@<TRIPOS>MOLECULE
CH4
5 4
SMALL
USER_CHARGES


@<TRIPOS>ATOM
1 C 56.846 44.978 54.609 C 0.0 **** 0.0
2 H 57.045 46.026 54.837 H 0.0 **** 0.0
3 H 55.931 44.666 55.113 H 0.0 **** 0.0
4 H 57.679 44.366 54.954 H 0.0 **** 0.0
5 H 56.728 44.857 53.532 H 0.0 **** 0.0
@<TRIPOS>BOND
1 1 2 1
2 1 3 1
3 1 4 1
4 1 5 1
@<TRIPOS>MOLECULE
CH4
5 4
SMALL
USER_CHARGES


@<TRIPOS>ATOM
1 C 75.32 87.378 98.309 C 0.0 **** 0.0
2 H 75.444 87.238 97.235 H 0.0 **** 0.0
3 H 74.855 86.491 98.74 H 0.0 **** 0.0
4 H 74.685 88.246 98.491 H 0.0 **** 0.0
5 H 76.295 87.538 98.769 H 0.0 **** 0.0
@<TRIPOS>BOND
1 1 2 1
2 1 3 1
3 1 4 1
4 1 5 1
@<TRIPOS>MOLECULE
CH4
5 4
SMALL
USER_CHARGES


@<TRIPOS>ATOM
1 C 74.489 20.46 26.959 C 0.0 **** 0.0
2 H 74.845 20.16 25.973 H 0.0 **** 0.0
3 H 74.865 21.456 27.193 H 0.0 **** 0.0
4 H 74.849 19.751 27.706 H 0.0 **** 0.0
5 H 73.399 20.471 26.964 H 0.0 **** 0.0
@<TRIPOS>BOND
1 1 2 1
2 1 3 1
3 1 4 1
4 1 5 1
@<TRIPOS>MOLECULE
CH4
5 4
SMALL
USER_CHARGES


@<TRIPOS>ATOM
1 C 84.249 43.579 75.144 C 0.0 **** 0.0
2 H 85.107 43.825 74.519 H 0.0 **** 0.0
3 H 83.897 42.577 74.899 H 0.0 **** 0.0
4 H 83.451 44.299 74.965 H 0.0 **** 0.0
5 H 84.543 43.615 76.193 H 0.0 **** 0.0
@<TRIPOS>BOND
1 1 2 1
2 1 3 1
3 1 4 1
4 1 5 1
@<TRIPOS>MOLECULE
CH4
5 4
SMALL
USER_CHARGES


@<TRIPOS>ATOM
1 C 41.971 55.953 5.973 C 0.0 **** 0.0
2 H 41.172 55.25 6.208 H 0.0 **** 0.0
3 H 42.699 55.959 6.785 H 0.0 **** 0.0
4 H 41.552 56.952 5.852 H 0.0 **** 0.0
5 H 42.461 55.65 5.048 H 0.0 **** 0.0
@<TRIPOS>BOND
1 1 2 1
2 1 3 1
3 1 4 1
4 1 5 1
@<TRIPOS>MOLECULE
CH4
5 4
SMALL
USER_CHARGES


@<TRIPOS>ATOM
1 C 9.86 40.745 60.599 C 0.0 **** 0.0
2 H 8.967 41.343 60.417 H 0.0 **** 0.0
3 H 10.63 41.015 59.876 H 0.0 **** 0.0
4 H 9.616 39.688 60.494 H 0.0 **** 0.0
5 H 10.225 40.935 61.608 H 0.0 **** 0.0
@<TRIPOS>BOND
1 1 2 1
2 1 3 1
3 1 4 1
4 1 5 1
@<TRIPOS>MOLECULE
CH4
5 4
SMALL
USER_CHARGES


@<TRIPOS>ATOM
1 C 76.056 48.95 56.94 C 0.0 **** 0.0
2 H 75.541 49.063 55.987 H 0.0 **** 0.0
3 H 75.655 49.667 57.658 H 0.0 **** 0.0
4 H 77.122 49.132 56.801 H 0.0 **** 0.0
5 H 75.906 47.937 57.316 H 0.0 **** 0.0
@<TRIPOS>BOND
1 1 2 1
2 1 3 1
3 1 4 1
4 1 5 1
@<TRIPOS>MOLECULE
CH4
5 4
SMALL
USER_CHARGES


@<TRIPOS>ATOM
1 C 84.12 30.415 87.249 C 0.0 **** 0.0
2 H 85.103 30.881 87.19 H 0.0 **** 0.0
3 H 84.144 29.609 87.982 H 0.0 **** 0.0
4 H 83.85 30.011 86.273 H 0.0 **** 0.0
5 H 83.383 31.16 87.551 H 0.0 **** 0.0
@<TRIPOS>BOND
1 1 2 1
2 1 3 1
3 1 4 1
4 1 5 1
@<TRIPOS>MOLECULE
CH4
5 4
SMALL
USER_CHARGES


@<TRIPOS>ATOM
1 C 29.139 26.271 32.463 C 0.0 **** 0.0
2 H 29.964 26.822 32.913 H 0.0 **** 0.0
3 H 28.931 25.38 33.055 H 0.0 **** 0.0
4 H 29.409 25.978 31.448 H 0.0 **** 0.0
5 H 28.252 26.905 32.434 H 0.0 **** 0.0
@<TRIPOS>BOND
1 1 2 1
2 1 3 1
3 1 4 1
4 1 5 1
@<TRIPOS>MOLECULE
CH4
5 4
SMALL
USER_CHARGES


@<TRIPOS>ATOM
1 C 75.921 2.659 25.359 C 0.0 **** 0.0
2 H 76.389 2.907 24.406 H 0.0 **** 0.0
3 H 76.587 2.017 25.935 H 0.0 **** 0.0
4 H 74.981 2.137 25.176 H 0.0 **** 0.0
5 H 75.725 3.575 25.916 H 0.0 **** 0.0
@<TRIPOS>BOND
1 1 2 1
2 1 3 1
3 1 4 1
4 1 5 1
@<TRIPOS>MOLECULE
CH4
5 4
SMALL
USER_CHARGES


@<TRIPOS>ATOM
1 C 29.046 85.415 42.704 C 0.0 **** 0.0
2 H 29.011 85.811 43.72 H 0.0 **** 0.0
3 H 29.328 84.362 42.735 H 0.0 **** 0.0
4 H 29.781 85.972 42.123 H 0.0 **** 0.0
5 H 28.064 85.515 42.242 H 0.0 **** 0.0
@<TRIPOS>BOND
1 1 2 1
2 1 3 1
3 1 4 1
4 1 5 1
@<TRIPOS>MOLECULE
CH4
5 4
SMALL
USER_CHARGES


@<TRIPOS>ATOM
1 C 89.858 87.817 67.568 C 0.0 **** 0.0
2 H 90.408 87.4 68.411 H 0.0 **** 0.0
3 H 90.561 88.161 66.809 H 0.0 **** 0.0
4 H 89.252 88.657 67.91 H 0.0 **** 0.0
5 H 89.209 87.051 67.143 H 0.0 **** 0.0
@<TRIPOS>BOND
1 1 2 1
2 1 3 1
3 1 4 1
4 1 5 1
@<TRIPOS>MOLECULE
CH4
5 4
SMALL
USER_CHARGES


@<TRIPOS>ATOM
1 C 56.362 2.445 10.647 C 0.0 **** 0.0
2 H 57.353 2.323 11.083 H 0.0 **** 0.0
3 H 56.407 2.235 9.579 H 0.0 **** 0.0
4 H 56.02 3.468 10.803 H 0.0 **** 0.0
5 H 55.668 1.754 11.125 H 0.0 **** 0.0
@<TRIPOS>BOND
1 1 2 1
2 1 3 1
3 1 4 1
4 1 5 1
@<TRIPOS>MOLECULE
CH4
5 4
SMALL
USER_CHARGES


@<TRIPOS>ATOM
1 C 72.646 14.419 22.101 C 0.0 **** 0.0
2 H 72.513 15.299 22.729 H 0.0 **** 0.0
3 H 72.603 14.712 21.052 H 0.0 **** 0.0
4 H 71.855 13.7 22.311 H 0.0 **** 0.0
5 H 73.615 13.966 22.312 H 0.0 **** 0.0
@<TRIPOS>BOND
1 1 2 1
2 1 3 1
3 1 4 1
4 1 5 1
@<TRIPOS>MOLECULE
CH4
5 4
SMALL
USER_CHARGES


@<TRIPOS>ATOM
1 C 34.969 81.481 11.36 C 0.0 **** 0.0
2 H 34.74 80.452 11.637 H 0.0 **** 0.0
3 H 36.05 81.617 11.331 H 0.0 **** 0.0
4 H 34.536 82.16 12.094 H 0.0 **** 0.0
5 H 34.549 81.694 10.377 H 0.0 **** 0.0
@<TRIPOS>BOND
1 1 2 1
2 1 3 1
3 1 4 1
4 1 5 1
@<TRIPOS>MOLECULE
CH4
5 4
SMALL
USER_CHARGES


@<TRIPOS>ATOM
1 C 86.332 37.199 4.089 C 0.0 **** 0.0
2 H 85.966 37.721 3.205 H 0.0 **** 0.0
3 H 86.661 36.198 3.81 H 0.0 **** 0.0
4 H 85.532 37.127 4.826 H 0.0 **** 0.0
5 H 87.169 37.752 4.516 H 0.0 **** 0.0
@<TRIPOS>BOND
1 1 2 1
2 1 3 1
3 1 4 1
4 1 5 1
@<TRIPOS>MOLECULE
CH4
5 4
SMALL
USER_CHARGES


@<TRIPOS>ATOM
1 C 4.732 96.786 32.439 C 0.0 **** 0.0
2 H 5.521 96.859 31.69 H 0.0 **** 0.0
3 H 5.164 96.489 33.394 H 0.0 **** 0.0
4 H 4.0 96.042 32.123 H 0.0 **** 0.0
5 H 4.243 97.754 32.546 H 0.0 **** 0.0
@<TRIPOS>BOND
1 1 2 1
2 1 3 1
3 1 4 1
4 1 5 1
@<TRIPOS>MOLECULE
CH4
5 4
SMALL
USER_CHARGES


@<TRIPOS>ATOM
1 C 34.851 72.569 80.03 C 0.0 **** 0.0
2 H 34.249 71.677 79.857 H 0.0 **** 0.0
3 H 34.237 73.333 80.508 H 0.0 **** 0.0
4 H 35.224 72.946 79.077 H 0.0 **** 0.0
5 H 35.692 72.32 80.677 H 0.0 **** 0.0
@<TRIPOS>BOND
1 1 2 1
2 1 3 1
3 1 4 1
4 1 5 1
@<TRIPOS>MOLECULE
CH4
5 4
SMALL
USER_CHARGES


@<TRIPOS>ATOM
1 C 44.813 6.216 27.999 C 0.0 **** 0.0
2 H 43.839 5.734 27.91 H 0.0 **** 0.0
3 H 45.424 5.962 27.132 H 0.0 **** 0.0
4 H 45.308 5.871 28.906 H 0.0 **** 0.0
5 H 44.68 7.297 28.046 H 0.0 **** 0.0
@<TRIPOS>BOND
1 1 2 1
2 1 3 1
3 1 4 1
4 1 5 1
@<TRIPOS>MOLECULE
CH4
5 4
SMALL
USER_CHARGES


@<TRIPOS>ATOM
1 C 0.837 56.758 54.44 C 0.0 **** 0.0
2 H 0.491 56.637 55.466 H 0.0 **** 0.0
3 H 1.609 57.527 54.406 H 0.0 **** 0.0
4 H 0.001 57.054 53.807 H 0.0 **** 0.0
5 H 1.248 55.814 54.082 H 0.0 **** 0.0
@<TRIPOS>BOND
1 1 2 1
2 1 3 1
3 1 4 1
4 1 5 1
@<TRIPOS>MOLECULE
CH4
5 4
SMALL
USER_CHARGES


@<TRIPOS>ATOM
1 C 59.385 32.145 22.94 C 0.0 **** 0.0
2 H 58.623 32.892 23.161 H 0.0 **** 0.0
3 H 59.684 31.647 23.862 H 0.0 **** 0.0
4 H 60.252 32.632 22.492 H 0.0 **** 0.0
5 H 58.982 31.41 22.243 H 0.0 **** 0.0
@<TRIPOS>BOND
1 1 2 1
2 1 3 1
3 1 4 1
4 1 5 1
@<TRIPOS>MOLECULE
CH4
5 4
SMALL
USER_CHARGES


@<TRIPOS>ATOM
1 C 62.919 64.253 92.036 C 0.0 **** 0.0
2 H 62.993 65.215 92.543 H 0.0 **** 0.0
3 H 63.299 64.348 91.019 H 0.0 **** 0.0
4 H 61.877 63.937 92.008 H 0.0 **** 0.0
5 H 63.509 63.512 92.576 H 0.0 **** 0.0
@<TRIPOS>BOND
1 1 2 1
2 1 3 1
3 1 4 1
4 1 5 1
@<TRIPOS>MOLECULE
CH4
5 4
SMALL
USER_CHARGES


@<TRIPOS>ATOM
1 C 21.856 45.855 58.025 C 0.0 **** 0.0
2 H 21.802 45.003 57.346 H 0.0 **** 0.0
3 H 22.332 46.694 57.517 H 0.0 **** 0.0
4 H 22.442 45.582 58.903 H 0.0 **** 0.0
5 H 20.85 46.138 58.333 H 0.0 **** 0.0
@<TRIPOS>BOND
1 1 2 1
2 1 3 1
3 1 4 1
4 1 5 1
@<TRIPOS>MOLECULE
CH4
5 4
SMALL
USER_CHARGES


@<TRIPOS>ATOM
1 C 83.631 45.048 70.354 C 0.0 **** 0.0
2 H 83.227 45.762 69.636 H 0.0 **** 0.0
3 H 84.535 44.595 69.946 H 0.0 **** 0.0
4 H 82.892 44.272 70.55 H 0.0 **** 0.0
5 H 83.871 45.565 71.284 H 0.0 **** 0.0
@<TRIPOS>BOND
1 1 2 1
2 1 3 1
3 1 4 1
4 1 5 1
@<TRIPOS>MOLECULE
CH4
5 4
SMALL
USER_CHARGES


@<TRIPOS>ATOM
1 C 52.906 75.72 31.326 C 0.0 **** 0.0
2 H 52.971 75.965 32.386 H 0.0 **** 0.0
3 H 52.399 74.762 31.206 H 0.0 **** 0.0
4 H 53.909 75.655 30.906 H 0.0 **** 0.0
5 H 52.344 76.496 30.807 H 0.0 **** 0.0
@<TRIPOS>BOND
1 1 2 1
2 1 3 1
3 1 4 1
4 1 5 1
@<TRIPOS>MOLECULE
CH4
5 4
SMALL
USER_CHARGES


@<TRIPOS>ATOM
1 C 83.077 85.872 91.965 C 0.0 **** 0.0
2 H 83.128 85.691 93.039 H 0.0 **** 0.0
3 H 84.036 86.255 91.616 H 0.0 **** 0.0
4 H 82.295 86.602 91.757 H 0.0 **** 0.0
5 H 82.849 84.938 91.451 H 0.0 **** 0.0
@<TRIPOS>BOND
1 1 2 1
2 1 3 1
3 1 4 1
4 1 5 1
@<TRIPOS>MOLECULE
CH4
5 4
SMALL
USER_CHARGES


@<TRIPOS>ATOM
1 C 30.582 25.43 38.838 C 0.0 **** 0.0
2 H 31.486 25.85 39.279 H 0.0 **** 0.0
3 H 30.812 24.463 38.39 H 0.0 **** 0.0
4 H 30.205 26.106 38.071 H 0.0 **** 0.0
5 H 29.827 25.301 39.613 H 0.0 **** 0.0
@<TRIPOS>BOND
1 1 2 1
2 1 3 1
3 1 4 1
4 1 5 1
@<TRIPOS>MOLECULE
CH4
5 4
SMALL
USER_CHARGES


@<TRIPOS>ATOM
1 C 65.042 36.183 55.001 C 0.0 **** 0.0
2 H 65.848 35.453 55.084 H 0.0 **** 0.0
3 H 64.369 36.077 55.852 H 0.0 **** 0.0
4 H 64.491 36.011 54.077 H 0.0 **** 0.0
5 H 65.463 37.188 54.992 H 0.0 **** 0.0
@<TRIPOS>BOND
1 1 2 1
2 1 3 1
3 1 4 1
4 1 5 1
@<TRIPOS>MOLECULE
CH4
5 4
SMALL
USER_CHARGES


@<TRIPOS>ATOM
1 C 61.769 31.042 55.666 C 0.0 **** 0.0
2 H 62.443 31.785 55.241 H 0.0 **** 0.0
3 H 62.153 30.712 56.631 H 0.0 **** 0.0
4 H 61.699 30.188 54.992 H 0.0 **** 0.0
5 H 60.78 31.481 55.799 H 0.0 **** 0.0
@<TRIPOS>BOND
1 1 2 1
2 1 3 1
3 1 4 1
4 1 5 1
@<TRIPOS>MOLECULE
CH4
5 4
SMALL
USER_CHARGES


@<TRIPOS>ATOM
1 C 57.663 83.039 22.071 C 0.0 **** 0.0
2 H 57.96 83.291 23.089 H 0.0 **** 0.0
3 H 58.502 83.21 21.395 H 0.0 **** 0.0
4 H 56.822 83.665 21.773 H 0.0 **** 0.0
5 H 57.369 81.99 22.028 H 0.0 **** 0.0
@<TRIPOS>BOND
1 1 2 1
2 1 3 1
3 1 4 1
4 1 5 1
@<TRIPOS>MOLECULE
CH4
5 4
SMALL
USER_CHARGES


@<TRIPOS>ATOM
1 C 69.23 87.707 20.006 C 0.0 **** 0.0
2 H 69.345 87.696 21.09 H 0.0 **** 0.0
3 H 68.174 87.8 19.753 H 0.0 **** 0.0
4 H 69.624 86.78 19.589 H 0.0 **** 0.0
5 H 69.779 88.553 19.592 H 0.0 **** 0.0
@<TRIPOS>BOND
1 1 2 1
2 1 3 1
3 1 4 1
4 1 5 1
@<TRIPOS>MOLECULE
CH4
5 4
SMALL
USER_CHARGES


@<TRIPOS>ATOM
1 C 31.949 34.406 64.252 C 0.0 **** 0.0
2 H 33.03 34.551 64.251 H 0.0 **** 0.0
3 H 31.456 35.349 64.015 H 0.0 **** 0.0
4 H 31.63 34.066 65.237 H 0.0 **** 0.0
5 H 31.683 33.658 63.506 H 0.0 **** 0.0
@<TRIPOS>BOND
1 1 2 1
2 1 3 1
3 1 4 1
4 1 5 1
@<TRIPOS>MOLECULE
CH4
5 4
SMALL
USER_CHARGES


@<TRIPOS>ATOM
1 C 27.486 93.212 39.861 C 0.0 **** 0.0
2 H 26.633 93.744 39.439 H 0.0 **** 0.0
3 H 28.259 93.929 40.139 H 0.0 **** 0.0
4 H 27.883 92.518 39.12 H 0.0 **** 0.0
5 H 27.168 92.659 40.745 H 0.0 **** 0.0
@<TRIPOS>BOND
1 1 2 1
2 1 3 1
3 1 4 1
4 1 5 1
@<TRIPOS>MOLECULE
CH4
5 4
SMALL
USER_CHARGES


@<TRIPOS>ATOM
1 C 84.479 3.332 20.738 C 0.0 **** 0.0
2 H 85.361 2.771 20.43 H 0.0 **** 0.0
3 H 84.595 3.651 21.774 H 0.0 **** 0.0
4 H 83.596 2.699 20.648 H 0.0 **** 0.0
5 H 84.365 4.208 20.099 H 0.0 **** 0.0
@<TRIPOS>BOND
1 1 2 1
2 1 3 1
3 1 4 1
4 1 5 1
@<TRIPOS>MOLECULE
CH4
5 4
SMALL
USER_CHARGES


@<TRIPOS>ATOM
1 C 78.33 64.173 19.331 C 0.0 **** 0.0
2 H 79.012 63.639 18.669 H 0.0 **** 0.0
3 H 77.308 63.84 19.145 H 0.0 **** 0.0
4 H 78.403 65.244 19.14 H 0.0 **** 0.0
5 H 78.596 63.969 20.368 H 0.0 **** 0.0
@<TRIPOS>BOND
1 1 2 1
2 1 3 1
3 1 4 1
4 1 5 1
@<TRIPOS>MOLECULE
CH4
5 4
SMALL
USER_CHARGES


@<TRIPOS>ATOM
1 C 5.382 11.529 29.485 C 0.0 **** 0.0
2 H 5.739 11.925 28.534 H 0.0 **** 0.0
3 H 6.135 10.863 29.907 H 0.0 **** 0.0
4 H 4.457 10.975 29.323 H 0.0 **** 0.0
5 H 5.197 12.352 30.175 H 0.0 **** 0.0
@<TRIPOS>BOND
1 1 2 1
2 1 3 1
3 1 4 1
4 1 5 1
@<TRIPOS>MOLECULE
CH4
5 4
SMALL
USER_CHARGES


@<TRIPOS>ATOM
1 C 29.1 26.301 54.176 C 0.0 **** 0.0
2 H 29.865 25.644 54.589 H 0.0 **** 0.0
3 H 28.254 26.35 54.863 H 0.0 **** 0.0
4 H 28.766 25.909 53.215 H 0.0 **** 0.0
5 H 29.514 27.299 54.037 H 0.0 **** 0.0
@<TRIPOS>BOND
1 1 2 1
2 1 3 1
3 1 4 1
4 1 5 1
@<TRIPOS>MOLECULE
CH4
5 4
SMALL
USER_CHARGES


@<TRIPOS>ATOM
1 C 31.83 39.578 82.667 C 0.0 **** 0.0
2 H 32.38 39.344 81.756 H 0.0 **** 0.0
3 H 31.143 38.763 82.895 H 0.0 **** 0.0
4 H 31.267 40.5 82.526 H 0.0 **** 0.0
5 H 32.531 39.703 83.492 H 0.0 **** 0.0
@<TRIPOS>BOND
1 1 2 1
2 1 3 1
3 1 4 1
4 1 5 1
@<TRIPOS>MOLECULE
CH4
5 4
SMALL
USER_CHARGES


@<TRIPOS>ATOM
1 C 51.048 29.78 15.192 C 0.0 **** 0.0
2 H 50.527 30.591 14.682 H 0.0 **** 0.0
3 H 50.563 28.833 14.955 H 0.0 **** 0.0
4 H 51.013 29.947 16.269 H 0.0 **** 0.0
5 H 52.086 29.751 14.862 H 0.0 **** 0.0
@<TRIPOS>BOND
1 1 2 1
2 1 3 1
3 1 4 1
4 1 5 1
@<TRIPOS>MOLECULE
CH4
5 4
SMALL
USER_CHARGES


@<TRIPOS>ATOM
1 C 19.909 36.611 45.084 C 0.0 **** 0.0
2 H 20.089 36.585 44.009 H 0.0 **** 0.0
3 H 19.815 37.646 45.411 H 0.0 **** 0.0
4 H 20.744 36.14 45.603 H 0.0 **** 0.0
5 H 18.99 36.072 45.311 H 0.0 **** 0.0
@<TRIPOS>BOND
1 1 2 1
2 1 3 1
3 1 4 1
4 1 5 1
@<TRIPOS>MOLECULE
CH4
5 4
SMALL
USER_CHARGES


@<TRIPOS>ATOM
1 C 10.871 34.854 45.132 C 0.0 **** 0.0
2 H 11.272 35.596 44.442 H 0.0 **** 0.0
3 H 9.782 34.913 45.137 H 0.0 **** 0.0
4 H 11.25 35.05 46.135 H 0.0 **** 0.0
5 H 11.18 33.858 44.815 H 0.0 **** 0.0
@<TRIPOS>BOND
1 1 2 1
2 1 3 1
3 1 4 1
4 1 5 1
@<TRIPOS>MOLECULE
CH4
5 4
SMALL
USER_CHARGES


@<TRIPOS>ATOM
1 C 51.936 92.852 93.327 C 0.0 **** 0.0
2 H 52.312 92.541 94.302 H 0.0 **** 0.0
3 H 52.775 93.103 92.678 H 0.0 **** 0.0
4 H 51.295 93.726 93.447 H 0.0 **** 0.0
5 H 51.362 92.039 92.883 H 0.0 **** 0.0
@<TRIPOS>BOND
1 1 2 1
2 1 3 1
3 1 4 1
4 1 5 1
@<TRIPOS>MOLECULE
CH4
5 4
SMALL
USER_CHARGES


@<TRIPOS>ATOM
1 C 15.934 73.677 43.847 C 0.0 **** 0.0
2 H 16.593 74.369 43.322 H 0.0 **** 0.0
3 H 15.403 73.06 43.121 H 0.0 **** 0.0
4 H 15.215 74.241 44.44 H 0.0 **** 0.0
5 H 16.526 73.039 44.503 H 0.0 **** 0.0
@<TRIPOS>BOND
1 1 2 1
2 1 3 1
3 1 4 1
4 1 5 1
@<TRIPOS>MOLECULE
CH4
5 4
SMALL
USER_CHARGES


@<TRIPOS>ATOM
1 C 69.299 60.988 6.26 C 0.0 **** 0.0
2 H 70.034 61.446 5.599 H 0.0 **** 0.0
3 H 68.657 60.322 5.683 H 0.0 **** 0.0
4 H 68.692 61.766 6.723 H 0.0 **** 0.0
5 H 69.812 60.418 7.034 H 0.0 **** 0.0
@<TRIPOS>BOND
1 1 2 1
2 1 3 1
3 1 4 1
4 1 5 1
@<TRIPOS>MOLECULE
CH4
5 4
SMALL
USER_CHARGES


@<TRIPOS>ATOM
1 C 12.263 53.373 60.388 C 0.0 **** 0.0
2 H 12.626 53.317 61.414 H 0.0 **** 0.0
3 H 11.173 53.371 60.388 H 0.0 **** 0.0
4 H 12.628 52.513 59.826 H 0.0 **** 0.0
5 H 12.625 54.29 59.924 H 0.0 **** 0.0
@<TRIPOS>BOND
1 1 2 1
2 1 3 1
3 1 4 1
4 1 5 1
@<TRIPOS>MOLECULE
CH4
5 4
SMALL
USER_CHARGES


@<TRIPOS>ATOM
1 C 31.487 37.108 93.098 C 0.0 **** 0.0
2 H 30.655 37.197 93.798 H 0.0 **** 0.0
3 H 31.4 36.171 92.549 H 0.0 **** 0.0
4 H 32.427 37.122 93.649 H 0.0 **** 0.0
5 H 31.463 37.943 92.398 H 0.0 **** 0.0
@<TRIPOS>BOND
1 1 2 1
2 1 3 1
3 1 4 1
4 1 5 1
@<TRIPOS>MOLECULE
CH4
5 4
SMALL
USER_CHARGES


@<TRIPOS>ATOM
1 C 61.17 34.229 36.734 C 0.0 **** 0.0
2 H 61.185 33.696 37.685 H 0.0 **** 0.0
3 H 60.177 34.647 36.568 H 0.0 **** 0.0
4 H 61.414 33.538 35.927 H 0.0 **** 0.0
5 H 61.905 35.033 36.757 H 0.0 **** 0.0
@<TRIPOS>BOND
1 1 2 1
2 1 3 1
3 1 4 1
4 1 5 1
@<TRIPOS>MOLECULE
CH4
5 4
SMALL
USER_CHARGES


@<TRIPOS>ATOM
1 C 14.509 86.604 21.666 C 0.0 **** 0.0
2 H 14.648 86.22 20.655 H 0.0 **** 0.0
3 H 14.476 87.693 21.64 H 0.0 **** 0.0
4 H 15.338 86.279 22.294 H 0.0 **** 0.0
5 H 13.573 86.221 22.073 H 0.0 **** 0.0
@<TRIPOS>BOND
1 1 2 1
2 1 3 1
3 1 4 1
4 1 5 1
@<TRIPOS>MOLECULE
CH4
5 4
SMALL
USER_CHARGES


@<TRIPOS>ATOM
1 C 98.247 31.756 17.034 C 0.0 **** 0.0
2 H 98.107 31.867 15.959 H 0.0 **** 0.0
3 H 98.941 32.518 17.39 H 0.0 **** 0.0
4 H 98.652 30.767 17.247 H 0.0 **** 0.0
5 H 97.288 31.873 17.539 H 0.0 **** 0.0
@<TRIPOS>BOND
1 1 2 1
2 1 3 1
3 1 4 1
4 1 5 1
@<TRIPOS>MOLECULE
CH4
5 4
SMALL
USER_CHARGES


@<TRIPOS>ATOM
1 C 75.705 24.504 71.563 C 0.0 **** 0.0
2 H 76.447 23.835 71.127 H 0.0 **** 0.0
3 H 75.384 25.228 70.814 H 0.0 **** 0.0
4 H 76.144 25.028 72.412 H 0.0 **** 0.0
5 H 74.845 23.924 71.899 H 0.0 **** 0.0
@<TRIPOS>BOND
1 1 2 1
2 1 3 1
3 1 4 1
4 1 5 1
@<TRIPOS>MOLECULE
CH4
5 4
SMALL
USER_CHARGES


@<TRIPOS>ATOM
1 C 87.808 28.122 43.993 C 0.0 **** 0.0
2 H 87.342 29.107 43.997 H 0.0 **** 0.0
3 H 87.255 27.462 43.323 H 0.0 **** 0.0
4 H 87.795 27.71 45.002 H 0.0 **** 0.0
5 H 88.838 28.209 43.648 H 0.0 **** 0.0
@<TRIPOS>BOND
1 1 2 1
2 1 3 1
3 1 4 1
4 1 5 1
@<TRIPOS>MOLECULE
CH4
5 4
SMALL
USER_CHARGES


@<TRIPOS>ATOM
1 C 80.284 16.693 93.576 C 0.0 **** 0.0
2 H 80.302 16.358 92.539 H 0.0 **** 0.0
3 H 80.43 15.838 94.236 H 0.0 **** 0.0
4 H 79.322 17.158 93.791 H 0.0 **** 0.0
5 H 81.082 17.417 93.737 H 0.0 **** 0.0
@<TRIPOS>BOND
1 1 2 1
2 1 3 1
3 1 4 1
4 1 5 1
@<TRIPOS>MOLECULE
CH4
5 4
SMALL
USER_CHARGES


@<TRIPOS>ATOM
1 C 21.692 20.518 12.559 C 0.0 **** 0.0
2 H 22.662 20.12 12.858 H 0.0 **** 0.0
3 H 21.721 20.791 11.503 H 0.0 **** 0.0
4 H 21.462 21.4 13.156 H 0.0 **** 0.0
5 H 20.925 19.761 12.718 H 0.0 **** 0.0
@<TRIPOS>BOND
1 1 2 1
2 1 3 1
3 1 4 1
4 1 5 1
@<TRIPOS>MOLECULE
CH4
5 4
SMALL
USER_CHARGES


@<TRIPOS>ATOM
1 C 48.619 7.318 74.637 C 0.0 **** 0.0
2 H 49.248 8.038 75.16 H 0.0 **** 0.0
3 H 47.782 7.034 75.276 H 0.0 **** 0.0
4 H 49.207 6.433 74.393 H 0.0 **** 0.0
5 H 48.24 7.767 73.719 H 0.0 **** 0.0
@<TRIPOS>BOND
1 1 2 1
2 1 3 1
3 1 4 1
4 1 5 1
@<TRIPOS>MOLECULE
CH4
5 4
SMALL
USER_CHARGES


@<TRIPOS>ATOM
1 C 55.877 31.201 41.682 C 0.0 **** 0.0
2 H 56.293 31.593 40.754 H 0.0 **** 0.0
3 H 56.463 30.342 42.008 H 0.0 **** 0.0
4 H 54.844 30.896 41.516 H 0.0 **** 0.0
5 H 55.908 31.975 42.449 H 0.0 **** 0.0
@<TRIPOS>BOND
1 1 2 1
2 1 3 1
3 1 4 1
4 1 5 1
@<TRIPOS>MOLECULE
CH4
5 4
SMALL
USER_CHARGES


@<TRIPOS>ATOM
1 C 66.395 85.438 21.002 C 0.0 **** 0.0
2 H 65.351 85.567 21.285 H 0.0 **** 0.0
3 H 67.019 85.458 21.896 H 0.0 **** 0.0
4 H 66.692 86.247 20.333 H 0.0 **** 0.0
5 H 66.518 84.482 20.493 H 0.0 **** 0.0
@<TRIPOS>BOND
1 1 2 1
2 1 3 1
3 1 4 1
4 1 5 1
@<TRIPOS>MOLECULE
CH4
5 4
SMALL
USER_CHARGES


@<TRIPOS>ATOM
1 C 74.493 75.358 87.961 C 0.0 **** 0.0
2 H 73.846 75.504 88.827 H 0.0 **** 0.0
3 H 74.358 74.348 87.573 H 0.0 **** 0.0
4 H 75.532 75.499 88.256 H 0.0 **** 0.0
5 H 74.233 76.082 87.189 H 0.0 **** 0.0
@<TRIPOS>BOND
1 1 2 1
2 1 3 1
3 1 4 1
4 1 5 1
@<TRIPOS>MOLECULE
CH4
5 4
SMALL
USER_CHARGES


@<TRIPOS>ATOM
1 C 30.821 73.512 3.009 C 0.0 **** 0.0
2 H 31.628 73.183 3.664 H 0.0 **** 0.0
3 H 29.875 73.467 3.549 H 0.0 **** 0.0
4 H 30.774 72.861 2.136 H 0.0 **** 0.0
5 H 31.008 74.537 2.689 H 0.0 **** 0.0
@<TRIPOS>BOND
1 1 2 1
2 1 3 1
3 1 4 1
4 1 5 1
@<TRIPOS>MOLECULE
CH4
5 4
SMALL
USER_CHARGES


@<TRIPOS>ATOM
1 C 84.353 37.683 46.26 C 0.0 **** 0.0
2 H 85.277 38.181 46.553 H 0.0 **** 0.0
3 H 83.892 38.23 45.437 H 0.0 **** 0.0
4 H 83.669 37.659 47.109 H 0.0 **** 0.0
5 H 84.574 36.664 45.942 H 0.0 **** 0.0
@<TRIPOS>BOND
1 1 2 1
2 1 3 1
3 1 4 1
4 1 5 1
@<TRIPOS>MOLECULE
CH4
5 4
SMALL
USER_CHARGES


@<TRIPOS>ATOM
1 C 7.255 18.177 97.893 C 0.0 **** 0.0
2 H 7.915 17.421 98.319 H 0.0 **** 0.0
3 H 7.607 19.169 98.177 H 0.0 **** 0.0
4 H 6.243 18.028 98.271 H 0.0 **** 0.0
5 H 7.254 18.087 96.807 H 0.0 **** 0.0
@<TRIPOS>BOND
1 1 4 1
2 1 5 1
3 1 3 1
4 1 2 1
@<TRIPOS>MOLECULE
CH4
5 4
SMALL
USER_CHARGES


@<TRIPOS>ATOM
1 C 27.795 59.93 39.884 C 0.0 **** 0.0
2 H 28.009 60.525 40.772 H 0.0 **** 0.0
3 H 26.864 60.275 39.433 H 0.0 **** 0.0
4 H 27.697 58.881 40.164 H 0.0 **** 0.0
5 H 28.609 60.041 39.168 H 0.0 **** 0.0
@<TRIPOS>BOND
1 1 2 1
2 1 3 1
3 1 4 1
4 1 5 1
@<TRIPOS>MOLECULE
CH4
5 4
SMALL
USER_CHARGES


@<TRIPOS>ATOM
1 C 63.804 93.718 91.337 C 0.0 **** 0.0
2 H 63.879 93.642 90.252 H 0.0 **** 0.0
3 H 64.781 93.529 91.783 H 0.0 **** 0.0
4 H 63.088 92.983 91.704 H 0.0 **** 0.0
5 H 63.468 94.719 91.609 H 0.0 **** 0.0
@<TRIPOS>BOND
1 1 2 1
2 1 3 1
3 1 4 1
4 1 5 1
@<TRIPOS>MOLECULE
CH4
5 4
SMALL
USER_CHARGES


@<TRIPOS>ATOM
1 C 48.378 82.768 25.45 C 0.0 **** 0.0
2 H 49.297 83.113 25.925 H 0.0 **** 0.0
3 H 47.761 83.628 25.188 H 0.0 **** 0.0
4 H 47.832 82.125 26.14 H 0.0 **** 0.0
5 H 48.624 82.208 24.548 H 0.0 **** 0.0
@<TRIPOS>BOND
1 1 2 1
2 1 3 1
3 1 4 1
4 1 5 1
@<TRIPOS>MOLECULE
CH4
5 4
SMALL
USER_CHARGES


@<TRIPOS>ATOM
1 C 77.893 16.764 71.957 C 0.0 **** 0.0
2 H 78.207 16.048 71.197 H 0.0 **** 0.0
3 H 77.681 17.723 71.485 H 0.0 **** 0.0
4 H 78.69 16.888 72.69 H 0.0 **** 0.0
5 H 76.996 16.396 72.454 H 0.0 **** 0.0
@<TRIPOS>BOND
1 1 2 1
2 1 3 1
3 1 4 1
4 1 5 1
@<TRIPOS>MOLECULE
CH4
5 4
SMALL
USER_CHARGES


@<TRIPOS>ATOM
1 C 93.611 22.68 83.304 C 0.0 **** 0.0
2 H 93.488 22.673 82.221 H 0.0 **** 0.0
3 H 93.624 21.655 83.674 H 0.0 **** 0.0
4 H 92.782 23.222 83.759 H 0.0 **** 0.0
5 H 94.55 23.171 83.559 H 0.0 **** 0.0
@<TRIPOS>BOND
1 1 2 1
2 1 3 1
3 1 4 1
4 1 5 1
@<TRIPOS>MOLECULE
CH4
5 4
SMALL
USER_CHARGES


@<TRIPOS>ATOM
1 C 8.894 42.645 83.715 C 0.0 **** 0.0
2 H 9.605 43.334 84.171 H 0.0 **** 0.0
3 H 9.213 41.619 83.9 H 0.0 **** 0.0
4 H 8.85 42.825 82.641 H 0.0 **** 0.0
5 H 7.907 42.803 84.15 H 0.0 **** 0.0
@<TRIPOS>BOND
1 1 2 1
2 1 3 1
3 1 4 1
4 1 5 1
@<TRIPOS>MOLECULE
CH4
5 4
SMALL
USER_CHARGES


@<TRIPOS>ATOM
1 C 69.641 83.6 83.173 C 0.0 **** 0.0
2 H 68.945 84.435 83.095 H 0.0 **** 0.0
3 H 70.659 83.961 83.029 H 0.0 **** 0.0
4 H 69.406 82.859 82.408 H 0.0 **** 0.0
5 H 69.553 83.144 84.159 H 0.0 **** 0.0
@<TRIPOS>BOND
1 1 2 1
2 1 3 1
3 1 4 1
4 1 5 1
@<TRIPOS>MOLECULE
CH4
5 4
SMALL
USER_CHARGES


@<TRIPOS>ATOM
1 C 6.874 40.53 66.743 C 0.0 **** 0.0
2 H 7.906 40.445 67.082 H 0.0 **** 0.0
3 H 6.306 39.665 67.088 H 0.0 **** 0.0
4 H 6.85 40.57 65.654 H 0.0 **** 0.0
5 H 6.433 41.44 67.15 H 0.0 **** 0.0
@<TRIPOS>BOND
1 1 2 1
2 1 3 1
3 1 4 1
4 1 5 1
@<TRIPOS>MOLECULE
CH4
5 4
SMALL
USER_CHARGES


@<TRIPOS>ATOM
1 C 95.16 66.917 72.372 C 0.0 **** 0.0
2 H 94.412 66.136 72.506 H 0.0 **** 0.0
3 H 96.129 66.46 72.168 H 0.0 **** 0.0
4 H 95.225 67.517 73.279 H 0.0 **** 0.0
5 H 94.874 67.553 71.535 H 0.0 **** 0.0
@<TRIPOS>BOND
1 1 2 1
2 1 3 1
3 1 4 1
4 1 5 1
@<TRIPOS>MOLECULE
CH4
5 4
SMALL
USER_CHARGES


@<TRIPOS>ATOM
1 C 77.927 64.496 4.563 C 0.0 **** 0.0
2 H 77.003 65.066 4.459 H 0.0 **** 0.0
3 H 77.878 63.609 3.932 H 0.0 **** 0.0
4 H 78.053 64.197 5.603 H 0.0 **** 0.0
5 H 78.771 65.115 4.258 H 0.0 **** 0.0
@<TRIPOS>BOND
1 1 2 1
2 1 3 1
3 1 4 1
4 1 5 1
@<TRIPOS>MOLECULE
CH4
5 4
SMALL
USER_CHARGES


@<TRIPOS>ATOM
1 C 45.828 68.234 42.83 C 0.0 **** 0.0
2 H 45.966 67.175 42.612 H 0.0 **** 0.0
3 H 44.886 68.375 43.362 H 0.0 **** 0.0
4 H 45.807 68.797 41.897 H 0.0 **** 0.0
5 H 46.652 68.587 43.45 H 0.0 **** 0.0
@<TRIPOS>BOND
1 1 2 1
2 1 3 1
3 1 4 1
4 1 5 1
@<TRIPOS>MOLECULE
CH4
5 4
SMALL
USER_CHARGES


@<TRIPOS>ATOM
1 C 38.822 51.153 45.885 C 0.0 **** 0.0
2 H 38.852 50.822 46.923 H 0.0 **** 0.0
3 H 38.061 50.588 45.346 H 0.0 **** 0.0
4 H 39.795 50.987 45.423 H 0.0 **** 0.0
5 H 38.58 52.215 45.85 H 0.0 **** 0.0
@<TRIPOS>BOND
1 1 2 1
2 1 3 1
3 1 4 1
4 1 5 1
@<TRIPOS>MOLECULE
CH4
5 4
SMALL
USER_CHARGES


@<TRIPOS>ATOM
1 C 69.921 33.933 65.742 C 0.0 **** 0.0
2 H 69.997 33.974 66.829 H 0.0 **** 0.0
3 H 69.295 33.089 65.453 H 0.0 **** 0.0
4 H 70.916 33.812 65.314 H 0.0 **** 0.0
5 H 69.477 34.858 65.375 H 0.0 **** 0.0
@<TRIPOS>BOND
1 1 2 1
2 1 3 1
3 1 4 1
4 1 5 1
@<TRIPOS>MOLECULE
CH4
5 4
SMALL
USER_CHARGES


@<TRIPOS>ATOM
1 C 39.044 73.712 40.999 C 0.0 **** 0.0
2 H 39.598 74.639 40.856 H 0.0 **** 0.0
3 H 39.213 73.053 40.146 H 0.0 **** 0.0
4 H 37.98 73.934 41.08 H 0.0 **** 0.0
5 H 39.384 73.221 41.911 H 0.0 **** 0.0
@<TRIPOS>BOND
1 1 2 1
2 1 3 1
3 1 4 1
4 1 5 1
@<TRIPOS>MOLECULE
CH4
5 4
SMALL
USER_CHARGES


@<TRIPOS>ATOM
1 C 64.129 64.145 56.404 C 0.0 **** 0.0
2 H 63.922 64.92 55.666 H 0.0 **** 0.0
3 H 64.682 64.576 57.238 H 0.0 **** 0.0
4 H 64.723 63.355 55.943 H 0.0 **** 0.0
5 H 63.189 63.729 56.766 H 0.0 **** 0.0
@<TRIPOS>BOND
1 1 2 1
2 1 3 1
3 1 4 1
4 1 5 1
@<TRIPOS>MOLECULE
CH4
5 4
SMALL
USER_CHARGES


@<TRIPOS>ATOM
1 C 94.791 51.778 30.524 C 0.0 **** 0.0
2 H 94.778 51.511 31.581 H 0.0 **** 0.0
3 H 93.775 51.988 30.19 H 0.0 **** 0.0
4 H 95.201 50.951 29.945 H 0.0 **** 0.0
5 H 95.411 52.664 30.381 H 0.0 **** 0.0
@<TRIPOS>BOND
1 1 2 1
2 1 3 1
3 1 4 1
4 1 5 1
@<TRIPOS>MOLECULE
CH4
5 4
SMALL
USER_CHARGES


@<TRIPOS>ATOM
1 C 91.083 63.851 85.215 C 0.0 **** 0.0
2 H 91.472 64.822 85.521 H 0.0 **** 0.0
3 H 91.623 63.062 85.738 H 0.0 **** 0.0
4 H 91.214 63.73 84.139 H 0.0 **** 0.0
5 H 90.023 63.791 85.461 H 0.0 **** 0.0
@<TRIPOS>BOND
1 1 2 1
2 1 3 1
3 1 4 1
4 1 5 1
@<TRIPOS>MOLECULE
CH4
5 4
SMALL
USER_CHARGES


@<TRIPOS>ATOM
1 C 40.749 2.896 59.654 C 0.0 **** 0.0
2 H 41.72 2.408 59.569 H 0.0 **** 0.0
3 H 40.455 3.292 58.681 H 0.0 **** 0.0
4 H 40.815 3.712 60.373 H 0.0 **** 0.0
5 H 40.007 2.173 59.991 H 0.0 **** 0.0
@<TRIPOS>BOND
1 1 2 1
2 1 3 1
3 1 4 1
4 1 5 1
@<TRIPOS>MOLECULE
CH4
5 4
SMALL
USER_CHARGES


@<TRIPOS>ATOM
1 C 63.137 14.278 40.21 C 0.0 **** 0.0
2 H 62.7 15.105 39.651 H 0.0 **** 0.0
3 H 62.658 14.205 41.186 H 0.0 **** 0.0
4 H 64.205 14.453 40.341 H 0.0 **** 0.0
5 H 62.986 13.349 39.66 H 0.0 **** 0.0
@<TRIPOS>BOND
1 1 2 1
2 1 3 1
3 1 4 1
4 1 5 1
@<TRIPOS>MOLECULE
CH4
5 4
SMALL
USER_CHARGES


@<TRIPOS>ATOM
1 C 42.174 27.819 93.651 C 0.0 **** 0.0
2 H 41.47 27.763 92.821 H 0.0 **** 0.0
3 H 43.061 28.37 93.337 H 0.0 **** 0.0
4 H 42.46 26.811 93.952 H 0.0 **** 0.0
5 H 41.706 28.33 94.491 H 0.0 **** 0.0
@<TRIPOS>BOND
1 1 2 1
2 1 3 1
3 1 4 1
4 1 5 1
@<TRIPOS>MOLECULE
CH4
5 4
SMALL
USER_CHARGES


@<TRIPOS>ATOM
1 C 67.212 54.904 94.049 C 0.0 **** 0.0
2 H 67.059 55.081 95.113 H 0.0 **** 0.0
3 H 67.43 53.849 93.883 H 0.0 **** 0.0
4 H 68.049 55.508 93.697 H 0.0 **** 0.0
5 H 66.31 55.18 93.502 H 0.0 **** 0.0
@<TRIPOS>BOND
1 1 2 1
2 1 3 1
3 1 4 1
4 1 5 1
@<TRIPOS>MOLECULE
CH4
5 4
SMALL
USER_CHARGES


@<TRIPOS>ATOM
1 C 31.477 94.739 35.374 C 0.0 **** 0.0
2 H 31.823 95.363 34.55 H 0.0 **** 0.0
3 H 30.563 94.223 35.08 H 0.0 **** 0.0
4 H 31.278 95.365 36.244 H 0.0 **** 0.0
5 H 32.246 94.007 35.622 H 0.0 **** 0.0
@<TRIPOS>BOND
1 1 2 1
2 1 3 1
3 1 4 1
4 1 5 1
@<TRIPOS>MOLECULE
CH4
5 4
SMALL
USER_CHARGES


@<TRIPOS>ATOM
1 C 94.576 66.698 68.542 C 0.0 **** 0.0
2 H 95.553 67.127 68.767 H 0.0 **** 0.0
3 H 94.693 65.643 68.291 H 0.0 **** 0.0
4 H 94.133 67.226 67.698 H 0.0 **** 0.0
5 H 93.928 66.794 69.413 H 0.0 **** 0.0
@<TRIPOS>BOND
1 1 2 1
2 1 3 1
3 1 4 1
4 1 5 1
@<TRIPOS>MOLECULE
CH4
5 4
SMALL
USER_CHARGES


@<TRIPOS>ATOM
1 C 35.763 21.709 80.33 C 0.0 **** 0.0
2 H 36.366 21.463 79.456 H 0.0 **** 0.0
3 H 35.341 20.795 80.749 H 0.0 **** 0.0
4 H 34.956 22.381 80.036 H 0.0 **** 0.0
5 H 36.388 22.198 81.077 H 0.0 **** 0.0
@<TRIPOS>BOND
1 1 2 1
2 1 3 1
3 1 4 1
4 1 5 1
@<TRIPOS>MOLECULE
CH4
5 4
SMALL
USER_CHARGES


@<TRIPOS>ATOM
1 C 7.679 90.544 32.59 C 0.0 **** 0.0
2 H 7.606 91.42 31.945 H 0.0 **** 0.0
3 H 7.473 90.834 33.621 H 0.0 **** 0.0
4 H 8.683 90.127 32.523 H 0.0 **** 0.0
5 H 6.953 89.797 32.27 H 0.0 **** 0.0
@<TRIPOS>BOND
1 1 2 1
2 1 3 1
3 1 4 1
4 1 5 1
@<TRIPOS>MOLECULE
CH4
5 4
SMALL
USER_CHARGES


@<TRIPOS>ATOM
1 C 22.014 97.127 28.348 C 0.0 **** 0.0
2 H 22.016 97.1 27.259 H 0.0 **** 0.0
3 H 21.489 98.02 28.688 H 0.0 **** 0.0
4 H 23.042 97.149 28.713 H 0.0 **** 0.0
5 H 21.512 96.24 28.733 H 0.0 **** 0.0
@<TRIPOS>BOND
1 1 2 1
2 1 3 1
3 1 4 1
4 1 5 1
@<TRIPOS>MOLECULE
CH4
5 4
SMALL
USER_CHARGES


@<TRIPOS>ATOM
1 C 43.251 77.094 52.534 C 0.0 **** 0.0
2 H 43.495 76.487 53.406 H 0.0 **** 0.0
3 H 42.895 78.071 52.859 H 0.0 **** 0.0
4 H 42.472 76.598 51.954 H 0.0 **** 0.0
5 H 44.141 77.217 51.917 H 0.0 **** 0.0
@<TRIPOS>BOND
1 1 2 1
2 1 3 1
3 1 4 1
4 1 5 1
@<TRIPOS>MOLECULE
CH4
5 4
SMALL
USER_CHARGES


@<TRIPOS>ATOM
1 C 52.948 43.481 91.672 C 0.0 **** 0.0
2 H 52.049 43.603 91.068 H 0.0 **** 0.0
3 H 53.165 44.414 92.193 H 0.0 **** 0.0
4 H 53.787 43.221 91.027 H 0.0 **** 0.0
5 H 52.791 42.686 92.402 H 0.0 **** 0.0
@<TRIPOS>BOND
1 1 2 1
2 1 3 1
3 1 4 1
4 1 5 1
@<TRIPOS>MOLECULE
CH4
5 4
SMALL
USER_CHARGES


@<TRIPOS>ATOM
1 C 74.563 50.948 70.959 C 0.0 **** 0.0
2 H 75.633 51.144 71.031 H 0.0 **** 0.0
3 H 74.19 51.314 70.002 H 0.0 **** 0.0
4 H 74.045 51.46 71.771 H 0.0 **** 0.0
5 H 74.384 49.876 71.034 H 0.0 **** 0.0
@<TRIPOS>BOND
1 1 2 1
2 1 3 1
3 1 4 1
4 1 5 1
@<TRIPOS>MOLECULE
CH4
5 4
SMALL
USER_CHARGES


@<TRIPOS>ATOM
1 C 38.214 42.026 87.931 C 0.0 **** 0.0
2 H 37.477 42.618 88.473 H 0.0 **** 0.0
3 H 37.909 41.933 86.888 H 0.0 **** 0.0
4 H 38.284 41.035 88.379 H 0.0 **** 0.0
5 H 39.185 42.519 87.983 H 0.0 **** 0.0
@<TRIPOS>BOND
1 1 2 1
2 1 3 1
3 1 4 1
4 1 5 1
@<TRIPOS>MOLECULE
CH4
5 4
SMALL
USER_CHARGES


@<TRIPOS>ATOM
1 C 36.101 31.997 36.29 C 0.0 **** 0.0
2 H 36.517 32.961 35.996 H 0.0 **** 0.0
3 H 35.722 32.061 37.31 H 0.0 **** 0.0
4 H 36.879 31.235 36.238 H 0.0 **** 0.0
5 H 35.287 31.732 35.615 H 0.0 **** 0.0
@<TRIPOS>BOND
1 1 2 1
2 1 3 1
3 1 4 1
4 1 5 1
@<TRIPOS>MOLECULE
CH4
5 4
SMALL
USER_CHARGES


@<TRIPOS>ATOM
1 C 8.336 49.373 56.565 C 0.0 **** 0.0
2 H 8.341 49.395 57.655 H 0.0 **** 0.0
3 H 7.37 49.011 56.213 H 0.0 **** 0.0
4 H 9.124 48.707 56.213 H 0.0 **** 0.0
5 H 8.51 50.378 56.18 H 0.0 **** 0.0
@<TRIPOS>BOND
1 1 2 1
2 1 3 1
3 1 4 1
4 1 5 1
@<TRIPOS>MOLECULE
CH4
5 4
SMALL
USER_CHARGES


@<TRIPOS>ATOM
1 C 71.506 46.631 94.649 C 0.0 **** 0.0
2 H 71.444 46.912 93.598 H 0.0 **** 0.0
3 H 72.52 46.306 94.88 H 0.0 **** 0.0
4 H 70.809 45.817 94.849 H 0.0 **** 0.0
5 H 71.249 47.49 95.27 H 0.0 **** 0.0
@<TRIPOS>BOND
1 1 4 1
2 1 2 1
3 1 3 1
4 1 5 1
@<TRIPOS>MOLECULE
CH4
5 4
SMALL
USER_CHARGES


@<TRIPOS>ATOM
1 C 88.101 3.213 40.04 C 0.0 **** 0.0
2 H 88.52 4.069 40.569 H 0.0 **** 0.0
3 H 87.861 3.5 39.016 H 0.0 **** 0.0
4 H 87.195 2.881 40.547 H 0.0 **** 0.0
5 H 88.83 2.402 40.028 H 0.0 **** 0.0
@<TRIPOS>BOND
1 1 2 1
2 1 3 1
3 1 4 1
4 1 5 1
@<TRIPOS>MOLECULE
CH4
5 4
SMALL
USER_CHARGES


@<TRIPOS>ATOM
1 C 73.253 84.362 51.629 C 0.0 **** 0.0
2 H 73.75 83.721 50.9 H 0.0 **** 0.0
3 H 72.459 84.924 51.136 H 0.0 **** 0.0
4 H 73.978 85.055 52.056 H 0.0 **** 0.0
5 H 72.826 83.748 52.421 H 0.0 **** 0.0
@<TRIPOS>BOND
1 1 2 1
2 1 3 1
3 1 4 1
4 1 5 1
@<TRIPOS>MOLECULE
CH4
5 4
SMALL
USER_CHARGES


@<TRIPOS>ATOM
1 C 61.063 93.557 8.474 C 0.0 **** 0.0
2 H 61.076 92.755 9.211 H 0.0 **** 0.0
3 H 61.613 93.243 7.586 H 0.0 **** 0.0
4 H 61.531 94.446 8.896 H 0.0 **** 0.0
5 H 60.032 93.784 8.202 H 0.0 **** 0.0
@<TRIPOS>BOND
1 1 2 1
2 1 3 1
3 1 4 1
4 1 5 1
@<TRIPOS>MOLECULE
CH4
5 4
SMALL
USER_CHARGES


@<TRIPOS>ATOM
1 C 22.573 63.157 8.011 C 0.0 **** 0.0
2 H 21.883 63.3 8.843 H 0.0 **** 0.0
3 H 22.061 62.637 7.201 H 0.0 **** 0.0
4 H 23.424 62.563 8.343 H 0.0 **** 0.0
5 H 22.922 64.127 7.657 H 0.0 **** 0.0
@<TRIPOS>BOND
1 1 2 1
2 1 3 1
3 1 4 1
4 1 5 1
@<TRIPOS>MOLECULE
CH4
5 4
SMALL
USER_CHARGES


@<TRIPOS>ATOM
1 C 86.208 8.452 15.028 C 0.0 **** 0.0
2 H 85.666 9.21 14.463 H 0.0 **** 0.0
3 H 85.987 8.564 16.09 H 0.0 **** 0.0
4 H 87.279 8.575 14.865 H 0.0 **** 0.0
5 H 85.901 7.461 14.695 H 0.0 **** 0.0
@<TRIPOS>BOND
1 1 2 1
2 1 3 1
3 1 4 1
4 1 5 1
@<TRIPOS>MOLECULE
CH4
5 4
SMALL
USER_CHARGES


@<TRIPOS>ATOM
1 C 57.47 93.985 75.448 C 0.0 **** 0.0
2 H 57.153 94.966 75.094 H 0.0 **** 0.0
3 H 58.178 93.555 74.74 H 0.0 **** 0.0
4 H 56.601 93.333 75.536 H 0.0 **** 0.0
5 H 57.947 94.088 76.423 H 0.0 **** 0.0
@<TRIPOS>BOND
1 1 2 1
2 1 3 1
3 1 4 1
4 1 5 1
@<TRIPOS>MOLECULE
CH4
5 4
SMALL
USER_CHARGES


@<TRIPOS>ATOM
1 C 14.933 19.207 10.115 C 0.0 **** 0.0
2 H 14.922 18.119 10.19 H 0.0 **** 0.0
3 H 15.889 19.533 9.705 H 0.0 **** 0.0
4 H 14.795 19.64 11.105 H 0.0 **** 0.0
5 H 14.126 19.534 9.459 H 0.0 **** 0.0
@<TRIPOS>BOND
1 1 2 1
2 1 3 1
3 1 4 1
4 1 5 1
@<TRIPOS>MOLECULE
CH4
5 4
SMALL
USER_CHARGES


@<TRIPOS>ATOM
1 C 23.359 58.873 37.346 C 0.0 **** 0.0
2 H 24.278 58.663 37.892 H 0.0 **** 0.0
3 H 22.733 59.546 37.934 H 0.0 **** 0.0
4 H 22.822 57.941 37.167 H 0.0 **** 0.0
5 H 23.601 59.342 36.393 H 0.0 **** 0.0
@<TRIPOS>BOND
1 1 2 1
2 1 3 1
3 1 4 1
4 1 5 1
@<TRIPOS>MOLECULE
CH4
5 4
SMALL
USER_CHARGES


@<TRIPOS>ATOM
1 C 92.574 35.703 0.948 C 0.0 **** 0.0
2 H 93.087 35.007 1.611 H 0.0 **** 0.0
3 H 93.146 35.816 0.027 H 0.0 **** 0.0
4 H 92.48 36.671 1.439 H 0.0 **** 0.0
5 H 91.582 35.317 0.714 H 0.0 **** 0.0
@<TRIPOS>BOND
1 1 2 1
2 1 3 1
3 1 4 1
4 1 5 1
@<TRIPOS>MOLECULE
CH4
5 4
SMALL
USER_CHARGES


@<TRIPOS>ATOM
1 C 30.72 63.594 93.45 C 0.0 **** 0.0
2 H 30.533 64.587 93.859 H 0.0 **** 0.0
3 H 30.241 62.845 94.081 H 0.0 **** 0.0
4 H 31.794 63.411 93.419 H 0.0 **** 0.0
5 H 30.311 63.534 92.441 H 0.0 **** 0.0
@<TRIPOS>BOND
1 1 2 1
2 1 3 1
3 1 4 1
4 1 5 1
@<TRIPOS>MOLECULE
CH4
5 4
SMALL
USER_CHARGES


@<TRIPOS>ATOM
1 C 5.692 16.972 12.531 C 0.0 **** 0.0
2 H 6.198 16.941 11.566 H 0.0 **** 0.0
3 H 5.15 17.913 12.626 H 0.0 **** 0.0
4 H 6.429 16.894 13.33 H 0.0 **** 0.0
5 H 4.991 16.14 12.6 H 0.0 **** 0.0
@<TRIPOS>BOND
1 1 2 1
2 1 3 1
3 1 4 1
4 1 5 1
@<TRIPOS>MOLECULE
CH4
5 4
SMALL
USER_CHARGES


@<TRIPOS>ATOM
1 C 23.74 51.826 18.941 C 0.0 **** 0.0
2 H 23.001 52.613 19.092 H 0.0 **** 0.0
3 H 23.784 51.194 19.828 H 0.0 **** 0.0
4 H 24.718 52.275 18.765 H 0.0 **** 0.0
5 H 23.457 51.223 18.078 H 0.0 **** 0.0
@<TRIPOS>BOND
1 1 2 1
2 1 3 1
3 1 4 1
4 1 5 1
@<TRIPOS>MOLECULE
CH4
5 4
SMALL
USER_CHARGES


@<TRIPOS>ATOM
1 C 89.422 49.308 49.518 C 0.0 **** 0.0
2 H 88.647 49.847 50.062 H 0.0 **** 0.0
3 H 89.099 48.279 49.351 H 0.0 **** 0.0
4 H 90.343 49.31 50.101 H 0.0 **** 0.0
5 H 89.597 49.794 48.558 H 0.0 **** 0.0
@<TRIPOS>BOND
1 1 3 1
2 1 4 1
3 1 5 1
4 1 2 1
@<TRIPOS>MOLECULE
CH4
5 4
SMALL
USER_CHARGES


@<TRIPOS>ATOM
1 C 31.201 43.197 89.357 C 0.0 **** 0.0
2 H 31.216 43.198 88.267 H 0.0 **** 0.0
3 H 30.173 43.093 89.706 H 0.0 **** 0.0
4 H 31.618 44.134 89.726 H 0.0 **** 0.0
5 H 31.797 42.363 89.728 H 0.0 **** 0.0
@<TRIPOS>BOND
1 1 2 1
2 1 3 1
3 1 4 1
4 1 5 1
@<TRIPOS>MOLECULE
CH4
5 4
SMALL
USER_CHARGES


@<TRIPOS>ATOM
1 C 67.775 2.108 84.212 C 0.0 **** 0.0
2 H 67.575 2.978 83.586 H 0.0 **** 0.0
3 H 67.407 2.294 85.221 H 0.0 **** 0.0
4 H 68.849 1.924 84.244 H 0.0 **** 0.0
5 H 67.27 1.237 83.794 H 0.0 **** 0.0
@<TRIPOS>BOND
1 1 2 1
2 1 3 1
3 1 4 1
4 1 5 1
@<TRIPOS>MOLECULE
CH4
5 4
SMALL
USER_CHARGES


@<TRIPOS>ATOM
1 C 36.063 46.428 84.533 C 0.0 **** 0.0
2 H 36.274 45.895 85.459 H 0.0 **** 0.0
3 H 35.046 46.205 84.209 H 0.0 **** 0.0
4 H 36.767 46.112 83.763 H 0.0 **** 0.0
5 H 36.164 47.5 84.7 H 0.0 **** 0.0
@<TRIPOS>BOND
1 1 2 1
2 1 3 1
3 1 4 1
4 1 5 1
@<TRIPOS>MOLECULE
CH4
5 4
SMALL
USER_CHARGES


@<TRIPOS>ATOM
1 C 35.786 19.097 13.068 C 0.0 **** 0.0
2 H 35.553 19.666 12.168 H 0.0 **** 0.0
3 H 36.785 18.67 12.98 H 0.0 **** 0.0
4 H 35.057 18.295 13.189 H 0.0 **** 0.0
5 H 35.747 19.757 13.935 H 0.0 **** 0.0
@<TRIPOS>BOND
1 1 2 1
2 1 3 1
3 1 4 1
4 1 5 1
@<TRIPOS>MOLECULE
CH4
5 4
SMALL
USER_CHARGES


@<TRIPOS>ATOM
1 C 50.424 1.856 38.133 C 0.0 **** 0.0
2 H 50.261 1.681 39.196 H 0.0 **** 0.0
3 H 50.653 2.909 37.97 H 0.0 **** 0.0
4 H 49.524 1.59 37.579 H 0.0 **** 0.0
5 H 51.258 1.245 37.788 H 0.0 **** 0.0
@<TRIPOS>BOND
1 1 2 1
2 1 3 1
3 1 4 1
4 1 5 1
@<TRIPOS>MOLECULE
CH4
5 4
SMALL
USER_CHARGES


@<TRIPOS>ATOM
1 C 46.783 5.094 59.621 C 0.0 **** 0.0
2 H 47.412 5.825 59.112 H 0.0 **** 0.0
3 H 45.789 5.096 59.174 H 0.0 **** 0.0
4 H 46.708 5.354 60.677 H 0.0 **** 0.0
5 H 47.226 4.103 59.521 H 0.0 **** 0.0
@<TRIPOS>BOND
1 1 2 1
2 1 3 1
3 1 4 1
4 1 5 1
@<TRIPOS>MOLECULE
CH4
5 4
SMALL
USER_CHARGES


@<TRIPOS>ATOM
1 C 9.719 66.209 31.529 C 0.0 **** 0.0
2 H 8.852 66.85 31.692 H 0.0 **** 0.0
3 H 10.631 66.798 31.635 H 0.0 **** 0.0
4 H 9.674 65.785 30.526 H 0.0 **** 0.0
5 H 9.718 65.404 32.264 H 0.0 **** 0.0
@<TRIPOS>BOND
1 1 2 1
2 1 3 1
3 1 4 1
4 1 5 1
@<TRIPOS>MOLECULE
CH4
5 4
SMALL
USER_CHARGES


@<TRIPOS>ATOM
1 C 53.073 67.755 58.989 C 0.0 **** 0.0
2 H 53.539 67.746 58.004 H 0.0 **** 0.0
3 H 52.168 68.362 58.958 H 0.0 **** 0.0
4 H 53.768 68.175 59.716 H 0.0 **** 0.0
5 H 52.817 66.736 59.279 H 0.0 **** 0.0
@<TRIPOS>BOND
1 1 2 1
2 1 3 1
3 1 4 1
4 1 5 1
@<TRIPOS>MOLECULE
CH4
5 4
SMALL
USER_CHARGES


@<TRIPOS>ATOM
1 C 92.092 8.508 0.993 C 0.0 **** 0.0
2 H 91.425 8.884 1.769 H 0.0 **** 0.0
3 H 92.37 7.479 1.22 H 0.0 **** 0.0
4 H 92.989 9.127 0.955 H 0.0 **** 0.0
5 H 91.585 8.545 0.029 H 0.0 **** 0.0
@<TRIPOS>BOND
1 1 2 1
2 1 3 1
3 1 4 1
4 1 5 1
@<TRIPOS>MOLECULE
CH4
5 4
SMALL
USER_CHARGES


@<TRIPOS>ATOM
1 C 55.862 90.908 73.891 C 0.0 **** 0.0
2 H 56.303 90.369 74.729 H 0.0 **** 0.0
3 H 55.475 90.193 73.163 H 0.0 **** 0.0
4 H 56.621 91.532 73.419 H 0.0 **** 0.0
5 H 55.047 91.536 74.251 H 0.0 **** 0.0
@<TRIPOS>BOND
1 1 2 1
2 1 3 1
3 1 4 1
4 1 5 1
@<TRIPOS>MOLECULE
CH4
5 4
SMALL
USER_CHARGES


@<TRIPOS>ATOM
1 C 17.317 42.073 73.885 C 0.0 **** 0.0
2 H 16.27 42.36 73.983 H 0.0 **** 0.0
3 H 17.945 42.961 73.962 H 0.0 **** 0.0
4 H 17.475 41.598 72.917 H 0.0 **** 0.0
5 H 17.577 41.374 74.68 H 0.0 **** 0.0
@<TRIPOS>BOND
1 1 2 1
2 1 3 1
3 1 4 1
4 1 5 1
@<TRIPOS>MOLECULE
CH4
5 4
SMALL
USER_CHARGES


@<TRIPOS>ATOM
1 C 4.033 82.713 40.452 C 0.0 **** 0.0
2 H 4.939 82.371 40.953 H 0.0 **** 0.0
3 H 4.277 83.023 39.435 H 0.0 **** 0.0
4 H 3.612 83.556 40.998 H 0.0 **** 0.0
5 H 3.307 81.901 40.42 H 0.0 **** 0.0
@<TRIPOS>BOND
1 1 2 1
2 1 3 1
3 1 4 1
4 1 5 1
@<TRIPOS>MOLECULE
CH4
5 4
SMALL
USER_CHARGES


@<TRIPOS>ATOM
1 C 88.113 67.568 55.071 C 0.0 **** 0.0
2 H 87.31 68.305 55.09 H 0.0 **** 0.0
3 H 87.942 66.825 55.849 H 0.0 **** 0.0
4 H 89.067 68.066 55.247 H 0.0 **** 0.0
5 H 88.133 67.079 54.097 H 0.0 **** 0.0
@<TRIPOS>BOND
1 1 2 1
2 1 3 1
3 1 4 1
4 1 5 1
@<TRIPOS>MOLECULE
CH4
5 4
SMALL
USER_CHARGES


@<TRIPOS>ATOM
1 C 42.277 16.2 52.341 C 0.0 **** 0.0
2 H 42.673 16.975 52.997 H 0.0 **** 0.0
3 H 43.041 15.441 52.174 H 0.0 **** 0.0
4 H 41.99 16.644 51.387 H 0.0 **** 0.0
5 H 41.404 15.742 52.806 H 0.0 **** 0.0
@<TRIPOS>BOND
1 1 2 1
2 1 3 1
3 1 4 1
4 1 5 1
@<TRIPOS>MOLECULE
CH4
5 4
SMALL
USER_CHARGES


@<TRIPOS>ATOM
1 C 45.272 91.367 32.011 C 0.0 **** 0.0
2 H 46.071 91.408 32.752 H 0.0 **** 0.0
3 H 44.427 90.812 32.419 H 0.0 **** 0.0
4 H 45.635 90.869 31.112 H 0.0 **** 0.0
5 H 44.956 92.381 31.763 H 0.0 **** 0.0
@<TRIPOS>BOND
1 1 2 1
2 1 3 1
3 1 4 1
4 1 5 1
@<TRIPOS>MOLECULE
CH4
5 4
SMALL
USER_CHARGES


@<TRIPOS>ATOM
1 C 7.689 63.568 72.101 C 0.0 **** 0.0
2 H 7.559 64.146 73.016 H 0.0 **** 0.0
3 H 7.334 64.15 71.25 H 0.0 **** 0.0
4 H 7.118 62.642 72.173 H 0.0 **** 0.0
5 H 8.745 63.334 71.967 H 0.0 **** 0.0
@<TRIPOS>BOND
1 1 2 1
2 1 3 1
3 1 4 1
4 1 5 1
@<TRIPOS>MOLECULE
CH4
5 4
SMALL
USER_CHARGES


@<TRIPOS>ATOM
1 C 8.463 98.066 63.998 C 0.0 **** 0.0
2 H 8.463 98.066 65.088 H 0.0 **** 0.0
3 H 7.435 98.038 63.635 H 0.0 **** 0.0
4 H 9.0 97.189 63.635 H 0.0 **** 0.0
5 H 8.953 98.969 63.635 H 0.0 **** 0.0
@<TRIPOS>BOND
1 1 2 1
2 1 3 1
3 1 4 1
4 1 5 1
@<TRIPOS>MOLECULE
CH4
5 4
SMALL
USER_CHARGES


@<TRIPOS>ATOM
1 C 54.964 23.67 34.974 C 0.0 **** 0.0
2 H 54.28 22.823 35.032 H 0.0 **** 0.0
3 H 55.77 23.439 34.278 H 0.0 **** 0.0
4 H 55.381 23.869 35.961 H 0.0 **** 0.0
5 H 54.423 24.55 34.624 H 0.0 **** 0.0
@<TRIPOS>BOND
1 1 2 1
2 1 3 1
3 1 4 1
4 1 5 1
@<TRIPOS>MOLECULE
CH4
5 4
SMALL
USER_CHARGES


@<TRIPOS>ATOM
1 C 75.736 50.889 91.579 C 0.0 **** 0.0
2 H 74.892 50.858 90.89 H 0.0 **** 0.0
3 H 75.445 50.443 92.53 H 0.0 **** 0.0
4 H 76.035 51.925 91.74 H 0.0 **** 0.0
5 H 76.571 50.332 91.156 H 0.0 **** 0.0
@<TRIPOS>BOND
1 1 2 1
2 1 3 1
3 1 4 1
4 1 5 1
@<TRIPOS>MOLECULE
CH4
5 4
SMALL
USER_CHARGES


@<TRIPOS>ATOM
1 C 46.008 88.984 97.234 C 0.0 **** 0.0
2 H 46.728 88.233 97.558 H 0.0 **** 0.0
3 H 45.787 89.657 98.063 H 0.0 **** 0.0
4 H 45.091 88.491 96.91 H 0.0 **** 0.0
5 H 46.426 89.554 96.404 H 0.0 **** 0.0
@<TRIPOS>BOND
1 1 2 1
2 1 3 1
3 1 4 1
4 1 5 1
@<TRIPOS>MOLECULE
CH4
5 4
SMALL
USER_CHARGES


@<TRIPOS>ATOM
1 C 61.326 46.231 98.083 C 0.0 **** 0.0
2 H 61.049 45.711 99.0 H 0.0 **** 0.0
3 H 60.464 46.277 97.417 H 0.0 **** 0.0
4 H 62.137 45.692 97.592 H 0.0 **** 0.0
5 H 61.655 47.242 98.323 H 0.0 **** 0.0
@<TRIPOS>BOND
1 1 5 1
2 1 2 1
3 1 3 1
4 1 4 1
@<TRIPOS>MOLECULE
CH4
5 4
SMALL
USER_CHARGES


@<TRIPOS>ATOM
1 C 7.319 43.602 89.621 C 0.0 **** 0.0
2 H 6.459 43.749 88.968 H 0.0 **** 0.0
3 H 8.165 44.175 89.242 H 0.0 **** 0.0
4 H 7.579 42.543 89.647 H 0.0 **** 0.0
5 H 7.073 43.94 90.628 H 0.0 **** 0.0
@<TRIPOS>BOND
1 1 2 1
2 1 3 1
3 1 4 1
4 1 5 1
@<TRIPOS>MOLECULE
CH4
5 4
SMALL
USER_CHARGES


@<TRIPOS>ATOM
1 C 9.965 93.475 31.202 C 0.0 **** 0.0
2 H 10.889 93.75 30.693 H 0.0 **** 0.0
3 H 9.414 94.377 31.467 H 0.0 **** 0.0
4 H 10.201 92.914 32.106 H 0.0 **** 0.0
5 H 9.356 92.858 30.541 H 0.0 **** 0.0
@<TRIPOS>BOND
1 1 2 1
2 1 3 1
3 1 4 1
4 1 5 1
@<TRIPOS>MOLECULE
CH4
5 4
SMALL
USER_CHARGES


@<TRIPOS>ATOM
1 C 6.546 71.853 70.255 C 0.0 **** 0.0
2 H 5.464 71.761 70.35 H 0.0 **** 0.0
3 H 7.0 70.862 70.295 H 0.0 **** 0.0
4 H 6.932 72.462 71.073 H 0.0 **** 0.0
5 H 6.789 72.326 69.304 H 0.0 **** 0.0
@<TRIPOS>BOND
1 1 2 1
2 1 3 1
3 1 4 1
4 1 5 1
@<TRIPOS>MOLECULE
CH4
5 4
SMALL
USER_CHARGES


@<TRIPOS>ATOM
1 C 8.834 13.746 3.603 C 0.0 **** 0.0
2 H 9.481 13.495 2.762 H 0.0 **** 0.0
3 H 8.336 14.696 3.407 H 0.0 **** 0.0
4 H 9.432 13.828 4.51 H 0.0 **** 0.0
5 H 8.086 12.963 3.731 H 0.0 **** 0.0
@<TRIPOS>BOND
1 1 2 1
2 1 3 1
3 1 4 1
4 1 5 1
@<TRIPOS>MOLECULE
CH4
5 4
SMALL
USER_CHARGES


@<TRIPOS>ATOM
1 C 76.146 81.183 5.401 C 0.0 **** 0.0
2 H 76.532 80.801 4.456 H 0.0 **** 0.0
3 H 75.767 80.355 6.0 H 0.0 **** 0.0
4 H 75.339 81.889 5.204 H 0.0 **** 0.0
5 H 76.946 81.688 5.943 H 0.0 **** 0.0
@<TRIPOS>BOND
1 1 2 1
2 1 3 1
3 1 4 1
4 1 5 1
@<TRIPOS>MOLECULE
CH4
5 4
SMALL
USER_CHARGES


@<TRIPOS>ATOM
1 C 63.365 31.554 82.339 C 0.0 **** 0.0
2 H 63.389 32.579 81.968 H 0.0 **** 0.0
3 H 63.965 31.483 83.247 H 0.0 **** 0.0
4 H 63.772 30.884 81.581 H 0.0 **** 0.0
5 H 62.336 31.271 82.559 H 0.0 **** 0.0
@<TRIPOS>BOND
1 1 2 1
2 1 3 1
3 1 4 1
4 1 5 1
@<TRIPOS>MOLECULE
CH4
5 4
SMALL
USER_CHARGES


@<TRIPOS>ATOM
1 C 84.431 18.672 43.35 C 0.0 **** 0.0
2 H 84.85 19.003 44.301 H 0.0 **** 0.0
3 H 85.206 18.179 42.764 H 0.0 **** 0.0
4 H 84.053 19.535 42.801 H 0.0 **** 0.0
5 H 83.616 17.974 43.537 H 0.0 **** 0.0
@<TRIPOS>BOND
1 1 2 1
2 1 3 1
3 1 4 1
4 1 5 1
@<TRIPOS>MOLECULE
CH4
5 4
SMALL
USER_CHARGES


@<TRIPOS>ATOM
1 C 79.206 33.21 63.879 C 0.0 **** 0.0
2 H 78.671 33.799 64.623 H 0.0 **** 0.0
3 H 79.618 32.318 64.35 H 0.0 **** 0.0
4 H 80.015 33.806 63.457 H 0.0 **** 0.0
5 H 78.518 32.917 63.085 H 0.0 **** 0.0
@<TRIPOS>BOND
1 1 2 1
2 1 3 1
3 1 4 1
4 1 5 1
@<TRIPOS>MOLECULE
CH4
5 4
SMALL
USER_CHARGES


@<TRIPOS>ATOM
1 C 28.479 75.615 52.222 C 0.0 **** 0.0
2 H 28.572 76.7 52.264 H 0.0 **** 0.0
3 H 27.824 75.338 51.396 H 0.0 **** 0.0
4 H 28.057 75.25 53.158 H 0.0 **** 0.0
5 H 29.464 75.171 52.07 H 0.0 **** 0.0
@<TRIPOS>BOND
1 1 2 1
2 1 3 1
3 1 4 1
4 1 5 1
@<TRIPOS>MOLECULE
CH4
5 4
SMALL
USER_CHARGES


@<TRIPOS>ATOM
1 C 29.622 65.872 50.443 C 0.0 **** 0.0
2 H 29.511 65.986 51.521 H 0.0 **** 0.0
3 H 29.323 64.865 50.152 H 0.0 **** 0.0
4 H 30.663 66.037 50.165 H 0.0 **** 0.0
5 H 28.99 66.601 49.935 H 0.0 **** 0.0
@<TRIPOS>BOND
1 1 2 1
2 1 3 1
3 1 4 1
4 1 5 1
@<TRIPOS>MOLECULE
CH4
5 4
SMALL
USER_CHARGES


@<TRIPOS>ATOM
1 C 82.289 10.603 98.317 C 0.0 **** 0.0
2 H 81.522 10.035 98.843 H 0.0 **** 0.0
3 H 82.636 10.032 97.456 H 0.0 **** 0.0
4 H 83.126 10.792 98.99 H 0.0 **** 0.0
5 H 81.872 11.552 97.98 H 0.0 **** 0.0
@<TRIPOS>BOND
1 1 2 1
2 1 3 1
3 1 4 1
4 1 5 1
@<TRIPOS>MOLECULE
CH4
5 4
SMALL
USER_CHARGES


@<TRIPOS>ATOM
1 C 13.801 48.532 64.492 C 0.0 **** 0.0
2 H 13.808 48.137 65.508 H 0.0 **** 0.0
3 H 13.335 49.518 64.489 H 0.0 **** 0.0
4 H 13.236 47.861 63.845 H 0.0 **** 0.0
5 H 14.824 48.613 64.126 H 0.0 **** 0.0
@<TRIPOS>BOND
1 1 2 1
2 1 3 1
3 1 4 1
4 1 5 1
@<TRIPOS>MOLECULE
CH4
5 4
SMALL
USER_CHARGES


@<TRIPOS>ATOM
1 C 24.657 35.66 58.015 C 0.0 **** 0.0
2 H 24.618 35.69 59.103 H 0.0 **** 0.0
3 H 23.687 35.947 57.608 H 0.0 **** 0.0
4 H 24.905 34.65 57.688 H 0.0 **** 0.0
5 H 25.42 36.354 57.66 H 0.0 **** 0.0
@<TRIPOS>BOND
1 1 2 1
2 1 3 1
3 1 4 1
4 1 5 1
@<TRIPOS>MOLECULE
CH4
5 4
SMALL
USER_CHARGES


@<TRIPOS>ATOM
1 C 61.147 34.89 86.174 C 0.0 **** 0.0
2 H 60.202 35.429 86.116 H 0.0 **** 0.0
3 H 61.829 35.267 85.411 H 0.0 **** 0.0
4 H 60.969 33.827 86.009 H 0.0 **** 0.0
5 H 61.589 35.035 87.16 H 0.0 **** 0.0
@<TRIPOS>BOND
1 1 2 1
2 1 3 1
3 1 4 1
4 1 5 1
@<TRIPOS>MOLECULE
CH4
5 4
SMALL
USER_CHARGES


@<TRIPOS>ATOM
1 C 69.674 52.848 0.579 C 0.0 **** 0.0
2 H 69.447 53.087 1.618 H 0.0 **** 0.0
3 H 70.347 53.603 0.171 H 0.0 **** 0.0
4 H 68.751 52.832 0.0 H 0.0 **** 0.0
5 H 70.152 51.869 0.527 H 0.0 **** 0.0
@<TRIPOS>BOND
1 1 2 1
2 1 3 1
3 1 4 1
4 1 5 1
@<TRIPOS>MOLECULE
CH4
5 4
SMALL
USER_CHARGES


@<TRIPOS>ATOM
1 C 65.009 46.335 40.274 C 0.0 **** 0.0
2 H 65.672 46.35 39.409 H 0.0 **** 0.0
3 H 64.912 45.313 40.641 H 0.0 **** 0.0
4 H 64.027 46.713 39.986 H 0.0 **** 0.0
5 H 65.424 46.966 41.06 H 0.0 **** 0.0
@<TRIPOS>BOND
1 1 2 1
2 1 3 1
3 1 4 1
4 1 5 1
@<TRIPOS>MOLECULE
CH4
5 4
SMALL
USER_CHARGES


@<TRIPOS>ATOM
1 C 13.61 40.817 26.728 C 0.0 **** 0.0
2 H 12.934 40.745 27.58 H 0.0 **** 0.0
3 H 13.852 41.864 26.544 H 0.0 **** 0.0
4 H 13.13 40.393 25.847 H 0.0 **** 0.0
5 H 14.525 40.265 26.944 H 0.0 **** 0.0
@<TRIPOS>BOND
1 1 2 1
2 1 3 1
3 1 4 1
4 1 5 1
@<TRIPOS>MOLECULE
CH4
5 4
SMALL
USER_CHARGES


@<TRIPOS>ATOM
1 C 78.443 0.868 71.516 C 0.0 **** 0.0
2 H 78.743 1.608 72.258 H 0.0 **** 0.0
3 H 79.331 0.385 71.107 H 0.0 **** 0.0
4 H 77.894 1.36 70.713 H 0.0 **** 0.0
5 H 77.806 0.119 71.987 H 0.0 **** 0.0
@<TRIPOS>BOND
1 1 2 1
2 1 3 1
3 1 4 1
4 1 5 1
@<TRIPOS>MOLECULE
CH4
5 4
SMALL
USER_CHARGES


@<TRIPOS>ATOM
1 C 16.384 68.438 5.012 C 0.0 **** 0.0
2 H 16.714 68.396 3.974 H 0.0 **** 0.0
3 H 15.48 67.84 5.13 H 0.0 **** 0.0
4 H 16.175 69.472 5.285 H 0.0 **** 0.0
5 H 17.168 68.043 5.658 H 0.0 **** 0.0
@<TRIPOS>BOND
1 1 2 1
2 1 3 1
3 1 4 1
4 1 5 1
@<TRIPOS>MOLECULE
CH4
5 4
SMALL
USER_CHARGES


@<TRIPOS>ATOM
1 C 94.219 94.413 97.636 C 0.0 **** 0.0
2 H 93.598 93.604 98.021 H 0.0 **** 0.0
3 H 94.584 95.017 98.466 H 0.0 **** 0.0
4 H 93.628 95.036 96.964 H 0.0 **** 0.0
5 H 95.065 93.992 97.092 H 0.0 **** 0.0
@<TRIPOS>BOND
1 1 2 1
2 1 3 1
3 1 4 1
4 1 5 1
@<TRIPOS>MOLECULE
CH4
5 4
SMALL
USER_CHARGES


@<TRIPOS>ATOM
1 C 56.405 65.118 18.064 C 0.0 **** 0.0
2 H 57.042 65.616 18.795 H 0.0 **** 0.0
3 H 56.537 65.588 17.089 H 0.0 **** 0.0
4 H 55.363 65.204 18.371 H 0.0 **** 0.0
5 H 56.68 64.065 18.001 H 0.0 **** 0.0
@<TRIPOS>BOND
1 1 2 1
2 1 3 1
3 1 4 1
4 1 5 1
@<TRIPOS>MOLECULE
CH4
5 4
SMALL
USER_CHARGES


@<TRIPOS>ATOM
1 C 29.718 80.686 96.355 C 0.0 **** 0.0
2 H 28.683 80.585 96.029 H 0.0 **** 0.0
3 H 30.264 81.303 95.64 H 0.0 **** 0.0
4 H 30.179 79.7 96.412 H 0.0 **** 0.0
5 H 29.745 81.158 97.337 H 0.0 **** 0.0
@<TRIPOS>BOND
1 1 2 1
2 1 3 1
3 1 4 1
4 1 5 1
@<TRIPOS>MOLECULE
CH4
5 4
SMALL
USER_CHARGES


@<TRIPOS>ATOM
1 C 18.142 16.046 19.522 C 0.0 **** 0.0
2 H 17.867 15.146 20.072 H 0.0 **** 0.0
3 H 19.208 16.235 19.643 H 0.0 **** 0.0
4 H 17.576 16.894 19.907 H 0.0 **** 0.0
5 H 17.915 15.908 18.464 H 0.0 **** 0.0
@<TRIPOS>BOND
1 1 2 1
2 1 3 1
3 1 4 1
4 1 5 1
@<TRIPOS>MOLECULE
CH4
5 4
SMALL
USER_CHARGES


@<TRIPOS>ATOM
1 C 95.676 58.903 95.66 C 0.0 **** 0.0
2 H 95.252 59.656 94.995 H 0.0 **** 0.0
3 H 96.761 58.894 95.555 H 0.0 **** 0.0
4 H 95.277 57.923 95.399 H 0.0 **** 0.0
5 H 95.412 59.14 96.691 H 0.0 **** 0.0
@<TRIPOS>BOND
1 1 2 1
2 1 3 1
3 1 4 1
4 1 5 1
@<TRIPOS>MOLECULE
CH4
5 4
SMALL
USER_CHARGES


@<TRIPOS>ATOM
1 C 27.343 6.235 37.329 C 0.0 **** 0.0
2 H 27.347 6.23 36.239 H 0.0 **** 0.0
3 H 27.762 5.298 37.698 H 0.0 **** 0.0
4 H 26.319 6.342 37.688 H 0.0 **** 0.0
5 H 27.944 7.069 37.69 H 0.0 **** 0.0
@<TRIPOS>BOND
1 1 2 1
2 1 3 1
3 1 4 1
4 1 5 1
@<TRIPOS>MOLECULE
CH4
5 4
SMALL
USER_CHARGES


@<TRIPOS>ATOM
1 C 66.678 53.458 33.719 C 0.0 **** 0.0
2 H 66.134 54.391 33.87 H 0.0 **** 0.0
3 H 67.615 53.665 33.201 H 0.0 **** 0.0
4 H 66.073 52.779 33.118 H 0.0 **** 0.0
5 H 66.889 53.0 34.685 H 0.0 **** 0.0
@<TRIPOS>BOND
1 1 2 1
2 1 3 1
3 1 4 1
4 1 5 1
@<TRIPOS>MOLECULE
CH4
5 4
SMALL
USER_CHARGES


@<TRIPOS>ATOM
1 C 56.323 78.764 70.764 C 0.0 **** 0.0
2 H 56.508 78.823 69.692 H 0.0 **** 0.0
3 H 56.27 79.771 71.179 H 0.0 **** 0.0
4 H 57.135 78.216 71.243 H 0.0 **** 0.0
5 H 55.381 78.247 70.943 H 0.0 **** 0.0
@<TRIPOS>BOND
1 1 2 1
2 1 3 1
3 1 4 1
4 1 5 1
@<TRIPOS>MOLECULE
CH4
5 4
SMALL
USER_CHARGES


@<TRIPOS>ATOM
1 C 7.984 24.651 6.757 C 0.0 **** 0.0
2 H 8.291 23.621 6.577 H 0.0 **** 0.0
3 H 8.371 25.29 5.963 H 0.0 **** 0.0
4 H 8.378 24.985 7.717 H 0.0 **** 0.0
5 H 6.895 24.707 6.772 H 0.0 **** 0.0
@<TRIPOS>BOND
1 1 2 1
2 1 3 1
3 1 4 1
4 1 5 1
@<TRIPOS>MOLECULE
CH4
5 4
SMALL
USER_CHARGES


@<TRIPOS>ATOM
1 C 94.421 36.259 33.883 C 0.0 **** 0.0
2 H 94.548 36.946 34.72 H 0.0 **** 0.0
3 H 93.566 35.609 34.074 H 0.0 **** 0.0
4 H 95.32 35.653 33.771 H 0.0 **** 0.0
5 H 94.249 36.827 32.969 H 0.0 **** 0.0
@<TRIPOS>BOND
1 1 2 1
2 1 3 1
3 1 4 1
4 1 5 1
@<TRIPOS>MOLECULE
CH4
5 4
SMALL
USER_CHARGES


@<TRIPOS>ATOM
1 C 78.828 71.317 23.191 C 0.0 **** 0.0
2 H 78.631 71.259 22.12 H 0.0 **** 0.0
3 H 79.73 71.905 23.363 H 0.0 **** 0.0
4 H 78.967 70.312 23.589 H 0.0 **** 0.0
5 H 77.984 71.792 23.69 H 0.0 **** 0.0
@<TRIPOS>BOND
1 1 2 1
2 1 3 1
3 1 4 1
4 1 5 1
@<TRIPOS>MOLECULE
CH4
5 4
SMALL
USER_CHARGES


@<TRIPOS>ATOM
1 C 67.512 19.463 39.938 C 0.0 **** 0.0
2 H 67.659 18.738 39.137 H 0.0 **** 0.0
3 H 66.486 19.83 39.911 H 0.0 **** 0.0
4 H 68.2 20.298 39.803 H 0.0 **** 0.0
5 H 67.703 18.986 40.899 H 0.0 **** 0.0
@<TRIPOS>BOND
1 1 2 1
2 1 3 1
3 1 4 1
4 1 5 1
@<TRIPOS>MOLECULE
CH4
5 4
SMALL
USER_CHARGES


@<TRIPOS>ATOM
1 C 78.123 77.911 28.312 C 0.0 **** 0.0
2 H 77.833 77.474 27.357 H 0.0 **** 0.0
3 H 77.387 77.647 29.071 H 0.0 **** 0.0
4 H 78.173 78.996 28.215 H 0.0 **** 0.0
5 H 79.101 77.528 28.605 H 0.0 **** 0.0
@<TRIPOS>BOND
1 1 2 1
2 1 3 1
3 1 4 1
4 1 5 1
@<TRIPOS>MOLECULE
CH4
5 4
SMALL
USER_CHARGES


@<TRIPOS>ATOM
1 C 25.054 27.971 7.652 C 0.0 **** 0.0
2 H 25.126 27.995 6.564 H 0.0 **** 0.0
3 H 24.846 26.952 7.979 H 0.0 **** 0.0
4 H 24.25 28.63 7.977 H 0.0 **** 0.0
5 H 25.997 28.306 8.085 H 0.0 **** 0.0
@<TRIPOS>BOND
1 1 5 1
2 1 2 1
3 1 3 1
4 1 4 1
@<TRIPOS>MOLECULE
CH4
5 4
SMALL
USER_CHARGES


@<TRIPOS>ATOM
1 C 10.811 3.294 26.897 C 0.0 **** 0.0
2 H 10.878 4.325 27.246 H 0.0 **** 0.0
3 H 10.067 2.759 27.488 H 0.0 **** 0.0
4 H 11.78 2.809 27.008 H 0.0 **** 0.0
5 H 10.517 3.285 25.847 H 0.0 **** 0.0
@<TRIPOS>BOND
1 1 3 1
2 1 4 1
3 1 5 1
4 1 2 1
@<TRIPOS>MOLECULE
CH4
5 4
SMALL
USER_CHARGES


@<TRIPOS>ATOM
1 C 5.504 68.205 20.558 C 0.0 **** 0.0
2 H 5.703 68.593 21.557 H 0.0 **** 0.0
3 H 4.428 68.2 20.379 H 0.0 **** 0.0
4 H 5.89 67.188 20.48 H 0.0 **** 0.0
5 H 5.994 68.837 19.818 H 0.0 **** 0.0
@<TRIPOS>BOND
1 1 2 1
2 1 3 1
3 1 4 1
4 1 5 1
@<TRIPOS>MOLECULE
CH4
5 4
SMALL
USER_CHARGES


@<TRIPOS>ATOM
1 C 67.859 22.641 97.793 C 0.0 **** 0.0
2 H 67.186 22.438 96.96 H 0.0 **** 0.0
3 H 68.33 21.712 98.113 H 0.0 **** 0.0
4 H 67.293 23.066 98.621 H 0.0 **** 0.0
5 H 68.626 23.348 97.476 H 0.0 **** 0.0
@<TRIPOS>BOND
1 1 2 1
2 1 3 1
3 1 4 1
4 1 5 1
@<TRIPOS>MOLECULE
CH4
5 4
SMALL
USER_CHARGES


@<TRIPOS>ATOM
1 C 63.353 38.245 46.907 C 0.0 **** 0.0
2 H 63.542 38.12 47.973 H 0.0 **** 0.0
3 H 62.435 38.816 46.765 H 0.0 **** 0.0
4 H 63.248 37.265 46.44 H 0.0 **** 0.0
5 H 64.187 38.777 46.45 H 0.0 **** 0.0
@<TRIPOS>BOND
1 1 2 1
2 1 3 1
3 1 4 1
4 1 5 1
@<TRIPOS>MOLECULE
CH4
5 4
SMALL
USER_CHARGES


@<TRIPOS>ATOM
1 C 10.861 27.21 71.311 C 0.0 **** 0.0
2 H 10.777 26.969 70.251 H 0.0 **** 0.0
3 H 10.451 28.204 71.49 H 0.0 **** 0.0
4 H 11.91 27.189 71.606 H 0.0 **** 0.0
5 H 10.304 26.477 71.895 H 0.0 **** 0.0
@<TRIPOS>BOND
1 1 2 1
2 1 3 1
3 1 4 1
4 1 5 1
@<TRIPOS>MOLECULE
CH4
5 4
SMALL
USER_CHARGES


@<TRIPOS>ATOM
1 C 69.515 31.979 70.146 C 0.0 **** 0.0
2 H 69.869 31.377 69.31 H 0.0 **** 0.0
3 H 68.426 31.948 70.181 H 0.0 **** 0.0
4 H 69.845 33.01 70.016 H 0.0 **** 0.0
5 H 69.92 31.582 71.077 H 0.0 **** 0.0
@<TRIPOS>BOND
1 1 2 1
2 1 3 1
3 1 4 1
4 1 5 1
@<TRIPOS>MOLECULE
CH4
5 4
SMALL
USER_CHARGES


@<TRIPOS>ATOM
1 C 89.286 90.081 23.43 C 0.0 **** 0.0
2 H 89.88 89.904 24.327 H 0.0 **** 0.0
3 H 89.949 90.312 22.596 H 0.0 **** 0.0
4 H 88.611 90.92 23.602 H 0.0 **** 0.0
5 H 88.705 89.189 23.198 H 0.0 **** 0.0
@<TRIPOS>BOND
1 1 2 1
2 1 3 1
3 1 4 1
4 1 5 1
@<TRIPOS>MOLECULE
CH4
5 4
SMALL
USER_CHARGES


@<TRIPOS>ATOM
1 C 40.777 31.105 38.833 C 0.0 **** 0.0
2 H 41.436 30.879 37.995 H 0.0 **** 0.0
3 H 40.307 32.076 38.673 H 0.0 **** 0.0
4 H 41.358 31.13 39.755 H 0.0 **** 0.0
5 H 40.008 30.336 38.908 H 0.0 **** 0.0
@<TRIPOS>BOND
1 1 2 1
2 1 3 1
3 1 4 1
4 1 5 1
@<TRIPOS>MOLECULE
CH4
5 4
SMALL
USER_CHARGES


@<TRIPOS>ATOM
1 C 29.923 3.525 84.761 C 0.0 **** 0.0
2 H 30.234 2.551 84.385 H 0.0 **** 0.0
3 H 29.566 4.138 83.933 H 0.0 **** 0.0
4 H 30.77 4.018 85.239 H 0.0 **** 0.0
5 H 29.122 3.395 85.489 H 0.0 **** 0.0
@<TRIPOS>BOND
1 1 2 1
2 1 3 1
3 1 4 1
4 1 5 1
@<TRIPOS>MOLECULE
CH4
5 4
SMALL
USER_CHARGES


@<TRIPOS>ATOM
1 C 75.815 10.808 30.377 C 0.0 **** 0.0
2 H 76.024 11.213 29.386 H 0.0 **** 0.0
3 H 75.385 11.589 31.004 H 0.0 **** 0.0
4 H 76.74 10.449 30.826 H 0.0 **** 0.0
5 H 75.109 9.982 30.289 H 0.0 **** 0.0
@<TRIPOS>BOND
1 1 2 1
2 1 3 1
3 1 4 1
4 1 5 1
@<TRIPOS>MOLECULE
CH4
5 4
SMALL
USER_CHARGES


@<TRIPOS>ATOM
1 C 83.183 13.31 77.763 C 0.0 **** 0.0
2 H 82.859 13.501 76.74 H 0.0 **** 0.0
3 H 82.336 13.424 78.44 H 0.0 **** 0.0
4 H 83.964 14.02 78.035 H 0.0 **** 0.0
5 H 83.574 12.295 77.837 H 0.0 **** 0.0
@<TRIPOS>BOND
1 1 2 1
2 1 3 1
3 1 4 1
4 1 5 1
@<TRIPOS>MOLECULE
CH4
5 4
SMALL
USER_CHARGES


@<TRIPOS>ATOM
1 C 22.479 12.69 97.542 C 0.0 **** 0.0
2 H 23.044 11.764 97.649 H 0.0 **** 0.0
3 H 21.702 12.556 96.789 H 0.0 **** 0.0
4 H 23.15 13.491 97.234 H 0.0 **** 0.0
5 H 22.02 12.947 98.497 H 0.0 **** 0.0
@<TRIPOS>BOND
1 1 2 1
2 1 3 1
3 1 4 1
4 1 5 1
@<TRIPOS>MOLECULE
CH4
5 4
SMALL
USER_CHARGES


@<TRIPOS>ATOM
1 C 12.594 36.272 61.906 C 0.0 **** 0.0
2 H 12.834 36.55 60.88 H 0.0 **** 0.0
3 H 12.092 35.304 61.912 H 0.0 **** 0.0
4 H 11.937 37.025 62.342 H 0.0 **** 0.0
5 H 13.512 36.209 62.49 H 0.0 **** 0.0
@<TRIPOS>BOND
1 1 2 1
2 1 3 1
3 1 4 1
4 1 5 1
@<TRIPOS>MOLECULE
CH4
5 4
SMALL
USER_CHARGES


@<TRIPOS>ATOM
1 C 69.428 74.044 56.978 C 0.0 **** 0.0
2 H 69.43 73.248 57.723 H 0.0 **** 0.0
3 H 69.473 75.011 57.48 H 0.0 **** 0.0
4 H 68.515 73.984 56.385 H 0.0 **** 0.0
5 H 70.293 73.932 56.325 H 0.0 **** 0.0
@<TRIPOS>BOND
1 1 2 1
2 1 3 1
3 1 4 1
4 1 5 1
@<TRIPOS>MOLECULE
CH4
5 4
SMALL
USER_CHARGES


@<TRIPOS>ATOM
1 C 35.614 57.784 49.576 C 0.0 **** 0.0
2 H 35.612 58.007 48.509 H 0.0 **** 0.0
3 H 34.701 57.246 49.835 H 0.0 **** 0.0
4 H 35.661 58.714 50.141 H 0.0 **** 0.0
5 H 36.48 57.168 49.816 H 0.0 **** 0.0
@<TRIPOS>BOND
1 1 2 1
2 1 3 1
3 1 4 1
4 1 5 1
@<TRIPOS>MOLECULE
CH4
5 4
SMALL
USER_CHARGES


@<TRIPOS>ATOM
1 C 4.736 79.058 39.332 C 0.0 **** 0.0
2 H 5.701 79.435 39.671 H 0.0 **** 0.0
3 H 4.892 78.296 38.568 H 0.0 **** 0.0
4 H 4.153 79.879 38.914 H 0.0 **** 0.0
5 H 4.199 78.623 40.175 H 0.0 **** 0.0
@<TRIPOS>BOND
1 1 2 1
2 1 3 1
3 1 4 1
4 1 5 1
@<TRIPOS>MOLECULE
CH4
5 4
SMALL
USER_CHARGES


@<TRIPOS>ATOM
1 C 94.542 58.856 61.709 C 0.0 **** 0.0
2 H 94.808 58.625 62.741 H 0.0 **** 0.0
3 H 95.148 59.69 61.356 H 0.0 **** 0.0
4 H 93.487 59.126 61.659 H 0.0 **** 0.0
5 H 94.724 57.983 61.083 H 0.0 **** 0.0
@<TRIPOS>BOND
1 1 2 1
2 1 3 1
3 1 4 1
4 1 5 1
@<TRIPOS>MOLECULE
CH4
5 4
SMALL
USER_CHARGES


@<TRIPOS>ATOM
1 C 73.707 70.573 41.927 C 0.0 **** 0.0
2 H 72.678 70.926 41.988 H 0.0 **** 0.0
3 H 73.974 70.07 42.857 H 0.0 **** 0.0
4 H 74.373 71.42 41.767 H 0.0 **** 0.0
5 H 73.802 69.874 41.096 H 0.0 **** 0.0
@<TRIPOS>BOND
1 1 2 1
2 1 3 1
3 1 4 1
4 1 5 1
@<TRIPOS>MOLECULE
CH4
5 4
SMALL
USER_CHARGES


@<TRIPOS>ATOM
1 C 54.593 34.488 48.879 C 0.0 **** 0.0
2 H 53.751 34.101 48.306 H 0.0 **** 0.0
3 H 55.517 34.318 48.326 H 0.0 **** 0.0
4 H 54.645 33.975 49.84 H 0.0 **** 0.0
5 H 54.459 35.557 49.045 H 0.0 **** 0.0
@<TRIPOS>BOND
1 1 2 1
2 1 3 1
3 1 4 1
4 1 5 1
@<TRIPOS>MOLECULE
CH4
5 4
SMALL
USER_CHARGES


@<TRIPOS>ATOM
1 C 10.775 31.019 48.359 C 0.0 **** 0.0
2 H 10.433 30.36 49.157 H 0.0 **** 0.0
3 H 10.756 32.051 48.707 H 0.0 **** 0.0
4 H 10.118 30.914 47.495 H 0.0 **** 0.0
5 H 11.792 30.749 48.076 H 0.0 **** 0.0
@<TRIPOS>BOND
1 1 2 1
2 1 3 1
3 1 4 1
4 1 5 1
@<TRIPOS>MOLECULE
CH4
5 4
SMALL
USER_CHARGES


@<TRIPOS>ATOM
1 C 48.463 52.09 37.098 C 0.0 **** 0.0
2 H 48.382 51.975 38.179 H 0.0 **** 0.0
3 H 49.514 52.164 36.818 H 0.0 **** 0.0
4 H 47.939 52.994 36.789 H 0.0 **** 0.0
5 H 48.016 51.225 36.607 H 0.0 **** 0.0
@<TRIPOS>BOND
1 1 2 1
2 1 3 1
3 1 4 1
4 1 5 1
@<TRIPOS>MOLECULE
CH4
5 4
SMALL
USER_CHARGES


@<TRIPOS>ATOM
1 C 13.103 62.263 68.765 C 0.0 **** 0.0
2 H 13.211 61.92 69.794 H 0.0 **** 0.0
3 H 12.251 62.939 68.695 H 0.0 **** 0.0
4 H 12.942 61.406 68.112 H 0.0 **** 0.0
5 H 14.009 62.787 68.46 H 0.0 **** 0.0
@<TRIPOS>BOND
1 1 2 1
2 1 3 1
3 1 4 1
4 1 5 1
@<TRIPOS>MOLECULE
CH4
5 4
SMALL
USER_CHARGES


@<TRIPOS>ATOM
1 C 74.458 63.427 59.625 C 0.0 **** 0.0
2 H 74.776 63.147 58.621 H 0.0 **** 0.0
3 H 73.459 63.861 59.582 H 0.0 **** 0.0
4 H 75.154 64.157 60.037 H 0.0 **** 0.0
5 H 74.443 62.541 60.261 H 0.0 **** 0.0
@<TRIPOS>BOND
1 1 2 1
2 1 3 1
3 1 4 1
4 1 5 1
@<TRIPOS>MOLECULE
CH4
5 4
SMALL
USER_CHARGES


@<TRIPOS>ATOM
1 C 16.557 10.425 45.901 C 0.0 **** 0.0
2 H 15.551 10.376 46.319 H 0.0 **** 0.0
3 H 17.245 9.877 46.546 H 0.0 **** 0.0
4 H 16.872 11.466 45.833 H 0.0 **** 0.0
5 H 16.558 9.979 44.906 H 0.0 **** 0.0
@<TRIPOS>BOND
1 1 2 1
2 1 3 1
3 1 4 1
4 1 5 1
@<TRIPOS>MOLECULE
CH4
5 4
SMALL
USER_CHARGES


@<TRIPOS>ATOM
1 C 76.083 32.454 75.165 C 0.0 **** 0.0
2 H 77.11 32.812 75.238 H 0.0 **** 0.0
3 H 75.491 33.165 74.589 H 0.0 **** 0.0
4 H 75.661 32.355 76.165 H 0.0 **** 0.0
5 H 76.071 31.484 74.668 H 0.0 **** 0.0
@<TRIPOS>BOND
1 1 2 1
2 1 3 1
3 1 4 1
4 1 5 1
@<TRIPOS>MOLECULE
CH4
5 4
SMALL
USER_CHARGES


@<TRIPOS>ATOM
1 C 81.591 32.55 19.251 C 0.0 **** 0.0
2 H 81.896 32.387 20.285 H 0.0 **** 0.0
3 H 81.618 31.604 18.711 H 0.0 **** 0.0
4 H 82.272 33.258 18.779 H 0.0 **** 0.0
5 H 80.578 32.952 19.231 H 0.0 **** 0.0
@<TRIPOS>BOND
1 1 2 1
2 1 3 1
3 1 4 1
4 1 5 1
@<TRIPOS>MOLECULE
CH4
5 4
SMALL
USER_CHARGES


@<TRIPOS>ATOM
1 C 78.589 59.144 94.121 C 0.0 **** 0.0
2 H 78.224 60.038 94.626 H 0.0 **** 0.0
3 H 78.603 59.316 93.044 H 0.0 **** 0.0
4 H 77.93 58.305 94.346 H 0.0 **** 0.0
5 H 79.598 58.917 94.466 H 0.0 **** 0.0
@<TRIPOS>BOND
1 1 2 1
2 1 3 1
3 1 4 1
4 1 5 1
@<TRIPOS>MOLECULE
CH4
5 4
SMALL
USER_CHARGES


@<TRIPOS>ATOM
1 C 31.727 36.893 14.368 C 0.0 **** 0.0
2 H 32.342 36.333 13.663 H 0.0 **** 0.0
3 H 32.129 37.9 14.479 H 0.0 **** 0.0
4 H 31.733 36.389 15.334 H 0.0 **** 0.0
5 H 30.705 36.948 13.993 H 0.0 **** 0.0
@<TRIPOS>BOND
1 1 2 1
2 1 3 1
3 1 4 1
4 1 5 1
@<TRIPOS>MOLECULE
CH4
5 4
SMALL
USER_CHARGES


@<TRIPOS>ATOM
1 C 19.566 55.608 1.277 C 0.0 **** 0.0
2 H 19.357 54.538 1.287 H 0.0 **** 0.0
3 H 20.369 55.814 0.569 H 0.0 **** 0.0
4 H 19.869 55.928 2.274 H 0.0 **** 0.0
5 H 18.669 56.15 0.977 H 0.0 **** 0.0
@<TRIPOS>BOND
1 1 2 1
2 1 3 1
3 1 4 1
4 1 5 1
@<TRIPOS>MOLECULE
CH4
5 4
SMALL
USER_CHARGES


@<TRIPOS>ATOM
1 C 22.74 47.056 16.905 C 0.0 **** 0.0
2 H 23.437 46.225 16.801 H 0.0 **** 0.0
3 H 23.022 47.659 17.769 H 0.0 **** 0.0
4 H 21.731 46.669 17.045 H 0.0 **** 0.0
5 H 22.772 47.671 16.006 H 0.0 **** 0.0
@<TRIPOS>BOND
1 1 2 1
2 1 3 1
3 1 4 1
4 1 5 1
@<TRIPOS>MOLECULE
CH4
5 4
SMALL
USER_CHARGES


@<TRIPOS>ATOM
1 C 44.702 97.457 17.125 C 0.0 **** 0.0
2 H 44.81 97.127 16.092 H 0.0 **** 0.0
3 H 44.811 96.601 17.792 H 0.0 **** 0.0
4 H 43.717 97.902 17.263 H 0.0 **** 0.0
5 H 45.471 98.196 17.352 H 0.0 **** 0.0
@<TRIPOS>BOND
1 1 2 1
2 1 3 1
3 1 4 1
4 1 5 1
@<TRIPOS>MOLECULE
CH4
5 4
SMALL
USER_CHARGES


@<TRIPOS>ATOM
1 C 34.614 72.81 61.95 C 0.0 **** 0.0
2 H 34.374 72.766 60.888 H 0.0 **** 0.0
3 H 34.497 71.82 62.391 H 0.0 **** 0.0
4 H 33.941 73.51 62.445 H 0.0 **** 0.0
5 H 35.643 73.145 62.076 H 0.0 **** 0.0
@<TRIPOS>BOND
1 1 2 1
2 1 3 1
3 1 4 1
4 1 5 1
@<TRIPOS>MOLECULE
CH4
5 4
SMALL
USER_CHARGES


@<TRIPOS>ATOM
1 C 27.607 12.065 45.729 C 0.0 **** 0.0
2 H 27.431 12.115 46.803 H 0.0 **** 0.0
3 H 27.472 11.038 45.387 H 0.0 **** 0.0
4 H 28.625 12.389 45.512 H 0.0 **** 0.0
5 H 26.9 12.716 45.214 H 0.0 **** 0.0
@<TRIPOS>BOND
1 1 2 1
2 1 3 1
3 1 4 1
4 1 5 1
@<TRIPOS>MOLECULE
CH4
5 4
SMALL
USER_CHARGES


@<TRIPOS>ATOM
1 C 55.512 67.037 64.943 C 0.0 **** 0.0
2 H 56.569 67.23 64.762 H 0.0 **** 0.0
3 H 54.912 67.764 64.395 H 0.0 **** 0.0
4 H 55.304 67.124 66.01 H 0.0 **** 0.0
5 H 55.263 66.032 64.605 H 0.0 **** 0.0
@<TRIPOS>BOND
1 1 3 1
2 1 4 1
3 1 2 1
4 1 5 1
@<TRIPOS>MOLECULE
CH4
5 4
SMALL
USER_CHARGES


@<TRIPOS>ATOM
1 C 90.879 21.704 59.887 C 0.0 **** 0.0
2 H 90.57 21.62 58.845 H 0.0 **** 0.0
3 H 91.596 22.518 59.988 H 0.0 **** 0.0
4 H 91.342 20.769 60.204 H 0.0 **** 0.0
5 H 90.007 21.907 60.509 H 0.0 **** 0.0
@<TRIPOS>BOND
1 1 2 1
2 1 3 1
3 1 4 1
4 1 5 1
@<TRIPOS>MOLECULE
CH4
5 4
SMALL
USER_CHARGES


@<TRIPOS>ATOM
1 C 88.75 75.609 95.343 C 0.0 **** 0.0
2 H 87.97 75.265 94.664 H 0.0 **** 0.0
3 H 89.726 75.329 94.947 H 0.0 **** 0.0
4 H 88.609 75.149 96.321 H 0.0 **** 0.0
5 H 88.694 76.693 95.44 H 0.0 **** 0.0
@<TRIPOS>BOND
1 1 2 1
2 1 3 1
3 1 4 1
4 1 5 1
@<TRIPOS>MOLECULE
CH4
5 4
SMALL
USER_CHARGES


@<TRIPOS>ATOM
1 C 13.332 30.612 10.558 C 0.0 **** 0.0
2 H 13.291 30.559 11.646 H 0.0 **** 0.0
3 H 14.357 30.809 10.243 H 0.0 **** 0.0
4 H 12.684 31.416 10.209 H 0.0 **** 0.0
5 H 12.997 29.666 10.135 H 0.0 **** 0.0
@<TRIPOS>BOND
1 1 2 1
2 1 3 1
3 1 4 1
4 1 5 1
@<TRIPOS>MOLECULE
CH4
5 4
SMALL
USER_CHARGES


@<TRIPOS>ATOM
1 C 8.847 63.101 2.073 C 0.0 **** 0.0
2 H 8.717 63.237 3.147 H 0.0 **** 0.0
3 H 7.919 62.731 1.638 H 0.0 **** 0.0
4 H 9.646 62.382 1.893 H 0.0 **** 0.0
5 H 9.108 64.056 1.616 H 0.0 **** 0.0
@<TRIPOS>BOND
1 1 2 1
2 1 3 1
3 1 4 1
4 1 5 1
@<TRIPOS>MOLECULE
CH4
5 4
SMALL
USER_CHARGES


@<TRIPOS>ATOM
1 C 85.773 52.381 97.926 C 0.0 **** 0.0
2 H 86.262 51.992 98.819 H 0.0 **** 0.0
3 H 85.283 53.326 98.163 H 0.0 **** 0.0
4 H 85.03 51.663 97.578 H 0.0 **** 0.0
5 H 86.516 52.542 97.146 H 0.0 **** 0.0
@<TRIPOS>BOND
1 1 2 1
2 1 3 1
3 1 4 1
4 1 5 1
@<TRIPOS>MOLECULE
CH4
5 4
SMALL
USER_CHARGES


@<TRIPOS>ATOM
1 C 54.027 6.27 41.644 C 0.0 **** 0.0
2 H 53.91 5.946 42.678 H 0.0 **** 0.0
3 H 54.933 5.829 41.227 H 0.0 **** 0.0
4 H 54.102 7.356 41.611 H 0.0 **** 0.0
5 H 53.164 5.947 41.062 H 0.0 **** 0.0
@<TRIPOS>BOND
1 1 2 1
2 1 3 1
3 1 4 1
4 1 5 1
@<TRIPOS>MOLECULE
CH4
5 4
SMALL
USER_CHARGES


@<TRIPOS>ATOM
1 C 39.247 55.887 67.648 C 0.0 **** 0.0
2 H 38.403 55.281 67.319 H 0.0 **** 0.0
3 H 39.051 56.936 67.422 H 0.0 **** 0.0
4 H 40.15 55.565 67.129 H 0.0 **** 0.0
5 H 39.383 55.766 68.723 H 0.0 **** 0.0
@<TRIPOS>BOND
1 1 2 1
2 1 3 1
3 1 4 1
4 1 5 1
@<TRIPOS>MOLECULE
CH4
5 4
SMALL
USER_CHARGES


@<TRIPOS>ATOM
1 C 31.101 61.824 53.133 C 0.0 **** 0.0
2 H 31.101 61.817 52.043 H 0.0 **** 0.0
3 H 30.078 61.938 53.495 H 0.0 **** 0.0
4 H 31.708 62.655 53.492 H 0.0 **** 0.0
5 H 31.515 60.885 53.502 H 0.0 **** 0.0
@<TRIPOS>BOND
1 1 2 1
2 1 3 1
3 1 4 1
4 1 5 1
@<TRIPOS>MOLECULE
CH4
5 4
SMALL
USER_CHARGES


@<TRIPOS>ATOM
1 C 16.133 57.297 96.899 C 0.0 **** 0.0
2 H 17.075 57.814 96.712 H 0.0 **** 0.0
3 H 15.302 57.96 96.658 H 0.0 **** 0.0
4 H 16.078 57.011 97.949 H 0.0 **** 0.0
5 H 16.079 56.405 96.276 H 0.0 **** 0.0
@<TRIPOS>BOND
1 1 3 1
2 1 4 1
3 1 5 1
4 1 2 1
@<TRIPOS>MOLECULE
CH4
5 4
SMALL
USER_CHARGES


@<TRIPOS>ATOM
1 C 58.791 2.751 88.108 C 0.0 **** 0.0
2 H 58.765 2.896 89.188 H 0.0 **** 0.0
3 H 57.8 2.466 87.756 H 0.0 **** 0.0
4 H 59.504 1.964 87.864 H 0.0 **** 0.0
5 H 59.096 3.679 87.625 H 0.0 **** 0.0
@<TRIPOS>BOND
1 1 2 1
2 1 3 1
3 1 4 1
4 1 5 1
@<TRIPOS>MOLECULE
CH4
5 4
SMALL
USER_CHARGES


@<TRIPOS>ATOM
1 C 52.309 87.789 14.138 C 0.0 **** 0.0
2 H 52.44 88.727 13.597 H 0.0 **** 0.0
3 H 52.859 87.833 15.078 H 0.0 **** 0.0
4 H 52.688 86.966 13.533 H 0.0 **** 0.0
5 H 51.25 87.633 14.342 H 0.0 **** 0.0
@<TRIPOS>BOND
1 1 2 1
2 1 3 1
3 1 4 1
4 1 5 1
@<TRIPOS>MOLECULE
CH4
5 4
SMALL
USER_CHARGES


@<TRIPOS>ATOM
1 C 48.56 45.737 49.256 C 0.0 **** 0.0
2 H 48.55 45.744 48.166 H 0.0 **** 0.0
3 H 48.229 46.706 49.629 H 0.0 **** 0.0
4 H 49.573 45.538 49.608 H 0.0 **** 0.0
5 H 47.89 44.958 49.62 H 0.0 **** 0.0
@<TRIPOS>BOND
1 1 2 1
2 1 3 1
3 1 4 1
4 1 5 1
@<TRIPOS>MOLECULE
CH4
5 4
SMALL
USER_CHARGES


@<TRIPOS>ATOM
1 C 18.438 75.727 57.544 C 0.0 **** 0.0
2 H 18.418 74.893 58.246 H 0.0 **** 0.0
3 H 17.654 75.592 56.798 H 0.0 **** 0.0
4 H 19.409 75.761 57.049 H 0.0 **** 0.0
5 H 18.271 76.659 58.082 H 0.0 **** 0.0
@<TRIPOS>BOND
1 1 2 1
2 1 3 1
3 1 4 1
4 1 5 1
@<TRIPOS>MOLECULE
CH4
5 4
SMALL
USER_CHARGES


@<TRIPOS>ATOM
1 C 0.722 58.727 74.063 C 0.0 **** 0.0
2 H 0.0 59.047 73.312 H 0.0 **** 0.0
3 H 1.637 58.397 73.57 H 0.0 **** 0.0
4 H 0.303 57.903 74.642 H 0.0 **** 0.0
5 H 0.948 59.56 74.729 H 0.0 **** 0.0
@<TRIPOS>BOND
1 1 2 1
2 1 3 1
3 1 4 1
4 1 5 1
@<TRIPOS>MOLECULE
CH4
5 4
SMALL
USER_CHARGES


@<TRIPOS>ATOM
1 C 12.466 70.792 94.086 C 0.0 **** 0.0
2 H 12.664 71.141 93.073 H 0.0 **** 0.0
3 H 13.157 71.275 94.778 H 0.0 **** 0.0
4 H 12.602 69.712 94.131 H 0.0 **** 0.0
5 H 11.442 71.042 94.362 H 0.0 **** 0.0
@<TRIPOS>BOND
1 1 2 1
2 1 3 1
3 1 4 1
4 1 5 1
@<TRIPOS>MOLECULE
CH4
5 4
SMALL
USER_CHARGES


@<TRIPOS>ATOM
1 C 12.683 39.608 93.954 C 0.0 **** 0.0
2 H 13.03 39.935 92.974 H 0.0 **** 0.0
3 H 12.727 40.444 94.653 H 0.0 **** 0.0
4 H 13.32 38.8 94.314 H 0.0 **** 0.0
5 H 11.655 39.254 93.876 H 0.0 **** 0.0
@<TRIPOS>BOND
1 1 2 1
2 1 3 1
3 1 4 1
4 1 5 1
@<TRIPOS>MOLECULE
CH4
5 4
SMALL
USER_CHARGES


@<TRIPOS>ATOM
1 C 84.181 76.79 29.712 C 0.0 **** 0.0
2 H 84.453 76.066 30.479 H 0.0 **** 0.0
3 H 84.786 77.689 29.83 H 0.0 **** 0.0
4 H 83.126 77.045 29.811 H 0.0 **** 0.0
5 H 84.359 76.359 28.726 H 0.0 **** 0.0
@<TRIPOS>BOND
1 1 2 1
2 1 3 1
3 1 4 1
4 1 5 1
@<TRIPOS>MOLECULE
CH4
5 4
SMALL
USER_CHARGES


@<TRIPOS>ATOM
1 C 4.756 40.374 26.95 C 0.0 **** 0.0
2 H 4.611 40.905 27.89 H 0.0 **** 0.0
3 H 5.777 39.996 26.9 H 0.0 **** 0.0
4 H 4.579 41.054 26.117 H 0.0 **** 0.0
5 H 4.056 39.54 26.892 H 0.0 **** 0.0
@<TRIPOS>BOND
1 1 2 1
2 1 3 1
3 1 4 1
4 1 5 1
@<TRIPOS>MOLECULE
CH4
5 4
SMALL
USER_CHARGES


@<TRIPOS>ATOM
1 C 52.092 93.621 31.707 C 0.0 **** 0.0
2 H 51.12 93.842 32.148 H 0.0 **** 0.0
3 H 51.964 92.931 30.872 H 0.0 **** 0.0
4 H 52.737 93.167 32.459 H 0.0 **** 0.0
5 H 52.546 94.545 31.349 H 0.0 **** 0.0
@<TRIPOS>BOND
1 1 2 1
2 1 3 1
3 1 4 1
4 1 5 1
@<TRIPOS>MOLECULE
CH4
5 4
SMALL
USER_CHARGES


@<TRIPOS>ATOM
1 C 44.593 23.759 40.774 C 0.0 **** 0.0
2 H 44.521 23.831 41.859 H 0.0 **** 0.0
3 H 44.998 22.784 40.501 H 0.0 **** 0.0
4 H 45.252 24.544 40.401 H 0.0 **** 0.0
5 H 43.603 23.878 40.335 H 0.0 **** 0.0
@<TRIPOS>BOND
1 1 2 1
2 1 3 1
3 1 4 1
4 1 5 1
@<TRIPOS>MOLECULE
CH4
5 4
SMALL
USER_CHARGES


@<TRIPOS>ATOM
1 C 1.547 21.231 73.687 C 0.0 **** 0.0
2 H 2.105 21.701 74.497 H 0.0 **** 0.0
3 H 2.178 20.492 73.193 H 0.0 **** 0.0
4 H 1.243 21.99 72.967 H 0.0 **** 0.0
5 H 0.662 20.74 74.093 H 0.0 **** 0.0
@<TRIPOS>BOND
1 1 2 1
2 1 3 1
3 1 4 1
4 1 5 1
@<TRIPOS>MOLECULE
CH4
5 4
SMALL
USER_CHARGES


@<TRIPOS>ATOM
1 C 65.934 64.067 38.31 C 0.0 **** 0.0
2 H 66.816 64.641 38.025 H 0.0 **** 0.0
3 H 66.151 63.002 38.223 H 0.0 **** 0.0
4 H 65.105 64.325 37.652 H 0.0 **** 0.0
5 H 65.667 64.301 39.341 H 0.0 **** 0.0
@<TRIPOS>BOND
1 1 2 1
2 1 3 1
3 1 4 1
4 1 5 1
@<TRIPOS>MOLECULE
CH4
5 4
SMALL
USER_CHARGES


@<TRIPOS>ATOM
1 C 63.411 81.152 88.44 C 0.0 **** 0.0
2 H 63.408 81.15 89.53 H 0.0 **** 0.0
3 H 64.0 80.309 88.078 H 0.0 **** 0.0
4 H 63.849 82.083 88.079 H 0.0 **** 0.0
5 H 62.388 81.065 88.074 H 0.0 **** 0.0
@<TRIPOS>BOND
1 1 2 1
2 1 3 1
3 1 4 1
4 1 5 1
@<TRIPOS>MOLECULE
CH4
5 4
SMALL
USER_CHARGES


@<TRIPOS>ATOM
1 C 17.9 16.296 85.409 C 0.0 **** 0.0
2 H 17.168 17.103 85.382 H 0.0 **** 0.0
3 H 17.421 15.362 85.114 H 0.0 **** 0.0
4 H 18.296 16.199 86.42 H 0.0 **** 0.0
5 H 18.714 16.521 84.72 H 0.0 **** 0.0
@<TRIPOS>BOND
1 1 2 1
2 1 3 1
3 1 4 1
4 1 5 1
@<TRIPOS>MOLECULE
CH4
5 4
SMALL
USER_CHARGES


@<TRIPOS>ATOM
1 C 12.076 43.824 41.894 C 0.0 **** 0.0
2 H 12.623 44.073 42.803 H 0.0 **** 0.0
3 H 12.596 44.239 41.031 H 0.0 **** 0.0
4 H 11.071 44.243 41.949 H 0.0 **** 0.0
5 H 12.012 42.74 41.794 H 0.0 **** 0.0
@<TRIPOS>BOND
1 1 2 1
2 1 3 1
3 1 4 1
4 1 5 1
@<TRIPOS>MOLECULE
CH4
5 4
SMALL
USER_CHARGES


@<TRIPOS>ATOM
1 C 20.775 96.835 31.349 C 0.0 **** 0.0
2 H 20.682 96.645 32.418 H 0.0 **** 0.0
3 H 21.037 97.881 31.187 H 0.0 **** 0.0
4 H 19.826 96.617 30.858 H 0.0 **** 0.0
5 H 21.554 96.197 30.933 H 0.0 **** 0.0
@<TRIPOS>BOND
1 1 2 1
2 1 3 1
3 1 4 1
4 1 5 1
@<TRIPOS>MOLECULE
CH4
5 4
SMALL
USER_CHARGES


@<TRIPOS>ATOM
1 C 47.119 25.413 70.432 C 0.0 **** 0.0
2 H 47.791 24.566 70.567 H 0.0 **** 0.0
3 H 46.317 25.135 69.747 H 0.0 **** 0.0
4 H 47.674 26.255 70.02 H 0.0 **** 0.0
5 H 46.692 25.695 71.395 H 0.0 **** 0.0
@<TRIPOS>BOND
1 1 2 1
2 1 3 1
3 1 4 1
4 1 5 1
@<TRIPOS>MOLECULE
CH4
5 4
SMALL
USER_CHARGES


@<TRIPOS>ATOM
1 C 40.323 13.03 22.866 C 0.0 **** 0.0
2 H 40.472 13.639 21.975 H 0.0 **** 0.0
3 H 41.279 12.883 23.369 H 0.0 **** 0.0
4 H 39.911 12.062 22.58 H 0.0 **** 0.0
5 H 39.631 13.535 23.54 H 0.0 **** 0.0
@<TRIPOS>BOND
1 1 2 1
2 1 3 1
3 1 4 1
4 1 5 1
@<TRIPOS>MOLECULE
CH4
5 4
SMALL
USER_CHARGES


@<TRIPOS>ATOM
1 C 38.492 30.31 75.448 C 0.0 **** 0.0
2 H 39.562 30.514 75.419 H 0.0 **** 0.0
3 H 37.942 31.222 75.216 H 0.0 **** 0.0
4 H 38.216 29.961 76.443 H 0.0 **** 0.0
5 H 38.249 29.542 74.713 H 0.0 **** 0.0
@<TRIPOS>BOND
1 1 2 1
2 1 3 1
3 1 4 1
4 1 5 1
@<TRIPOS>MOLECULE
CH4
5 4
SMALL
USER_CHARGES


@<TRIPOS>ATOM
1 C 75.121 54.768 14.571 C 0.0 **** 0.0
2 H 75.13 54.777 15.661 H 0.0 **** 0.0
3 H 75.363 53.766 14.214 H 0.0 **** 0.0
4 H 75.86 55.476 14.196 H 0.0 **** 0.0
5 H 74.131 55.052 14.214 H 0.0 **** 0.0
@<TRIPOS>BOND
1 1 2 1
2 1 3 1
3 1 4 1
4 1 5 1
@<TRIPOS>MOLECULE
CH4
5 4
SMALL
USER_CHARGES


@<TRIPOS>ATOM
1 C 17.762 85.863 93.449 C 0.0 **** 0.0
2 H 18.495 85.904 94.254 H 0.0 **** 0.0
3 H 18.125 86.438 92.597 H 0.0 **** 0.0
4 H 16.818 86.283 93.795 H 0.0 **** 0.0
5 H 17.61 84.826 93.148 H 0.0 **** 0.0
@<TRIPOS>BOND
1 1 2 1
2 1 3 1
3 1 4 1
4 1 5 1
@<TRIPOS>MOLECULE
CH4
5 4
SMALL
USER_CHARGES


@<TRIPOS>ATOM
1 C 97.012 80.816 58.942 C 0.0 **** 0.0
2 H 96.867 81.102 59.984 H 0.0 **** 0.0
3 H 96.292 80.043 58.673 H 0.0 **** 0.0
4 H 98.024 80.433 58.808 H 0.0 **** 0.0
5 H 96.867 81.687 58.303 H 0.0 **** 0.0
@<TRIPOS>BOND
1 1 2 1
2 1 3 1
3 1 4 1
4 1 5 1
@<TRIPOS>MOLECULE
CH4
5 4
SMALL
USER_CHARGES


@<TRIPOS>ATOM
1 C 68.893 55.127 73.978 C 0.0 **** 0.0
2 H 69.365 56.096 73.819 H 0.0 **** 0.0
3 H 68.084 54.995 73.26 H 0.0 **** 0.0
4 H 68.491 55.08 74.991 H 0.0 **** 0.0
5 H 69.632 54.337 73.844 H 0.0 **** 0.0
@<TRIPOS>BOND
1 1 2 1
2 1 3 1
3 1 4 1
4 1 5 1
@<TRIPOS>MOLECULE
CH4
5 4
SMALL
USER_CHARGES


@<TRIPOS>ATOM
1 C 47.946 53.327 93.584 C 0.0 **** 0.0
2 H 48.009 53.061 92.528 H 0.0 **** 0.0
3 H 46.9 53.423 93.873 H 0.0 **** 0.0
4 H 48.459 54.275 93.75 H 0.0 **** 0.0
5 H 48.419 52.549 94.183 H 0.0 **** 0.0
@<TRIPOS>BOND
1 1 3 1
2 1 4 1
3 1 5 1
4 1 2 1
@<TRIPOS>MOLECULE
CH4
5 4
SMALL
USER_CHARGES


@<TRIPOS>ATOM
1 C 68.357 90.647 30.337 C 0.0 **** 0.0
2 H 68.185 91.21 29.42 H 0.0 **** 0.0
3 H 69.415 90.397 30.417 H 0.0 **** 0.0
4 H 67.768 89.73 30.316 H 0.0 **** 0.0
5 H 68.06 91.25 31.194 H 0.0 **** 0.0
@<TRIPOS>BOND
1 1 2 1
2 1 3 1
3 1 4 1
4 1 5 1
@<TRIPOS>MOLECULE
CH4
5 4
SMALL
USER_CHARGES


@<TRIPOS>ATOM
1 C 31.985 87.215 6.163 C 0.0 **** 0.0
2 H 31.918 87.015 5.093 H 0.0 **** 0.0
3 H 33.026 87.157 6.479 H 0.0 **** 0.0
4 H 31.397 86.476 6.707 H 0.0 **** 0.0
5 H 31.597 88.212 6.371 H 0.0 **** 0.0
@<TRIPOS>BOND
1 1 2 1
2 1 3 1
3 1 4 1
4 1 5 1
@<TRIPOS>MOLECULE
CH4
5 4
SMALL
USER_CHARGES


@<TRIPOS>ATOM
1 C 13.081 25.232 46.949 C 0.0 **** 0.0
2 H 13.217 25.1 45.876 H 0.0 **** 0.0
3 H 12.02 25.356 47.167 H 0.0 **** 0.0
4 H 13.626 26.116 47.278 H 0.0 **** 0.0
5 H 13.46 24.355 47.473 H 0.0 **** 0.0
@<TRIPOS>BOND
1 1 2 1
2 1 3 1
3 1 4 1
4 1 5 1
@<TRIPOS>MOLECULE
CH4
5 4
SMALL
USER_CHARGES


@<TRIPOS>ATOM
1 C 33.065 52.031 13.936 C 0.0 **** 0.0
2 H 33.512 51.065 13.701 H 0.0 **** 0.0
3 H 32.178 51.881 14.553 H 0.0 **** 0.0
4 H 32.783 52.536 13.012 H 0.0 **** 0.0
5 H 33.786 52.643 14.479 H 0.0 **** 0.0
@<TRIPOS>BOND
1 1 2 1
2 1 3 1
3 1 4 1
4 1 5 1
@<TRIPOS>MOLECULE
CH4
5 4
SMALL
USER_CHARGES


@<TRIPOS>ATOM
1 C 64.053 40.644 25.057 C 0.0 **** 0.0
2 H 64.918 40.858 25.686 H 0.0 **** 0.0
3 H 64.233 39.729 24.493 H 0.0 **** 0.0
4 H 63.893 41.472 24.367 H 0.0 **** 0.0
5 H 63.171 40.517 25.685 H 0.0 **** 0.0
@<TRIPOS>BOND
1 1 2 1
2 1 3 1
3 1 5 1
4 1 4 1
@<TRIPOS>MOLECULE
CH4
5 4
SMALL
USER_CHARGES


@<TRIPOS>ATOM
1 C 95.958 28.277 26.488 C 0.0 **** 0.0
2 H 96.724 27.775 27.08 H 0.0 **** 0.0
3 H 96.146 28.102 25.428 H 0.0 **** 0.0
4 H 95.987 29.348 26.69 H 0.0 **** 0.0
5 H 94.977 27.883 26.754 H 0.0 **** 0.0
@<TRIPOS>BOND
1 1 2 1
2 1 3 1
3 1 4 1
4 1 5 1
@<TRIPOS>MOLECULE
CH4
5 4
SMALL
USER_CHARGES


@<TRIPOS>ATOM
1 C 42.921 11.898 21.576 C 0.0 **** 0.0
2 H 43.781 11.476 21.055 H 0.0 **** 0.0
3 H 42.477 11.137 22.219 H 0.0 **** 0.0
4 H 42.183 12.233 20.847 H 0.0 **** 0.0
5 H 43.243 12.744 22.183 H 0.0 **** 0.0
@<TRIPOS>BOND
1 1 2 1
2 1 3 1
3 1 4 1
4 1 5 1
@<TRIPOS>MOLECULE
CH4
5 4
SMALL
USER_CHARGES


@<TRIPOS>ATOM
1 C 7.31 49.924 49.002 C 0.0 **** 0.0
2 H 6.773 50.472 48.228 H 0.0 **** 0.0
3 H 6.647 49.749 49.85 H 0.0 **** 0.0
4 H 8.171 50.506 49.328 H 0.0 **** 0.0
5 H 7.647 48.968 48.602 H 0.0 **** 0.0
@<TRIPOS>BOND
1 1 2 1
2 1 3 1
3 1 4 1
4 1 5 1
@<TRIPOS>MOLECULE
CH4
5 4
SMALL
USER_CHARGES


@<TRIPOS>ATOM
1 C 58.464 52.857 56.752 C 0.0 **** 0.0
2 H 58.628 52.112 55.974 H 0.0 **** 0.0
3 H 59.307 53.548 56.777 H 0.0 **** 0.0
4 H 58.373 52.36 57.718 H 0.0 **** 0.0
5 H 57.548 53.408 56.54 H 0.0 **** 0.0
@<TRIPOS>BOND
1 1 2 1
2 1 3 1
3 1 4 1
4 1 5 1
@<TRIPOS>MOLECULE
CH4
5 4
SMALL
USER_CHARGES


@<TRIPOS>ATOM
1 C 81.478 73.345 86.686 C 0.0 **** 0.0
2 H 81.589 74.393 86.405 H 0.0 **** 0.0
3 H 82.37 72.793 86.388 H 0.0 **** 0.0
4 H 80.606 72.926 86.184 H 0.0 **** 0.0
5 H 81.347 73.271 87.765 H 0.0 **** 0.0
@<TRIPOS>BOND
1 1 2 1
2 1 3 1
3 1 4 1
4 1 5 1
@<TRIPOS>MOLECULE
CH4
5 4
SMALL
USER_CHARGES


@<TRIPOS>ATOM
1 C 4.82 67.815 62.509 C 0.0 **** 0.0
2 H 5.24 68.661 61.966 H 0.0 **** 0.0
3 H 5.531 67.477 63.263 H 0.0 **** 0.0
4 H 4.615 67.002 61.813 H 0.0 **** 0.0
5 H 3.893 68.119 62.995 H 0.0 **** 0.0
@<TRIPOS>BOND
1 1 2 1
2 1 3 1
3 1 4 1
4 1 5 1
@<TRIPOS>MOLECULE
CH4
5 4
SMALL
USER_CHARGES


@<TRIPOS>ATOM
1 C 44.294 93.859 22.106 C 0.0 **** 0.0
2 H 43.699 93.109 21.584 H 0.0 **** 0.0
3 H 43.695 94.311 22.897 H 0.0 **** 0.0
4 H 44.606 94.63 21.401 H 0.0 **** 0.0
5 H 45.174 93.386 22.541 H 0.0 **** 0.0
@<TRIPOS>BOND
1 1 2 1
2 1 3 1
3 1 4 1
4 1 5 1
@<TRIPOS>MOLECULE
CH4
5 4
SMALL
USER_CHARGES


@<TRIPOS>ATOM
1 C 65.109 12.362 26.997 C 0.0 **** 0.0
2 H 65.031 12.513 28.074 H 0.0 **** 0.0
3 H 65.873 11.612 26.789 H 0.0 **** 0.0
4 H 65.383 13.302 26.518 H 0.0 **** 0.0
5 H 64.149 12.022 26.607 H 0.0 **** 0.0
@<TRIPOS>BOND
1 1 2 1
2 1 3 1
3 1 4 1
4 1 5 1
@<TRIPOS>MOLECULE
CH4
5 4
SMALL
USER_CHARGES


@<TRIPOS>ATOM
1 C 77.538 44.268 46.358 C 0.0 **** 0.0
2 H 78.096 45.114 45.956 H 0.0 **** 0.0
3 H 76.494 44.344 46.051 H 0.0 **** 0.0
4 H 77.599 44.276 47.446 H 0.0 **** 0.0
5 H 77.962 43.339 45.977 H 0.0 **** 0.0
@<TRIPOS>BOND
1 1 2 1
2 1 3 1
3 1 4 1
4 1 5 1
@<TRIPOS>MOLECULE
CH4
5 4
SMALL
USER_CHARGES


@<TRIPOS>ATOM
1 C 47.826 88.559 56.157 C 0.0 **** 0.0
2 H 47.342 89.426 56.607 H 0.0 **** 0.0
3 H 48.791 88.393 56.636 H 0.0 **** 0.0
4 H 47.974 88.738 55.092 H 0.0 **** 0.0
5 H 47.196 87.68 56.294 H 0.0 **** 0.0
@<TRIPOS>BOND
1 1 2 1
2 1 3 1
3 1 4 1
4 1 5 1
@<TRIPOS>MOLECULE
CH4
5 4
SMALL
USER_CHARGES


@<TRIPOS>ATOM
1 C 14.602 28.617 54.113 C 0.0 **** 0.0
2 H 14.99 29.427 53.496 H 0.0 **** 0.0
3 H 15.362 28.316 54.835 H 0.0 **** 0.0
4 H 14.346 27.768 53.479 H 0.0 **** 0.0
5 H 13.712 28.957 54.642 H 0.0 **** 0.0
@<TRIPOS>BOND
1 1 2 1
2 1 3 1
3 1 4 1
4 1 5 1
@<TRIPOS>MOLECULE
CH4
5 4
SMALL
USER_CHARGES


@<TRIPOS>ATOM
1 C 95.332 11.219 55.891 C 0.0 **** 0.0
2 H 94.913 12.149 56.276 H 0.0 **** 0.0
3 H 94.889 10.375 56.421 H 0.0 **** 0.0
4 H 96.411 11.218 56.041 H 0.0 **** 0.0
5 H 95.112 11.136 54.826 H 0.0 **** 0.0
@<TRIPOS>BOND
1 1 3 1
2 1 4 1
3 1 5 1
4 1 2 1
@<TRIPOS>MOLECULE
CH4
5 4
SMALL
USER_CHARGES


@<TRIPOS>ATOM
1 C 10.25 60.128 16.627 C 0.0 **** 0.0
2 H 9.793 60.585 15.749 H 0.0 **** 0.0
3 H 11.028 59.433 16.312 H 0.0 **** 0.0
4 H 9.489 59.59 17.193 H 0.0 **** 0.0
5 H 10.688 60.905 17.254 H 0.0 **** 0.0
@<TRIPOS>BOND
1 1 2 1
2 1 3 1
3 1 4 1
4 1 5 1
@<TRIPOS>MOLECULE
CH4
5 4
SMALL
USER_CHARGES


@<TRIPOS>ATOM
1 C 15.672 21.088 6.838 C 0.0 **** 0.0
2 H 16.464 21.378 7.528 H 0.0 **** 0.0
3 H 15.505 21.891 6.119 H 0.0 **** 0.0
4 H 14.754 20.902 7.396 H 0.0 **** 0.0
5 H 15.965 20.181 6.309 H 0.0 **** 0.0
@<TRIPOS>BOND
1 1 2 1
2 1 3 1
3 1 4 1
4 1 5 1
@<TRIPOS>MOLECULE
CH4
5 4
SMALL
USER_CHARGES


@<TRIPOS>ATOM
1 C 47.174 29.839 15.952 C 0.0 **** 0.0
2 H 46.944 30.24 14.964 H 0.0 **** 0.0
3 H 48.21 30.065 16.203 H 0.0 **** 0.0
4 H 47.027 28.759 15.948 H 0.0 **** 0.0
5 H 46.513 30.293 16.69 H 0.0 **** 0.0
@<TRIPOS>BOND
1 1 2 1
2 1 3 1
3 1 4 1
4 1 5 1
@<TRIPOS>MOLECULE
CH4
5 4
SMALL
USER_CHARGES


@<TRIPOS>ATOM
1 C 80.666 9.784 86.781 C 0.0 **** 0.0
2 H 80.937 9.156 85.932 H 0.0 **** 0.0
3 H 80.272 9.159 87.583 H 0.0 **** 0.0
4 H 79.908 10.503 86.474 H 0.0 **** 0.0
5 H 81.55 10.315 87.135 H 0.0 **** 0.0
@<TRIPOS>BOND
1 1 2 1
2 1 3 1
3 1 4 1
4 1 5 1
@<TRIPOS>MOLECULE
CH4
5 4
SMALL
USER_CHARGES


@<TRIPOS>ATOM
1 C 36.312 76.52 95.699 C 0.0 **** 0.0
2 H 35.512 76.412 96.432 H 0.0 **** 0.0
3 H 36.711 75.536 95.45 H 0.0 **** 0.0
4 H 37.105 77.14 96.115 H 0.0 **** 0.0
5 H 35.917 76.99 94.798 H 0.0 **** 0.0
@<TRIPOS>BOND
1 1 2 1
2 1 3 1
3 1 4 1
4 1 5 1
@<TRIPOS>MOLECULE
CH4
5 4
SMALL
USER_CHARGES


@<TRIPOS>ATOM
1 C 91.748 16.902 33.606 C 0.0 **** 0.0
2 H 91.59 16.817 34.681 H 0.0 **** 0.0
3 H 92.626 17.52 33.416 H 0.0 **** 0.0
4 H 90.874 17.362 33.145 H 0.0 **** 0.0
5 H 91.903 15.91 33.182 H 0.0 **** 0.0
@<TRIPOS>BOND
1 1 2 1
2 1 3 1
3 1 4 1
4 1 5 1
@<TRIPOS>MOLECULE
CH4
5 4
SMALL
USER_CHARGES


@<TRIPOS>ATOM
1 C 24.175 21.443 75.355 C 0.0 **** 0.0
2 H 23.935 22.039 76.235 H 0.0 **** 0.0
3 H 24.958 20.726 75.604 H 0.0 **** 0.0
4 H 24.523 22.098 74.556 H 0.0 **** 0.0
5 H 23.284 20.909 75.025 H 0.0 **** 0.0
@<TRIPOS>BOND
1 1 2 1
2 1 3 1
3 1 4 1
4 1 5 1
@<TRIPOS>MOLECULE
CH4
5 4
SMALL
USER_CHARGES


@<TRIPOS>ATOM
1 C 66.288 17.198 36.678 C 0.0 **** 0.0
2 H 66.648 16.811 35.725 H 0.0 **** 0.0
3 H 67.09 17.746 37.174 H 0.0 **** 0.0
4 H 65.97 16.368 37.31 H 0.0 **** 0.0
5 H 65.445 17.866 36.503 H 0.0 **** 0.0
@<TRIPOS>BOND
1 1 2 1
2 1 3 1
3 1 4 1
4 1 5 1
@<TRIPOS>MOLECULE
CH4
5 4
SMALL
USER_CHARGES


@<TRIPOS>ATOM
1 C 96.538 57.557 27.475 C 0.0 **** 0.0
2 H 96.502 57.552 28.565 H 0.0 **** 0.0
3 H 96.275 58.549 27.108 H 0.0 **** 0.0
4 H 95.831 56.825 27.086 H 0.0 **** 0.0
5 H 97.545 57.302 27.144 H 0.0 **** 0.0
@<TRIPOS>BOND
1 1 2 1
2 1 3 1
3 1 4 1
4 1 5 1
@<TRIPOS>MOLECULE
CH4
5 4
SMALL
USER_CHARGES


@<TRIPOS>ATOM
1 C 49.598 33.839 64.579 C 0.0 **** 0.0
2 H 50.582 33.715 64.126 H 0.0 **** 0.0
3 H 49.187 32.86 64.827 H 0.0 **** 0.0
4 H 48.936 34.345 63.876 H 0.0 **** 0.0
5 H 49.689 34.436 65.486 H 0.0 **** 0.0
@<TRIPOS>BOND
1 1 2 1
2 1 3 1
3 1 4 1
4 1 5 1
@<TRIPOS>MOLECULE
CH4
5 4
SMALL
USER_CHARGES


@<TRIPOS>ATOM
1 C 29.754 32.385 59.03 C 0.0 **** 0.0
2 H 30.75 32.361 58.589 H 0.0 **** 0.0
3 H 29.429 33.42 59.139 H 0.0 **** 0.0
4 H 29.779 31.907 60.01 H 0.0 **** 0.0
5 H 29.057 31.852 58.384 H 0.0 **** 0.0
@<TRIPOS>BOND
1 1 2 1
2 1 3 1
3 1 4 1
4 1 5 1
@<TRIPOS>MOLECULE
CH4
5 4
SMALL
USER_CHARGES


@<TRIPOS>ATOM
1 C 52.017 1.519 53.395 C 0.0 **** 0.0
2 H 51.936 1.004 52.437 H 0.0 **** 0.0
3 H 51.5 2.477 53.337 H 0.0 **** 0.0
4 H 53.068 1.687 53.629 H 0.0 **** 0.0
5 H 51.564 0.907 54.175 H 0.0 **** 0.0
@<TRIPOS>BOND
1 1 2 1
2 1 4 1
3 1 5 1
4 1 3 1
@<TRIPOS>MOLECULE
CH4
5 4
SMALL
USER_CHARGES


@<TRIPOS>ATOM
1 C 24.61 82.04 42.022 C 0.0 **** 0.0
2 H 25.085 82.158 42.996 H 0.0 **** 0.0
3 H 23.824 81.287 42.091 H 0.0 **** 0.0
4 H 25.354 81.723 41.291 H 0.0 **** 0.0
5 H 24.176 82.99 41.711 H 0.0 **** 0.0
@<TRIPOS>BOND
1 1 2 1
2 1 3 1
3 1 4 1
4 1 5 1
@<TRIPOS>MOLECULE
CH4
5 4
SMALL
USER_CHARGES


@<TRIPOS>ATOM
1 C 60.536 12.726 65.211 C 0.0 **** 0.0
2 H 60.514 12.733 64.121 H 0.0 **** 0.0
3 H 61.525 12.42 65.552 H 0.0 **** 0.0
4 H 59.789 12.026 65.585 H 0.0 **** 0.0
5 H 60.316 13.726 65.585 H 0.0 **** 0.0
@<TRIPOS>BOND
1 1 2 1
2 1 3 1
3 1 4 1
4 1 5 1
@<TRIPOS>MOLECULE
CH4
5 4
SMALL
USER_CHARGES


@<TRIPOS>ATOM
1 C 61.707 44.047 40.322 C 0.0 **** 0.0
2 H 61.831 44.067 41.405 H 0.0 **** 0.0
3 H 62.686 44.069 39.844 H 0.0 **** 0.0
4 H 61.128 44.916 40.007 H 0.0 **** 0.0
5 H 61.181 43.137 40.033 H 0.0 **** 0.0
@<TRIPOS>BOND
1 1 2 1
2 1 3 1
3 1 4 1
4 1 5 1
@<TRIPOS>MOLECULE
CH4
5 4
SMALL
USER_CHARGES


@<TRIPOS>ATOM
1 C 52.866 37.473 24.654 C 0.0 **** 0.0
2 H 51.949 37.131 25.134 H 0.0 **** 0.0
3 H 53.386 36.621 24.215 H 0.0 **** 0.0
4 H 53.508 37.949 25.395 H 0.0 **** 0.0
5 H 52.62 38.191 23.872 H 0.0 **** 0.0
@<TRIPOS>BOND
1 1 2 1
2 1 3 1
3 1 4 1
4 1 5 1
@<TRIPOS>MOLECULE
CH4
5 4
SMALL
USER_CHARGES


@<TRIPOS>ATOM
1 C 56.213 11.046 75.811 C 0.0 **** 0.0
2 H 56.53 11.039 76.854 H 0.0 **** 0.0
3 H 56.914 11.64 75.223 H 0.0 **** 0.0
4 H 55.217 11.481 75.737 H 0.0 **** 0.0
5 H 56.193 10.025 75.431 H 0.0 **** 0.0
@<TRIPOS>BOND
1 1 2 1
2 1 3 1
3 1 4 1
4 1 5 1
@<TRIPOS>MOLECULE
CH4
5 4
SMALL
USER_CHARGES


@<TRIPOS>ATOM
1 C 37.516 7.897 91.403 C 0.0 **** 0.0
2 H 37.466 7.022 90.756 H 0.0 **** 0.0
3 H 38.509 8.343 91.335 H 0.0 **** 0.0
4 H 37.321 7.599 92.433 H 0.0 **** 0.0
5 H 36.768 8.625 91.088 H 0.0 **** 0.0
@<TRIPOS>BOND
1 1 2 1
2 1 3 1
3 1 4 1
4 1 5 1
@<TRIPOS>MOLECULE
CH4
5 4
SMALL
USER_CHARGES


@<TRIPOS>ATOM
1 C 22.005 45.485 69.444 C 0.0 **** 0.0
2 H 22.768 45.833 68.747 H 0.0 **** 0.0
3 H 21.019 45.756 69.068 H 0.0 **** 0.0
4 H 22.164 45.95 70.417 H 0.0 **** 0.0
5 H 22.072 44.402 69.544 H 0.0 **** 0.0
@<TRIPOS>BOND
1 1 2 1
2 1 3 1
3 1 4 1
4 1 5 1
@<TRIPOS>MOLECULE
CH4
5 4
SMALL
USER_CHARGES


@<TRIPOS>ATOM
1 C 39.265 50.975 31.089 C 0.0 **** 0.0
2 H 38.69 51.104 32.006 H 0.0 **** 0.0
3 H 40.166 51.588 31.137 H 0.0 **** 0.0
4 H 38.661 51.283 30.235 H 0.0 **** 0.0
5 H 39.543 49.927 30.979 H 0.0 **** 0.0
@<TRIPOS>BOND
1 1 2 1
2 1 3 1
3 1 4 1
4 1 5 1
@<TRIPOS>MOLECULE
CH4
5 4
SMALL
USER_CHARGES


@<TRIPOS>ATOM
1 C 68.65 15.359 68.398 C 0.0 **** 0.0
2 H 67.606 15.457 68.098 H 0.0 **** 0.0
3 H 68.889 16.125 69.136 H 0.0 **** 0.0
4 H 69.291 15.483 67.525 H 0.0 **** 0.0
5 H 68.812 14.373 68.832 H 0.0 **** 0.0
@<TRIPOS>BOND
1 1 2 1
2 1 3 1
3 1 4 1
4 1 5 1
@<TRIPOS>MOLECULE
CH4
5 4
SMALL
USER_CHARGES


@<TRIPOS>ATOM
1 C 4.925 56.718 19.584 C 0.0 **** 0.0
2 H 3.88 56.82 19.877 H 0.0 **** 0.0
3 H 5.443 56.084 20.303 H 0.0 **** 0.0
4 H 5.394 57.702 19.564 H 0.0 **** 0.0
5 H 4.982 56.268 18.593 H 0.0 **** 0.0
@<TRIPOS>BOND
1 1 2 1
2 1 3 1
3 1 4 1
4 1 5 1
@<TRIPOS>MOLECULE
CH4
5 4
SMALL
USER_CHARGES


@<TRIPOS>ATOM
1 C 33.377 24.554 5.134 C 0.0 **** 0.0
2 H 34.049 24.045 5.825 H 0.0 **** 0.0
3 H 32.348 24.436 5.475 H 0.0 **** 0.0
4 H 33.482 24.121 4.14 H 0.0 **** 0.0
5 H 33.629 25.614 5.098 H 0.0 **** 0.0
@<TRIPOS>BOND
1 1 2 1
2 1 3 1
3 1 4 1
4 1 5 1
@<TRIPOS>MOLECULE
CH4
5 4
SMALL
USER_CHARGES


@<TRIPOS>ATOM
1 C 67.237 67.008 61.315 C 0.0 **** 0.0
2 H 67.656 66.002 61.347 H 0.0 **** 0.0
3 H 66.828 67.262 62.293 H 0.0 **** 0.0
4 H 66.445 67.048 60.568 H 0.0 **** 0.0
5 H 68.02 67.719 61.053 H 0.0 **** 0.0
@<TRIPOS>BOND
1 1 2 1
2 1 3 1
3 1 4 1
4 1 5 1
@<TRIPOS>MOLECULE
CH4
5 4
SMALL
USER_CHARGES


@<TRIPOS>ATOM
1 C 90.696 76.018 10.026 C 0.0 **** 0.0
2 H 90.706 76.203 8.952 H 0.0 **** 0.0
3 H 91.705 75.778 10.362 H 0.0 **** 0.0
4 H 90.031 75.183 10.245 H 0.0 **** 0.0
5 H 90.342 76.91 10.544 H 0.0 **** 0.0
@<TRIPOS>BOND
1 1 2 1
2 1 3 1
3 1 4 1
4 1 5 1
@<TRIPOS>MOLECULE
CH4
5 4
SMALL
USER_CHARGES


@<TRIPOS>ATOM
1 C 81.153 34.138 22.217 C 0.0 **** 0.0
2 H 81.374 34.514 21.219 H 0.0 **** 0.0
3 H 81.483 34.864 22.961 H 0.0 **** 0.0
4 H 81.676 33.194 22.374 H 0.0 **** 0.0
5 H 80.079 33.979 22.316 H 0.0 **** 0.0
@<TRIPOS>BOND
1 1 2 1
2 1 3 1
3 1 4 1
4 1 5 1
@<TRIPOS>MOLECULE
CH4
5 4
SMALL
USER_CHARGES


@<TRIPOS>ATOM
1 C 33.302 27.395 56.853 C 0.0 **** 0.0
2 H 34.126 26.692 56.98 H 0.0 **** 0.0
3 H 32.83 27.23 55.885 H 0.0 **** 0.0
4 H 33.685 28.415 56.903 H 0.0 **** 0.0
5 H 32.57 27.243 57.646 H 0.0 **** 0.0
@<TRIPOS>BOND
1 1 2 1
2 1 3 1
3 1 4 1
4 1 5 1
@<TRIPOS>MOLECULE
CH4
5 4
SMALL
USER_CHARGES


@<TRIPOS>ATOM
1 C 87.991 69.396 95.502 C 0.0 **** 0.0
2 H 88.311 69.455 94.462 H 0.0 **** 0.0
3 H 87.704 70.389 95.85 H 0.0 **** 0.0
4 H 88.811 69.019 96.113 H 0.0 **** 0.0
5 H 87.138 68.722 95.582 H 0.0 **** 0.0
@<TRIPOS>BOND
1 1 2 1
2 1 3 1
3 1 4 1
4 1 5 1
@<TRIPOS>MOLECULE
CH4
5 4
SMALL
USER_CHARGES


@<TRIPOS>ATOM
1 C 10.274 10.128 6.448 C 0.0 **** 0.0
2 H 9.965 10.542 7.408 H 0.0 **** 0.0
3 H 9.553 10.413 5.681 H 0.0 **** 0.0
4 H 10.32 9.041 6.519 H 0.0 **** 0.0
5 H 11.257 10.517 6.185 H 0.0 **** 0.0
@<TRIPOS>BOND
1 1 2 1
2 1 3 1
3 1 4 1
4 1 5 1
@<TRIPOS>MOLECULE
CH4
5 4
SMALL
USER_CHARGES


@<TRIPOS>ATOM
1 C 74.625 8.543 72.491 C 0.0 **** 0.0
2 H 73.939 8.144 71.744 H 0.0 **** 0.0
3 H 75.622 8.134 72.325 H 0.0 **** 0.0
4 H 74.279 8.265 73.487 H 0.0 **** 0.0
5 H 74.659 9.63 72.409 H 0.0 **** 0.0
@<TRIPOS>BOND
1 1 2 1
2 1 3 1
3 1 4 1
4 1 5 1
@<TRIPOS>MOLECULE
CH4
5 4
SMALL
USER_CHARGES


@<TRIPOS>ATOM
1 C 6.553 44.736 44.564 C 0.0 **** 0.0
2 H 5.943 45.365 45.212 H 0.0 **** 0.0
3 H 6.285 43.69 44.715 H 0.0 **** 0.0
4 H 7.606 44.879 44.805 H 0.0 **** 0.0
5 H 6.378 45.01 43.524 H 0.0 **** 0.0
@<TRIPOS>BOND
1 1 2 1
2 1 3 1
3 1 4 1
4 1 5 1
@<TRIPOS>MOLECULE
CH4
5 4
SMALL
USER_CHARGES


@<TRIPOS>ATOM
1 C 22.496 93.092 31.78 C 0.0 **** 0.0
2 H 23.418 93.412 32.266 H 0.0 **** 0.0
3 H 22.677 92.166 31.233 H 0.0 **** 0.0
4 H 22.163 93.865 31.087 H 0.0 **** 0.0
5 H 21.727 92.924 32.534 H 0.0 **** 0.0
@<TRIPOS>BOND
1 1 2 1
2 1 3 1
3 1 4 1
4 1 5 1
@<TRIPOS>MOLECULE
CH4
5 4
SMALL
USER_CHARGES


@<TRIPOS>ATOM
1 C 13.096 30.361 18.013 C 0.0 **** 0.0
2 H 13.654 30.286 17.08 H 0.0 **** 0.0
3 H 13.209 31.365 18.423 H 0.0 **** 0.0
4 H 13.481 29.631 18.726 H 0.0 **** 0.0
5 H 12.041 30.162 17.823 H 0.0 **** 0.0
@<TRIPOS>BOND
1 1 2 1
2 1 3 1
3 1 4 1
4 1 5 1
@<TRIPOS>MOLECULE
CH4
5 4
SMALL
USER_CHARGES


@<TRIPOS>ATOM
1 C 58.658 71.693 28.417 C 0.0 **** 0.0
2 H 59.06 70.682 28.496 H 0.0 **** 0.0
3 H 58.22 71.833 27.429 H 0.0 **** 0.0
4 H 59.46 72.415 28.566 H 0.0 **** 0.0
5 H 57.892 71.838 29.178 H 0.0 **** 0.0
@<TRIPOS>BOND
1 1 2 1
2 1 3 1
3 1 4 1
4 1 5 1
@<TRIPOS>MOLECULE
CH4
5 4
SMALL
USER_CHARGES


@<TRIPOS>ATOM
1 C 60.03 46.807 60.719 C 0.0 **** 0.0
2 H 60.855 46.709 61.425 H 0.0 **** 0.0
3 H 59.474 45.87 60.678 H 0.0 **** 0.0
4 H 60.425 47.039 59.73 H 0.0 **** 0.0
5 H 59.368 47.609 61.044 H 0.0 **** 0.0
@<TRIPOS>BOND
1 1 2 1
2 1 3 1
3 1 4 1
4 1 5 1
@<TRIPOS>MOLECULE
CH4
5 4
SMALL
USER_CHARGES


@<TRIPOS>ATOM
1 C 37.046 39.357 49.578 C 0.0 **** 0.0
2 H 37.038 39.313 50.668 H 0.0 **** 0.0
3 H 37.418 40.33 49.257 H 0.0 **** 0.0
4 H 36.034 39.211 49.201 H 0.0 **** 0.0
5 H 37.696 38.573 49.189 H 0.0 **** 0.0
@<TRIPOS>BOND
1 1 2 1
2 1 3 1
3 1 4 1
4 1 5 1
@<TRIPOS>MOLECULE
CH4
5 4
SMALL
USER_CHARGES


@<TRIPOS>ATOM
1 C 57.16 57.699 94.83 C 0.0 **** 0.0
2 H 57.929 58.174 95.44 H 0.0 **** 0.0
3 H 56.578 58.466 94.319 H 0.0 **** 0.0
4 H 56.503 57.109 95.469 H 0.0 **** 0.0
5 H 57.632 57.049 94.094 H 0.0 **** 0.0
@<TRIPOS>BOND
1 1 2 1
2 1 3 1
3 1 4 1
4 1 5 1
@<TRIPOS>MOLECULE
CH4
5 4
SMALL
USER_CHARGES


@<TRIPOS>ATOM
1 C 79.898 29.794 24.776 C 0.0 **** 0.0
2 H 79.001 29.34 24.356 H 0.0 **** 0.0
3 H 80.577 30.071 23.97 H 0.0 **** 0.0
4 H 80.391 29.08 25.437 H 0.0 **** 0.0
5 H 79.624 30.684 25.343 H 0.0 **** 0.0
@<TRIPOS>BOND
1 1 2 1
2 1 3 1
3 1 4 1
4 1 5 1
@<TRIPOS>MOLECULE
CH4
5 4
SMALL
USER_CHARGES


@<TRIPOS>ATOM
1 C 77.238 55.214 78.746 C 0.0 **** 0.0
2 H 77.064 54.653 79.664 H 0.0 **** 0.0
3 H 76.656 54.775 77.935 H 0.0 **** 0.0
4 H 78.298 55.178 78.494 H 0.0 **** 0.0
5 H 76.934 56.251 78.892 H 0.0 **** 0.0
@<TRIPOS>BOND
1 1 2 1
2 1 3 1
3 1 4 1
4 1 5 1
@<TRIPOS>MOLECULE
CH4
5 4
SMALL
USER_CHARGES


@<TRIPOS>ATOM
1 C 67.546 22.278 90.802 C 0.0 **** 0.0
2 H 66.921 22.904 90.166 H 0.0 **** 0.0
3 H 67.166 21.257 90.792 H 0.0 **** 0.0
4 H 67.528 22.663 91.821 H 0.0 **** 0.0
5 H 68.57 22.289 90.428 H 0.0 **** 0.0
@<TRIPOS>BOND
1 1 2 1
2 1 3 1
3 1 4 1
4 1 5 1
@<TRIPOS>MOLECULE
CH4
5 4
SMALL
USER_CHARGES


@<TRIPOS>ATOM
1 C 5.154 92.8 28.368 C 0.0 **** 0.0
2 H 5.31 93.194 27.364 H 0.0 **** 0.0
3 H 5.301 93.597 29.098 H 0.0 **** 0.0
4 H 5.867 91.997 28.558 H 0.0 **** 0.0
5 H 4.139 92.413 28.453 H 0.0 **** 0.0
@<TRIPOS>BOND
1 1 2 1
2 1 3 1
3 1 4 1
4 1 5 1
@<TRIPOS>MOLECULE
CH4
5 4
SMALL
USER_CHARGES


@<TRIPOS>ATOM
1 C 52.291 33.284 80.028 C 0.0 **** 0.0
2 H 51.594 32.89 79.288 H 0.0 **** 0.0
3 H 51.935 33.041 81.029 H 0.0 **** 0.0
4 H 52.361 34.367 79.919 H 0.0 **** 0.0
5 H 53.274 32.84 79.873 H 0.0 **** 0.0
@<TRIPOS>BOND
1 1 2 1
2 1 3 1
3 1 4 1
4 1 5 1
@<TRIPOS>MOLECULE
CH4
5 4
SMALL
USER_CHARGES


@<TRIPOS>ATOM
1 C 73.628 66.572 60.587 C 0.0 **** 0.0
2 H 73.325 67.613 60.477 H 0.0 **** 0.0
3 H 72.811 65.921 60.275 H 0.0 **** 0.0
4 H 73.873 66.373 61.631 H 0.0 **** 0.0
5 H 74.503 66.38 59.966 H 0.0 **** 0.0
@<TRIPOS>BOND
1 1 2 1
2 1 3 1
3 1 4 1
4 1 5 1
@<TRIPOS>MOLECULE
CH4
5 4
SMALL
USER_CHARGES


@<TRIPOS>ATOM
1 C 56.26 35.096 52.075 C 0.0 **** 0.0
2 H 57.137 34.948 51.446 H 0.0 **** 0.0
3 H 56.072 34.192 52.656 H 0.0 **** 0.0
4 H 55.394 35.312 51.448 H 0.0 **** 0.0
5 H 56.436 35.933 52.752 H 0.0 **** 0.0
@<TRIPOS>BOND
1 1 2 1
2 1 3 1
3 1 4 1
4 1 5 1
@<TRIPOS>MOLECULE
CH4
5 4
SMALL
USER_CHARGES


@<TRIPOS>ATOM
1 C 71.363 22.125 39.04 C 0.0 **** 0.0
2 H 70.801 22.272 38.118 H 0.0 **** 0.0
3 H 71.174 21.122 39.425 H 0.0 **** 0.0
4 H 71.05 22.863 39.778 H 0.0 **** 0.0
5 H 72.428 22.241 38.838 H 0.0 **** 0.0
@<TRIPOS>BOND
1 1 2 1
2 1 3 1
3 1 4 1
4 1 5 1
@<TRIPOS>MOLECULE
CH4
5 4
SMALL
USER_CHARGES


@<TRIPOS>ATOM
1 C 73.136 45.398 28.177 C 0.0 **** 0.0
2 H 72.795 46.165 27.482 H 0.0 **** 0.0
3 H 72.958 44.412 27.746 H 0.0 **** 0.0
4 H 72.59 45.489 29.116 H 0.0 **** 0.0
5 H 74.203 45.525 28.364 H 0.0 **** 0.0
@<TRIPOS>BOND
1 1 2 1
2 1 3 1
3 1 4 1
4 1 5 1
@<TRIPOS>MOLECULE
CH4
5 4
SMALL
USER_CHARGES


@<TRIPOS>ATOM
1 C 26.888 2.782 65.256 C 0.0 **** 0.0
2 H 26.376 3.73 65.423 H 0.0 **** 0.0
3 H 27.917 2.859 65.608 H 0.0 **** 0.0
4 H 26.885 2.551 64.191 H 0.0 **** 0.0
5 H 26.375 1.991 65.802 H 0.0 **** 0.0
@<TRIPOS>BOND
1 1 2 1
2 1 3 1
3 1 4 1
4 1 5 1
@<TRIPOS>MOLECULE
CH4
5 4
SMALL
USER_CHARGES


@<TRIPOS>ATOM
1 C 66.994 41.197 63.315 C 0.0 **** 0.0
2 H 66.683 40.764 64.266 H 0.0 **** 0.0
3 H 66.213 41.863 62.947 H 0.0 **** 0.0
4 H 67.164 40.4 62.591 H 0.0 **** 0.0
5 H 67.916 41.761 63.458 H 0.0 **** 0.0
@<TRIPOS>BOND
1 1 2 1
2 1 3 1
3 1 4 1
4 1 5 1
@<TRIPOS>MOLECULE
CH4
5 4
SMALL
USER_CHARGES


@<TRIPOS>ATOM
1 C 49.293 28.136 46.269 C 0.0 **** 0.0
2 H 48.395 27.829 45.733 H 0.0 **** 0.0
3 H 49.294 29.22 46.385 H 0.0 **** 0.0
4 H 50.174 27.83 45.705 H 0.0 **** 0.0
5 H 49.309 27.665 47.252 H 0.0 **** 0.0
@<TRIPOS>BOND
1 1 2 1
2 1 3 1
3 1 4 1
4 1 5 1
@<TRIPOS>MOLECULE
CH4
5 4
SMALL
USER_CHARGES


@<TRIPOS>ATOM
1 C 14.757 42.313 78.01 C 0.0 **** 0.0
2 H 15.754 41.95 77.758 H 0.0 **** 0.0
3 H 14.069 41.469 78.074 H 0.0 **** 0.0
4 H 14.415 43.002 77.237 H 0.0 **** 0.0
5 H 14.79 42.829 78.969 H 0.0 **** 0.0
@<TRIPOS>BOND
1 1 5 1
2 1 2 1
3 1 3 1
4 1 4 1
@<TRIPOS>MOLECULE
CH4
5 4
SMALL
USER_CHARGES


@<TRIPOS>ATOM
1 C 77.586 59.834 86.486 C 0.0 **** 0.0
2 H 78.544 59.85 87.007 H 0.0 **** 0.0
3 H 76.884 60.493 86.996 H 0.0 **** 0.0
4 H 77.193 58.817 86.481 H 0.0 **** 0.0
5 H 77.725 60.174 85.46 H 0.0 **** 0.0
@<TRIPOS>BOND
1 1 2 1
2 1 3 1
3 1 4 1
4 1 5 1
@<TRIPOS>MOLECULE
CH4
5 4
SMALL
USER_CHARGES


@<TRIPOS>ATOM
1 C 10.907 85.276 5.546 C 0.0 **** 0.0
2 H 10.003 85.243 6.155 H 0.0 **** 0.0
3 H 11.719 85.715 6.125 H 0.0 **** 0.0
4 H 10.724 85.88 4.658 H 0.0 **** 0.0
5 H 11.179 84.264 5.247 H 0.0 **** 0.0
@<TRIPOS>BOND
1 1 2 1
2 1 3 1
3 1 4 1
4 1 5 1
@<TRIPOS>MOLECULE
CH4
5 4
SMALL
USER_CHARGES


@<TRIPOS>ATOM
1 C 11.088 7.206 45.642 C 0.0 **** 0.0
2 H 11.297 6.865 44.628 H 0.0 **** 0.0
3 H 11.457 8.224 45.766 H 0.0 **** 0.0
4 H 11.585 6.549 46.356 H 0.0 **** 0.0
5 H 10.012 7.186 45.817 H 0.0 **** 0.0
@<TRIPOS>BOND
1 1 2 1
2 1 3 1
3 1 4 1
4 1 5 1
@<TRIPOS>MOLECULE
CH4
5 4
SMALL
USER_CHARGES


@<TRIPOS>ATOM
1 C 41.359 74.331 82.715 C 0.0 **** 0.0
2 H 41.289 74.461 83.795 H 0.0 **** 0.0
3 H 42.376 74.551 82.388 H 0.0 **** 0.0
4 H 40.664 75.011 82.222 H 0.0 **** 0.0
5 H 41.108 73.303 82.456 H 0.0 **** 0.0
@<TRIPOS>BOND
1 1 2 1
2 1 3 1
3 1 4 1
4 1 5 1
@<TRIPOS>MOLECULE
CH4
5 4
SMALL
USER_CHARGES


@<TRIPOS>ATOM
1 C 66.218 13.921 63.677 C 0.0 **** 0.0
2 H 66.666 14.902 63.84 H 0.0 **** 0.0
3 H 66.095 13.753 62.607 H 0.0 **** 0.0
4 H 65.245 13.881 64.166 H 0.0 **** 0.0
5 H 66.867 13.152 64.094 H 0.0 **** 0.0
@<TRIPOS>BOND
1 1 2 1
2 1 3 1
3 1 4 1
4 1 5 1
@<TRIPOS>MOLECULE
CH4
5 4
SMALL
USER_CHARGES


@<TRIPOS>ATOM
1 C 65.555 1.633 88.687 C 0.0 **** 0.0
2 H 65.555 1.924 89.738 H 0.0 **** 0.0
3 H 66.52 1.193 88.433 H 0.0 **** 0.0
4 H 65.381 2.512 88.067 H 0.0 **** 0.0
5 H 64.765 0.903 88.513 H 0.0 **** 0.0
@<TRIPOS>BOND
1 1 2 1
2 1 3 1
3 1 4 1
4 1 5 1
@<TRIPOS>MOLECULE
CH4
5 4
SMALL
USER_CHARGES


@<TRIPOS>ATOM
1 C 70.24 51.499 53.887 C 0.0 **** 0.0
2 H 70.882 52.233 53.4 H 0.0 **** 0.0
3 H 70.79 50.567 54.02 H 0.0 **** 0.0
4 H 69.361 51.318 53.269 H 0.0 **** 0.0
5 H 69.928 51.879 54.86 H 0.0 **** 0.0
@<TRIPOS>BOND
1 1 2 1
2 1 3 1
3 1 4 1
4 1 5 1
@<TRIPOS>MOLECULE
CH4
5 4
SMALL
USER_CHARGES


@<TRIPOS>ATOM
1 C 72.076 1.433 11.128 C 0.0 **** 0.0
2 H 72.043 1.604 12.204 H 0.0 **** 0.0
3 H 71.596 0.482 10.897 H 0.0 **** 0.0
4 H 73.114 1.407 10.797 H 0.0 **** 0.0
5 H 71.55 2.24 10.616 H 0.0 **** 0.0
@<TRIPOS>BOND
1 1 2 1
2 1 3 1
3 1 4 1
4 1 5 1
@<TRIPOS>MOLECULE
CH4
5 4
SMALL
USER_CHARGES


@<TRIPOS>ATOM
1 C 15.537 4.379 41.051 C 0.0 **** 0.0
2 H 15.34 3.659 41.845 H 0.0 **** 0.0
3 H 15.916 5.304 41.486 H 0.0 **** 0.0
4 H 14.613 4.584 40.51 H 0.0 **** 0.0
5 H 16.278 3.969 40.365 H 0.0 **** 0.0
@<TRIPOS>BOND
1 1 2 1
2 1 3 1
3 1 4 1
4 1 5 1
@<TRIPOS>MOLECULE
CH4
5 4
SMALL
USER_CHARGES


@<TRIPOS>ATOM
1 C 70.23 40.622 80.972 C 0.0 **** 0.0
2 H 69.998 40.134 81.918 H 0.0 **** 0.0
3 H 71.296 40.529 80.767 H 0.0 **** 0.0
4 H 69.961 41.677 81.032 H 0.0 **** 0.0
5 H 69.663 40.148 80.17 H 0.0 **** 0.0
@<TRIPOS>BOND
1 1 2 1
2 1 3 1
3 1 4 1
4 1 5 1
@<TRIPOS>MOLECULE
CH4
5 4
SMALL
USER_CHARGES


@<TRIPOS>ATOM
1 C 34.862 30.993 40.193 C 0.0 **** 0.0
2 H 35.927 31.123 40.386 H 0.0 **** 0.0
3 H 34.592 29.947 40.34 H 0.0 **** 0.0
4 H 34.64 31.286 39.167 H 0.0 **** 0.0
5 H 34.289 31.616 40.881 H 0.0 **** 0.0
@<TRIPOS>BOND
1 1 2 1
2 1 3 1
3 1 4 1
4 1 5 1
@<TRIPOS>MOLECULE
CH4
5 4
SMALL
USER_CHARGES


@<TRIPOS>ATOM
1 C 69.537 67.455 9.659 C 0.0 **** 0.0
2 H 68.811 66.647 9.566 H 0.0 **** 0.0
3 H 70.116 67.531 8.738 H 0.0 **** 0.0
4 H 70.207 67.248 10.493 H 0.0 **** 0.0
5 H 69.014 68.395 9.838 H 0.0 **** 0.0
@<TRIPOS>BOND
1 1 2 1
2 1 3 1
3 1 4 1
4 1 5 1
@<TRIPOS>MOLECULE
CH4
5 4
SMALL
USER_CHARGES


@<TRIPOS>ATOM
1 C 77.952 91.507 49.247 C 0.0 **** 0.0
2 H 78.706 90.725 49.333 H 0.0 **** 0.0
3 H 76.963 91.053 49.183 H 0.0 **** 0.0
4 H 78.14 92.096 48.348 H 0.0 **** 0.0
5 H 78.0 92.155 50.122 H 0.0 **** 0.0
@<TRIPOS>BOND
1 1 2 1
2 1 3 1
3 1 4 1
4 1 5 1
@<TRIPOS>MOLECULE
CH4
5 4
SMALL
USER_CHARGES


@<TRIPOS>ATOM
1 C 82.652 23.491 8.627 C 0.0 **** 0.0
2 H 82.927 23.035 7.676 H 0.0 **** 0.0
3 H 82.168 22.747 9.26 H 0.0 **** 0.0
4 H 81.964 24.318 8.447 H 0.0 **** 0.0
5 H 83.547 23.865 9.123 H 0.0 **** 0.0
@<TRIPOS>BOND
1 1 2 1
2 1 3 1
3 1 4 1
4 1 5 1
@<TRIPOS>MOLECULE
CH4
5 4
SMALL
USER_CHARGES


@<TRIPOS>ATOM
1 C 27.295 67.551 95.961 C 0.0 **** 0.0
2 H 27.501 66.548 96.335 H 0.0 **** 0.0
3 H 26.22 67.675 95.826 H 0.0 **** 0.0
4 H 27.801 67.694 95.006 H 0.0 **** 0.0
5 H 27.659 68.287 96.678 H 0.0 **** 0.0
@<TRIPOS>BOND
1 1 2 1
2 1 3 1
3 1 4 1
4 1 5 1
@<TRIPOS>MOLECULE
CH4
5 4
SMALL
USER_CHARGES


@<TRIPOS>ATOM
1 C 59.877 71.939 68.399 C 0.0 **** 0.0
2 H 59.891 71.961 67.309 H 0.0 **** 0.0
3 H 59.281 71.091 68.736 H 0.0 **** 0.0
4 H 59.44 72.863 68.776 H 0.0 **** 0.0
5 H 60.896 71.839 68.773 H 0.0 **** 0.0
@<TRIPOS>BOND
1 1 2 1
2 1 3 1
3 1 4 1
4 1 5 1
@<TRIPOS>MOLECULE
CH4
5 4
SMALL
USER_CHARGES


@<TRIPOS>ATOM
1 C 31.08 18.079 24.507 C 0.0 **** 0.0
2 H 30.843 18.308 25.546 H 0.0 **** 0.0
3 H 30.967 17.008 24.337 H 0.0 **** 0.0
4 H 32.107 18.375 24.295 H 0.0 **** 0.0
5 H 30.402 18.625 23.851 H 0.0 **** 0.0
@<TRIPOS>BOND
1 1 4 1
2 1 5 1
3 1 2 1
4 1 3 1
@<TRIPOS>MOLECULE
CH4
5 4
SMALL
USER_CHARGES


@<TRIPOS>ATOM
1 C 4.977 14.544 41.324 C 0.0 **** 0.0
2 H 5.018 14.761 42.391 H 0.0 **** 0.0
3 H 3.981 14.186 41.064 H 0.0 **** 0.0
4 H 5.714 13.778 41.08 H 0.0 **** 0.0
5 H 5.196 15.451 40.76 H 0.0 **** 0.0
@<TRIPOS>BOND
1 1 2 1
2 1 3 1
3 1 4 1
4 1 5 1
@<TRIPOS>MOLECULE
CH4
5 4
SMALL
USER_CHARGES


@<TRIPOS>ATOM
1 C 90.784 27.445 82.007 C 0.0 **** 0.0
2 H 90.681 27.627 80.937 H 0.0 **** 0.0
3 H 89.8 27.272 82.442 H 0.0 **** 0.0
4 H 91.244 28.312 82.481 H 0.0 **** 0.0
5 H 91.412 26.568 82.167 H 0.0 **** 0.0
@<TRIPOS>BOND
1 1 2 1
2 1 3 1
3 1 4 1
4 1 5 1
@<TRIPOS>MOLECULE
CH4
5 4
SMALL
USER_CHARGES


@<TRIPOS>ATOM
1 C 87.27 20.148 44.49 C 0.0 **** 0.0
2 H 87.128 20.424 43.445 H 0.0 **** 0.0
3 H 87.075 19.083 44.613 H 0.0 **** 0.0
4 H 86.581 20.718 45.113 H 0.0 **** 0.0
5 H 88.296 20.368 44.786 H 0.0 **** 0.0
@<TRIPOS>BOND
1 1 2 1
2 1 3 1
3 1 4 1
4 1 5 1
@<TRIPOS>MOLECULE
CH4
5 4
SMALL
USER_CHARGES


@<TRIPOS>ATOM
1 C 58.734 14.735 14.7 C 0.0 **** 0.0
2 H 59.104 14.105 13.891 H 0.0 **** 0.0
3 H 58.243 14.114 15.449 H 0.0 **** 0.0
4 H 58.021 15.457 14.301 H 0.0 **** 0.0
5 H 59.569 15.266 15.158 H 0.0 **** 0.0
@<TRIPOS>BOND
1 1 2 1
2 1 3 1
3 1 4 1
4 1 5 1
@<TRIPOS>MOLECULE
CH4
5 4
SMALL
USER_CHARGES


@<TRIPOS>ATOM
1 C 1.391 64.25 58.458 C 0.0 **** 0.0
2 H 2.352 63.739 58.402 H 0.0 **** 0.0
3 H 0.588 63.531 58.298 H 0.0 **** 0.0
4 H 1.346 65.023 57.691 H 0.0 **** 0.0
5 H 1.28 64.707 59.442 H 0.0 **** 0.0
@<TRIPOS>BOND
1 1 2 1
2 1 3 1
3 1 4 1
4 1 5 1
@<TRIPOS>MOLECULE
CH4
5 4
SMALL
USER_CHARGES


@<TRIPOS>ATOM
1 C 41.648 22.917 95.418 C 0.0 **** 0.0
2 H 41.473 23.621 94.605 H 0.0 **** 0.0
3 H 41.939 23.465 96.315 H 0.0 **** 0.0
4 H 42.446 22.229 95.138 H 0.0 **** 0.0
5 H 40.736 22.355 95.616 H 0.0 **** 0.0
@<TRIPOS>BOND
1 1 2 1
2 1 3 1
3 1 4 1
4 1 5 1
@<TRIPOS>MOLECULE
CH4
5 4
SMALL
USER_CHARGES


@<TRIPOS>ATOM
1 C 43.803 28.654 9.213 C 0.0 **** 0.0
2 H 43.124 28.229 9.952 H 0.0 **** 0.0
3 H 44.23 27.852 8.61 H 0.0 **** 0.0
4 H 44.602 29.192 9.722 H 0.0 **** 0.0
5 H 43.254 29.341 8.569 H 0.0 **** 0.0
@<TRIPOS>BOND
1 1 2 1
2 1 3 1
3 1 4 1
4 1 5 1
@<TRIPOS>MOLECULE
CH4
5 4
SMALL
USER_CHARGES


@<TRIPOS>ATOM
1 C 82.516 83.735 59.928 C 0.0 **** 0.0
2 H 83.17 84.39 60.503 H 0.0 **** 0.0
3 H 82.954 82.739 59.874 H 0.0 **** 0.0
4 H 82.397 84.135 58.921 H 0.0 **** 0.0
5 H 81.541 83.679 60.413 H 0.0 **** 0.0
@<TRIPOS>BOND
1 1 2 1
2 1 3 1
3 1 4 1
4 1 5 1
@<TRIPOS>MOLECULE
CH4
5 4
SMALL
USER_CHARGES


@<TRIPOS>ATOM
1 C 22.551 63.391 87.315 C 0.0 **** 0.0
2 H 22.265 62.653 86.566 H 0.0 **** 0.0
3 H 23.184 64.149 86.854 H 0.0 **** 0.0
4 H 23.1 62.899 88.119 H 0.0 **** 0.0
5 H 21.656 63.862 87.722 H 0.0 **** 0.0
@<TRIPOS>BOND
1 1 2 1
2 1 3 1
3 1 4 1
4 1 5 1
@<TRIPOS>MOLECULE
CH4
5 4
SMALL
USER_CHARGES


@<TRIPOS>ATOM
1 C 26.459 46.406 15.432 C 0.0 **** 0.0
2 H 26.491 46.524 14.349 H 0.0 **** 0.0
3 H 27.414 46.011 15.782 H 0.0 **** 0.0
4 H 25.66 45.714 15.699 H 0.0 **** 0.0
5 H 26.273 47.373 15.898 H 0.0 **** 0.0
@<TRIPOS>BOND
1 1 2 1
2 1 3 1
3 1 4 1
4 1 5 1
@<TRIPOS>MOLECULE
CH4
5 4
SMALL
USER_CHARGES


@<TRIPOS>ATOM
1 C 36.83 27.861 35.961 C 0.0 **** 0.0
2 H 36.457 27.52 34.995 H 0.0 **** 0.0
3 H 36.029 27.807 36.699 H 0.0 **** 0.0
4 H 37.174 28.892 35.874 H 0.0 **** 0.0
5 H 37.658 27.226 36.276 H 0.0 **** 0.0
@<TRIPOS>BOND
1 1 2 1
2 1 3 1
3 1 4 1
4 1 5 1
@<TRIPOS>MOLECULE
CH4
5 4
SMALL
USER_CHARGES


@<TRIPOS>ATOM
1 C 24.819 24.231 11.464 C 0.0 **** 0.0
2 H 25.556 23.476 11.742 H 0.0 **** 0.0
3 H 23.823 23.886 11.743 H 0.0 **** 0.0
4 H 24.858 24.397 10.388 H 0.0 **** 0.0
5 H 25.041 25.163 11.984 H 0.0 **** 0.0
@<TRIPOS>BOND
1 1 2 1
2 1 3 1
3 1 4 1
4 1 5 1
@<TRIPOS>MOLECULE
CH4
5 4
SMALL
USER_CHARGES


@<TRIPOS>ATOM
1 C 50.854 66.343 9.64 C 0.0 **** 0.0
2 H 50.062 65.595 9.613 H 0.0 **** 0.0
3 H 51.309 66.354 10.631 H 0.0 **** 0.0
4 H 50.433 67.325 9.422 H 0.0 **** 0.0
5 H 51.61 66.099 8.895 H 0.0 **** 0.0
@<TRIPOS>BOND
1 1 2 1
2 1 3 1
3 1 4 1
4 1 5 1
@<TRIPOS>MOLECULE
CH4
5 4
SMALL
USER_CHARGES


@<TRIPOS>ATOM
1 C 5.507 83.994 47.629 C 0.0 **** 0.0
2 H 5.476 82.957 47.965 H 0.0 **** 0.0
3 H 4.689 84.549 48.088 H 0.0 **** 0.0
4 H 5.406 84.027 46.545 H 0.0 **** 0.0
5 H 6.458 84.441 47.92 H 0.0 **** 0.0
@<TRIPOS>BOND
1 1 2 1
2 1 3 1
3 1 4 1
4 1 5 1
@<TRIPOS>MOLECULE
CH4
5 4
SMALL
USER_CHARGES


@<TRIPOS>ATOM
1 C 65.32 28.184 38.19 C 0.0 **** 0.0
2 H 65.345 28.813 37.3 H 0.0 **** 0.0
3 H 65.474 28.801 39.075 H 0.0 **** 0.0
4 H 66.109 27.435 38.126 H 0.0 **** 0.0
5 H 64.352 27.688 38.256 H 0.0 **** 0.0
@<TRIPOS>BOND
1 1 2 1
2 1 3 1
3 1 4 1
4 1 5 1
@<TRIPOS>MOLECULE
CH4
5 4
SMALL
USER_CHARGES


@<TRIPOS>ATOM
1 C 12.984 38.878 50.502 C 0.0 **** 0.0
2 H 13.533 38.718 49.574 H 0.0 **** 0.0
3 H 13.689 39.036 51.318 H 0.0 **** 0.0
4 H 12.37 38.003 50.716 H 0.0 **** 0.0
5 H 12.344 39.755 50.399 H 0.0 **** 0.0
@<TRIPOS>BOND
1 1 2 1
2 1 3 1
3 1 4 1
4 1 5 1
@<TRIPOS>MOLECULE
CH4
5 4
SMALL
USER_CHARGES


@<TRIPOS>ATOM
1 C 80.228 97.671 39.91 C 0.0 **** 0.0
2 H 80.341 97.687 40.994 H 0.0 **** 0.0
3 H 79.168 97.686 39.655 H 0.0 **** 0.0
4 H 80.685 96.766 39.51 H 0.0 **** 0.0
5 H 80.718 98.545 39.481 H 0.0 **** 0.0
@<TRIPOS>BOND
1 1 3 1
2 1 4 1
3 1 5 1
4 1 2 1
@<TRIPOS>MOLECULE
CH4
5 4
SMALL
USER_CHARGES


@<TRIPOS>ATOM
1 C 29.7 26.015 59.586 C 0.0 **** 0.0
2 H 28.979 25.873 58.781 H 0.0 **** 0.0
3 H 29.252 26.625 60.37 H 0.0 **** 0.0
4 H 30.585 26.517 59.195 H 0.0 **** 0.0
5 H 29.983 25.045 59.995 H 0.0 **** 0.0
@<TRIPOS>BOND
1 1 2 1
2 1 3 1
3 1 4 1
4 1 5 1
@<TRIPOS>MOLECULE
CH4
5 4
SMALL
USER_CHARGES


@<TRIPOS>ATOM
1 C 70.16 9.255 46.167 C 0.0 **** 0.0
2 H 69.881 8.443 46.839 H 0.0 **** 0.0
3 H 71.184 9.565 46.378 H 0.0 **** 0.0
4 H 69.486 10.098 46.316 H 0.0 **** 0.0
5 H 70.09 8.911 45.135 H 0.0 **** 0.0
@<TRIPOS>BOND
1 1 2 1
2 1 3 1
3 1 4 1
4 1 5 1
@<TRIPOS>MOLECULE
CH4
5 4
SMALL
USER_CHARGES


@<TRIPOS>ATOM
1 C 33.388 43.044 73.151 C 0.0 **** 0.0
2 H 34.023 43.27 72.295 H 0.0 **** 0.0
3 H 33.737 42.129 73.631 H 0.0 **** 0.0
4 H 32.36 42.908 72.815 H 0.0 **** 0.0
5 H 33.432 43.867 73.863 H 0.0 **** 0.0
@<TRIPOS>BOND
1 1 2 1
2 1 3 1
3 1 4 1
4 1 5 1
@<TRIPOS>MOLECULE
CH4
5 4
SMALL
USER_CHARGES


@<TRIPOS>ATOM
1 C 59.214 12.067 82.524 C 0.0 **** 0.0
2 H 59.288 11.767 83.569 H 0.0 **** 0.0
3 H 59.867 12.922 82.344 H 0.0 **** 0.0
4 H 58.184 12.342 82.296 H 0.0 **** 0.0
5 H 59.518 11.237 81.886 H 0.0 **** 0.0
@<TRIPOS>BOND
1 1 2 1
2 1 3 1
3 1 4 1
4 1 5 1
@<TRIPOS>MOLECULE
CH4
5 4
SMALL
USER_CHARGES


@<TRIPOS>ATOM
1 C 2.826 79.074 54.712 C 0.0 **** 0.0
2 H 2.201 78.296 54.274 H 0.0 **** 0.0
3 H 3.875 78.846 54.524 H 0.0 **** 0.0
4 H 2.65 79.117 55.787 H 0.0 **** 0.0
5 H 2.576 80.035 54.264 H 0.0 **** 0.0
@<TRIPOS>BOND
1 1 2 1
2 1 3 1
3 1 4 1
4 1 5 1
@<TRIPOS>MOLECULE
CH4
5 4
SMALL
USER_CHARGES


@<TRIPOS>ATOM
1 C 57.589 81.608 73.998 C 0.0 **** 0.0
2 H 57.045 82.525 73.776 H 0.0 **** 0.0
3 H 58.253 81.369 73.167 H 0.0 **** 0.0
4 H 56.881 80.792 74.144 H 0.0 **** 0.0
5 H 58.177 81.745 74.906 H 0.0 **** 0.0
@<TRIPOS>BOND
1 1 2 1
2 1 3 1
3 1 4 1
4 1 5 1
@<TRIPOS>MOLECULE
CH4
5 4
SMALL
USER_CHARGES


@<TRIPOS>ATOM
1 C 90.806 29.116 94.725 C 0.0 **** 0.0
2 H 90.193 29.336 95.599 H 0.0 **** 0.0
3 H 90.432 29.678 93.869 H 0.0 **** 0.0
4 H 90.758 28.049 94.508 H 0.0 **** 0.0
5 H 91.839 29.4 94.924 H 0.0 **** 0.0
@<TRIPOS>BOND
1 1 2 1
2 1 3 1
3 1 4 1
4 1 5 1
@<TRIPOS>MOLECULE
CH4
5 4
SMALL
USER_CHARGES


@<TRIPOS>ATOM
1 C 51.169 80.045 15.078 C 0.0 **** 0.0
2 H 51.66 80.667 15.827 H 0.0 **** 0.0
3 H 50.25 79.632 15.495 H 0.0 **** 0.0
4 H 51.835 79.231 14.789 H 0.0 **** 0.0
5 H 50.933 80.649 14.202 H 0.0 **** 0.0
@<TRIPOS>BOND
1 1 2 1
2 1 3 1
3 1 4 1
4 1 5 1
@<TRIPOS>MOLECULE
CH4
5 4
SMALL
USER_CHARGES


@<TRIPOS>ATOM
1 C 3.32 54.318 45.471 C 0.0 **** 0.0
2 H 2.378 54.794 45.2 H 0.0 **** 0.0
3 H 3.592 53.59 44.707 H 0.0 **** 0.0
4 H 3.207 53.812 46.431 H 0.0 **** 0.0
5 H 4.1 55.074 45.549 H 0.0 **** 0.0
@<TRIPOS>BOND
1 1 2 1
2 1 3 1
3 1 4 1
4 1 5 1
@<TRIPOS>MOLECULE
CH4
5 4
SMALL
USER_CHARGES


@<TRIPOS>ATOM
1 C 88.352 9.648 12.673 C 0.0 **** 0.0
2 H 87.544 10.336 12.423 H 0.0 **** 0.0
3 H 87.965 8.629 12.7 H 0.0 **** 0.0
4 H 88.762 9.908 13.649 H 0.0 **** 0.0
5 H 89.136 9.72 11.919 H 0.0 **** 0.0
@<TRIPOS>BOND
1 1 2 1
2 1 3 1
3 1 4 1
4 1 5 1
@<TRIPOS>MOLECULE
CH4
5 4
SMALL
USER_CHARGES


@<TRIPOS>ATOM
1 C 10.902 16.132 87.824 C 0.0 **** 0.0
2 H 10.475 16.682 88.663 H 0.0 **** 0.0
3 H 10.103 15.821 87.15 H 0.0 **** 0.0
4 H 11.427 15.252 88.196 H 0.0 **** 0.0
5 H 11.601 16.773 87.287 H 0.0 **** 0.0
@<TRIPOS>BOND
1 1 2 1
2 1 3 1
3 1 4 1
4 1 5 1
@<TRIPOS>MOLECULE
CH4
5 4
SMALL
USER_CHARGES


@<TRIPOS>ATOM
1 C 13.389 75.299 71.031 C 0.0 **** 0.0
2 H 12.47 75.831 70.782 H 0.0 **** 0.0
3 H 13.151 74.433 71.65 H 0.0 **** 0.0
4 H 14.057 75.964 71.578 H 0.0 **** 0.0
5 H 13.876 74.967 70.115 H 0.0 **** 0.0
@<TRIPOS>BOND
1 1 2 1
2 1 3 1
3 1 4 1
4 1 5 1
@<TRIPOS>MOLECULE
CH4
5 4
SMALL
USER_CHARGES


@<TRIPOS>ATOM
1 C 18.687 36.039 32.898 C 0.0 **** 0.0
2 H 18.705 35.011 32.535 H 0.0 **** 0.0
3 H 19.494 36.603 32.431 H 0.0 **** 0.0
4 H 18.819 36.044 33.98 H 0.0 **** 0.0
5 H 17.73 36.496 32.647 H 0.0 **** 0.0
@<TRIPOS>BOND
1 1 2 1
2 1 3 1
3 1 4 1
4 1 5 1
@<TRIPOS>MOLECULE
CH4
5 4
SMALL
USER_CHARGES


@<TRIPOS>ATOM
1 C 34.012 51.604 1.164 C 0.0 **** 0.0
2 H 34.003 51.593 2.254 H 0.0 **** 0.0
3 H 34.409 52.558 0.814 H 0.0 **** 0.0
4 H 32.996 51.474 0.791 H 0.0 **** 0.0
5 H 34.641 50.793 0.797 H 0.0 **** 0.0
@<TRIPOS>BOND
1 1 2 1
2 1 3 1
3 1 4 1
4 1 5 1
@<TRIPOS>MOLECULE
CH4
5 4
SMALL
USER_CHARGES


@<TRIPOS>ATOM
1 C 37.322 47.614 58.839 C 0.0 **** 0.0
2 H 36.348 47.134 58.738 H 0.0 **** 0.0
3 H 38.098 46.941 58.473 H 0.0 **** 0.0
4 H 37.506 47.845 59.888 H 0.0 **** 0.0
5 H 37.335 48.535 58.256 H 0.0 **** 0.0
@<TRIPOS>BOND
1 1 2 1
2 1 3 1
3 1 4 1
4 1 5 1
@<TRIPOS>MOLECULE
CH4
5 4
SMALL
USER_CHARGES


@<TRIPOS>ATOM
1 C 46.039 41.627 42.525 C 0.0 **** 0.0
2 H 47.05 41.312 42.265 H 0.0 **** 0.0
3 H 45.671 41.019 43.352 H 0.0 **** 0.0
4 H 45.386 41.501 41.662 H 0.0 **** 0.0
5 H 46.051 42.676 42.822 H 0.0 **** 0.0
@<TRIPOS>BOND
1 1 2 1
2 1 3 1
3 1 4 1
4 1 5 1
@<TRIPOS>MOLECULE
CH4
5 4
SMALL
USER_CHARGES


@<TRIPOS>ATOM
1 C 5.743 42.009 92.977 C 0.0 **** 0.0
2 H 5.589 41.048 92.486 H 0.0 **** 0.0
3 H 6.214 42.702 92.28 H 0.0 **** 0.0
4 H 6.386 41.874 93.846 H 0.0 **** 0.0
5 H 4.781 42.411 93.296 H 0.0 **** 0.0
@<TRIPOS>BOND
1 1 2 1
2 1 3 1
3 1 4 1
4 1 5 1
@<TRIPOS>MOLECULE
CH4
5 4
SMALL
USER_CHARGES


@<TRIPOS>ATOM
1 C 47.936 62.985 58.739 C 0.0 **** 0.0
2 H 48.584 62.254 59.221 H 0.0 **** 0.0
3 H 48.428 63.959 58.734 H 0.0 **** 0.0
4 H 46.996 63.055 59.286 H 0.0 **** 0.0
5 H 47.737 62.673 57.713 H 0.0 **** 0.0
@<TRIPOS>BOND
1 1 2 1
2 1 3 1
3 1 4 1
4 1 5 1
@<TRIPOS>MOLECULE
CH4
5 4
SMALL
USER_CHARGES


@<TRIPOS>ATOM
1 C 33.199 37.297 89.704 C 0.0 **** 0.0
2 H 33.139 37.078 88.638 H 0.0 **** 0.0
3 H 32.237 37.091 90.172 H 0.0 **** 0.0
4 H 33.455 38.347 89.845 H 0.0 **** 0.0
5 H 33.967 36.671 90.16 H 0.0 **** 0.0
@<TRIPOS>BOND
1 1 2 1
2 1 3 1
3 1 4 1
4 1 5 1
@<TRIPOS>MOLECULE
CH4
5 4
SMALL
USER_CHARGES


@<TRIPOS>ATOM
1 C 17.453 6.559 80.902 C 0.0 **** 0.0
2 H 16.709 7.127 81.462 H 0.0 **** 0.0
3 H 17.816 7.16 80.068 H 0.0 **** 0.0
4 H 17.0 5.644 80.522 H 0.0 **** 0.0
5 H 18.286 6.307 81.559 H 0.0 **** 0.0
@<TRIPOS>BOND
1 1 2 1
2 1 3 1
3 1 4 1
4 1 5 1
@<TRIPOS>MOLECULE
CH4
5 4
SMALL
USER_CHARGES


@<TRIPOS>ATOM
1 C 81.049 9.287 90.429 C 0.0 **** 0.0
2 H 80.379 8.585 90.926 H 0.0 **** 0.0
3 H 81.881 9.525 91.092 H 0.0 **** 0.0
4 H 80.504 10.199 90.187 H 0.0 **** 0.0
5 H 81.43 8.837 89.512 H 0.0 **** 0.0
@<TRIPOS>BOND
1 1 2 1
2 1 5 1
3 1 3 1
4 1 4 1
@<TRIPOS>MOLECULE
CH4
5 4
SMALL
USER_CHARGES


@<TRIPOS>ATOM
1 C 6.904 22.749 64.929 C 0.0 **** 0.0
2 H 7.833 23.18 64.555 H 0.0 **** 0.0
3 H 6.077 23.425 64.71 H 0.0 **** 0.0
4 H 6.979 22.602 66.006 H 0.0 **** 0.0
5 H 6.728 21.789 64.443 H 0.0 **** 0.0
@<TRIPOS>BOND
1 1 2 1
2 1 3 1
3 1 4 1
4 1 5 1
@<TRIPOS>MOLECULE
CH4
5 4
SMALL
USER_CHARGES


@<TRIPOS>ATOM
1 C 68.761 46.898 39.363 C 0.0 **** 0.0
2 H 68.204 46.787 40.294 H 0.0 **** 0.0
3 H 68.694 45.975 38.788 H 0.0 **** 0.0
4 H 69.806 47.112 39.589 H 0.0 **** 0.0
5 H 68.339 47.719 38.784 H 0.0 **** 0.0
@<TRIPOS>BOND
1 1 2 1
2 1 3 1
3 1 4 1
4 1 5 1
@<TRIPOS>MOLECULE
CH4
5 4
SMALL
USER_CHARGES


@<TRIPOS>ATOM
1 C 50.316 3.146 35.205 C 0.0 **** 0.0
2 H 50.307 3.885 36.007 H 0.0 **** 0.0
3 H 50.286 3.655 34.242 H 0.0 **** 0.0
4 H 49.446 2.496 35.301 H 0.0 **** 0.0
5 H 51.225 2.548 35.273 H 0.0 **** 0.0
@<TRIPOS>BOND
1 1 2 1
2 1 3 1
3 1 4 1
4 1 5 1
@<TRIPOS>MOLECULE
CH4
5 4
SMALL
USER_CHARGES


@<TRIPOS>ATOM
1 C 75.378 89.773 55.922 C 0.0 **** 0.0
2 H 75.443 89.655 57.003 H 0.0 **** 0.0
3 H 75.992 90.619 55.611 H 0.0 **** 0.0
4 H 74.342 89.952 55.637 H 0.0 **** 0.0
5 H 75.737 88.866 55.436 H 0.0 **** 0.0
@<TRIPOS>BOND
1 1 2 1
2 1 3 1
3 1 4 1
4 1 5 1
@<TRIPOS>MOLECULE
CH4
5 4
SMALL
USER_CHARGES


@<TRIPOS>ATOM
1 C 22.373 51.686 93.268 C 0.0 **** 0.0
2 H 21.985 51.914 92.275 H 0.0 **** 0.0
3 H 22.959 52.531 93.631 H 0.0 **** 0.0
4 H 23.006 50.8 93.215 H 0.0 **** 0.0
5 H 21.543 51.499 93.948 H 0.0 **** 0.0
@<TRIPOS>BOND
1 1 2 1
2 1 3 1
3 1 4 1
4 1 5 1
@<TRIPOS>MOLECULE
CH4
5 4
SMALL
USER_CHARGES


@<TRIPOS>ATOM
1 C 74.037 83.861 1.337 C 0.0 **** 0.0
2 H 73.706 84.099 0.326 H 0.0 **** 0.0
3 H 73.879 82.8 1.53 H 0.0 **** 0.0
4 H 73.464 84.45 2.054 H 0.0 **** 0.0
5 H 75.096 84.096 1.437 H 0.0 **** 0.0
@<TRIPOS>BOND
1 1 2 1
2 1 3 1
3 1 4 1
4 1 5 1
@<TRIPOS>MOLECULE
CH4
5 4
SMALL
USER_CHARGES


@<TRIPOS>ATOM
1 C 4.528 55.888 65.156 C 0.0 **** 0.0
2 H 5.086 54.969 64.978 H 0.0 **** 0.0
3 H 4.295 55.971 66.218 H 0.0 **** 0.0
4 H 3.603 55.868 64.581 H 0.0 **** 0.0
5 H 5.13 56.743 64.848 H 0.0 **** 0.0
@<TRIPOS>BOND
1 1 2 1
2 1 3 1
3 1 4 1
4 1 5 1
@<TRIPOS>MOLECULE
CH4
5 4
SMALL
USER_CHARGES


@<TRIPOS>ATOM
1 C 24.018 47.806 3.048 C 0.0 **** 0.0
2 H 24.146 47.608 4.112 H 0.0 **** 0.0
3 H 24.863 47.391 2.498 H 0.0 **** 0.0
4 H 23.969 48.882 2.883 H 0.0 **** 0.0
5 H 23.095 47.342 2.7 H 0.0 **** 0.0
@<TRIPOS>BOND
1 1 2 1
2 1 3 1
3 1 4 1
4 1 5 1
@<TRIPOS>MOLECULE
CH4
5 4
SMALL
USER_CHARGES


@<TRIPOS>ATOM
1 C 87.796 55.217 88.031 C 0.0 **** 0.0
2 H 88.803 55.265 88.446 H 0.0 **** 0.0
3 H 87.584 54.197 87.711 H 0.0 **** 0.0
4 H 87.724 55.889 87.175 H 0.0 **** 0.0
5 H 87.075 55.518 88.791 H 0.0 **** 0.0
@<TRIPOS>BOND
1 1 2 1
2 1 3 1
3 1 4 1
4 1 5 1
@<TRIPOS>MOLECULE
CH4
5 4
SMALL
USER_CHARGES


@<TRIPOS>ATOM
1 C 72.893 3.618 45.577 C 0.0 **** 0.0
2 H 73.745 3.274 44.991 H 0.0 **** 0.0
3 H 73.201 3.768 46.612 H 0.0 **** 0.0
4 H 72.1 2.871 45.538 H 0.0 **** 0.0
5 H 72.527 4.559 45.167 H 0.0 **** 0.0
@<TRIPOS>BOND
1 1 2 1
2 1 3 1
3 1 4 1
4 1 5 1
@<TRIPOS>MOLECULE
CH4
5 4
SMALL
USER_CHARGES


@<TRIPOS>ATOM
1 C 49.252 11.434 86.021 C 0.0 **** 0.0
2 H 48.987 10.829 85.154 H 0.0 **** 0.0
3 H 50.212 11.919 85.845 H 0.0 **** 0.0
4 H 49.322 10.796 86.902 H 0.0 **** 0.0
5 H 48.485 12.192 86.182 H 0.0 **** 0.0
@<TRIPOS>BOND
1 1 2 1
2 1 3 1
3 1 4 1
4 1 5 1
@<TRIPOS>MOLECULE
CH4
5 4
SMALL
USER_CHARGES


@<TRIPOS>ATOM
1 C 15.823 48.405 59.324 C 0.0 **** 0.0
2 H 14.965 49.04 59.545 H 0.0 **** 0.0
3 H 15.644 47.866 58.393 H 0.0 **** 0.0
4 H 15.966 47.692 60.135 H 0.0 **** 0.0
5 H 16.715 49.022 59.221 H 0.0 **** 0.0
@<TRIPOS>BOND
1 1 2 1
2 1 3 1
3 1 4 1
4 1 5 1
@<TRIPOS>MOLECULE
CH4
5 4
SMALL
USER_CHARGES


@<TRIPOS>ATOM
1 C 48.377 65.713 75.356 C 0.0 **** 0.0
2 H 49.275 66.042 74.833 H 0.0 **** 0.0
3 H 48.326 64.624 75.338 H 0.0 **** 0.0
4 H 47.497 66.126 74.862 H 0.0 **** 0.0
5 H 48.41 66.06 76.388 H 0.0 **** 0.0
@<TRIPOS>BOND
1 1 2 1
2 1 3 1
3 1 4 1
4 1 5 1
@<TRIPOS>MOLECULE
CH4
5 4
SMALL
USER_CHARGES


@<TRIPOS>ATOM
1 C 80.4 7.191 57.242 C 0.0 **** 0.0
2 H 79.623 7.365 56.497 H 0.0 **** 0.0
3 H 80.466 8.053 57.906 H 0.0 **** 0.0
4 H 81.356 7.045 56.74 H 0.0 **** 0.0
5 H 80.154 6.303 57.823 H 0.0 **** 0.0
@<TRIPOS>BOND
1 1 2 1
2 1 3 1
3 1 4 1
4 1 5 1
@<TRIPOS>MOLECULE
CH4
5 4
SMALL
USER_CHARGES


@<TRIPOS>ATOM
1 C 57.65 3.153 47.313 C 0.0 **** 0.0
2 H 57.356 2.217 46.838 H 0.0 **** 0.0
3 H 58.152 2.938 48.257 H 0.0 **** 0.0
4 H 56.764 3.759 47.502 H 0.0 **** 0.0
5 H 58.329 3.696 46.656 H 0.0 **** 0.0
@<TRIPOS>BOND
1 1 2 1
2 1 3 1
3 1 4 1
4 1 5 1
@<TRIPOS>MOLECULE
CH4
5 4
SMALL
USER_CHARGES


@<TRIPOS>ATOM
1 C 63.649 28.047 53.902 C 0.0 **** 0.0
2 H 63.717 29.006 53.388 H 0.0 **** 0.0
3 H 64.419 27.376 53.52 H 0.0 **** 0.0
4 H 62.666 27.61 53.727 H 0.0 **** 0.0
5 H 63.795 28.198 54.971 H 0.0 **** 0.0
@<TRIPOS>BOND
1 1 2 1
2 1 3 1
3 1 4 1
4 1 5 1
@<TRIPOS>MOLECULE
CH4
5 4
SMALL
USER_CHARGES


@<TRIPOS>ATOM
1 C 44.328 31.237 34.387 C 0.0 **** 0.0
2 H 44.861 32.18 34.261 H 0.0 **** 0.0
3 H 44.928 30.423 33.98 H 0.0 **** 0.0
4 H 43.375 31.286 33.86 H 0.0 **** 0.0
5 H 44.149 31.061 35.448 H 0.0 **** 0.0
@<TRIPOS>BOND
1 1 2 1
2 1 3 1
3 1 4 1
4 1 5 1
@<TRIPOS>MOLECULE
CH4
5 4
SMALL
USER_CHARGES


@<TRIPOS>ATOM
1 C 25.887 29.45 59.769 C 0.0 **** 0.0
2 H 25.319 30.194 59.212 H 0.0 **** 0.0
3 H 25.453 28.463 59.604 H 0.0 **** 0.0
4 H 25.853 29.688 60.832 H 0.0 **** 0.0
5 H 26.923 29.453 59.429 H 0.0 **** 0.0
@<TRIPOS>BOND
1 1 2 1
2 1 3 1
3 1 4 1
4 1 5 1
@<TRIPOS>MOLECULE
CH4
5 4
SMALL
USER_CHARGES


@<TRIPOS>ATOM
1 C 23.694 94.699 25.049 C 0.0 **** 0.0
2 H 23.74 94.483 23.981 H 0.0 **** 0.0
3 H 24.682 94.998 25.401 H 0.0 **** 0.0
4 H 23.37 93.809 25.586 H 0.0 **** 0.0
5 H 22.986 95.509 25.225 H 0.0 **** 0.0
@<TRIPOS>BOND
1 1 2 1
2 1 3 1
3 1 4 1
4 1 5 1
@<TRIPOS>MOLECULE
CH4
5 4
SMALL
USER_CHARGES


@<TRIPOS>ATOM
1 C 14.788 79.68 3.772 C 0.0 **** 0.0
2 H 15.088 80.38 4.551 H 0.0 **** 0.0
3 H 13.76 79.887 3.473 H 0.0 **** 0.0
4 H 14.858 78.661 4.153 H 0.0 **** 0.0
5 H 15.447 79.792 2.91 H 0.0 **** 0.0
@<TRIPOS>BOND
1 1 2 1
2 1 3 1
3 1 4 1
4 1 5 1
@<TRIPOS>MOLECULE
CH4
5 4
SMALL
USER_CHARGES


@<TRIPOS>ATOM
1 C 17.948 70.132 31.762 C 0.0 **** 0.0
2 H 17.955 70.108 30.673 H 0.0 **** 0.0
3 H 18.763 70.764 32.116 H 0.0 **** 0.0
4 H 18.079 69.121 32.148 H 0.0 **** 0.0
5 H 16.997 70.534 32.111 H 0.0 **** 0.0
@<TRIPOS>BOND
1 1 2 1
2 1 3 1
3 1 4 1
4 1 5 1
@<TRIPOS>MOLECULE
CH4
5 4
SMALL
USER_CHARGES


@<TRIPOS>ATOM
1 C 63.843 3.524 98.04 C 0.0 **** 0.0
2 H 63.18 3.518 97.175 H 0.0 **** 0.0
3 H 64.504 2.658 97.997 H 0.0 **** 0.0
4 H 63.248 3.482 98.953 H 0.0 **** 0.0
5 H 64.438 4.437 98.036 H 0.0 **** 0.0
@<TRIPOS>BOND
1 1 2 1
2 1 3 1
3 1 4 1
4 1 5 1
@<TRIPOS>MOLECULE
CH4
5 4
SMALL
USER_CHARGES


@<TRIPOS>ATOM
1 C 13.778 91.052 9.627 C 0.0 **** 0.0
2 H 13.71 90.84 10.694 H 0.0 **** 0.0
3 H 12.815 90.856 9.156 H 0.0 **** 0.0
4 H 14.54 90.415 9.177 H 0.0 **** 0.0
5 H 14.047 92.099 9.481 H 0.0 **** 0.0
@<TRIPOS>BOND
1 1 2 1
2 1 3 1
3 1 4 1
4 1 5 1
@<TRIPOS>MOLECULE
CH4
5 4
SMALL
USER_CHARGES


@<TRIPOS>ATOM
1 C 35.209 50.426 33.753 C 0.0 **** 0.0
2 H 34.981 49.923 34.693 H 0.0 **** 0.0
3 H 34.281 50.654 33.229 H 0.0 **** 0.0
4 H 35.827 49.775 33.135 H 0.0 **** 0.0
5 H 35.748 51.351 33.958 H 0.0 **** 0.0
@<TRIPOS>BOND
1 1 2 1
2 1 3 1
3 1 4 1
4 1 5 1
@<TRIPOS>MOLECULE
CH4
5 4
SMALL
USER_CHARGES


@<TRIPOS>ATOM
1 C 91.507 51.828 52.925 C 0.0 **** 0.0
2 H 92.514 51.411 52.902 H 0.0 **** 0.0
3 H 90.833 51.177 52.367 H 0.0 **** 0.0
4 H 91.514 52.818 52.471 H 0.0 **** 0.0
5 H 91.168 51.903 53.958 H 0.0 **** 0.0
@<TRIPOS>BOND
1 1 2 1
2 1 3 1
3 1 4 1
4 1 5 1
@<TRIPOS>MOLECULE
CH4
5 4
SMALL
USER_CHARGES


@<TRIPOS>ATOM
1 C 80.731 67.687 98.047 C 0.0 **** 0.0
2 H 81.812 67.574 98.137 H 0.0 **** 0.0
3 H 80.506 68.426 97.278 H 0.0 **** 0.0
4 H 80.32 68.018 99.001 H 0.0 **** 0.0
5 H 80.288 66.73 97.773 H 0.0 **** 0.0
@<TRIPOS>BOND
1 1 2 1
2 1 3 1
3 1 4 1
4 1 5 1
@<TRIPOS>MOLECULE
CH4
5 4
SMALL
USER_CHARGES


@<TRIPOS>ATOM
1 C 67.238 50.365 25.142 C 0.0 **** 0.0
2 H 67.195 50.686 24.101 H 0.0 **** 0.0
3 H 66.351 49.776 25.377 H 0.0 **** 0.0
4 H 67.275 51.241 25.79 H 0.0 **** 0.0
5 H 68.13 49.759 25.298 H 0.0 **** 0.0
@<TRIPOS>BOND
1 1 2 1
2 1 3 1
3 1 4 1
4 1 5 1
@<TRIPOS>MOLECULE
CH4
5 4
SMALL
USER_CHARGES


@<TRIPOS>ATOM
1 C 41.992 24.709 91.402 C 0.0 **** 0.0
2 H 41.31 24.403 90.608 H 0.0 **** 0.0
3 H 42.246 23.846 92.016 H 0.0 **** 0.0
4 H 41.511 25.467 92.02 H 0.0 **** 0.0
5 H 42.9 25.122 90.961 H 0.0 **** 0.0
@<TRIPOS>BOND
1 1 2 1
2 1 3 1
3 1 4 1
4 1 5 1
@<TRIPOS>MOLECULE
CH4
5 4
SMALL
USER_CHARGES


@<TRIPOS>ATOM
1 C 90.169 52.675 64.793 C 0.0 **** 0.0
2 H 90.243 53.744 64.59 H 0.0 **** 0.0
3 H 89.329 52.257 64.239 H 0.0 **** 0.0
4 H 90.015 52.519 65.861 H 0.0 **** 0.0
5 H 91.091 52.182 64.483 H 0.0 **** 0.0
@<TRIPOS>BOND
1 1 2 1
2 1 3 1
3 1 4 1
4 1 5 1
@<TRIPOS>MOLECULE
CH4
5 4
SMALL
USER_CHARGES


@<TRIPOS>ATOM
1 C 1.551 43.263 12.189 C 0.0 **** 0.0
2 H 1.568 42.582 11.338 H 0.0 **** 0.0
3 H 0.642 43.097 12.768 H 0.0 **** 0.0
4 H 1.571 44.292 11.831 H 0.0 **** 0.0
5 H 2.421 43.079 12.818 H 0.0 **** 0.0
@<TRIPOS>BOND
1 1 2 1
2 1 3 1
3 1 4 1
4 1 5 1
@<TRIPOS>MOLECULE
CH4
5 4
SMALL
USER_CHARGES


@<TRIPOS>ATOM
1 C 84.077 14.437 53.278 C 0.0 **** 0.0
2 H 84.73 14.105 52.47 H 0.0 **** 0.0
3 H 84.505 14.138 54.235 H 0.0 **** 0.0
4 H 83.094 13.981 53.16 H 0.0 **** 0.0
5 H 83.982 15.522 53.245 H 0.0 **** 0.0
@<TRIPOS>BOND
1 1 2 1
2 1 3 1
3 1 4 1
4 1 5 1
@<TRIPOS>MOLECULE
CH4
5 4
SMALL
USER_CHARGES


@<TRIPOS>ATOM
1 C 36.309 37.032 9.636 C 0.0 **** 0.0
2 H 35.844 37.964 9.956 H 0.0 **** 0.0
3 H 36.026 36.82 8.605 H 0.0 **** 0.0
4 H 35.973 36.219 10.28 H 0.0 **** 0.0
5 H 37.393 37.124 9.704 H 0.0 **** 0.0
@<TRIPOS>BOND
1 1 2 1
2 1 3 1
3 1 4 1
4 1 5 1
@<TRIPOS>MOLECULE
CH4
5 4
SMALL
USER_CHARGES


@<TRIPOS>ATOM
1 C 20.666 80.828 32.429 C 0.0 **** 0.0
2 H 20.583 80.641 33.499 H 0.0 **** 0.0
3 H 19.684 80.735 31.966 H 0.0 **** 0.0
4 H 21.347 80.102 31.985 H 0.0 **** 0.0
5 H 21.052 81.835 32.265 H 0.0 **** 0.0
@<TRIPOS>BOND
1 1 2 1
2 1 3 1
3 1 4 1
4 1 5 1
@<TRIPOS>MOLECULE
CH4
5 4
SMALL
USER_CHARGES


@<TRIPOS>ATOM
1 C 53.833 22.593 85.433 C 0.0 **** 0.0
2 H 52.973 21.923 85.426 H 0.0 **** 0.0
3 H 53.987 22.995 84.431 H 0.0 **** 0.0
4 H 54.72 22.043 85.745 H 0.0 **** 0.0
5 H 53.649 23.412 86.129 H 0.0 **** 0.0
@<TRIPOS>BOND
1 1 2 1
2 1 3 1
3 1 4 1
4 1 5 1
@<TRIPOS>MOLECULE
CH4
5 4
SMALL
USER_CHARGES


@<TRIPOS>ATOM
1 C 53.757 36.325 66.418 C 0.0 **** 0.0
2 H 54.06 37.289 66.008 H 0.0 **** 0.0
3 H 53.438 35.67 65.607 H 0.0 **** 0.0
4 H 52.931 36.471 67.114 H 0.0 **** 0.0
5 H 54.598 35.873 66.942 H 0.0 **** 0.0
@<TRIPOS>BOND
1 1 2 1
2 1 3 1
3 1 4 1
4 1 5 1
@<TRIPOS>MOLECULE
CH4
5 4
SMALL
USER_CHARGES


@<TRIPOS>ATOM
1 C 38.717 13.832 26.348 C 0.0 **** 0.0
2 H 38.25 14.41 25.55 H 0.0 **** 0.0
3 H 39.2 12.952 25.923 H 0.0 **** 0.0
4 H 37.956 13.52 27.063 H 0.0 **** 0.0
5 H 39.461 14.447 26.854 H 0.0 **** 0.0
@<TRIPOS>BOND
1 1 2 1
2 1 3 1
3 1 4 1
4 1 5 1
@<TRIPOS>MOLECULE
CH4
5 4
SMALL
USER_CHARGES


@<TRIPOS>ATOM
1 C 79.744 14.66 98.036 C 0.0 **** 0.0
2 H 79.553 14.191 99.001 H 0.0 **** 0.0
3 H 79.063 14.248 97.291 H 0.0 **** 0.0
4 H 80.774 14.465 97.736 H 0.0 **** 0.0
5 H 79.586 15.735 98.117 H 0.0 **** 0.0
@<TRIPOS>BOND
1 1 2 1
2 1 3 1
3 1 4 1
4 1 5 1
@<TRIPOS>MOLECULE
CH4
5 4
SMALL
USER_CHARGES


@<TRIPOS>ATOM
1 C 82.26 29.233 93.715 C 0.0 **** 0.0
2 H 82.553 30.111 93.139 H 0.0 **** 0.0
3 H 82.964 28.422 93.523 H 0.0 **** 0.0
4 H 81.258 28.922 93.419 H 0.0 **** 0.0
5 H 82.266 29.476 94.777 H 0.0 **** 0.0
@<TRIPOS>BOND
1 1 2 1
2 1 3 1
3 1 4 1
4 1 5 1
@<TRIPOS>MOLECULE
CH4
5 4
SMALL
USER_CHARGES


@<TRIPOS>ATOM
1 C 27.634 97.782 68.495 C 0.0 **** 0.0
2 H 26.846 97.032 68.564 H 0.0 **** 0.0
3 H 28.184 97.647 67.563 H 0.0 **** 0.0
4 H 28.315 97.671 69.339 H 0.0 **** 0.0
5 H 27.19 98.778 68.515 H 0.0 **** 0.0
@<TRIPOS>BOND
1 1 2 1
2 1 3 1
3 1 4 1
4 1 5 1
@<TRIPOS>MOLECULE
CH4
5 4
SMALL
USER_CHARGES


@<TRIPOS>ATOM
1 C 52.316 75.969 64.883 C 0.0 **** 0.0
2 H 52.199 75.692 63.835 H 0.0 **** 0.0
3 H 53.244 75.547 65.268 H 0.0 **** 0.0
4 H 51.474 75.58 65.456 H 0.0 **** 0.0
5 H 52.346 77.055 64.971 H 0.0 **** 0.0
@<TRIPOS>BOND
1 1 2 1
2 1 3 1
3 1 4 1
4 1 5 1
@<TRIPOS>MOLECULE
CH4
5 4
SMALL
USER_CHARGES


@<TRIPOS>ATOM
1 C 51.811 9.265 57.288 C 0.0 **** 0.0
2 H 51.568 8.551 56.502 H 0.0 **** 0.0
3 H 52.809 9.668 57.117 H 0.0 **** 0.0
4 H 51.782 8.764 58.256 H 0.0 **** 0.0
5 H 51.084 10.077 57.278 H 0.0 **** 0.0
@<TRIPOS>BOND
1 1 2 1
2 1 3 1
3 1 4 1
4 1 5 1
@<TRIPOS>MOLECULE
CH4
5 4
SMALL
USER_CHARGES


@<TRIPOS>ATOM
1 C 78.63 45.102 80.24 C 0.0 **** 0.0
2 H 79.017 44.444 79.463 H 0.0 **** 0.0
3 H 79.459 45.606 80.736 H 0.0 **** 0.0
4 H 78.073 44.514 80.969 H 0.0 **** 0.0
5 H 77.969 45.844 79.791 H 0.0 **** 0.0
@<TRIPOS>BOND
1 1 2 1
2 1 3 1
3 1 4 1
4 1 5 1
@<TRIPOS>MOLECULE
CH4
5 4
SMALL
USER_CHARGES


@<TRIPOS>ATOM
1 C 92.358 40.614 4.852 C 0.0 **** 0.0
2 H 92.923 41.095 5.65 H 0.0 **** 0.0
3 H 92.254 39.551 5.071 H 0.0 **** 0.0
4 H 92.885 40.741 3.906 H 0.0 **** 0.0
5 H 91.37 41.069 4.781 H 0.0 **** 0.0
@<TRIPOS>BOND
1 1 2 1
2 1 3 1
3 1 4 1
4 1 5 1
@<TRIPOS>MOLECULE
CH4
5 4
SMALL
USER_CHARGES


@<TRIPOS>ATOM
1 C 36.996 10.23 52.828 C 0.0 **** 0.0
2 H 37.319 10.339 51.792 H 0.0 **** 0.0
3 H 37.227 11.142 53.378 H 0.0 **** 0.0
4 H 37.517 9.388 53.283 H 0.0 **** 0.0
5 H 35.921 10.051 52.856 H 0.0 **** 0.0
@<TRIPOS>BOND
1 1 2 1
2 1 3 1
3 1 4 1
4 1 5 1
@<TRIPOS>MOLECULE
CH4
5 4
SMALL
USER_CHARGES


@<TRIPOS>ATOM
1 C 3.453 21.086 1.458 C 0.0 **** 0.0
2 H 2.44 21.158 1.854 H 0.0 **** 0.0
3 H 4.154 21.511 2.176 H 0.0 **** 0.0
4 H 3.515 21.635 0.519 H 0.0 **** 0.0
5 H 3.7 20.039 1.284 H 0.0 **** 0.0
@<TRIPOS>BOND
1 1 2 1
2 1 3 1
3 1 4 1
4 1 5 1
@<TRIPOS>MOLECULE
CH4
5 4
SMALL
USER_CHARGES


@<TRIPOS>ATOM
1 C 71.972 78.327 40.57 C 0.0 **** 0.0
2 H 72.427 78.875 41.395 H 0.0 **** 0.0
3 H 70.889 78.444 40.61 H 0.0 **** 0.0
4 H 72.228 77.271 40.651 H 0.0 **** 0.0
5 H 72.346 78.72 39.624 H 0.0 **** 0.0
@<TRIPOS>BOND
1 1 4 1
2 1 5 1
3 1 2 1
4 1 3 1
@<TRIPOS>MOLECULE
CH4
5 4
SMALL
USER_CHARGES


@<TRIPOS>ATOM
1 C 71.874 67.351 14.55 C 0.0 **** 0.0
2 H 71.776 66.298 14.812 H 0.0 **** 0.0
3 H 72.193 67.439 13.511 H 0.0 **** 0.0
4 H 72.615 67.819 15.198 H 0.0 **** 0.0
5 H 70.913 67.849 14.679 H 0.0 **** 0.0
@<TRIPOS>BOND
1 1 2 1
2 1 3 1
3 1 4 1
4 1 5 1
@<TRIPOS>MOLECULE
CH4
5 4
SMALL
USER_CHARGES


@<TRIPOS>ATOM
1 C 72.853 64.463 33.986 C 0.0 **** 0.0
2 H 72.256 64.798 34.834 H 0.0 **** 0.0
3 H 72.224 64.415 33.096 H 0.0 **** 0.0
4 H 73.261 63.474 34.196 H 0.0 **** 0.0
5 H 73.67 65.164 33.817 H 0.0 **** 0.0
@<TRIPOS>BOND
1 1 2 1
2 1 3 1
3 1 4 1
4 1 5 1
@<TRIPOS>MOLECULE
CH4
5 4
SMALL
USER_CHARGES


@<TRIPOS>ATOM
1 C 88.31 79.119 8.272 C 0.0 **** 0.0
2 H 88.313 79.072 9.361 H 0.0 **** 0.0
3 H 89.089 78.465 7.879 H 0.0 **** 0.0
4 H 88.499 80.143 7.952 H 0.0 **** 0.0
5 H 87.339 78.794 7.898 H 0.0 **** 0.0
@<TRIPOS>BOND
1 1 2 1
2 1 3 1
3 1 4 1
4 1 5 1
@<TRIPOS>MOLECULE
CH4
5 4
SMALL
USER_CHARGES


@<TRIPOS>ATOM
1 C 64.082 97.562 59.709 C 0.0 **** 0.0
2 H 64.139 98.224 60.574 H 0.0 **** 0.0
3 H 63.446 98.014 58.948 H 0.0 **** 0.0
4 H 63.662 96.603 60.012 H 0.0 **** 0.0
5 H 65.082 97.409 59.304 H 0.0 **** 0.0
@<TRIPOS>BOND
1 1 2 1
2 1 3 1
3 1 4 1
4 1 5 1
@<TRIPOS>MOLECULE
CH4
5 4
SMALL
USER_CHARGES


@<TRIPOS>ATOM
1 C 53.153 39.393 67.814 C 0.0 **** 0.0
2 H 52.366 39.708 68.498 H 0.0 **** 0.0
3 H 53.872 40.203 67.691 H 0.0 **** 0.0
4 H 52.716 39.145 66.847 H 0.0 **** 0.0
5 H 53.658 38.517 68.22 H 0.0 **** 0.0
@<TRIPOS>BOND
1 1 2 1
2 1 3 1
3 1 4 1
4 1 5 1
@<TRIPOS>MOLECULE
CH4
5 4
SMALL
USER_CHARGES


@<TRIPOS>ATOM
1 C 40.456 52.144 56.162 C 0.0 **** 0.0
2 H 41.32 51.742 56.69 H 0.0 **** 0.0
3 H 39.663 51.396 56.139 H 0.0 **** 0.0
4 H 40.741 52.402 55.142 H 0.0 **** 0.0
5 H 40.099 53.036 56.676 H 0.0 **** 0.0
@<TRIPOS>BOND
1 1 2 1
2 1 3 1
3 1 4 1
4 1 5 1
@<TRIPOS>MOLECULE
CH4
5 4
SMALL
USER_CHARGES


@<TRIPOS>ATOM
1 C 33.245 46.885 2.405 C 0.0 **** 0.0
2 H 33.353 46.85 3.489 H 0.0 **** 0.0
3 H 32.222 47.164 2.151 H 0.0 **** 0.0
4 H 33.469 45.904 1.987 H 0.0 **** 0.0
5 H 33.936 47.621 1.995 H 0.0 **** 0.0
@<TRIPOS>BOND
1 1 2 1
2 1 3 1
3 1 4 1
4 1 5 1
@<TRIPOS>MOLECULE
CH4
5 4
SMALL
USER_CHARGES


@<TRIPOS>ATOM
1 C 35.66 89.439 8.785 C 0.0 **** 0.0
2 H 35.534 88.7 9.576 H 0.0 **** 0.0
3 H 35.263 90.399 9.118 H 0.0 **** 0.0
4 H 35.124 89.113 7.894 H 0.0 **** 0.0
5 H 36.72 89.545 8.553 H 0.0 **** 0.0
@<TRIPOS>BOND
1 1 2 1
2 1 3 1
3 1 4 1
4 1 5 1
@<TRIPOS>MOLECULE
CH4
5 4
SMALL
USER_CHARGES


@<TRIPOS>ATOM
1 C 70.88 47.683 73.479 C 0.0 **** 0.0
2 H 70.862 47.642 72.39 H 0.0 **** 0.0
3 H 70.035 47.121 73.877 H 0.0 **** 0.0
4 H 70.812 48.721 73.804 H 0.0 **** 0.0
5 H 71.81 47.248 73.843 H 0.0 **** 0.0
@<TRIPOS>BOND
1 1 2 1
2 1 3 1
3 1 4 1
4 1 5 1
@<TRIPOS>MOLECULE
CH4
5 4
SMALL
USER_CHARGES


@<TRIPOS>ATOM
1 C 34.375 26.252 98.191 C 0.0 **** 0.0
2 H 34.19 25.377 98.815 H 0.0 **** 0.0
3 H 33.424 26.68 97.875 H 0.0 **** 0.0
4 H 34.951 25.957 97.314 H 0.0 **** 0.0
5 H 34.936 26.992 98.762 H 0.0 **** 0.0
@<TRIPOS>BOND
1 1 2 1
2 1 3 1
3 1 4 1
4 1 5 1
@<TRIPOS>MOLECULE
CH4
5 4
SMALL
USER_CHARGES


@<TRIPOS>ATOM
1 C 56.591 48.668 50.496 C 0.0 **** 0.0
2 H 56.395 47.683 50.92 H 0.0 **** 0.0
3 H 57.667 48.824 50.422 H 0.0 **** 0.0
4 H 56.156 49.433 51.138 H 0.0 **** 0.0
5 H 56.145 48.731 49.503 H 0.0 **** 0.0
@<TRIPOS>BOND
1 1 2 1
2 1 3 1
3 1 4 1
4 1 5 1
@<TRIPOS>MOLECULE
CH4
5 4
SMALL
USER_CHARGES


@<TRIPOS>ATOM
1 C 46.417 55.531 91.891 C 0.0 **** 0.0
2 H 46.465 54.983 90.951 H 0.0 **** 0.0
3 H 47.427 55.73 92.248 H 0.0 **** 0.0
4 H 45.881 54.936 92.631 H 0.0 **** 0.0
5 H 45.893 56.474 91.735 H 0.0 **** 0.0
@<TRIPOS>BOND
1 1 2 1
2 1 3 1
3 1 4 1
4 1 5 1
@<TRIPOS>MOLECULE
CH4
5 4
SMALL
USER_CHARGES


@<TRIPOS>ATOM
1 C 89.966 29.293 35.532 C 0.0 **** 0.0
2 H 90.008 29.302 34.442 H 0.0 **** 0.0
3 H 90.93 29.606 35.934 H 0.0 **** 0.0
4 H 89.738 28.285 35.878 H 0.0 **** 0.0
5 H 89.19 29.978 35.871 H 0.0 **** 0.0
@<TRIPOS>BOND
1 1 2 1
2 1 3 1
3 1 4 1
4 1 5 1
@<TRIPOS>MOLECULE
CH4
5 4
SMALL
USER_CHARGES


@<TRIPOS>ATOM
1 C 88.993 87.866 26.041 C 0.0 **** 0.0
2 H 88.688 88.91 25.967 H 0.0 **** 0.0
3 H 88.51 87.29 25.252 H 0.0 **** 0.0
4 H 88.698 87.47 27.013 H 0.0 **** 0.0
5 H 90.075 87.795 25.933 H 0.0 **** 0.0
@<TRIPOS>BOND
1 1 2 1
2 1 3 1
3 1 4 1
4 1 5 1
@<TRIPOS>MOLECULE
CH4
5 4
SMALL
USER_CHARGES


@<TRIPOS>ATOM
1 C 70.142 2.561 59.538 C 0.0 **** 0.0
2 H 69.723 2.949 58.609 H 0.0 **** 0.0
3 H 71.012 3.156 59.819 H 0.0 **** 0.0
4 H 70.442 1.523 59.396 H 0.0 **** 0.0
5 H 69.392 2.619 60.326 H 0.0 **** 0.0
@<TRIPOS>BOND
1 1 2 1
2 1 3 1
3 1 4 1
4 1 5 1
@<TRIPOS>MOLECULE
CH4
5 4
SMALL
USER_CHARGES


@<TRIPOS>ATOM
1 C 4.764 45.376 87.694 C 0.0 **** 0.0
2 H 4.347 46.179 87.086 H 0.0 **** 0.0
3 H 4.773 44.451 87.117 H 0.0 **** 0.0
4 H 4.152 45.242 88.586 H 0.0 **** 0.0
5 H 5.782 45.633 87.986 H 0.0 **** 0.0
@<TRIPOS>BOND
1 1 2 1
2 1 3 1
3 1 4 1
4 1 5 1
@<TRIPOS>MOLECULE
CH4
5 4
SMALL
USER_CHARGES


@<TRIPOS>ATOM
1 C 67.856 32.73 23.721 C 0.0 **** 0.0
2 H 67.802 32.887 24.799 H 0.0 **** 0.0
3 H 67.49 33.619 23.207 H 0.0 **** 0.0
4 H 67.241 31.872 23.448 H 0.0 **** 0.0
5 H 68.89 32.542 23.433 H 0.0 **** 0.0
@<TRIPOS>BOND
1 1 3 1
2 1 4 1
3 1 5 1
4 1 2 1
@<TRIPOS>MOLECULE
CH4
5 4
SMALL
USER_CHARGES


@<TRIPOS>ATOM
1 C 15.826 36.803 77.575 C 0.0 **** 0.0
2 H 15.688 36.526 78.62 H 0.0 **** 0.0
3 H 15.578 35.954 76.938 H 0.0 **** 0.0
4 H 16.864 37.092 77.409 H 0.0 **** 0.0
5 H 15.172 37.642 77.333 H 0.0 **** 0.0
@<TRIPOS>BOND
1 1 2 1
2 1 3 1
3 1 4 1
4 1 5 1
@<TRIPOS>MOLECULE
CH4
5 4
SMALL
USER_CHARGES


@<TRIPOS>ATOM
1 C 14.307 74.707 74.256 C 0.0 **** 0.0
2 H 14.972 74.237 73.531 H 0.0 **** 0.0
3 H 14.837 75.512 74.765 H 0.0 **** 0.0
4 H 13.984 73.965 74.986 H 0.0 **** 0.0
5 H 13.437 75.113 73.741 H 0.0 **** 0.0
@<TRIPOS>BOND
1 1 2 1
2 1 3 1
3 1 4 1
4 1 5 1
@<TRIPOS>MOLECULE
CH4
5 4
SMALL
USER_CHARGES


@<TRIPOS>ATOM
1 C 10.43 38.512 30.166 C 0.0 **** 0.0
2 H 9.828 38.973 30.949 H 0.0 **** 0.0
3 H 10.204 38.983 29.21 H 0.0 **** 0.0
4 H 10.201 37.448 30.111 H 0.0 **** 0.0
5 H 11.487 38.645 30.396 H 0.0 **** 0.0
@<TRIPOS>BOND
1 1 2 1
2 1 3 1
3 1 4 1
4 1 5 1
@<TRIPOS>MOLECULE
CH4
5 4
SMALL
USER_CHARGES


@<TRIPOS>ATOM
1 C 28.609 4.596 74.707 C 0.0 **** 0.0
2 H 28.831 4.844 75.745 H 0.0 **** 0.0
3 H 28.391 3.53 74.627 H 0.0 **** 0.0
4 H 29.469 4.839 74.084 H 0.0 **** 0.0
5 H 27.744 5.17 74.374 H 0.0 **** 0.0
@<TRIPOS>BOND
1 1 2 1
2 1 3 1
3 1 4 1
4 1 5 1
@<TRIPOS>MOLECULE
CH4
5 4
SMALL
USER_CHARGES


@<TRIPOS>ATOM
1 C 54.684 73.419 34.008 C 0.0 **** 0.0
2 H 54.663 72.855 34.94 H 0.0 **** 0.0
3 H 53.672 73.497 33.608 H 0.0 **** 0.0
4 H 55.321 72.907 33.287 H 0.0 **** 0.0
5 H 55.078 74.418 34.196 H 0.0 **** 0.0
@<TRIPOS>BOND
1 1 2 1
2 1 3 1
3 1 4 1
4 1 5 1
@<TRIPOS>MOLECULE
CH4
5 4
SMALL
USER_CHARGES


@<TRIPOS>ATOM
1 C 11.528 24.888 5.769 C 0.0 **** 0.0
2 H 11.989 25.449 4.956 H 0.0 **** 0.0
3 H 10.66 24.348 5.39 H 0.0 **** 0.0
4 H 11.213 25.578 6.553 H 0.0 **** 0.0
5 H 12.248 24.179 6.176 H 0.0 **** 0.0
@<TRIPOS>BOND
1 1 2 1
2 1 3 1
3 1 4 1
4 1 5 1
@<TRIPOS>MOLECULE
CH4
5 4
SMALL
USER_CHARGES


@<TRIPOS>ATOM
1 C 61.858 31.835 59.519 C 0.0 **** 0.0
2 H 62.026 31.509 60.545 H 0.0 **** 0.0
3 H 61.162 31.152 59.031 H 0.0 **** 0.0
4 H 62.805 31.836 58.979 H 0.0 **** 0.0
5 H 61.439 32.841 59.522 H 0.0 **** 0.0
@<TRIPOS>BOND
1 1 2 1
2 1 3 1
3 1 4 1
4 1 5 1
@<TRIPOS>MOLECULE
CH4
5 4
SMALL
USER_CHARGES


@<TRIPOS>ATOM
1 C 52.059 6.148 78.072 C 0.0 **** 0.0
2 H 51.582 6.489 77.153 H 0.0 **** 0.0
3 H 53.071 6.55 78.127 H 0.0 **** 0.0
4 H 52.1 5.059 78.077 H 0.0 **** 0.0
5 H 51.483 6.494 78.93 H 0.0 **** 0.0
@<TRIPOS>BOND
1 1 2 1
2 1 3 1
3 1 4 1
4 1 5 1
@<TRIPOS>MOLECULE
CH4
5 4
SMALL
USER_CHARGES


@<TRIPOS>ATOM
1 C 54.844 57.132 70.294 C 0.0 **** 0.0
2 H 55.175 57.068 69.257 H 0.0 **** 0.0
3 H 53.902 57.679 70.341 H 0.0 **** 0.0
4 H 55.598 57.655 70.883 H 0.0 **** 0.0
5 H 54.703 56.128 70.692 H 0.0 **** 0.0
@<TRIPOS>BOND
1 1 2 1
2 1 3 1
3 1 4 1
4 1 5 1
@<TRIPOS>MOLECULE
CH4
5 4
SMALL
USER_CHARGES


@<TRIPOS>ATOM
1 C 74.497 27.762 28.512 C 0.0 **** 0.0
2 H 74.936 28.409 27.753 H 0.0 **** 0.0
3 H 74.371 28.323 29.438 H 0.0 **** 0.0
4 H 75.155 26.911 28.689 H 0.0 **** 0.0
5 H 73.527 27.405 28.168 H 0.0 **** 0.0
@<TRIPOS>BOND
1 1 2 1
2 1 3 1
3 1 4 1
4 1 5 1
@<TRIPOS>MOLECULE
CH4
5 4
SMALL
USER_CHARGES


@<TRIPOS>ATOM
1 C 69.155 47.521 4.405 C 0.0 **** 0.0
2 H 69.077 47.727 3.338 H 0.0 **** 0.0
3 H 69.001 46.456 4.582 H 0.0 **** 0.0
4 H 68.397 48.092 4.941 H 0.0 **** 0.0
5 H 70.145 47.809 4.759 H 0.0 **** 0.0
@<TRIPOS>BOND
1 1 2 1
2 1 3 1
3 1 4 1
4 1 5 1
@<TRIPOS>MOLECULE
CH4
5 4
SMALL
USER_CHARGES


@<TRIPOS>ATOM
1 C 92.219 89.078 71.326 C 0.0 **** 0.0
2 H 91.674 88.718 72.199 H 0.0 **** 0.0
3 H 91.523 89.231 70.501 H 0.0 **** 0.0
4 H 92.969 88.342 71.038 H 0.0 **** 0.0
5 H 92.709 90.021 71.569 H 0.0 **** 0.0
@<TRIPOS>BOND
1 1 2 1
2 1 3 1
3 1 4 1
4 1 5 1
@<TRIPOS>MOLECULE
CH4
5 4
SMALL
USER_CHARGES


@<TRIPOS>ATOM
1 C 36.664 69.726 80.433 C 0.0 **** 0.0
2 H 36.192 70.359 79.681 H 0.0 **** 0.0
3 H 37.598 69.326 80.036 H 0.0 **** 0.0
4 H 35.995 68.903 80.686 H 0.0 **** 0.0
5 H 36.87 70.315 81.326 H 0.0 **** 0.0
@<TRIPOS>BOND
1 1 2 1
2 1 3 1
3 1 4 1
4 1 5 1
@<TRIPOS>MOLECULE
CH4
5 4
SMALL
USER_CHARGES


@<TRIPOS>ATOM
1 C 94.657 54.468 38.95 C 0.0 **** 0.0
2 H 95.135 53.947 38.12 H 0.0 **** 0.0
3 H 95.067 54.102 39.892 H 0.0 **** 0.0
4 H 93.583 54.284 38.925 H 0.0 **** 0.0
5 H 94.845 55.538 38.863 H 0.0 **** 0.0
@<TRIPOS>BOND
1 1 2 1
2 1 3 1
3 1 4 1
4 1 5 1
@<TRIPOS>MOLECULE
CH4
5 4
SMALL
USER_CHARGES


@<TRIPOS>ATOM
1 C 64.491 71.465 66.6 C 0.0 **** 0.0
2 H 65.172 70.658 66.87 H 0.0 **** 0.0
3 H 63.811 71.659 67.43 H 0.0 **** 0.0
4 H 63.917 71.177 65.72 H 0.0 **** 0.0
5 H 65.064 72.366 66.382 H 0.0 **** 0.0
@<TRIPOS>BOND
1 1 2 1
2 1 3 1
3 1 4 1
4 1 5 1
@<TRIPOS>MOLECULE
CH4
5 4
SMALL
USER_CHARGES


@<TRIPOS>ATOM
1 C 16.151 46.628 5.869 C 0.0 **** 0.0
2 H 15.606 46.483 4.936 H 0.0 **** 0.0
3 H 16.029 45.748 6.501 H 0.0 **** 0.0
4 H 15.759 47.504 6.385 H 0.0 **** 0.0
5 H 17.209 46.777 5.652 H 0.0 **** 0.0
@<TRIPOS>BOND
1 1 2 1
2 1 3 1
3 1 4 1
4 1 5 1
@<TRIPOS>MOLECULE
CH4
5 4
SMALL
USER_CHARGES


@<TRIPOS>ATOM
1 C 3.78 36.173 1.745 C 0.0 **** 0.0
2 H 3.698 37.259 1.783 H 0.0 **** 0.0
3 H 3.407 35.748 2.677 H 0.0 **** 0.0
4 H 4.825 35.892 1.61 H 0.0 **** 0.0
5 H 3.191 35.793 0.911 H 0.0 **** 0.0
@<TRIPOS>BOND
1 1 2 1
2 1 3 1
3 1 4 1
4 1 5 1
@<TRIPOS>MOLECULE
CH4
5 4
SMALL
USER_CHARGES


@<TRIPOS>ATOM
1 C 74.085 2.132 78.002 C 0.0 **** 0.0
2 H 73.245 2.35 78.662 H 0.0 **** 0.0
3 H 74.945 2.733 78.298 H 0.0 **** 0.0
4 H 73.811 2.371 76.975 H 0.0 **** 0.0
5 H 74.339 1.074 78.074 H 0.0 **** 0.0
@<TRIPOS>BOND
1 1 2 1
2 1 3 1
3 1 4 1
4 1 5 1
@<TRIPOS>MOLECULE
CH4
5 4
SMALL
USER_CHARGES


@<TRIPOS>ATOM
1 C 82.476 47.767 43.718 C 0.0 **** 0.0
2 H 83.503 47.599 44.043 H 0.0 **** 0.0
3 H 81.823 47.027 44.181 H 0.0 **** 0.0
4 H 82.419 47.675 42.633 H 0.0 **** 0.0
5 H 82.16 48.767 44.015 H 0.0 **** 0.0
@<TRIPOS>BOND
1 1 2 1
2 1 3 1
3 1 4 1
4 1 5 1
@<TRIPOS>MOLECULE
CH4
5 4
SMALL
USER_CHARGES


@<TRIPOS>ATOM
1 C 63.321 6.243 1.391 C 0.0 **** 0.0
2 H 63.702 7.243 1.185 H 0.0 **** 0.0
3 H 64.027 5.71 2.028 H 0.0 **** 0.0
4 H 63.198 5.702 0.453 H 0.0 **** 0.0
5 H 62.359 6.318 1.897 H 0.0 **** 0.0
@<TRIPOS>BOND
1 1 2 1
2 1 3 1
3 1 4 1
4 1 5 1
@<TRIPOS>MOLECULE
CH4
5 4
SMALL
USER_CHARGES


@<TRIPOS>ATOM
1 C 8.934 33.024 98.163 C 0.0 **** 0.0
2 H 8.723 33.622 97.277 H 0.0 **** 0.0
3 H 9.165 33.683 99.0 H 0.0 **** 0.0
4 H 9.786 32.373 97.967 H 0.0 **** 0.0
5 H 8.062 32.417 98.408 H 0.0 **** 0.0
@<TRIPOS>BOND
1 1 2 1
2 1 3 1
3 1 4 1
4 1 5 1
@<TRIPOS>MOLECULE
CH4
5 4
SMALL
USER_CHARGES


@<TRIPOS>ATOM
1 C 15.233 15.503 63.486 C 0.0 **** 0.0
2 H 15.606 15.509 64.51 H 0.0 **** 0.0
3 H 14.159 15.686 63.49 H 0.0 **** 0.0
4 H 15.435 14.532 63.032 H 0.0 **** 0.0
5 H 15.734 16.283 62.913 H 0.0 **** 0.0
@<TRIPOS>BOND
1 1 2 1
2 1 3 1
3 1 4 1
4 1 5 1
@<TRIPOS>MOLECULE
CH4
5 4
SMALL
USER_CHARGES


@<TRIPOS>ATOM
1 C 74.185 9.844 90.303 C 0.0 **** 0.0
2 H 73.749 10.103 91.268 H 0.0 **** 0.0
3 H 75.016 10.516 90.087 H 0.0 **** 0.0
4 H 73.427 9.94 89.526 H 0.0 **** 0.0
5 H 74.547 8.816 90.333 H 0.0 **** 0.0
@<TRIPOS>BOND
1 1 2 1
2 1 3 1
3 1 4 1
4 1 5 1
@<TRIPOS>MOLECULE
CH4
5 4
SMALL
USER_CHARGES


@<TRIPOS>ATOM
1 C 5.582 12.744 44.519 C 0.0 **** 0.0
2 H 5.591 13.427 45.368 H 0.0 **** 0.0
3 H 5.959 11.77 44.833 H 0.0 **** 0.0
4 H 6.215 13.141 43.726 H 0.0 **** 0.0
5 H 4.561 12.637 44.151 H 0.0 **** 0.0
@<TRIPOS>BOND
1 1 2 1
2 1 3 1
3 1 4 1
4 1 5 1
@<TRIPOS>MOLECULE
CH4
5 4
SMALL
USER_CHARGES


@<TRIPOS>ATOM
1 C 82.182 63.938 26.368 C 0.0 **** 0.0
2 H 82.102 63.876 27.454 H 0.0 **** 0.0
3 H 81.743 63.046 25.921 H 0.0 **** 0.0
4 H 83.233 64.007 26.086 H 0.0 **** 0.0
5 H 81.652 64.822 26.015 H 0.0 **** 0.0
@<TRIPOS>BOND
1 1 2 1
2 1 3 1
3 1 4 1
4 1 5 1
@<TRIPOS>MOLECULE
CH4
5 4
SMALL
USER_CHARGES


@<TRIPOS>ATOM
1 C 37.14 6.942 19.761 C 0.0 **** 0.0
2 H 36.876 6.697 20.79 H 0.0 **** 0.0
3 H 38.225 6.967 19.66 H 0.0 **** 0.0
4 H 36.728 7.918 19.504 H 0.0 **** 0.0
5 H 36.729 6.186 19.092 H 0.0 **** 0.0
@<TRIPOS>BOND
1 1 2 1
2 1 3 1
3 1 4 1
4 1 5 1
@<TRIPOS>MOLECULE
CH4
5 4
SMALL
USER_CHARGES


@<TRIPOS>ATOM
1 C 66.048 96.661 92.331 C 0.0 **** 0.0
2 H 65.965 96.31 91.302 H 0.0 **** 0.0
3 H 65.301 97.435 92.511 H 0.0 **** 0.0
4 H 67.044 97.072 92.495 H 0.0 **** 0.0
5 H 65.881 95.828 93.014 H 0.0 **** 0.0
@<TRIPOS>BOND
1 1 2 1
2 1 3 1
3 1 4 1
4 1 5 1
@<TRIPOS>MOLECULE
CH4
5 4
SMALL
USER_CHARGES


@<TRIPOS>ATOM
1 C 18.82 26.867 52.318 C 0.0 **** 0.0
2 H 19.197 27.829 52.665 H 0.0 **** 0.0
3 H 19.642 26.153 52.263 H 0.0 **** 0.0
4 H 18.376 26.987 51.33 H 0.0 **** 0.0
5 H 18.065 26.501 53.014 H 0.0 **** 0.0
@<TRIPOS>BOND
1 1 2 1
2 1 3 1
3 1 4 1
4 1 5 1
@<TRIPOS>MOLECULE
CH4
5 4
SMALL
USER_CHARGES


@<TRIPOS>ATOM
1 C 59.183 86.319 52.746 C 0.0 **** 0.0
2 H 59.137 85.674 53.623 H 0.0 **** 0.0
3 H 58.27 86.201 52.16 H 0.0 **** 0.0
4 H 60.044 86.043 52.137 H 0.0 **** 0.0
5 H 59.28 87.357 53.063 H 0.0 **** 0.0
@<TRIPOS>BOND
1 1 2 1
2 1 3 1
3 1 4 1
4 1 5 1
@<TRIPOS>MOLECULE
CH4
5 4
SMALL
USER_CHARGES


@<TRIPOS>ATOM
1 C 67.234 38.345 77.505 C 0.0 **** 0.0
2 H 67.833 37.591 78.016 H 0.0 **** 0.0
3 H 66.223 38.344 77.915 H 0.0 **** 0.0
4 H 67.194 38.117 76.44 H 0.0 **** 0.0
5 H 67.684 39.326 77.65 H 0.0 **** 0.0
@<TRIPOS>BOND
1 1 2 1
2 1 3 1
3 1 4 1
4 1 5 1
@<TRIPOS>MOLECULE
CH4
5 4
SMALL
USER_CHARGES


@<TRIPOS>ATOM
1 C 8.048 41.68 25.283 C 0.0 **** 0.0
2 H 8.967 42.235 25.471 H 0.0 **** 0.0
3 H 7.453 42.205 24.534 H 0.0 **** 0.0
4 H 7.477 41.598 26.208 H 0.0 **** 0.0
5 H 8.294 40.683 24.918 H 0.0 **** 0.0
@<TRIPOS>BOND
1 1 2 1
2 1 3 1
3 1 4 1
4 1 5 1
@<TRIPOS>MOLECULE
CH4
5 4
SMALL
USER_CHARGES


@<TRIPOS>ATOM
1 C 95.01 68.108 46.766 C 0.0 **** 0.0
2 H 94.132 68.619 46.372 H 0.0 **** 0.0
3 H 95.11 67.134 46.286 H 0.0 **** 0.0
4 H 94.899 67.972 47.842 H 0.0 **** 0.0
5 H 95.9 68.705 46.566 H 0.0 **** 0.0
@<TRIPOS>BOND
1 1 2 1
2 1 3 1
3 1 4 1
4 1 5 1
@<TRIPOS>MOLECULE
CH4
5 4
SMALL
USER_CHARGES


@<TRIPOS>ATOM
1 C 13.361 68.883 70.514 C 0.0 **** 0.0
2 H 13.103 69.902 70.222 H 0.0 **** 0.0
3 H 13.268 68.781 71.595 H 0.0 **** 0.0
4 H 14.387 68.669 70.215 H 0.0 **** 0.0
5 H 12.686 68.183 70.022 H 0.0 **** 0.0
@<TRIPOS>BOND
1 1 2 1
2 1 3 1
3 1 4 1
4 1 5 1
@<TRIPOS>MOLECULE
CH4
5 4
SMALL
USER_CHARGES


@<TRIPOS>ATOM
1 C 91.069 31.655 38.539 C 0.0 **** 0.0
2 H 91.901 31.957 37.903 H 0.0 **** 0.0
3 H 90.552 30.809 38.084 H 0.0 **** 0.0
4 H 90.375 32.488 38.649 H 0.0 **** 0.0
5 H 91.448 31.365 39.519 H 0.0 **** 0.0
@<TRIPOS>BOND
1 1 2 1
2 1 3 1
3 1 4 1
4 1 5 1
@<TRIPOS>MOLECULE
CH4
5 4
SMALL
USER_CHARGES


@<TRIPOS>ATOM
1 C 63.458 73.506 34.554 C 0.0 **** 0.0
2 H 63.793 73.179 35.539 H 0.0 **** 0.0
3 H 62.504 73.034 34.32 H 0.0 **** 0.0
4 H 64.198 73.223 33.806 H 0.0 **** 0.0
5 H 63.337 74.59 34.554 H 0.0 **** 0.0
@<TRIPOS>BOND
1 1 2 1
2 1 3 1
3 1 4 1
4 1 5 1
@<TRIPOS>MOLECULE
CH4
5 4
SMALL
USER_CHARGES


@<TRIPOS>ATOM
1 C 66.431 90.927 43.93 C 0.0 **** 0.0
2 H 66.098 91.937 43.692 H 0.0 **** 0.0
3 H 67.029 90.947 44.841 H 0.0 **** 0.0
4 H 67.034 90.54 43.108 H 0.0 **** 0.0
5 H 65.563 90.284 44.078 H 0.0 **** 0.0
@<TRIPOS>BOND
1 1 2 1
2 1 3 1
3 1 4 1
4 1 5 1
@<TRIPOS>MOLECULE
CH4
5 4
SMALL
USER_CHARGES


@<TRIPOS>ATOM
1 C 93.957 77.46 26.455 C 0.0 **** 0.0
2 H 94.792 78.098 26.744 H 0.0 **** 0.0
3 H 93.48 77.058 27.349 H 0.0 **** 0.0
4 H 94.323 76.64 25.837 H 0.0 **** 0.0
5 H 93.232 78.046 25.889 H 0.0 **** 0.0
@<TRIPOS>BOND
1 1 2 1
2 1 3 1
3 1 4 1
4 1 5 1
@<TRIPOS>MOLECULE
CH4
5 4
SMALL
USER_CHARGES


@<TRIPOS>ATOM
1 C 5.346 73.898 38.416 C 0.0 **** 0.0
2 H 4.663 74.551 38.959 H 0.0 **** 0.0
3 H 5.056 72.859 38.572 H 0.0 **** 0.0
4 H 6.362 74.051 38.781 H 0.0 **** 0.0
5 H 5.303 74.133 37.352 H 0.0 **** 0.0
@<TRIPOS>BOND
1 1 2 1
2 1 3 1
3 1 4 1
4 1 5 1
@<TRIPOS>MOLECULE
CH4
5 4
SMALL
USER_CHARGES


@<TRIPOS>ATOM
1 C 33.673 37.025 20.213 C 0.0 **** 0.0
2 H 33.202 37.875 19.719 H 0.0 **** 0.0
3 H 34.749 37.055 20.04 H 0.0 **** 0.0
4 H 33.265 36.098 19.81 H 0.0 **** 0.0
5 H 33.476 37.073 21.284 H 0.0 **** 0.0
@<TRIPOS>BOND
1 1 2 1
2 1 3 1
3 1 4 1
4 1 5 1
@<TRIPOS>MOLECULE
CH4
5 4
SMALL
USER_CHARGES


@<TRIPOS>ATOM
1 C 37.026 8.289 48.878 C 0.0 **** 0.0
2 H 37.018 8.149 47.797 H 0.0 **** 0.0
3 H 36.209 7.72 49.324 H 0.0 **** 0.0
4 H 36.9 9.347 49.108 H 0.0 **** 0.0
5 H 37.976 7.94 49.283 H 0.0 **** 0.0
@<TRIPOS>BOND
1 1 2 1
2 1 3 1
3 1 4 1
4 1 5 1
@<TRIPOS>MOLECULE
CH4
5 4
SMALL
USER_CHARGES


@<TRIPOS>ATOM
1 C 87.353 2.744 43.846 C 0.0 **** 0.0
2 H 87.281 2.904 42.77 H 0.0 **** 0.0
3 H 87.788 1.763 44.039 H 0.0 **** 0.0
4 H 86.358 2.794 44.288 H 0.0 **** 0.0
5 H 87.985 3.515 44.286 H 0.0 **** 0.0
@<TRIPOS>BOND
1 1 2 1
2 1 3 1
3 1 4 1
4 1 5 1
@<TRIPOS>MOLECULE
CH4
5 4
SMALL
USER_CHARGES


@<TRIPOS>ATOM
1 C 29.044 43.272 37.581 C 0.0 **** 0.0
2 H 29.941 43.042 38.156 H 0.0 **** 0.0
3 H 28.427 42.377 37.497 H 0.0 **** 0.0
4 H 29.328 43.613 36.586 H 0.0 **** 0.0
5 H 28.48 44.056 38.087 H 0.0 **** 0.0
@<TRIPOS>BOND
1 1 2 1
2 1 3 1
3 1 4 1
4 1 5 1
@<TRIPOS>MOLECULE
CH4
5 4
SMALL
USER_CHARGES


@<TRIPOS>ATOM
1 C 57.2 19.198 42.178 C 0.0 **** 0.0
2 H 57.963 19.825 42.64 H 0.0 **** 0.0
3 H 56.416 18.985 42.905 H 0.0 **** 0.0
4 H 57.652 18.263 41.846 H 0.0 **** 0.0
5 H 56.771 19.718 41.322 H 0.0 **** 0.0
@<TRIPOS>BOND
1 1 2 1
2 1 3 1
3 1 4 1
4 1 5 1
@<TRIPOS>MOLECULE
CH4
5 4
SMALL
USER_CHARGES


@<TRIPOS>ATOM
1 C 50.805 87.636 26.644 C 0.0 **** 0.0
2 H 49.744 87.394 26.709 H 0.0 **** 0.0
3 H 51.242 87.626 27.643 H 0.0 **** 0.0
4 H 50.925 88.626 26.204 H 0.0 **** 0.0
5 H 51.308 86.898 26.019 H 0.0 **** 0.0
@<TRIPOS>BOND
1 1 2 1
2 1 3 1
3 1 4 1
4 1 5 1
@<TRIPOS>MOLECULE
CH4
5 4
SMALL
USER_CHARGES


@<TRIPOS>ATOM
1 C 42.005 95.305 75.031 C 0.0 **** 0.0
2 H 42.042 94.352 74.503 H 0.0 **** 0.0
3 H 41.876 96.114 74.312 H 0.0 **** 0.0
4 H 42.934 95.452 75.582 H 0.0 **** 0.0
5 H 41.166 95.301 75.728 H 0.0 **** 0.0
@<TRIPOS>BOND
1 1 2 1
2 1 3 1
3 1 4 1
4 1 5 1
@<TRIPOS>MOLECULE
CH4
5 4
SMALL
USER_CHARGES


@<TRIPOS>ATOM
1 C 96.972 8.906 65.445 C 0.0 **** 0.0
2 H 97.657 9.432 66.109 H 0.0 **** 0.0
3 H 95.949 9.04 65.798 H 0.0 **** 0.0
4 H 97.218 7.845 65.436 H 0.0 **** 0.0
5 H 97.064 9.309 64.436 H 0.0 **** 0.0
@<TRIPOS>BOND
1 1 2 1
2 1 3 1
3 1 4 1
4 1 5 1
@<TRIPOS>MOLECULE
CH4
5 4
SMALL
USER_CHARGES


@<TRIPOS>ATOM
1 C 30.867 63.94 56.587 C 0.0 **** 0.0
2 H 30.602 62.888 56.7 H 0.0 **** 0.0
3 H 31.057 64.374 57.568 H 0.0 **** 0.0
4 H 30.045 64.471 56.107 H 0.0 **** 0.0
5 H 31.763 64.024 55.971 H 0.0 **** 0.0
@<TRIPOS>BOND
1 1 2 1
2 1 3 1
3 1 4 1
4 1 5 1
@<TRIPOS>MOLECULE
CH4
5 4
SMALL
USER_CHARGES


@<TRIPOS>ATOM
1 C 54.652 52.058 28.912 C 0.0 **** 0.0
2 H 54.482 51.381 28.075 H 0.0 **** 0.0
3 H 55.713 52.304 28.971 H 0.0 **** 0.0
4 H 54.339 51.577 29.839 H 0.0 **** 0.0
5 H 54.075 52.971 28.764 H 0.0 **** 0.0
@<TRIPOS>BOND
1 1 2 1
2 1 3 1
3 1 4 1
4 1 5 1
@<TRIPOS>MOLECULE
CH4
5 4
SMALL
USER_CHARGES


@<TRIPOS>ATOM
1 C 10.874 3.344 30.2 C 0.0 **** 0.0
2 H 10.069 3.89 29.708 H 0.0 **** 0.0
3 H 10.605 2.29 30.275 H 0.0 **** 0.0
4 H 11.031 3.752 31.198 H 0.0 **** 0.0
5 H 11.79 3.446 29.618 H 0.0 **** 0.0
@<TRIPOS>BOND
1 1 2 1
2 1 3 1
3 1 4 1
4 1 5 1
@<TRIPOS>MOLECULE
CH4
5 4
SMALL
USER_CHARGES


@<TRIPOS>ATOM
1 C 83.547 74.324 77.583 C 0.0 **** 0.0
2 H 82.772 73.632 77.911 H 0.0 **** 0.0
3 H 83.086 75.177 77.084 H 0.0 **** 0.0
4 H 84.217 73.816 76.889 H 0.0 **** 0.0
5 H 84.113 74.671 78.447 H 0.0 **** 0.0
@<TRIPOS>BOND
1 1 5 1
2 1 2 1
3 1 3 1
4 1 4 1
@<TRIPOS>MOLECULE
CH4
5 4
SMALL
USER_CHARGES


@<TRIPOS>ATOM
1 C 2.06 45.359 66.46 C 0.0 **** 0.0
2 H 2.596 46.154 66.978 H 0.0 **** 0.0
3 H 0.989 45.471 66.633 H 0.0 **** 0.0
4 H 2.39 44.392 66.84 H 0.0 **** 0.0
5 H 2.264 45.419 65.391 H 0.0 **** 0.0
@<TRIPOS>BOND
1 1 2 1
2 1 3 1
3 1 4 1
4 1 5 1
@<TRIPOS>MOLECULE
CH4
5 4
SMALL
USER_CHARGES


@<TRIPOS>ATOM
1 C 32.531 53.039 32.778 C 0.0 **** 0.0
2 H 32.246 52.13 33.306 H 0.0 **** 0.0
3 H 32.01 53.891 33.214 H 0.0 **** 0.0
4 H 32.262 52.947 31.726 H 0.0 **** 0.0
5 H 33.608 53.188 32.866 H 0.0 **** 0.0
@<TRIPOS>BOND
1 1 2 1
2 1 3 1
3 1 4 1
4 1 5 1
@<TRIPOS>MOLECULE
CH4
5 4
SMALL
USER_CHARGES


@<TRIPOS>ATOM
1 C 9.792 55.082 83.716 C 0.0 **** 0.0
2 H 9.184 54.178 83.702 H 0.0 **** 0.0
3 H 10.819 54.825 83.976 H 0.0 **** 0.0
4 H 9.392 55.777 84.456 H 0.0 **** 0.0
5 H 9.772 55.549 82.731 H 0.0 **** 0.0
@<TRIPOS>BOND
1 1 2 1
2 1 3 1
3 1 4 1
4 1 5 1
@<TRIPOS>MOLECULE
CH4
5 4
SMALL
USER_CHARGES


@<TRIPOS>ATOM
1 C 28.453 34.098 9.185 C 0.0 **** 0.0
2 H 29.044 34.339 10.069 H 0.0 **** 0.0
3 H 28.803 34.692 8.341 H 0.0 **** 0.0
4 H 27.404 34.321 9.377 H 0.0 **** 0.0
5 H 28.563 33.038 8.954 H 0.0 **** 0.0
@<TRIPOS>BOND
1 1 2 1
2 1 3 1
3 1 4 1
4 1 5 1
@<TRIPOS>MOLECULE
CH4
5 4
SMALL
USER_CHARGES


@<TRIPOS>ATOM
1 C 58.955 94.321 50.96 C 0.0 **** 0.0
2 H 58.112 94.039 51.591 H 0.0 **** 0.0
3 H 59.692 93.518 50.958 H 0.0 **** 0.0
4 H 59.411 95.232 51.348 H 0.0 **** 0.0
5 H 58.604 94.496 49.943 H 0.0 **** 0.0
@<TRIPOS>BOND
1 1 2 1
2 1 3 1
3 1 4 1
4 1 5 1
@<TRIPOS>MOLECULE
CH4
5 4
SMALL
USER_CHARGES


@<TRIPOS>ATOM
1 C 47.505 7.715 13.7 C 0.0 **** 0.0
2 H 47.331 6.941 14.448 H 0.0 **** 0.0
3 H 46.842 7.554 12.85 H 0.0 **** 0.0
4 H 48.541 7.672 13.366 H 0.0 **** 0.0
5 H 47.304 8.693 14.137 H 0.0 **** 0.0
@<TRIPOS>BOND
1 1 2 1
2 1 3 1
3 1 4 1
4 1 5 1
@<TRIPOS>MOLECULE
CH4
5 4
SMALL
USER_CHARGES


@<TRIPOS>ATOM
1 C 38.821 62.159 17.102 C 0.0 **** 0.0
2 H 38.945 62.333 16.033 H 0.0 **** 0.0
3 H 39.639 62.634 17.644 H 0.0 **** 0.0
4 H 38.827 61.087 17.299 H 0.0 **** 0.0
5 H 37.872 62.584 17.431 H 0.0 **** 0.0
@<TRIPOS>BOND
1 1 2 1
2 1 3 1
3 1 4 1
4 1 5 1
@<TRIPOS>MOLECULE
CH4
5 4
SMALL
USER_CHARGES


@<TRIPOS>ATOM
1 C 43.421 91.811 65.554 C 0.0 **** 0.0
2 H 44.04 91.254 64.852 H 0.0 **** 0.0
3 H 43.785 91.647 66.569 H 0.0 **** 0.0
4 H 42.389 91.47 65.478 H 0.0 **** 0.0
5 H 43.47 92.874 65.318 H 0.0 **** 0.0
@<TRIPOS>BOND
1 1 4 1
2 1 5 1
3 1 2 1
4 1 3 1
@<TRIPOS>MOLECULE
CH4
5 4
SMALL
USER_CHARGES


@<TRIPOS>ATOM
1 C 39.31 37.396 24.049 C 0.0 **** 0.0
2 H 39.705 38.397 24.221 H 0.0 **** 0.0
3 H 39.136 37.253 22.982 H 0.0 **** 0.0
4 H 38.372 37.277 24.59 H 0.0 **** 0.0
5 H 40.029 36.657 24.402 H 0.0 **** 0.0
@<TRIPOS>BOND
1 1 2 1
2 1 3 1
3 1 4 1
4 1 5 1
@<TRIPOS>MOLECULE
CH4
5 4
SMALL
USER_CHARGES


@<TRIPOS>ATOM
1 C 51.29 59.838 84.49 C 0.0 **** 0.0
2 H 51.18 59.024 85.206 H 0.0 **** 0.0
3 H 50.324 60.321 84.338 H 0.0 **** 0.0
4 H 51.652 59.442 83.542 H 0.0 **** 0.0
5 H 52.004 60.567 84.875 H 0.0 **** 0.0
@<TRIPOS>BOND
1 1 2 1
2 1 3 1
3 1 4 1
4 1 5 1
@<TRIPOS>MOLECULE
CH4
5 4
SMALL
USER_CHARGES


@<TRIPOS>ATOM
1 C 36.372 1.107 30.317 C 0.0 **** 0.0
2 H 36.408 1.17 29.23 H 0.0 **** 0.0
3 H 37.208 1.666 30.74 H 0.0 **** 0.0
4 H 36.44 0.063 30.624 H 0.0 **** 0.0
5 H 35.434 1.531 30.675 H 0.0 **** 0.0
@<TRIPOS>BOND
1 1 2 1
2 1 3 1
3 1 4 1
4 1 5 1
@<TRIPOS>MOLECULE
CH4
5 4
SMALL
USER_CHARGES


@<TRIPOS>ATOM
1 C 93.294 44.232 28.852 C 0.0 **** 0.0
2 H 93.571 44.955 29.62 H 0.0 **** 0.0
3 H 92.388 44.568 28.348 H 0.0 **** 0.0
4 H 93.114 43.262 29.315 H 0.0 **** 0.0
5 H 94.103 44.145 28.127 H 0.0 **** 0.0
@<TRIPOS>BOND
1 1 2 1
2 1 3 1
3 1 4 1
4 1 5 1
@<TRIPOS>MOLECULE
CH4
5 4
SMALL
USER_CHARGES


@<TRIPOS>ATOM
1 C 95.402 18.24 33.019 C 0.0 **** 0.0
2 H 95.507 18.14 34.1 H 0.0 **** 0.0
3 H 94.485 18.784 32.793 H 0.0 **** 0.0
4 H 95.359 17.25 32.565 H 0.0 **** 0.0
5 H 96.257 18.786 32.621 H 0.0 **** 0.0
@<TRIPOS>BOND
1 1 2 1
2 1 3 1
3 1 4 1
4 1 5 1
@<TRIPOS>MOLECULE
CH4
5 4
SMALL
USER_CHARGES


@<TRIPOS>ATOM
1 C 49.26 30.454 3.92 C 0.0 **** 0.0
2 H 48.674 31.273 3.502 H 0.0 **** 0.0
3 H 50.052 30.859 4.551 H 0.0 **** 0.0
4 H 49.701 29.873 3.11 H 0.0 **** 0.0
5 H 48.612 29.812 4.517 H 0.0 **** 0.0
@<TRIPOS>BOND
1 1 2 1
2 1 3 1
3 1 4 1
4 1 5 1
@<TRIPOS>MOLECULE
CH4
5 4
SMALL
USER_CHARGES


@<TRIPOS>ATOM
1 C 62.201 42.917 94.372 C 0.0 **** 0.0
2 H 61.553 43.653 94.848 H 0.0 **** 0.0
3 H 63.24 43.134 94.621 H 0.0 **** 0.0
4 H 62.069 42.962 93.291 H 0.0 **** 0.0
5 H 61.943 41.92 94.729 H 0.0 **** 0.0
@<TRIPOS>BOND
1 1 2 1
2 1 3 1
3 1 4 1
4 1 5 1
@<TRIPOS>MOLECULE
CH4
5 4
SMALL
USER_CHARGES


@<TRIPOS>ATOM
1 C 83.73 55.166 63.373 C 0.0 **** 0.0
2 H 84.371 55.011 64.241 H 0.0 **** 0.0
3 H 82.74 55.481 63.704 H 0.0 **** 0.0
4 H 83.646 54.235 62.813 H 0.0 **** 0.0
5 H 84.162 55.936 62.735 H 0.0 **** 0.0
@<TRIPOS>BOND
1 1 2 1
2 1 3 1
3 1 4 1
4 1 5 1
@<TRIPOS>MOLECULE
CH4
5 4
SMALL
USER_CHARGES


@<TRIPOS>ATOM
1 C 18.676 83.693 31.066 C 0.0 **** 0.0
2 H 18.781 83.787 32.147 H 0.0 **** 0.0
3 H 19.23 84.493 30.576 H 0.0 **** 0.0
4 H 17.622 83.763 30.797 H 0.0 **** 0.0
5 H 19.07 82.728 30.746 H 0.0 **** 0.0
@<TRIPOS>BOND
1 1 2 1
2 1 3 1
3 1 4 1
4 1 5 1
@<TRIPOS>MOLECULE
CH4
5 4
SMALL
USER_CHARGES


@<TRIPOS>ATOM
1 C 78.142 84.994 25.631 C 0.0 **** 0.0
2 H 79.003 84.771 25.0 H 0.0 **** 0.0
3 H 77.683 85.927 25.302 H 0.0 **** 0.0
4 H 78.467 85.094 26.666 H 0.0 **** 0.0
5 H 77.416 84.185 25.554 H 0.0 **** 0.0
@<TRIPOS>BOND
1 1 2 1
2 1 3 1
3 1 4 1
4 1 5 1
@<TRIPOS>MOLECULE
CH4
5 4
SMALL
USER_CHARGES


@<TRIPOS>ATOM
1 C 24.353 88.448 60.877 C 0.0 **** 0.0
2 H 23.798 87.694 60.319 H 0.0 **** 0.0
3 H 25.222 88.762 60.299 H 0.0 **** 0.0
4 H 24.68 88.028 61.828 H 0.0 **** 0.0
5 H 23.709 89.308 61.062 H 0.0 **** 0.0
@<TRIPOS>BOND
1 1 2 1
2 1 3 1
3 1 4 1
4 1 5 1
@<TRIPOS>MOLECULE
CH4
5 4
SMALL
USER_CHARGES


@<TRIPOS>ATOM
1 C 84.901 69.356 29.328 C 0.0 **** 0.0
2 H 84.668 69.352 30.393 H 0.0 **** 0.0
3 H 84.008 69.095 28.76 H 0.0 **** 0.0
4 H 85.687 68.627 29.127 H 0.0 **** 0.0
5 H 85.242 70.348 29.034 H 0.0 **** 0.0
@<TRIPOS>BOND
1 1 2 1
2 1 3 1
3 1 4 1
4 1 5 1
@<TRIPOS>MOLECULE
CH4
5 4
SMALL
USER_CHARGES


@<TRIPOS>ATOM
1 C 95.828 66.38 64.984 C 0.0 **** 0.0
2 H 96.336 66.676 65.902 H 0.0 **** 0.0
3 H 94.756 66.539 65.094 H 0.0 **** 0.0
4 H 96.021 65.325 64.786 H 0.0 **** 0.0
5 H 96.201 66.979 64.153 H 0.0 **** 0.0
@<TRIPOS>BOND
1 1 2 1
2 1 3 1
3 1 4 1
4 1 5 1
@<TRIPOS>MOLECULE
CH4
5 4
SMALL
USER_CHARGES


@<TRIPOS>ATOM
1 C 80.898 10.776 14.962 C 0.0 **** 0.0
2 H 80.572 10.026 14.241 H 0.0 **** 0.0
3 H 81.935 10.585 15.241 H 0.0 **** 0.0
4 H 80.267 10.726 15.849 H 0.0 **** 0.0
5 H 80.818 11.767 14.515 H 0.0 **** 0.0
@<TRIPOS>BOND
1 1 2 1
2 1 3 1
3 1 4 1
4 1 5 1
@<TRIPOS>MOLECULE
CH4
5 4
SMALL
USER_CHARGES


@<TRIPOS>ATOM
1 C 93.301 47.159 26.085 C 0.0 **** 0.0
2 H 93.59 47.241 25.037 H 0.0 **** 0.0
3 H 94.052 47.646 26.707 H 0.0 **** 0.0
4 H 93.227 46.107 26.36 H 0.0 **** 0.0
5 H 92.336 47.643 26.235 H 0.0 **** 0.0
@<TRIPOS>BOND
1 1 2 1
2 1 3 1
3 1 4 1
4 1 5 1
@<TRIPOS>MOLECULE
CH4
5 4
SMALL
USER_CHARGES


@<TRIPOS>ATOM
1 C 25.968 70.231 41.35 C 0.0 **** 0.0
2 H 25.14 70.465 40.68 H 0.0 **** 0.0
3 H 26.07 69.149 41.436 H 0.0 **** 0.0
4 H 25.771 70.657 42.333 H 0.0 **** 0.0
5 H 26.889 70.653 40.949 H 0.0 **** 0.0
@<TRIPOS>BOND
1 1 2 1
2 1 3 1
3 1 4 1
4 1 5 1
@<TRIPOS>MOLECULE
CH4
5 4
SMALL
USER_CHARGES


@<TRIPOS>ATOM
1 C 49.318 27.721 78.165 C 0.0 **** 0.0
2 H 49.19 28.405 77.327 H 0.0 **** 0.0
3 H 50.111 27.009 77.936 H 0.0 **** 0.0
4 H 48.386 27.184 78.341 H 0.0 **** 0.0
5 H 49.584 28.287 79.058 H 0.0 **** 0.0
@<TRIPOS>BOND
1 1 2 1
2 1 3 1
3 1 4 1
4 1 5 1
@<TRIPOS>MOLECULE
CH4
5 4
SMALL
USER_CHARGES


@<TRIPOS>ATOM
1 C 66.746 25.811 59.061 C 0.0 **** 0.0
2 H 66.747 25.685 57.978 H 0.0 **** 0.0
3 H 67.772 25.804 59.428 H 0.0 **** 0.0
4 H 66.189 24.994 59.52 H 0.0 **** 0.0
5 H 66.274 26.76 59.316 H 0.0 **** 0.0
@<TRIPOS>BOND
1 1 2 1
2 1 3 1
3 1 4 1
4 1 5 1
@<TRIPOS>MOLECULE
CH4
5 4
SMALL
USER_CHARGES


@<TRIPOS>ATOM
1 C 47.894 77.365 58.916 C 0.0 **** 0.0
2 H 48.394 77.414 57.948 H 0.0 **** 0.0
3 H 47.175 78.181 58.994 H 0.0 **** 0.0
4 H 48.633 77.454 59.712 H 0.0 **** 0.0
5 H 47.374 76.412 59.007 H 0.0 **** 0.0
@<TRIPOS>BOND
1 1 2 1
2 1 3 1
3 1 4 1
4 1 5 1
@<TRIPOS>MOLECULE
CH4
5 4
SMALL
USER_CHARGES


@<TRIPOS>ATOM
1 C 79.454 48.445 31.25 C 0.0 **** 0.0
2 H 78.958 47.483 31.381 H 0.0 **** 0.0
3 H 80.005 48.444 30.31 H 0.0 **** 0.0
4 H 80.144 48.612 32.077 H 0.0 **** 0.0
5 H 78.707 49.239 31.234 H 0.0 **** 0.0
@<TRIPOS>BOND
1 1 2 1
2 1 3 1
3 1 4 1
4 1 5 1
@<TRIPOS>MOLECULE
CH4
5 4
SMALL
USER_CHARGES


@<TRIPOS>ATOM
1 C 36.077 89.63 50.996 C 0.0 **** 0.0
2 H 35.626 90.27 50.238 H 0.0 **** 0.0
3 H 35.613 88.644 50.961 H 0.0 **** 0.0
4 H 35.923 90.07 51.981 H 0.0 **** 0.0
5 H 37.146 89.536 50.803 H 0.0 **** 0.0
@<TRIPOS>BOND
1 1 2 1
2 1 3 1
3 1 4 1
4 1 5 1
@<TRIPOS>MOLECULE
CH4
5 4
SMALL
USER_CHARGES


@<TRIPOS>ATOM
1 C 47.68 46.967 93.688 C 0.0 **** 0.0
2 H 46.747 47.526 93.613 H 0.0 **** 0.0
3 H 48.254 47.094 92.77 H 0.0 **** 0.0
4 H 47.458 45.91 93.836 H 0.0 **** 0.0
5 H 48.259 47.339 94.533 H 0.0 **** 0.0
@<TRIPOS>BOND
1 1 2 1
2 1 3 1
3 1 4 1
4 1 5 1
@<TRIPOS>MOLECULE
CH4
5 4
SMALL
USER_CHARGES


@<TRIPOS>ATOM
1 C 74.002 72.822 46.45 C 0.0 **** 0.0
2 H 73.757 71.993 47.114 H 0.0 **** 0.0
3 H 74.138 72.448 45.436 H 0.0 **** 0.0
4 H 74.921 73.299 46.789 H 0.0 **** 0.0
5 H 73.189 73.549 46.463 H 0.0 **** 0.0
@<TRIPOS>BOND
1 1 2 1
2 1 3 1
3 1 4 1
4 1 5 1
@<TRIPOS>MOLECULE
CH4
5 4
SMALL
USER_CHARGES


@<TRIPOS>ATOM
1 C 22.599 87.63 76.855 C 0.0 **** 0.0
2 H 22.523 87.854 77.92 H 0.0 **** 0.0
3 H 23.267 86.78 76.71 H 0.0 **** 0.0
4 H 22.996 88.498 76.33 H 0.0 **** 0.0
5 H 21.611 87.388 76.464 H 0.0 **** 0.0
@<TRIPOS>BOND
1 1 2 1
2 1 3 1
3 1 4 1
4 1 5 1
@<TRIPOS>MOLECULE
CH4
5 4
SMALL
USER_CHARGES


@<TRIPOS>ATOM
1 C 96.102 5.558 74.475 C 0.0 **** 0.0
2 H 96.704 5.616 73.568 H 0.0 **** 0.0
3 H 95.54 6.484 74.596 H 0.0 **** 0.0
4 H 96.756 5.414 75.335 H 0.0 **** 0.0
5 H 95.411 4.719 74.399 H 0.0 **** 0.0
@<TRIPOS>BOND
1 1 5 1
2 1 2 1
3 1 3 1
4 1 4 1
@<TRIPOS>MOLECULE
CH4
5 4
SMALL
USER_CHARGES


@<TRIPOS>ATOM
1 C 19.681 92.719 11.086 C 0.0 **** 0.0
2 H 19.692 92.63 10.0 H 0.0 **** 0.0
3 H 20.705 92.776 11.456 H 0.0 **** 0.0
4 H 19.187 91.848 11.517 H 0.0 **** 0.0
5 H 19.141 93.621 11.371 H 0.0 **** 0.0
@<TRIPOS>BOND
1 1 5 1
2 1 3 1
3 1 4 1
4 1 2 1
@<TRIPOS>MOLECULE
CH4
5 4
SMALL
USER_CHARGES


@<TRIPOS>ATOM
1 C 46.184 54.547 65.447 C 0.0 **** 0.0
2 H 46.22 54.538 66.536 H 0.0 **** 0.0
3 H 47.199 54.566 65.05 H 0.0 **** 0.0
4 H 45.644 55.432 65.109 H 0.0 **** 0.0
5 H 45.672 53.652 65.093 H 0.0 **** 0.0
@<TRIPOS>BOND
1 1 2 1
2 1 3 1
3 1 4 1
4 1 5 1
@<TRIPOS>MOLECULE
CH4
5 4
SMALL
USER_CHARGES


@<TRIPOS>ATOM
1 C 20.645 84.141 91.721 C 0.0 **** 0.0
2 H 20.792 83.253 91.106 H 0.0 **** 0.0
3 H 19.666 84.571 91.509 H 0.0 **** 0.0
4 H 21.421 84.873 91.493 H 0.0 **** 0.0
5 H 20.702 83.868 92.774 H 0.0 **** 0.0
@<TRIPOS>BOND
1 1 2 1
2 1 3 1
3 1 4 1
4 1 5 1
@<TRIPOS>MOLECULE
CH4
5 4
SMALL
USER_CHARGES


@<TRIPOS>ATOM
1 C 91.124 14.165 84.684 C 0.0 **** 0.0
2 H 90.822 13.674 83.758 H 0.0 **** 0.0
3 H 91.859 14.938 84.462 H 0.0 **** 0.0
4 H 91.562 13.429 85.358 H 0.0 **** 0.0
5 H 90.252 14.616 85.156 H 0.0 **** 0.0
@<TRIPOS>BOND
1 1 2 1
2 1 3 1
3 1 4 1
4 1 5 1
@<TRIPOS>MOLECULE
CH4
5 4
SMALL
USER_CHARGES


@<TRIPOS>ATOM
1 C 18.843 26.997 39.218 C 0.0 **** 0.0
2 H 18.186 26.639 38.426 H 0.0 **** 0.0
3 H 18.417 27.897 39.663 H 0.0 **** 0.0
4 H 19.823 27.228 38.8 H 0.0 **** 0.0
5 H 18.946 26.227 39.982 H 0.0 **** 0.0
@<TRIPOS>BOND
1 1 2 1
2 1 3 1
3 1 4 1
4 1 5 1
@<TRIPOS>MOLECULE
CH4
5 4
SMALL
USER_CHARGES


@<TRIPOS>ATOM
1 C 22.616 35.873 51.182 C 0.0 **** 0.0
2 H 23.122 35.549 50.273 H 0.0 **** 0.0
3 H 23.046 35.357 52.041 H 0.0 **** 0.0
4 H 21.554 35.636 51.111 H 0.0 **** 0.0
5 H 22.741 36.949 51.304 H 0.0 **** 0.0
@<TRIPOS>BOND
1 1 2 1
2 1 3 1
3 1 4 1
4 1 5 1
@<TRIPOS>MOLECULE
CH4
5 4
SMALL
USER_CHARGES


@<TRIPOS>ATOM
1 C 80.924 26.005 12.886 C 0.0 **** 0.0
2 H 80.802 26.851 12.21 H 0.0 **** 0.0
3 H 81.63 26.269 13.674 H 0.0 **** 0.0
4 H 81.304 25.148 12.33 H 0.0 **** 0.0
5 H 79.961 25.752 13.33 H 0.0 **** 0.0
@<TRIPOS>BOND
1 1 2 1
2 1 3 1
3 1 4 1
4 1 5 1
@<TRIPOS>MOLECULE
CH4
5 4
SMALL
USER_CHARGES


@<TRIPOS>ATOM
1 C 91.073 17.204 87.384 C 0.0 **** 0.0
2 H 91.835 17.79 86.87 H 0.0 **** 0.0
3 H 90.183 17.816 87.533 H 0.0 **** 0.0
4 H 91.456 16.878 88.351 H 0.0 **** 0.0
5 H 90.818 16.332 86.781 H 0.0 **** 0.0
@<TRIPOS>BOND
1 1 2 1
2 1 3 1
3 1 4 1
4 1 5 1
@<TRIPOS>MOLECULE
CH4
5 4
SMALL
USER_CHARGES


@<TRIPOS>ATOM
1 C 22.301 51.424 27.58 C 0.0 **** 0.0
2 H 22.124 52.351 28.126 H 0.0 **** 0.0
3 H 22.997 50.8 28.14 H 0.0 **** 0.0
4 H 22.724 51.654 26.602 H 0.0 **** 0.0
5 H 21.358 50.893 27.452 H 0.0 **** 0.0
@<TRIPOS>BOND
1 1 2 1
2 1 3 1
3 1 4 1
4 1 5 1
@<TRIPOS>MOLECULE
CH4
5 4
SMALL
USER_CHARGES


@<TRIPOS>ATOM
1 C 28.322 8.205 97.239 C 0.0 **** 0.0
2 H 29.183 8.507 96.643 H 0.0 **** 0.0
3 H 27.607 7.68 96.605 H 0.0 **** 0.0
4 H 27.848 9.089 97.666 H 0.0 **** 0.0
5 H 28.649 7.545 98.042 H 0.0 **** 0.0
@<TRIPOS>BOND
1 1 2 1
2 1 3 1
3 1 4 1
4 1 5 1
@<TRIPOS>MOLECULE
CH4
5 4
SMALL
USER_CHARGES


@<TRIPOS>ATOM
1 C 46.954 33.276 50.595 C 0.0 **** 0.0
2 H 46.02 33.816 50.443 H 0.0 **** 0.0
3 H 46.842 32.588 51.433 H 0.0 **** 0.0
4 H 47.753 33.985 50.81 H 0.0 **** 0.0
5 H 47.199 32.714 49.694 H 0.0 **** 0.0
@<TRIPOS>BOND
1 1 2 1
2 1 3 1
3 1 4 1
4 1 5 1
@<TRIPOS>MOLECULE
CH4
5 4
SMALL
USER_CHARGES


@<TRIPOS>ATOM
1 C 81.559 85.393 30.212 C 0.0 **** 0.0
2 H 82.493 84.991 30.604 H 0.0 **** 0.0
3 H 81.391 85.007 29.206 H 0.0 **** 0.0
4 H 81.617 86.481 30.18 H 0.0 **** 0.0
5 H 80.735 85.092 30.859 H 0.0 **** 0.0
@<TRIPOS>BOND
1 1 2 1
2 1 3 1
3 1 4 1
4 1 5 1
@<TRIPOS>MOLECULE
CH4
5 4
SMALL
USER_CHARGES


@<TRIPOS>ATOM
1 C 57.587 26.11 80.302 C 0.0 **** 0.0
2 H 58.176 26.663 79.57 H 0.0 **** 0.0
3 H 56.718 25.672 79.812 H 0.0 **** 0.0
4 H 57.258 26.788 81.09 H 0.0 **** 0.0
5 H 58.198 25.319 80.736 H 0.0 **** 0.0
@<TRIPOS>BOND
1 1 2 1
2 1 3 1
3 1 4 1
4 1 5 1
@<TRIPOS>MOLECULE
CH4
5 4
SMALL
USER_CHARGES


@<TRIPOS>ATOM
1 C 27.877 62.416 15.587 C 0.0 **** 0.0
2 H 28.045 61.397 15.935 H 0.0 **** 0.0
3 H 28.771 63.014 15.769 H 0.0 **** 0.0
4 H 27.034 62.849 16.124 H 0.0 **** 0.0
5 H 27.66 62.404 14.519 H 0.0 **** 0.0
@<TRIPOS>BOND
1 1 2 1
2 1 3 1
3 1 4 1
4 1 5 1
@<TRIPOS>MOLECULE
CH4
5 4
SMALL
USER_CHARGES


@<TRIPOS>ATOM
1 C 54.478 8.344 25.27 C 0.0 **** 0.0
2 H 54.789 8.617 24.262 H 0.0 **** 0.0
3 H 55.218 8.698 25.987 H 0.0 **** 0.0
4 H 54.391 7.259 25.341 H 0.0 **** 0.0
5 H 53.512 8.8 25.488 H 0.0 **** 0.0
@<TRIPOS>BOND
1 1 2 1
2 1 3 1
3 1 4 1
4 1 5 1
@<TRIPOS>MOLECULE
CH4
5 4
SMALL
USER_CHARGES


@<TRIPOS>ATOM
1 C 1.529 16.481 88.227 C 0.0 **** 0.0
2 H 1.533 16.508 89.317 H 0.0 **** 0.0
3 H 2.167 17.276 87.841 H 0.0 **** 0.0
4 H 0.511 16.623 87.865 H 0.0 **** 0.0
5 H 1.904 15.515 87.887 H 0.0 **** 0.0
@<TRIPOS>BOND
1 1 2 1
2 1 3 1
3 1 4 1
4 1 5 1
@<TRIPOS>MOLECULE
CH4
5 4
SMALL
USER_CHARGES


@<TRIPOS>ATOM
1 C 52.038 54.03 95.238 C 0.0 **** 0.0
2 H 52.035 54.027 94.148 H 0.0 **** 0.0
3 H 51.026 54.211 95.603 H 0.0 **** 0.0
4 H 52.7 54.817 95.597 H 0.0 **** 0.0
5 H 52.389 53.065 95.603 H 0.0 **** 0.0
@<TRIPOS>BOND
1 1 4 1
2 1 2 1
3 1 3 1
4 1 5 1
@<TRIPOS>MOLECULE
CH4
5 4
SMALL
USER_CHARGES


@<TRIPOS>ATOM
1 C 53.708 37.513 42.0 C 0.0 **** 0.0
2 H 54.176 37.688 41.031 H 0.0 **** 0.0
3 H 54.158 36.637 42.468 H 0.0 **** 0.0
4 H 52.64 37.344 41.862 H 0.0 **** 0.0
5 H 53.859 38.384 42.638 H 0.0 **** 0.0
@<TRIPOS>BOND
1 1 2 1
2 1 3 1
3 1 4 1
4 1 5 1
@<TRIPOS>MOLECULE
CH4
5 4
SMALL
USER_CHARGES


@<TRIPOS>ATOM
1 C 25.314 27.981 94.729 C 0.0 **** 0.0
2 H 24.726 27.815 95.632 H 0.0 **** 0.0
3 H 24.706 27.751 93.854 H 0.0 **** 0.0
4 H 26.191 27.334 94.743 H 0.0 **** 0.0
5 H 25.631 29.023 94.689 H 0.0 **** 0.0
@<TRIPOS>BOND
1 1 2 1
2 1 3 1
3 1 4 1
4 1 5 1
@<TRIPOS>MOLECULE
CH4
5 4
SMALL
USER_CHARGES


@<TRIPOS>ATOM
1 C 45.656 14.153 44.814 C 0.0 **** 0.0
2 H 44.601 14.013 44.582 H 0.0 **** 0.0
3 H 45.804 15.142 45.249 H 0.0 **** 0.0
4 H 46.244 14.067 43.9 H 0.0 **** 0.0
5 H 45.976 13.391 45.524 H 0.0 **** 0.0
@<TRIPOS>BOND
1 1 2 1
2 1 3 1
3 1 4 1
4 1 5 1
@<TRIPOS>MOLECULE
CH4
5 4
SMALL
USER_CHARGES


@<TRIPOS>ATOM
1 C 12.242 30.42 34.934 C 0.0 **** 0.0
2 H 12.602 29.755 35.718 H 0.0 **** 0.0
3 H 12.646 31.42 35.092 H 0.0 **** 0.0
4 H 11.153 30.459 34.964 H 0.0 **** 0.0
5 H 12.566 30.046 33.963 H 0.0 **** 0.0
@<TRIPOS>BOND
1 1 2 1
2 1 3 1
3 1 4 1
4 1 5 1
@<TRIPOS>MOLECULE
CH4
5 4
SMALL
USER_CHARGES


@<TRIPOS>ATOM
1 C 75.994 80.442 66.713 C 0.0 **** 0.0
2 H 75.012 80.049 66.45 H 0.0 **** 0.0
3 H 76.426 79.836 67.51 H 0.0 **** 0.0
4 H 75.893 81.473 67.053 H 0.0 **** 0.0
5 H 76.644 80.41 65.838 H 0.0 **** 0.0
@<TRIPOS>BOND
1 1 2 1
2 1 3 1
3 1 4 1
4 1 5 1
@<TRIPOS>MOLECULE
CH4
5 4
SMALL
USER_CHARGES


@<TRIPOS>ATOM
1 C 39.929 44.744 63.964 C 0.0 **** 0.0
2 H 39.685 44.25 64.905 H 0.0 **** 0.0
3 H 39.214 44.441 63.199 H 0.0 **** 0.0
4 H 40.935 44.458 63.655 H 0.0 **** 0.0
5 H 39.883 45.824 64.098 H 0.0 **** 0.0
@<TRIPOS>BOND
1 1 2 1
2 1 3 1
3 1 4 1
4 1 5 1
@<TRIPOS>MOLECULE
CH4
5 4
SMALL
USER_CHARGES


@<TRIPOS>ATOM
1 C 37.818 86.374 17.866 C 0.0 **** 0.0
2 H 37.006 87.077 18.049 H 0.0 **** 0.0
3 H 38.743 86.771 18.285 H 0.0 **** 0.0
4 H 37.938 86.228 16.793 H 0.0 **** 0.0
5 H 37.585 85.42 18.339 H 0.0 **** 0.0
@<TRIPOS>BOND
1 1 2 1
2 1 3 1
3 1 4 1
4 1 5 1
@<TRIPOS>MOLECULE
CH4
5 4
SMALL
USER_CHARGES


@<TRIPOS>ATOM
1 C 70.038 9.021 81.372 C 0.0 **** 0.0
2 H 70.068 9.033 82.461 H 0.0 **** 0.0
3 H 70.283 10.012 80.991 H 0.0 **** 0.0
4 H 69.038 8.741 81.04 H 0.0 **** 0.0
5 H 70.761 8.297 80.996 H 0.0 **** 0.0
@<TRIPOS>BOND
1 1 2 1
2 1 3 1
3 1 4 1
4 1 5 1
@<TRIPOS>MOLECULE
CH4
5 4
SMALL
USER_CHARGES


@<TRIPOS>ATOM
1 C 86.093 92.612 6.578 C 0.0 **** 0.0
2 H 85.687 91.801 7.182 H 0.0 **** 0.0
3 H 85.95 93.559 7.098 H 0.0 **** 0.0
4 H 85.578 92.643 5.618 H 0.0 **** 0.0
5 H 87.158 92.444 6.414 H 0.0 **** 0.0
@<TRIPOS>BOND
1 1 2 1
2 1 3 1
3 1 4 1
4 1 5 1
@<TRIPOS>MOLECULE
CH4
5 4
SMALL
USER_CHARGES


@<TRIPOS>ATOM
1 C 4.605 36.488 90.871 C 0.0 **** 0.0
2 H 4.494 37.303 91.586 H 0.0 **** 0.0
3 H 3.802 35.766 91.016 H 0.0 **** 0.0
4 H 5.567 35.998 91.025 H 0.0 **** 0.0
5 H 4.558 36.886 89.857 H 0.0 **** 0.0
@<TRIPOS>BOND
1 1 2 1
2 1 3 1
3 1 4 1
4 1 5 1
@<TRIPOS>MOLECULE
CH4
5 4
SMALL
USER_CHARGES


@<TRIPOS>ATOM
1 C 19.032 29.051 41.891 C 0.0 **** 0.0
2 H 18.033 29.394 41.623 H 0.0 **** 0.0
3 H 19.704 29.194 41.044 H 0.0 **** 0.0
4 H 18.995 27.993 42.152 H 0.0 **** 0.0
5 H 19.396 29.623 42.745 H 0.0 **** 0.0
@<TRIPOS>BOND
1 1 2 1
2 1 3 1
3 1 4 1
4 1 5 1
@<TRIPOS>MOLECULE
CH4
5 4
SMALL
USER_CHARGES


@<TRIPOS>ATOM
1 C 80.221 36.335 55.666 C 0.0 **** 0.0
2 H 80.532 36.17 56.697 H 0.0 **** 0.0
3 H 80.343 35.413 55.098 H 0.0 **** 0.0
4 H 80.835 37.12 55.223 H 0.0 **** 0.0
5 H 79.174 36.639 55.647 H 0.0 **** 0.0
@<TRIPOS>BOND
1 1 2 1
2 1 3 1
3 1 4 1
4 1 5 1
@<TRIPOS>MOLECULE
CH4
5 4
SMALL
USER_CHARGES


@<TRIPOS>ATOM
1 C 45.218 9.238 62.385 C 0.0 **** 0.0
2 H 45.391 9.602 61.372 H 0.0 **** 0.0
3 H 44.689 8.286 62.344 H 0.0 **** 0.0
4 H 44.619 9.964 62.935 H 0.0 **** 0.0
5 H 46.175 9.101 62.889 H 0.0 **** 0.0
@<TRIPOS>BOND
1 1 2 1
2 1 3 1
3 1 4 1
4 1 5 1
@<TRIPOS>MOLECULE
CH4
5 4
SMALL
USER_CHARGES


@<TRIPOS>ATOM
1 C 78.973 60.175 18.72 C 0.0 **** 0.0
2 H 79.972 59.746 18.803 H 0.0 **** 0.0
3 H 78.23 59.41 18.944 H 0.0 **** 0.0
4 H 78.821 60.545 17.706 H 0.0 **** 0.0
5 H 78.872 60.999 19.426 H 0.0 **** 0.0
@<TRIPOS>BOND
1 1 2 1
2 1 3 1
3 1 4 1
4 1 5 1
@<TRIPOS>MOLECULE
CH4
5 4
SMALL
USER_CHARGES


@<TRIPOS>ATOM
1 C 56.16 83.559 93.638 C 0.0 **** 0.0
2 H 55.501 84.01 94.379 H 0.0 **** 0.0
3 H 55.671 82.691 93.196 H 0.0 **** 0.0
4 H 57.088 83.249 94.117 H 0.0 **** 0.0
5 H 56.38 84.288 92.857 H 0.0 **** 0.0
@<TRIPOS>BOND
1 1 2 1
2 1 3 1
3 1 4 1
4 1 5 1
@<TRIPOS>MOLECULE
CH4
5 4
SMALL
USER_CHARGES


@<TRIPOS>ATOM
1 C 74.454 23.908 13.934 C 0.0 **** 0.0
2 H 74.303 23.129 14.681 H 0.0 **** 0.0
3 H 75.486 23.881 13.584 H 0.0 **** 0.0
4 H 74.246 24.882 14.379 H 0.0 **** 0.0
5 H 73.78 23.741 13.094 H 0.0 **** 0.0
@<TRIPOS>BOND
1 1 2 1
2 1 3 1
3 1 4 1
4 1 5 1
@<TRIPOS>MOLECULE
CH4
5 4
SMALL
USER_CHARGES


@<TRIPOS>ATOM
1 C 84.302 56.129 55.774 C 0.0 **** 0.0
2 H 83.408 56.753 55.781 H 0.0 **** 0.0
3 H 84.773 56.159 56.757 H 0.0 **** 0.0
4 H 84.999 56.503 55.024 H 0.0 **** 0.0
5 H 84.026 55.102 55.534 H 0.0 **** 0.0
@<TRIPOS>BOND
1 1 2 1
2 1 3 1
3 1 4 1
4 1 5 1
@<TRIPOS>MOLECULE
CH4
5 4
SMALL
USER_CHARGES


@<TRIPOS>ATOM
1 C 54.987 93.381 7.686 C 0.0 **** 0.0
2 H 55.149 92.305 7.746 H 0.0 **** 0.0
3 H 54.448 93.617 6.768 H 0.0 **** 0.0
4 H 55.948 93.894 7.686 H 0.0 **** 0.0
5 H 54.401 93.708 8.545 H 0.0 **** 0.0
@<TRIPOS>BOND
1 1 2 1
2 1 3 1
3 1 4 1
4 1 5 1
@<TRIPOS>MOLECULE
CH4
5 4
SMALL
USER_CHARGES


@<TRIPOS>ATOM
1 C 35.112 27.675 24.467 C 0.0 **** 0.0
2 H 35.692 28.364 25.081 H 0.0 **** 0.0
3 H 35.687 27.407 23.581 H 0.0 **** 0.0
4 H 34.181 28.155 24.164 H 0.0 **** 0.0
5 H 34.888 26.777 25.041 H 0.0 **** 0.0
@<TRIPOS>BOND
1 1 2 1
2 1 3 1
3 1 4 1
4 1 5 1
@<TRIPOS>MOLECULE
CH4
5 4
SMALL
USER_CHARGES


@<TRIPOS>ATOM
1 C 41.47 49.717 37.322 C 0.0 **** 0.0
2 H 41.123 48.707 37.104 H 0.0 **** 0.0
3 H 41.789 50.199 36.397 H 0.0 **** 0.0
4 H 42.309 49.671 38.016 H 0.0 **** 0.0
5 H 40.658 50.291 37.769 H 0.0 **** 0.0
@<TRIPOS>BOND
1 1 2 1
2 1 3 1
3 1 4 1
4 1 5 1
@<TRIPOS>MOLECULE
CH4
5 4
SMALL
USER_CHARGES


@<TRIPOS>ATOM
1 C 8.228 17.189 51.335 C 0.0 **** 0.0
2 H 8.301 16.738 52.325 H 0.0 **** 0.0
3 H 8.534 18.234 51.388 H 0.0 **** 0.0
4 H 7.198 17.128 50.984 H 0.0 **** 0.0
5 H 8.88 16.654 50.644 H 0.0 **** 0.0
@<TRIPOS>BOND
1 1 2 1
2 1 3 1
3 1 4 1
4 1 5 1
@<TRIPOS>MOLECULE
CH4
5 4
SMALL
USER_CHARGES


@<TRIPOS>ATOM
1 C 78.263 41.488 29.736 C 0.0 **** 0.0
2 H 79.127 41.868 30.281 H 0.0 **** 0.0
3 H 78.455 41.549 28.664 H 0.0 **** 0.0
4 H 77.387 42.087 29.983 H 0.0 **** 0.0
5 H 78.084 40.45 30.015 H 0.0 **** 0.0
@<TRIPOS>BOND
1 1 2 1
2 1 3 1
3 1 4 1
4 1 5 1
@<TRIPOS>MOLECULE
CH4
5 4
SMALL
USER_CHARGES


@<TRIPOS>ATOM
1 C 84.766 78.973 12.935 C 0.0 **** 0.0
2 H 84.599 79.133 11.87 H 0.0 **** 0.0
3 H 85.272 79.841 13.357 H 0.0 **** 0.0
4 H 85.385 78.087 13.076 H 0.0 **** 0.0
5 H 83.808 78.83 13.436 H 0.0 **** 0.0
@<TRIPOS>BOND
1 1 2 1
2 1 3 1
3 1 4 1
4 1 5 1
@<TRIPOS>MOLECULE
CH4
5 4
SMALL
USER_CHARGES


@<TRIPOS>ATOM
1 C 8.961 97.177 20.906 C 0.0 **** 0.0
2 H 9.266 97.285 21.946 H 0.0 **** 0.0
3 H 9.837 96.977 20.289 H 0.0 **** 0.0
4 H 8.481 98.097 20.57 H 0.0 **** 0.0
5 H 8.258 96.348 20.818 H 0.0 **** 0.0
@<TRIPOS>BOND
1 1 2 1
2 1 3 1
3 1 4 1
4 1 5 1
@<TRIPOS>MOLECULE
CH4
5 4
SMALL
USER_CHARGES


@<TRIPOS>ATOM
1 C 14.503 8.309 6.067 C 0.0 **** 0.0
2 H 14.611 7.281 5.719 H 0.0 **** 0.0
3 H 15.342 8.562 6.715 H 0.0 **** 0.0
4 H 13.571 8.408 6.622 H 0.0 **** 0.0
5 H 14.489 8.983 5.21 H 0.0 **** 0.0
@<TRIPOS>BOND
1 1 2 1
2 1 3 1
3 1 4 1
4 1 5 1
@<TRIPOS>MOLECULE
CH4
5 4
SMALL
USER_CHARGES


@<TRIPOS>ATOM
1 C 74.865 59.529 92.765 C 0.0 **** 0.0
2 H 74.932 58.465 92.538 H 0.0 **** 0.0
3 H 74.203 59.676 93.618 H 0.0 **** 0.0
4 H 74.468 60.06 91.9 H 0.0 **** 0.0
5 H 75.857 59.912 93.003 H 0.0 **** 0.0
@<TRIPOS>BOND
1 1 2 1
2 1 3 1
3 1 4 1
4 1 5 1
@<TRIPOS>MOLECULE
CH4
5 4
SMALL
USER_CHARGES


@<TRIPOS>ATOM
1 C 60.409 64.548 68.944 C 0.0 **** 0.0
2 H 60.12 64.09 69.89 H 0.0 **** 0.0
3 H 59.589 65.163 68.572 H 0.0 **** 0.0
4 H 60.636 63.767 68.217 H 0.0 **** 0.0
5 H 61.291 65.17 69.096 H 0.0 **** 0.0
@<TRIPOS>BOND
1 1 2 1
2 1 3 1
3 1 4 1
4 1 5 1
@<TRIPOS>MOLECULE
CH4
5 4
SMALL
USER_CHARGES


@<TRIPOS>ATOM
1 C 87.776 84.985 65.239 C 0.0 **** 0.0
2 H 87.769 83.897 65.174 H 0.0 **** 0.0
3 H 88.298 85.291 66.146 H 0.0 **** 0.0
4 H 86.75 85.353 65.268 H 0.0 **** 0.0
5 H 88.286 85.397 64.368 H 0.0 **** 0.0
@<TRIPOS>BOND
1 1 2 1
2 1 3 1
3 1 4 1
4 1 5 1
@<TRIPOS>MOLECULE
CH4
5 4
SMALL
USER_CHARGES


@<TRIPOS>ATOM
1 C 26.317 87.408 96.271 C 0.0 **** 0.0
2 H 26.307 87.477 97.359 H 0.0 **** 0.0
3 H 26.564 86.388 95.974 H 0.0 **** 0.0
4 H 27.064 88.094 95.871 H 0.0 **** 0.0
5 H 25.335 87.673 95.881 H 0.0 **** 0.0
@<TRIPOS>BOND
1 1 2 1
2 1 3 1
3 1 4 1
4 1 5 1
@<TRIPOS>MOLECULE
CH4
5 4
SMALL
USER_CHARGES


@<TRIPOS>ATOM
1 C 8.114 72.725 3.027 C 0.0 **** 0.0
2 H 8.587 73.412 2.326 H 0.0 **** 0.0
3 H 7.934 71.77 2.534 H 0.0 **** 0.0
4 H 7.166 73.145 3.363 H 0.0 **** 0.0
5 H 8.769 72.574 3.885 H 0.0 **** 0.0
@<TRIPOS>BOND
1 1 2 1
2 1 3 1
3 1 4 1
4 1 5 1
@<TRIPOS>MOLECULE
CH4
5 4
SMALL
USER_CHARGES


@<TRIPOS>ATOM
1 C 92.616 87.797 4.411 C 0.0 **** 0.0
2 H 92.571 87.933 3.33 H 0.0 **** 0.0
3 H 91.619 87.571 4.789 H 0.0 **** 0.0
4 H 92.983 88.712 4.877 H 0.0 **** 0.0
5 H 93.29 86.974 4.645 H 0.0 **** 0.0
@<TRIPOS>BOND
1 1 2 1
2 1 3 1
3 1 4 1
4 1 5 1
@<TRIPOS>MOLECULE
CH4
5 4
SMALL
USER_CHARGES


@<TRIPOS>ATOM
1 C 17.435 21.322 42.61 C 0.0 **** 0.0
2 H 18.43 20.944 42.375 H 0.0 **** 0.0
3 H 16.907 20.594 43.227 H 0.0 **** 0.0
4 H 16.881 21.485 41.686 H 0.0 **** 0.0
5 H 17.523 22.263 43.153 H 0.0 **** 0.0
@<TRIPOS>BOND
1 1 2 1
2 1 3 1
3 1 4 1
4 1 5 1
@<TRIPOS>MOLECULE
CH4
5 4
SMALL
USER_CHARGES


@<TRIPOS>ATOM
1 C 46.979 62.334 23.744 C 0.0 **** 0.0
2 H 47.27 62.663 24.742 H 0.0 **** 0.0
3 H 46.262 61.517 23.826 H 0.0 **** 0.0
4 H 47.861 61.992 23.203 H 0.0 **** 0.0
5 H 46.523 63.166 23.207 H 0.0 **** 0.0
@<TRIPOS>BOND
1 1 2 1
2 1 3 1
3 1 4 1
4 1 5 1
@<TRIPOS>MOLECULE
CH4
5 4
SMALL
USER_CHARGES


@<TRIPOS>ATOM
1 C 58.72 17.985 80.592 C 0.0 **** 0.0
2 H 57.826 17.379 80.445 H 0.0 **** 0.0
3 H 59.235 18.11 79.639 H 0.0 **** 0.0
4 H 59.382 17.489 81.302 H 0.0 **** 0.0
5 H 58.435 18.962 80.982 H 0.0 **** 0.0
@<TRIPOS>BOND
1 1 5 1
2 1 2 1
3 1 3 1
4 1 4 1
@<TRIPOS>MOLECULE
CH4
5 4
SMALL
USER_CHARGES


@<TRIPOS>ATOM
1 C 7.056 9.115 45.262 C 0.0 **** 0.0
2 H 6.883 9.186 44.188 H 0.0 **** 0.0
3 H 6.183 9.49 45.796 H 0.0 **** 0.0
4 H 7.93 9.71 45.529 H 0.0 **** 0.0
5 H 7.229 8.073 45.533 H 0.0 **** 0.0
@<TRIPOS>BOND
1 1 2 1
2 1 3 1
3 1 4 1
4 1 5 1
@<TRIPOS>MOLECULE
CH4
5 4
SMALL
USER_CHARGES


@<TRIPOS>ATOM
1 C 24.625 79.456 94.892 C 0.0 **** 0.0
2 H 24.802 79.77 93.863 H 0.0 **** 0.0
3 H 24.551 80.336 95.531 H 0.0 **** 0.0
4 H 25.452 78.831 95.228 H 0.0 **** 0.0
5 H 23.696 78.889 94.944 H 0.0 **** 0.0
@<TRIPOS>BOND
1 1 2 1
2 1 3 1
3 1 4 1
4 1 5 1
@<TRIPOS>MOLECULE
CH4
5 4
SMALL
USER_CHARGES


@<TRIPOS>ATOM
1 C 5.443 58.122 94.179 C 0.0 **** 0.0
2 H 4.869 58.238 95.099 H 0.0 **** 0.0
3 H 4.881 57.506 93.477 H 0.0 **** 0.0
4 H 6.396 57.643 94.403 H 0.0 **** 0.0
5 H 5.624 59.103 93.738 H 0.0 **** 0.0
@<TRIPOS>BOND
1 1 2 1
2 1 3 1
3 1 4 1
4 1 5 1
@<TRIPOS>MOLECULE
CH4
5 4
SMALL
USER_CHARGES


@<TRIPOS>ATOM
1 C 43.097 3.497 62.009 C 0.0 **** 0.0
2 H 42.515 4.127 62.681 H 0.0 **** 0.0
3 H 42.502 2.632 61.715 H 0.0 **** 0.0
4 H 44.001 3.161 62.518 H 0.0 **** 0.0
5 H 43.371 4.068 61.122 H 0.0 **** 0.0
@<TRIPOS>BOND
1 1 2 1
2 1 3 1
3 1 4 1
4 1 5 1
@<TRIPOS>MOLECULE
CH4
5 4
SMALL
USER_CHARGES


@<TRIPOS>ATOM
1 C 91.39 41.315 28.469 C 0.0 **** 0.0
2 H 90.426 41.34 28.978 H 0.0 **** 0.0
3 H 91.583 42.286 28.013 H 0.0 **** 0.0
4 H 91.373 40.547 27.697 H 0.0 **** 0.0
5 H 92.176 41.089 29.19 H 0.0 **** 0.0
@<TRIPOS>BOND
1 1 2 1
2 1 3 1
3 1 4 1
4 1 5 1
@<TRIPOS>MOLECULE
CH4
5 4
SMALL
USER_CHARGES


@<TRIPOS>ATOM
1 C 36.595 46.092 32.234 C 0.0 **** 0.0
2 H 36.669 45.949 33.312 H 0.0 **** 0.0
3 H 35.545 46.106 31.941 H 0.0 **** 0.0
4 H 37.103 45.274 31.723 H 0.0 **** 0.0
5 H 37.062 47.038 31.96 H 0.0 **** 0.0
@<TRIPOS>BOND
1 1 2 1
2 1 3 1
3 1 4 1
4 1 5 1
@<TRIPOS>MOLECULE
CH4
5 4
SMALL
USER_CHARGES


@<TRIPOS>ATOM
1 C 7.855 20.739 43.152 C 0.0 **** 0.0
2 H 8.413 20.905 44.073 H 0.0 **** 0.0
3 H 8.428 20.086 42.493 H 0.0 **** 0.0
4 H 7.681 21.694 42.656 H 0.0 **** 0.0
5 H 6.898 20.272 43.386 H 0.0 **** 0.0
@<TRIPOS>BOND
1 1 2 1
2 1 3 1
3 1 4 1
4 1 5 1
@<TRIPOS>MOLECULE
CH4
5 4
SMALL
USER_CHARGES


@<TRIPOS>ATOM
1 C 77.027 12.899 87.737 C 0.0 **** 0.0
2 H 76.429 12.096 88.167 H 0.0 **** 0.0
3 H 77.73 13.269 88.485 H 0.0 **** 0.0
4 H 76.372 13.711 87.421 H 0.0 **** 0.0
5 H 77.578 12.521 86.876 H 0.0 **** 0.0
@<TRIPOS>BOND
1 1 2 1
2 1 3 1
3 1 4 1
4 1 5 1
@<TRIPOS>MOLECULE
CH4
5 4
SMALL
USER_CHARGES


@<TRIPOS>ATOM
1 C 40.719 48.891 71.168 C 0.0 **** 0.0
2 H 41.78 48.666 71.062 H 0.0 **** 0.0
3 H 40.167 48.434 70.347 H 0.0 **** 0.0
4 H 40.573 49.971 71.147 H 0.0 **** 0.0
5 H 40.356 48.494 72.116 H 0.0 **** 0.0
@<TRIPOS>BOND
1 1 2 1
2 1 3 1
3 1 4 1
4 1 5 1
@<TRIPOS>MOLECULE
CH4
5 4
SMALL
USER_CHARGES


@<TRIPOS>ATOM
1 C 19.004 41.318 52.899 C 0.0 **** 0.0
2 H 19.189 41.221 51.829 H 0.0 **** 0.0
3 H 18.762 42.355 53.133 H 0.0 **** 0.0
4 H 19.895 41.018 53.451 H 0.0 **** 0.0
5 H 18.169 40.677 53.182 H 0.0 **** 0.0
@<TRIPOS>BOND
1 1 2 1
2 1 3 1
3 1 4 1
4 1 5 1
@<TRIPOS>MOLECULE
CH4
5 4
SMALL
USER_CHARGES


@<TRIPOS>ATOM
1 C 20.612 92.592 83.896 C 0.0 **** 0.0
2 H 21.259 93.463 83.791 H 0.0 **** 0.0
3 H 21.141 91.704 83.549 H 0.0 **** 0.0
4 H 19.711 92.735 83.301 H 0.0 **** 0.0
5 H 20.34 92.466 84.944 H 0.0 **** 0.0
@<TRIPOS>BOND
1 1 2 1
2 1 3 1
3 1 4 1
4 1 5 1
@<TRIPOS>MOLECULE
CH4
5 4
SMALL
USER_CHARGES


@<TRIPOS>ATOM
1 C 91.814 64.301 80.405 C 0.0 **** 0.0
2 H 91.495 64.426 79.37 H 0.0 **** 0.0
3 H 91.179 64.902 81.056 H 0.0 **** 0.0
4 H 92.85 64.626 80.507 H 0.0 **** 0.0
5 H 91.734 63.251 80.685 H 0.0 **** 0.0
@<TRIPOS>BOND
1 1 2 1
2 1 3 1
3 1 4 1
4 1 5 1
@<TRIPOS>MOLECULE
CH4
5 4
SMALL
USER_CHARGES


@<TRIPOS>ATOM
1 C 80.473 75.461 43.64 C 0.0 **** 0.0
2 H 80.4 75.537 44.725 H 0.0 **** 0.0
3 H 81.419 75.89 43.309 H 0.0 **** 0.0
4 H 79.647 76.004 43.181 H 0.0 **** 0.0
5 H 80.426 74.412 43.346 H 0.0 **** 0.0
@<TRIPOS>BOND
1 1 2 1
2 1 3 1
3 1 4 1
4 1 5 1
@<TRIPOS>MOLECULE
CH4
5 4
SMALL
USER_CHARGES


@<TRIPOS>ATOM
1 C 1.831 77.589 92.092 C 0.0 **** 0.0
2 H 1.907 77.558 93.179 H 0.0 **** 0.0
3 H 2.686 77.075 91.653 H 0.0 **** 0.0
4 H 1.821 78.627 91.758 H 0.0 **** 0.0
5 H 0.91 77.098 91.778 H 0.0 **** 0.0
@<TRIPOS>BOND
1 1 2 1
2 1 3 1
3 1 4 1
4 1 5 1
@<TRIPOS>MOLECULE
CH4
5 4
SMALL
USER_CHARGES


@<TRIPOS>ATOM
1 C 3.458 45.261 34.7 C 0.0 **** 0.0
2 H 3.765 44.795 33.764 H 0.0 **** 0.0
3 H 2.369 45.261 34.766 H 0.0 **** 0.0
4 H 3.824 46.287 34.731 H 0.0 **** 0.0
5 H 3.873 44.701 35.538 H 0.0 **** 0.0
@<TRIPOS>BOND
1 1 2 1
2 1 3 1
3 1 4 1
4 1 5 1
@<TRIPOS>MOLECULE
CH4
5 4
SMALL
USER_CHARGES


@<TRIPOS>ATOM
1 C 35.242 82.008 59.655 C 0.0 **** 0.0
2 H 35.24 82.312 58.609 H 0.0 **** 0.0
3 H 34.215 81.947 60.017 H 0.0 **** 0.0
4 H 35.793 82.74 60.245 H 0.0 **** 0.0
5 H 35.718 81.032 59.75 H 0.0 **** 0.0
@<TRIPOS>BOND
1 1 2 1
2 1 3 1
3 1 4 1
4 1 5 1
@<TRIPOS>MOLECULE
CH4
5 4
SMALL
USER_CHARGES


@<TRIPOS>ATOM
1 C 3.164 69.367 40.631 C 0.0 **** 0.0
2 H 3.371 70.322 40.15 H 0.0 **** 0.0
3 H 3.252 69.478 41.712 H 0.0 **** 0.0
4 H 3.88 68.622 40.283 H 0.0 **** 0.0
5 H 2.154 69.045 40.38 H 0.0 **** 0.0
@<TRIPOS>BOND
1 1 4 1
2 1 5 1
3 1 2 1
4 1 3 1
@<TRIPOS>MOLECULE
CH4
5 4
SMALL
USER_CHARGES


@<TRIPOS>ATOM
1 C 92.677 4.856 33.466 C 0.0 **** 0.0
2 H 92.051 4.955 32.579 H 0.0 **** 0.0
3 H 93.422 4.077 33.298 H 0.0 **** 0.0
4 H 92.056 4.588 34.321 H 0.0 **** 0.0
5 H 93.179 5.803 33.663 H 0.0 **** 0.0
@<TRIPOS>BOND
1 1 2 1
2 1 3 1
3 1 4 1
4 1 5 1
@<TRIPOS>MOLECULE
CH4
5 4
SMALL
USER_CHARGES


@<TRIPOS>ATOM
1 C 5.494 27.129 37.471 C 0.0 **** 0.0
2 H 5.56 26.939 38.542 H 0.0 **** 0.0
3 H 4.535 27.595 37.243 H 0.0 **** 0.0
4 H 5.578 26.186 36.929 H 0.0 **** 0.0
5 H 6.302 27.794 37.169 H 0.0 **** 0.0
@<TRIPOS>BOND
1 1 2 1
2 1 3 1
3 1 4 1
4 1 5 1
@<TRIPOS>MOLECULE
CH4
5 4
SMALL
USER_CHARGES


@<TRIPOS>ATOM
1 C 65.282 32.039 26.143 C 0.0 **** 0.0
2 H 65.995 31.887 26.953 H 0.0 **** 0.0
3 H 65.772 31.851 25.188 H 0.0 **** 0.0
4 H 64.916 33.065 26.169 H 0.0 **** 0.0
5 H 64.444 31.351 26.263 H 0.0 **** 0.0
@<TRIPOS>BOND
1 1 2 1
2 1 3 1
3 1 4 1
4 1 5 1
@<TRIPOS>MOLECULE
CH4
5 4
SMALL
USER_CHARGES


@<TRIPOS>ATOM
1 C 56.233 14.253 72.99 C 0.0 **** 0.0
2 H 56.37 13.436 72.282 H 0.0 **** 0.0
3 H 55.18 14.324 73.263 H 0.0 **** 0.0
4 H 56.555 15.188 72.531 H 0.0 **** 0.0
5 H 56.829 14.063 73.883 H 0.0 **** 0.0
@<TRIPOS>BOND
1 1 2 1
2 1 3 1
3 1 4 1
4 1 5 1
@<TRIPOS>MOLECULE
CH4
5 4
SMALL
USER_CHARGES


@<TRIPOS>ATOM
1 C 34.024 19.232 30.979 C 0.0 **** 0.0
2 H 34.667 20.086 31.192 H 0.0 **** 0.0
3 H 34.122 18.957 29.929 H 0.0 **** 0.0
4 H 32.988 19.495 31.19 H 0.0 **** 0.0
5 H 34.32 18.39 31.605 H 0.0 **** 0.0
@<TRIPOS>BOND
1 1 2 1
2 1 3 1
3 1 4 1
4 1 5 1
@<TRIPOS>MOLECULE
CH4
5 4
SMALL
USER_CHARGES


@<TRIPOS>ATOM
1 C 70.663 71.732 35.184 C 0.0 **** 0.0
2 H 70.639 71.441 36.234 H 0.0 **** 0.0
3 H 70.599 72.818 35.107 H 0.0 **** 0.0
4 H 69.82 71.28 34.663 H 0.0 **** 0.0
5 H 71.595 71.39 34.734 H 0.0 **** 0.0
@<TRIPOS>BOND
1 1 2 1
2 1 3 1
3 1 4 1
4 1 5 1
@<TRIPOS>MOLECULE
CH4
5 4
SMALL
USER_CHARGES


@<TRIPOS>ATOM
1 C 7.281 16.652 43.304 C 0.0 **** 0.0
2 H 6.967 16.939 44.308 H 0.0 **** 0.0
3 H 6.497 16.909 42.591 H 0.0 **** 0.0
4 H 7.462 15.578 43.274 H 0.0 **** 0.0
5 H 8.197 17.183 43.045 H 0.0 **** 0.0
@<TRIPOS>BOND
1 1 2 1
2 1 3 1
3 1 4 1
4 1 5 1
@<TRIPOS>MOLECULE
CH4
5 4
SMALL
USER_CHARGES


@<TRIPOS>ATOM
1 C 20.856 83.41 85.623 C 0.0 **** 0.0
2 H 21.269 83.065 84.675 H 0.0 **** 0.0
3 H 20.101 82.704 85.969 H 0.0 **** 0.0
4 H 20.401 84.391 85.484 H 0.0 **** 0.0
5 H 21.654 83.481 86.363 H 0.0 **** 0.0
@<TRIPOS>BOND
1 1 2 1
2 1 3 1
3 1 4 1
4 1 5 1
@<TRIPOS>MOLECULE
CH4
5 4
SMALL
USER_CHARGES


@<TRIPOS>ATOM
1 C 92.679 98.046 42.54 C 0.0 **** 0.0
2 H 92.022 98.699 41.965 H 0.0 **** 0.0
3 H 93.702 98.417 42.48 H 0.0 **** 0.0
4 H 92.633 97.036 42.134 H 0.0 **** 0.0
5 H 92.357 98.034 43.582 H 0.0 **** 0.0
@<TRIPOS>BOND
1 1 2 1
2 1 3 1
3 1 4 1
4 1 5 1
@<TRIPOS>MOLECULE
CH4
5 4
SMALL
USER_CHARGES


@<TRIPOS>ATOM
1 C 71.04 67.793 69.458 C 0.0 **** 0.0
2 H 70.436 67.501 70.317 H 0.0 **** 0.0
3 H 71.598 66.928 69.096 H 0.0 **** 0.0
4 H 71.736 68.578 69.752 H 0.0 **** 0.0
5 H 70.389 68.162 68.665 H 0.0 **** 0.0
@<TRIPOS>BOND
1 1 2 1
2 1 3 1
3 1 4 1
4 1 5 1
@<TRIPOS>MOLECULE
CH4
5 4
SMALL
USER_CHARGES


@<TRIPOS>ATOM
1 C 71.015 37.545 80.626 C 0.0 **** 0.0
2 H 71.539 38.369 81.11 H 0.0 **** 0.0
3 H 71.655 37.11 79.857 H 0.0 **** 0.0
4 H 70.098 37.916 80.168 H 0.0 **** 0.0
5 H 70.77 36.785 81.368 H 0.0 **** 0.0
@<TRIPOS>BOND
1 1 2 1
2 1 3 1
3 1 4 1
4 1 5 1
@<TRIPOS>MOLECULE
CH4
5 4
SMALL
USER_CHARGES


@<TRIPOS>ATOM
1 C 98.083 54.458 96.609 C 0.0 **** 0.0
2 H 97.985 54.536 95.527 H 0.0 **** 0.0
3 H 98.732 55.254 96.974 H 0.0 **** 0.0
4 H 98.515 53.491 96.866 H 0.0 **** 0.0
5 H 97.1 54.55 97.07 H 0.0 **** 0.0
@<TRIPOS>BOND
1 1 2 1
2 1 3 1
3 1 4 1
4 1 5 1
@<TRIPOS>MOLECULE
CH4
5 4
SMALL
USER_CHARGES


@<TRIPOS>ATOM
1 C 33.856 46.957 53.626 C 0.0 **** 0.0
2 H 34.309 47.889 53.963 H 0.0 **** 0.0
3 H 32.778 46.999 53.783 H 0.0 **** 0.0
4 H 34.273 46.125 54.194 H 0.0 **** 0.0
5 H 34.065 46.814 52.566 H 0.0 **** 0.0
@<TRIPOS>BOND
1 1 2 1
2 1 3 1
3 1 4 1
4 1 5 1
@<TRIPOS>MOLECULE
CH4
5 4
SMALL
USER_CHARGES


@<TRIPOS>ATOM
1 C 8.609 58.577 92.856 C 0.0 **** 0.0
2 H 7.583 58.273 92.647 H 0.0 **** 0.0
3 H 8.872 59.424 92.221 H 0.0 **** 0.0
4 H 9.283 57.746 92.652 H 0.0 **** 0.0
5 H 8.695 58.867 93.903 H 0.0 **** 0.0
@<TRIPOS>BOND
1 1 2 1
2 1 3 1
3 1 4 1
4 1 5 1
@<TRIPOS>MOLECULE
CH4
5 4
SMALL
USER_CHARGES


@<TRIPOS>ATOM
1 C 50.243 13.901 17.707 C 0.0 **** 0.0
2 H 49.423 13.182 17.705 H 0.0 **** 0.0
3 H 50.212 14.489 16.79 H 0.0 **** 0.0
4 H 51.192 13.369 17.767 H 0.0 **** 0.0
5 H 50.142 14.563 18.567 H 0.0 **** 0.0
@<TRIPOS>BOND
1 1 2 1
2 1 3 1
3 1 4 1
4 1 5 1
@<TRIPOS>MOLECULE
CH4
5 4
SMALL
USER_CHARGES


@<TRIPOS>ATOM
1 C 54.205 33.624 69.222 C 0.0 **** 0.0
2 H 53.928 32.777 68.595 H 0.0 **** 0.0
3 H 54.308 33.291 70.256 H 0.0 **** 0.0
4 H 53.432 34.389 69.162 H 0.0 **** 0.0
5 H 55.153 34.037 68.877 H 0.0 **** 0.0
@<TRIPOS>BOND
1 1 2 1
2 1 3 1
3 1 4 1
4 1 5 1
@<TRIPOS>MOLECULE
CH4
5 4
SMALL
USER_CHARGES


@<TRIPOS>ATOM
1 C 44.795 21.163 43.751 C 0.0 **** 0.0
2 H 44.15 21.175 42.873 H 0.0 **** 0.0
3 H 45.179 22.167 43.932 H 0.0 **** 0.0
4 H 45.628 20.481 43.58 H 0.0 **** 0.0
5 H 44.224 20.83 44.617 H 0.0 **** 0.0
@<TRIPOS>BOND
1 1 2 1
2 1 3 1
3 1 4 1
4 1 5 1
@<TRIPOS>MOLECULE
CH4
5 4
SMALL
USER_CHARGES


@<TRIPOS>ATOM
1 C 20.312 30.837 21.796 C 0.0 **** 0.0
2 H 21.004 31.195 21.033 H 0.0 **** 0.0
3 H 19.784 31.685 22.233 H 0.0 **** 0.0
4 H 20.869 30.315 22.574 H 0.0 **** 0.0
5 H 19.593 30.155 21.342 H 0.0 **** 0.0
@<TRIPOS>BOND
1 1 2 1
2 1 3 1
3 1 4 1
4 1 5 1
@<TRIPOS>MOLECULE
CH4
5 4
SMALL
USER_CHARGES


@<TRIPOS>ATOM
1 C 41.806 49.776 13.621 C 0.0 **** 0.0
2 H 41.255 50.691 13.403 H 0.0 **** 0.0
3 H 41.749 49.105 12.763 H 0.0 **** 0.0
4 H 41.369 49.289 14.493 H 0.0 **** 0.0
5 H 42.848 50.02 13.824 H 0.0 **** 0.0
@<TRIPOS>BOND
1 1 2 1
2 1 3 1
3 1 4 1
4 1 5 1
@<TRIPOS>MOLECULE
CH4
5 4
SMALL
USER_CHARGES


@<TRIPOS>ATOM
1 C 90.832 45.318 56.341 C 0.0 **** 0.0
2 H 91.818 45.429 56.795 H 0.0 **** 0.0
3 H 90.754 44.334 55.879 H 0.0 **** 0.0
4 H 90.693 46.089 55.583 H 0.0 **** 0.0
5 H 90.066 45.421 57.109 H 0.0 **** 0.0
@<TRIPOS>BOND
1 1 2 1
2 1 3 1
3 1 4 1
4 1 5 1
@<TRIPOS>MOLECULE
CH4
5 4
SMALL
USER_CHARGES


@<TRIPOS>ATOM
1 C 1.411 11.938 57.338 C 0.0 **** 0.0
2 H 1.746 11.219 56.59 H 0.0 **** 0.0
3 H 1.801 11.653 58.315 H 0.0 **** 0.0
4 H 0.321 11.947 57.37 H 0.0 **** 0.0
5 H 1.776 12.931 57.076 H 0.0 **** 0.0
@<TRIPOS>BOND
1 1 2 1
2 1 3 1
3 1 4 1
4 1 5 1
@<TRIPOS>MOLECULE
CH4
5 4
SMALL
USER_CHARGES


@<TRIPOS>ATOM
1 C 33.275 69.151 43.737 C 0.0 **** 0.0
2 H 33.208 69.256 44.82 H 0.0 **** 0.0
3 H 34.279 69.419 43.408 H 0.0 **** 0.0
4 H 32.548 69.811 43.263 H 0.0 **** 0.0
5 H 33.064 68.118 43.459 H 0.0 **** 0.0
@<TRIPOS>BOND
1 1 2 1
2 1 3 1
3 1 4 1
4 1 5 1
@<TRIPOS>MOLECULE
CH4
5 4
SMALL
USER_CHARGES


@<TRIPOS>ATOM
1 C 18.121 97.705 74.165 C 0.0 **** 0.0
2 H 18.939 97.827 73.456 H 0.0 **** 0.0
3 H 17.809 98.683 74.533 H 0.0 **** 0.0
4 H 18.455 97.092 75.002 H 0.0 **** 0.0
5 H 17.28 97.218 73.671 H 0.0 **** 0.0
@<TRIPOS>BOND
1 1 2 1
2 1 3 1
3 1 4 1
4 1 5 1
@<TRIPOS>MOLECULE
CH4
5 4
SMALL
USER_CHARGES


@<TRIPOS>ATOM
1 C 97.561 55.67 11.09 C 0.0 **** 0.0
2 H 98.237 56.293 10.503 H 0.0 **** 0.0
3 H 97.294 56.191 12.01 H 0.0 **** 0.0
4 H 98.054 54.729 11.334 H 0.0 **** 0.0
5 H 96.659 55.469 10.511 H 0.0 **** 0.0
@<TRIPOS>BOND
1 1 2 1
2 1 3 1
3 1 4 1
4 1 5 1
@<TRIPOS>MOLECULE
CH4
5 4
SMALL
USER_CHARGES


@<TRIPOS>ATOM
1 C 40.556 22.622 83.266 C 0.0 **** 0.0
2 H 40.414 22.903 84.31 H 0.0 **** 0.0
3 H 40.647 21.539 83.191 H 0.0 **** 0.0
4 H 41.464 23.09 82.886 H 0.0 **** 0.0
5 H 39.701 22.958 82.68 H 0.0 **** 0.0
@<TRIPOS>BOND
1 1 2 1
2 1 3 1
3 1 4 1
4 1 5 1
@<TRIPOS>MOLECULE
CH4
5 4
SMALL
USER_CHARGES


@<TRIPOS>ATOM
1 C 75.129 66.086 52.639 C 0.0 **** 0.0
2 H 74.71 65.677 51.719 H 0.0 **** 0.0
3 H 75.399 65.27 53.309 H 0.0 **** 0.0
4 H 74.389 66.723 53.123 H 0.0 **** 0.0
5 H 76.017 66.673 52.404 H 0.0 **** 0.0
@<TRIPOS>BOND
1 1 2 1
2 1 3 1
3 1 4 1
4 1 5 1
@<TRIPOS>MOLECULE
CH4
5 4
SMALL
USER_CHARGES


@<TRIPOS>ATOM
1 C 45.845 21.037 85.85 C 0.0 **** 0.0
2 H 46.246 20.869 86.85 H 0.0 **** 0.0
3 H 44.847 21.469 85.927 H 0.0 **** 0.0
4 H 45.792 20.089 85.316 H 0.0 **** 0.0
5 H 46.497 21.723 85.31 H 0.0 **** 0.0
@<TRIPOS>BOND
1 1 2 1
2 1 3 1
3 1 4 1
4 1 5 1
@<TRIPOS>MOLECULE
CH4
5 4
SMALL
USER_CHARGES


@<TRIPOS>ATOM
1 C 29.72 84.623 46.528 C 0.0 **** 0.0
2 H 28.988 84.401 45.752 H 0.0 **** 0.0
3 H 30.159 85.603 46.342 H 0.0 **** 0.0
4 H 30.503 83.865 46.515 H 0.0 **** 0.0
5 H 29.229 84.622 47.501 H 0.0 **** 0.0
@<TRIPOS>BOND
1 1 2 1
2 1 3 1
3 1 4 1
4 1 5 1
@<TRIPOS>MOLECULE
CH4
5 4
SMALL
USER_CHARGES


@<TRIPOS>ATOM
1 C 9.898 82.127 56.684 C 0.0 **** 0.0
2 H 10.12 81.286 56.027 H 0.0 **** 0.0
3 H 9.639 82.999 56.083 H 0.0 **** 0.0
4 H 10.772 82.351 57.295 H 0.0 **** 0.0
5 H 9.059 81.87 57.332 H 0.0 **** 0.0
@<TRIPOS>BOND
1 1 2 1
2 1 3 1
3 1 4 1
4 1 5 1
@<TRIPOS>MOLECULE
CH4
5 4
SMALL
USER_CHARGES


@<TRIPOS>ATOM
1 C 83.789 76.43 71.708 C 0.0 **** 0.0
2 H 84.004 76.824 70.715 H 0.0 **** 0.0
3 H 84.589 75.753 72.011 H 0.0 **** 0.0
4 H 82.843 75.889 71.688 H 0.0 **** 0.0
5 H 83.721 77.254 72.419 H 0.0 **** 0.0
@<TRIPOS>BOND
1 1 2 1
2 1 3 1
3 1 4 1
4 1 5 1
@<TRIPOS>MOLECULE
CH4
5 4
SMALL
USER_CHARGES


@<TRIPOS>ATOM
1 C 42.122 49.257 32.765 C 0.0 **** 0.0
2 H 42.762 49.864 32.124 H 0.0 **** 0.0
3 H 41.099 49.631 32.715 H 0.0 **** 0.0
4 H 42.479 49.314 33.793 H 0.0 **** 0.0
5 H 42.147 48.221 32.428 H 0.0 **** 0.0
@<TRIPOS>BOND
1 1 2 1
2 1 3 1
3 1 4 1
4 1 5 1
@<TRIPOS>MOLECULE
CH4
5 4
SMALL
USER_CHARGES


@<TRIPOS>ATOM
1 C 18.382 23.012 38.907 C 0.0 **** 0.0
2 H 19.281 22.845 38.314 H 0.0 **** 0.0
3 H 18.373 22.326 39.754 H 0.0 **** 0.0
4 H 17.502 22.837 38.287 H 0.0 **** 0.0
5 H 18.372 24.04 39.27 H 0.0 **** 0.0
@<TRIPOS>BOND
1 1 2 1
2 1 3 1
3 1 4 1
4 1 5 1
@<TRIPOS>MOLECULE
CH4
5 4
SMALL
USER_CHARGES


@<TRIPOS>ATOM
1 C 32.219 19.319 7.586 C 0.0 **** 0.0
2 H 31.467 20.0 7.984 H 0.0 **** 0.0
3 H 31.735 18.404 7.244 H 0.0 **** 0.0
4 H 32.941 19.079 8.367 H 0.0 **** 0.0
5 H 32.732 19.793 6.75 H 0.0 **** 0.0
@<TRIPOS>BOND
1 1 4 1
2 1 5 1
3 1 2 1
4 1 3 1
@<TRIPOS>MOLECULE
CH4
5 4
SMALL
USER_CHARGES


@<TRIPOS>ATOM
1 C 49.474 62.464 81.995 C 0.0 **** 0.0
2 H 49.25 62.521 83.06 H 0.0 **** 0.0
3 H 48.768 61.79 81.51 H 0.0 **** 0.0
4 H 50.488 62.088 81.858 H 0.0 **** 0.0
5 H 49.392 63.457 81.553 H 0.0 **** 0.0
@<TRIPOS>BOND
1 1 2 1
2 1 3 1
3 1 4 1
4 1 5 1
@<TRIPOS>MOLECULE
CH4
5 4
SMALL
USER_CHARGES


@<TRIPOS>ATOM
1 C 65.815 60.815 55.657 C 0.0 **** 0.0
2 H 65.662 60.601 54.599 H 0.0 **** 0.0
3 H 66.315 61.778 55.764 H 0.0 **** 0.0
4 H 66.432 60.034 56.1 H 0.0 **** 0.0
5 H 64.851 60.848 56.164 H 0.0 **** 0.0
@<TRIPOS>BOND
1 1 2 1
2 1 3 1
3 1 4 1
4 1 5 1
@<TRIPOS>MOLECULE
CH4
5 4
SMALL
USER_CHARGES


@<TRIPOS>ATOM
1 C 52.797 31.803 64.059 C 0.0 **** 0.0
2 H 52.701 31.587 62.995 H 0.0 **** 0.0
3 H 52.032 31.257 64.611 H 0.0 **** 0.0
4 H 52.672 32.873 64.225 H 0.0 **** 0.0
5 H 53.784 31.494 64.404 H 0.0 **** 0.0
@<TRIPOS>BOND
1 1 2 1
2 1 3 1
3 1 4 1
4 1 5 1
@<TRIPOS>MOLECULE
CH4
5 4
SMALL
USER_CHARGES


@<TRIPOS>ATOM
1 C 22.686 14.588 30.535 C 0.0 **** 0.0
2 H 22.582 15.174 31.449 H 0.0 **** 0.0
3 H 22.848 15.258 29.691 H 0.0 **** 0.0
4 H 21.777 14.009 30.371 H 0.0 **** 0.0
5 H 23.535 13.912 30.632 H 0.0 **** 0.0
@<TRIPOS>BOND
1 1 2 1
2 1 3 1
3 1 4 1
4 1 5 1
@<TRIPOS>MOLECULE
CH4
5 4
SMALL
USER_CHARGES


@<TRIPOS>ATOM
1 C 21.533 90.282 98.132 C 0.0 **** 0.0
2 H 21.87 89.451 98.752 H 0.0 **** 0.0
3 H 21.613 90.006 97.08 H 0.0 **** 0.0
4 H 22.154 91.156 98.327 H 0.0 **** 0.0
5 H 20.495 90.514 98.369 H 0.0 **** 0.0
@<TRIPOS>BOND
1 1 2 1
2 1 3 1
3 1 4 1
4 1 5 1
@<TRIPOS>MOLECULE
CH4
5 4
SMALL
USER_CHARGES


@<TRIPOS>ATOM
1 C 38.186 88.61 86.93 C 0.0 **** 0.0
2 H 37.9 88.61 85.879 H 0.0 **** 0.0
3 H 38.234 87.583 87.294 H 0.0 **** 0.0
4 H 37.448 89.167 87.507 H 0.0 **** 0.0
5 H 39.163 89.08 87.04 H 0.0 **** 0.0
@<TRIPOS>BOND
1 1 2 1
2 1 3 1
3 1 4 1
4 1 5 1
@<TRIPOS>MOLECULE
CH4
5 4
SMALL
USER_CHARGES


@<TRIPOS>ATOM
1 C 37.799 5.324 3.483 C 0.0 **** 0.0
2 H 37.381 4.948 2.55 H 0.0 **** 0.0
3 H 38.859 5.54 3.345 H 0.0 **** 0.0
4 H 37.679 4.574 4.264 H 0.0 **** 0.0
5 H 37.277 6.236 3.773 H 0.0 **** 0.0
@<TRIPOS>BOND
1 1 2 1
2 1 3 1
3 1 4 1
4 1 5 1
@<TRIPOS>MOLECULE
CH4
5 4
SMALL
USER_CHARGES


@<TRIPOS>ATOM
1 C 66.194 5.431 42.994 C 0.0 **** 0.0
2 H 66.164 4.351 42.846 H 0.0 **** 0.0
3 H 66.459 5.919 42.056 H 0.0 **** 0.0
4 H 66.937 5.673 43.754 H 0.0 **** 0.0
5 H 65.214 5.779 43.321 H 0.0 **** 0.0
@<TRIPOS>BOND
1 1 2 1
2 1 3 1
3 1 4 1
4 1 5 1
@<TRIPOS>MOLECULE
CH4
5 4
SMALL
USER_CHARGES


@<TRIPOS>ATOM
1 C 98.205 41.784 52.221 C 0.0 **** 0.0
2 H 98.093 41.123 53.08 H 0.0 **** 0.0
3 H 98.945 41.369 51.537 H 0.0 **** 0.0
4 H 98.535 42.767 52.56 H 0.0 **** 0.0
5 H 97.248 41.879 51.709 H 0.0 **** 0.0
@<TRIPOS>BOND
1 1 2 1
2 1 3 1
3 1 4 1
4 1 5 1
@<TRIPOS>MOLECULE
CH4
5 4
SMALL
USER_CHARGES


@<TRIPOS>ATOM
1 C 32.955 81.506 23.872 C 0.0 **** 0.0
2 H 32.026 81.88 23.442 H 0.0 **** 0.0
3 H 33.404 80.781 23.192 H 0.0 **** 0.0
4 H 32.745 81.026 24.828 H 0.0 **** 0.0
5 H 33.645 82.336 24.026 H 0.0 **** 0.0
@<TRIPOS>BOND
1 1 2 1
2 1 3 1
3 1 4 1
4 1 5 1
@<TRIPOS>MOLECULE
CH4
5 4
SMALL
USER_CHARGES


@<TRIPOS>ATOM
1 C 59.425 87.431 25.458 C 0.0 **** 0.0
2 H 59.162 86.885 24.552 H 0.0 **** 0.0
3 H 59.255 86.795 26.327 H 0.0 **** 0.0
4 H 58.807 88.325 25.535 H 0.0 **** 0.0
5 H 60.476 87.718 25.416 H 0.0 **** 0.0
@<TRIPOS>BOND
1 1 2 1
2 1 3 1
3 1 4 1
4 1 5 1
@<TRIPOS>MOLECULE
CH4
5 4
SMALL
USER_CHARGES


@<TRIPOS>ATOM
1 C 22.528 43.781 16.209 C 0.0 **** 0.0
2 H 22.098 42.781 16.261 H 0.0 **** 0.0
3 H 23.038 44.005 17.146 H 0.0 **** 0.0
4 H 21.734 44.51 16.044 H 0.0 **** 0.0
5 H 23.241 43.828 15.386 H 0.0 **** 0.0
@<TRIPOS>BOND
1 1 2 1
2 1 3 1
3 1 4 1
4 1 5 1
@<TRIPOS>MOLECULE
CH4
5 4
SMALL
USER_CHARGES


@<TRIPOS>ATOM
1 C 41.035 76.792 86.795 C 0.0 **** 0.0
2 H 40.78 76.242 85.89 H 0.0 **** 0.0
3 H 40.199 76.75 87.493 H 0.0 **** 0.0
4 H 41.246 77.831 86.541 H 0.0 **** 0.0
5 H 41.916 76.344 87.255 H 0.0 **** 0.0
@<TRIPOS>BOND
1 1 2 1
2 1 3 1
3 1 4 1
4 1 5 1
@<TRIPOS>MOLECULE
CH4
5 4
SMALL
USER_CHARGES


@<TRIPOS>ATOM
1 C 45.605 10.209 28.49 C 0.0 **** 0.0
2 H 45.771 10.262 29.566 H 0.0 **** 0.0
3 H 45.8 9.195 28.142 H 0.0 **** 0.0
4 H 46.278 10.902 27.985 H 0.0 **** 0.0
5 H 44.572 10.478 28.269 H 0.0 **** 0.0
@<TRIPOS>BOND
1 1 2 1
2 1 3 1
3 1 4 1
4 1 5 1
@<TRIPOS>MOLECULE
CH4
5 4
SMALL
USER_CHARGES


@<TRIPOS>ATOM
1 C 78.914 75.369 91.285 C 0.0 **** 0.0
2 H 79.964 75.45 91.005 H 0.0 **** 0.0
3 H 78.373 74.822 90.513 H 0.0 **** 0.0
4 H 78.489 76.367 91.39 H 0.0 **** 0.0
5 H 78.831 74.838 92.233 H 0.0 **** 0.0
@<TRIPOS>BOND
1 1 2 1
2 1 3 1
3 1 4 1
4 1 5 1
@<TRIPOS>MOLECULE
CH4
5 4
SMALL
USER_CHARGES


@<TRIPOS>ATOM
1 C 84.29 30.714 38.881 C 0.0 **** 0.0
2 H 83.243 30.511 39.105 H 0.0 **** 0.0
3 H 84.407 31.763 38.607 H 0.0 **** 0.0
4 H 84.612 30.083 38.052 H 0.0 **** 0.0
5 H 84.898 30.497 39.759 H 0.0 **** 0.0
@<TRIPOS>BOND
1 1 2 1
2 1 3 1
3 1 4 1
4 1 5 1
@<TRIPOS>MOLECULE
CH4
5 4
SMALL
USER_CHARGES


@<TRIPOS>ATOM
1 C 38.455 70.456 20.44 C 0.0 **** 0.0
2 H 37.593 69.829 20.213 H 0.0 **** 0.0
3 H 38.114 71.451 20.727 H 0.0 **** 0.0
4 H 39.092 70.53 19.559 H 0.0 **** 0.0
5 H 39.02 70.014 21.261 H 0.0 **** 0.0
@<TRIPOS>BOND
1 1 2 1
2 1 3 1
3 1 4 1
4 1 5 1
@<TRIPOS>MOLECULE
CH4
5 4
SMALL
USER_CHARGES


@<TRIPOS>ATOM
1 C 27.205 84.016 63.423 C 0.0 **** 0.0
2 H 27.719 84.581 62.646 H 0.0 **** 0.0
3 H 27.297 84.539 64.375 H 0.0 **** 0.0
4 H 27.653 83.025 63.508 H 0.0 **** 0.0
5 H 26.151 83.916 63.163 H 0.0 **** 0.0
@<TRIPOS>BOND
1 1 2 1
2 1 3 1
3 1 4 1
4 1 5 1
@<TRIPOS>MOLECULE
CH4
5 4
SMALL
USER_CHARGES


@<TRIPOS>ATOM
1 C 35.819 78.263 57.765 C 0.0 **** 0.0
2 H 35.401 77.651 56.965 H 0.0 **** 0.0
3 H 36.843 77.947 57.965 H 0.0 **** 0.0
4 H 35.218 78.143 58.666 H 0.0 **** 0.0
5 H 35.815 79.31 57.461 H 0.0 **** 0.0
@<TRIPOS>BOND
1 1 2 1
2 1 3 1
3 1 4 1
4 1 5 1
@<TRIPOS>MOLECULE
CH4
5 4
SMALL
USER_CHARGES


@<TRIPOS>ATOM
1 C 6.062 56.428 2.233 C 0.0 **** 0.0
2 H 5.92 56.751 3.264 H 0.0 **** 0.0
3 H 6.905 55.739 2.181 H 0.0 **** 0.0
4 H 6.263 57.296 1.605 H 0.0 **** 0.0
5 H 5.16 55.927 1.882 H 0.0 **** 0.0
@<TRIPOS>BOND
1 1 2 1
2 1 3 1
3 1 4 1
4 1 5 1
@<TRIPOS>MOLECULE
CH4
5 4
SMALL
USER_CHARGES


@<TRIPOS>ATOM
1 C 5.919 53.265 6.4 C 0.0 **** 0.0
2 H 5.623 52.221 6.508 H 0.0 **** 0.0
3 H 5.107 53.909 6.738 H 0.0 **** 0.0
4 H 6.137 53.473 5.352 H 0.0 **** 0.0
5 H 6.808 53.454 7.001 H 0.0 **** 0.0
@<TRIPOS>BOND
1 1 2 1
2 1 3 1
3 1 4 1
4 1 5 1
@<TRIPOS>MOLECULE
CH4
5 4
SMALL
USER_CHARGES


@<TRIPOS>ATOM
1 C 5.4 20.628 12.467 C 0.0 **** 0.0
2 H 6.334 20.065 12.44 H 0.0 **** 0.0
3 H 4.991 20.604 13.477 H 0.0 **** 0.0
4 H 4.687 20.18 11.775 H 0.0 **** 0.0
5 H 5.59 21.66 12.175 H 0.0 **** 0.0
@<TRIPOS>BOND
1 1 2 1
2 1 3 1
3 1 4 1
4 1 5 1
@<TRIPOS>MOLECULE
CH4
5 4
SMALL
USER_CHARGES


@<TRIPOS>ATOM
1 C 27.154 95.719 78.499 C 0.0 **** 0.0
2 H 27.104 95.764 77.411 H 0.0 **** 0.0
3 H 27.479 94.724 78.806 H 0.0 **** 0.0
4 H 26.169 95.925 78.916 H 0.0 **** 0.0
5 H 27.865 96.461 78.861 H 0.0 **** 0.0
@<TRIPOS>BOND
1 1 2 1
2 1 3 1
3 1 4 1
4 1 5 1
@<TRIPOS>MOLECULE
CH4
5 4
SMALL
USER_CHARGES


@<TRIPOS>ATOM
1 C 61.28 41.256 59.224 C 0.0 **** 0.0
2 H 61.929 41.798 58.536 H 0.0 **** 0.0
3 H 61.685 41.323 60.234 H 0.0 **** 0.0
4 H 61.226 40.21 58.923 H 0.0 **** 0.0
5 H 60.282 41.693 59.202 H 0.0 **** 0.0
@<TRIPOS>BOND
1 1 2 1
2 1 3 1
3 1 4 1
4 1 5 1
@<TRIPOS>MOLECULE
CH4
5 4
SMALL
USER_CHARGES


@<TRIPOS>ATOM
1 C 14.245 22.066 60.829 C 0.0 **** 0.0
2 H 14.865 22.958 60.919 H 0.0 **** 0.0
3 H 14.428 21.592 59.864 H 0.0 **** 0.0
4 H 13.194 22.345 60.904 H 0.0 **** 0.0
5 H 14.494 21.369 61.629 H 0.0 **** 0.0
@<TRIPOS>BOND
1 1 2 1
2 1 3 1
3 1 4 1
4 1 5 1
@<TRIPOS>MOLECULE
CH4
5 4
SMALL
USER_CHARGES


@<TRIPOS>ATOM
1 C 73.585 10.838 75.277 C 0.0 **** 0.0
2 H 74.344 10.93 74.5 H 0.0 **** 0.0
3 H 74.063 10.856 76.256 H 0.0 **** 0.0
4 H 73.049 9.898 75.15 H 0.0 **** 0.0
5 H 72.883 11.669 75.199 H 0.0 **** 0.0
@<TRIPOS>BOND
1 1 2 1
2 1 3 1
3 1 4 1
4 1 5 1
@<TRIPOS>MOLECULE
CH4
5 4
SMALL
USER_CHARGES


@<TRIPOS>ATOM
1 C 65.71 31.327 79.714 C 0.0 **** 0.0
2 H 66.279 31.13 78.806 H 0.0 **** 0.0
3 H 66.352 31.819 80.445 H 0.0 **** 0.0
4 H 65.346 30.385 80.126 H 0.0 **** 0.0
5 H 64.863 31.972 79.48 H 0.0 **** 0.0
@<TRIPOS>BOND
1 1 2 1
2 1 3 1
3 1 4 1
4 1 5 1
@<TRIPOS>MOLECULE
CH4
5 4
SMALL
USER_CHARGES


@<TRIPOS>ATOM
1 C 42.191 40.251 69.172 C 0.0 **** 0.0
2 H 41.862 40.488 70.184 H 0.0 **** 0.0
3 H 42.148 39.172 69.019 H 0.0 **** 0.0
4 H 43.215 40.598 69.032 H 0.0 **** 0.0
5 H 41.538 40.746 68.453 H 0.0 **** 0.0
@<TRIPOS>BOND
1 1 2 1
2 1 3 1
3 1 4 1
4 1 5 1
@<TRIPOS>MOLECULE
CH4
5 4
SMALL
USER_CHARGES


@<TRIPOS>ATOM
1 C 70.721 40.886 36.695 C 0.0 **** 0.0
2 H 70.613 41.367 35.723 H 0.0 **** 0.0
3 H 69.736 40.628 37.084 H 0.0 **** 0.0
4 H 71.217 41.568 37.385 H 0.0 **** 0.0
5 H 71.318 39.98 36.587 H 0.0 **** 0.0
@<TRIPOS>BOND
1 1 2 1
2 1 3 1
3 1 4 1
4 1 5 1
@<TRIPOS>MOLECULE
CH4
5 4
SMALL
USER_CHARGES


@<TRIPOS>ATOM
1 C 32.276 44.72 16.188 C 0.0 **** 0.0
2 H 32.643 44.594 15.169 H 0.0 **** 0.0
3 H 32.711 43.951 16.827 H 0.0 **** 0.0
4 H 31.19 44.629 16.197 H 0.0 **** 0.0
5 H 32.562 45.704 16.558 H 0.0 **** 0.0
@<TRIPOS>BOND
1 1 2 1
2 1 3 1
3 1 4 1
4 1 5 1
@<TRIPOS>MOLECULE
CH4
5 4
SMALL
USER_CHARGES


@<TRIPOS>ATOM
1 C 83.787 18.24 62.662 C 0.0 **** 0.0
2 H 83.167 18.6 61.841 H 0.0 **** 0.0
3 H 84.729 17.861 62.266 H 0.0 **** 0.0
4 H 83.265 17.44 63.187 H 0.0 **** 0.0
5 H 83.986 19.059 63.353 H 0.0 **** 0.0
@<TRIPOS>BOND
1 1 2 1
2 1 3 1
3 1 4 1
4 1 5 1
@<TRIPOS>MOLECULE
CH4
5 4
SMALL
USER_CHARGES


@<TRIPOS>ATOM
1 C 13.384 18.082 50.435 C 0.0 **** 0.0
2 H 13.996 18.133 49.535 H 0.0 **** 0.0
3 H 12.329 18.106 50.159 H 0.0 **** 0.0
4 H 13.611 18.933 51.077 H 0.0 **** 0.0
5 H 13.599 17.156 50.969 H 0.0 **** 0.0
@<TRIPOS>BOND
1 1 2 1
2 1 3 1
3 1 4 1
4 1 5 1
@<TRIPOS>MOLECULE
CH4
5 4
SMALL
USER_CHARGES


@<TRIPOS>ATOM
1 C 21.503 10.525 64.587 C 0.0 **** 0.0
2 H 22.097 9.648 64.848 H 0.0 **** 0.0
3 H 21.974 11.047 63.754 H 0.0 **** 0.0
4 H 21.442 11.192 65.447 H 0.0 **** 0.0
5 H 20.5 10.211 64.299 H 0.0 **** 0.0
@<TRIPOS>BOND
1 1 2 1
2 1 3 1
3 1 4 1
4 1 5 1
@<TRIPOS>MOLECULE
CH4
5 4
SMALL
USER_CHARGES


@<TRIPOS>ATOM
1 C 6.341 93.183 34.801 C 0.0 **** 0.0
2 H 6.091 92.429 35.548 H 0.0 **** 0.0
3 H 7.391 93.087 34.525 H 0.0 **** 0.0
4 H 6.162 94.176 35.214 H 0.0 **** 0.0
5 H 5.718 93.039 33.918 H 0.0 **** 0.0
@<TRIPOS>BOND
1 1 5 1
2 1 2 1
3 1 3 1
4 1 4 1
@<TRIPOS>MOLECULE
CH4
5 4
SMALL
USER_CHARGES


@<TRIPOS>ATOM
1 C 34.882 23.533 8.572 C 0.0 **** 0.0
2 H 35.378 24.07 7.763 H 0.0 **** 0.0
3 H 35.007 24.085 9.504 H 0.0 **** 0.0
4 H 35.325 22.542 8.674 H 0.0 **** 0.0
5 H 33.821 23.436 8.346 H 0.0 **** 0.0
@<TRIPOS>BOND
1 1 2 1
2 1 3 1
3 1 4 1
4 1 5 1
@<TRIPOS>MOLECULE
CH4
5 4
SMALL
USER_CHARGES


@<TRIPOS>ATOM
1 C 59.864 70.693 75.687 C 0.0 **** 0.0
2 H 60.509 71.098 76.467 H 0.0 **** 0.0
3 H 58.848 71.063 75.828 H 0.0 **** 0.0
4 H 59.866 69.604 75.744 H 0.0 **** 0.0
5 H 60.234 71.007 74.711 H 0.0 **** 0.0
@<TRIPOS>BOND
1 1 2 1
2 1 3 1
3 1 4 1
4 1 5 1
@<TRIPOS>MOLECULE
CH4
5 4
SMALL
USER_CHARGES


@<TRIPOS>ATOM
1 C 50.872 26.083 70.557 C 0.0 **** 0.0
2 H 51.516 25.76 69.739 H 0.0 **** 0.0
3 H 51.413 26.0 71.5 H 0.0 **** 0.0
4 H 49.983 25.453 70.59 H 0.0 **** 0.0
5 H 50.576 27.12 70.398 H 0.0 **** 0.0
@<TRIPOS>BOND
1 1 2 1
2 1 3 1
3 1 4 1
4 1 5 1
@<TRIPOS>MOLECULE
CH4
5 4
SMALL
USER_CHARGES


@<TRIPOS>ATOM
1 C 23.843 79.56 33.698 C 0.0 **** 0.0
2 H 23.783 79.111 32.706 H 0.0 **** 0.0
3 H 22.842 79.836 34.032 H 0.0 **** 0.0
4 H 24.471 80.45 33.656 H 0.0 **** 0.0
5 H 24.275 78.842 34.395 H 0.0 **** 0.0
@<TRIPOS>BOND
1 1 2 1
2 1 3 1
3 1 4 1
4 1 5 1
@<TRIPOS>MOLECULE
CH4
5 4
SMALL
USER_CHARGES


@<TRIPOS>ATOM
1 C 53.425 93.548 59.952 C 0.0 **** 0.0
2 H 52.43 93.534 59.508 H 0.0 **** 0.0
3 H 54.107 92.966 59.332 H 0.0 **** 0.0
4 H 53.382 93.115 60.951 H 0.0 **** 0.0
5 H 53.779 94.576 60.016 H 0.0 **** 0.0
@<TRIPOS>BOND
1 1 2 1
2 1 3 1
3 1 4 1
4 1 5 1
@<TRIPOS>MOLECULE
CH4
5 4
SMALL
USER_CHARGES


@<TRIPOS>ATOM
1 C 33.152 79.264 2.499 C 0.0 **** 0.0
2 H 34.074 79.023 3.029 H 0.0 **** 0.0
3 H 33.313 79.161 1.426 H 0.0 **** 0.0
4 H 32.861 80.29 2.726 H 0.0 **** 0.0
5 H 32.362 78.584 2.816 H 0.0 **** 0.0
@<TRIPOS>BOND
1 1 2 1
2 1 3 1
3 1 4 1
4 1 5 1
@<TRIPOS>MOLECULE
CH4
5 4
SMALL
USER_CHARGES


@<TRIPOS>ATOM
1 C 8.306 21.668 74.274 C 0.0 **** 0.0
2 H 7.852 21.587 73.286 H 0.0 **** 0.0
3 H 8.431 20.671 74.698 H 0.0 **** 0.0
4 H 7.661 22.261 74.922 H 0.0 **** 0.0
5 H 9.279 22.151 74.188 H 0.0 **** 0.0
@<TRIPOS>BOND
1 1 2 1
2 1 3 1
3 1 4 1
4 1 5 1
@<TRIPOS>MOLECULE
CH4
5 4
SMALL
USER_CHARGES


@<TRIPOS>ATOM
1 C 83.33 12.571 40.644 C 0.0 **** 0.0
2 H 83.297 12.58 41.733 H 0.0 **** 0.0
3 H 82.356 12.273 40.254 H 0.0 **** 0.0
4 H 84.088 11.863 40.309 H 0.0 **** 0.0
5 H 83.577 13.568 40.28 H 0.0 **** 0.0
@<TRIPOS>BOND
1 1 2 1
2 1 3 1
3 1 4 1
4 1 5 1
@<TRIPOS>MOLECULE
CH4
5 4
SMALL
USER_CHARGES


@<TRIPOS>ATOM
1 C 95.525 75.382 97.339 C 0.0 **** 0.0
2 H 94.529 74.943 97.39 H 0.0 **** 0.0
3 H 95.452 76.463 97.46 H 0.0 **** 0.0
4 H 95.973 75.154 96.372 H 0.0 **** 0.0
5 H 96.146 74.968 98.134 H 0.0 **** 0.0
@<TRIPOS>BOND
1 1 2 1
2 1 3 1
3 1 4 1
4 1 5 1
@<TRIPOS>MOLECULE
CH4
5 4
SMALL
USER_CHARGES


@<TRIPOS>ATOM
1 C 33.106 53.115 68.835 C 0.0 **** 0.0
2 H 33.301 53.179 69.906 H 0.0 **** 0.0
3 H 33.797 52.404 68.382 H 0.0 **** 0.0
4 H 33.246 54.097 68.382 H 0.0 **** 0.0
5 H 32.081 52.783 68.671 H 0.0 **** 0.0
@<TRIPOS>BOND
1 1 2 1
2 1 3 1
3 1 4 1
4 1 5 1
@<TRIPOS>MOLECULE
CH4
5 4
SMALL
USER_CHARGES


@<TRIPOS>ATOM
1 C 75.363 54.306 70.698 C 0.0 **** 0.0
2 H 75.841 54.664 71.61 H 0.0 **** 0.0
3 H 74.287 54.229 70.859 H 0.0 **** 0.0
4 H 75.763 53.325 70.439 H 0.0 **** 0.0
5 H 75.561 55.005 69.886 H 0.0 **** 0.0
@<TRIPOS>BOND
1 1 2 1
2 1 3 1
3 1 4 1
4 1 5 1
@<TRIPOS>MOLECULE
CH4
5 4
SMALL
USER_CHARGES


@<TRIPOS>ATOM
1 C 79.231 42.037 66.96 C 0.0 **** 0.0
2 H 78.962 43.091 67.027 H 0.0 **** 0.0
3 H 79.265 41.737 65.912 H 0.0 **** 0.0
4 H 78.487 41.438 67.486 H 0.0 **** 0.0
5 H 80.209 41.882 67.415 H 0.0 **** 0.0
@<TRIPOS>BOND
1 1 2 1
2 1 3 1
3 1 4 1
4 1 5 1
@<TRIPOS>MOLECULE
CH4
5 4
SMALL
USER_CHARGES


@<TRIPOS>ATOM
1 C 66.815 19.191 84.348 C 0.0 **** 0.0
2 H 65.936 19.834 84.305 H 0.0 **** 0.0
3 H 66.758 18.557 85.233 H 0.0 **** 0.0
4 H 67.713 19.807 84.399 H 0.0 **** 0.0
5 H 66.853 18.567 83.455 H 0.0 **** 0.0
@<TRIPOS>BOND
1 1 2 1
2 1 3 1
3 1 4 1
4 1 5 1
@<TRIPOS>MOLECULE
CH4
5 4
SMALL
USER_CHARGES


@<TRIPOS>ATOM
1 C 58.553 31.618 47.527 C 0.0 **** 0.0
2 H 58.439 31.809 48.594 H 0.0 **** 0.0
3 H 59.59 31.357 47.314 H 0.0 **** 0.0
4 H 58.28 32.511 46.966 H 0.0 **** 0.0
5 H 57.904 30.793 47.235 H 0.0 **** 0.0
@<TRIPOS>BOND
1 1 2 1
2 1 3 1
3 1 4 1
4 1 5 1
@<TRIPOS>MOLECULE
CH4
5 4
SMALL
USER_CHARGES


@<TRIPOS>ATOM
1 C 78.798 72.372 47.204 C 0.0 **** 0.0
2 H 78.141 72.033 46.403 H 0.0 **** 0.0
3 H 79.026 73.429 47.063 H 0.0 **** 0.0
4 H 79.722 71.794 47.184 H 0.0 **** 0.0
5 H 78.302 72.232 48.164 H 0.0 **** 0.0
@<TRIPOS>BOND
1 1 2 1
2 1 3 1
3 1 4 1
4 1 5 1
@<TRIPOS>MOLECULE
CH4
5 4
SMALL
USER_CHARGES


@<TRIPOS>ATOM
1 C 86.883 38.539 75.142 C 0.0 **** 0.0
2 H 87.667 39.268 74.936 H 0.0 **** 0.0
3 H 86.334 38.839 76.034 H 0.0 **** 0.0
4 H 87.332 37.559 75.303 H 0.0 **** 0.0
5 H 86.201 38.49 74.293 H 0.0 **** 0.0
@<TRIPOS>BOND
1 1 2 1
2 1 3 1
3 1 4 1
4 1 5 1
@<TRIPOS>MOLECULE
CH4
5 4
SMALL
USER_CHARGES


@<TRIPOS>ATOM
1 C 8.3 95.669 33.939 C 0.0 **** 0.0
2 H 7.951 96.702 33.945 H 0.0 **** 0.0
3 H 7.788 95.117 33.151 H 0.0 **** 0.0
4 H 8.087 95.208 34.904 H 0.0 **** 0.0
5 H 9.375 95.651 33.758 H 0.0 **** 0.0
@<TRIPOS>BOND
1 1 4 1
2 1 5 1
3 1 2 1
4 1 3 1
@<TRIPOS>MOLECULE
CH4
5 4
SMALL
USER_CHARGES


@<TRIPOS>ATOM
1 C 21.668 95.62 4.295 C 0.0 **** 0.0
2 H 21.644 95.551 3.207 H 0.0 **** 0.0
3 H 21.625 96.668 4.592 H 0.0 **** 0.0
4 H 22.589 95.173 4.667 H 0.0 **** 0.0
5 H 20.812 95.089 4.711 H 0.0 **** 0.0
@<TRIPOS>BOND
1 1 2 1
2 1 3 1
3 1 4 1
4 1 5 1
@<TRIPOS>MOLECULE
CH4
5 4
SMALL
USER_CHARGES


@<TRIPOS>ATOM
1 C 53.276 39.341 52.351 C 0.0 **** 0.0
2 H 52.45 39.541 53.034 H 0.0 **** 0.0
3 H 53.738 40.284 52.055 H 0.0 **** 0.0
4 H 52.901 38.826 51.467 H 0.0 **** 0.0
5 H 54.016 38.715 52.85 H 0.0 **** 0.0
@<TRIPOS>BOND
1 1 2 1
2 1 3 1
3 1 4 1
4 1 5 1
@<TRIPOS>MOLECULE
CH4
5 4
SMALL
USER_CHARGES


@<TRIPOS>ATOM
1 C 53.686 26.938 47.632 C 0.0 **** 0.0
2 H 52.852 26.83 46.939 H 0.0 **** 0.0
3 H 53.35 27.468 48.524 H 0.0 **** 0.0
4 H 54.486 27.502 47.153 H 0.0 **** 0.0
5 H 54.054 25.951 47.913 H 0.0 **** 0.0
@<TRIPOS>BOND
1 1 2 1
2 1 3 1
3 1 4 1
4 1 5 1
@<TRIPOS>MOLECULE
CH4
5 4
SMALL
USER_CHARGES


@<TRIPOS>ATOM
1 C 27.382 71.35 13.958 C 0.0 **** 0.0
2 H 27.71 70.869 13.037 H 0.0 **** 0.0
3 H 28.192 71.96 14.357 H 0.0 **** 0.0
4 H 27.106 70.589 14.687 H 0.0 **** 0.0
5 H 26.519 71.983 13.75 H 0.0 **** 0.0
@<TRIPOS>BOND
1 1 2 1
2 1 3 1
3 1 4 1
4 1 5 1
@<TRIPOS>MOLECULE
CH4
5 4
SMALL
USER_CHARGES


@<TRIPOS>ATOM
1 C 97.653 1.538 14.2 C 0.0 **** 0.0
2 H 97.938 1.365 13.163 H 0.0 **** 0.0
3 H 97.327 0.6 14.649 H 0.0 **** 0.0
4 H 96.837 2.261 14.236 H 0.0 **** 0.0
5 H 98.508 1.928 14.752 H 0.0 **** 0.0
@<TRIPOS>BOND
1 1 2 1
2 1 3 1
3 1 4 1
4 1 5 1
@<TRIPOS>MOLECULE
CH4
5 4
SMALL
USER_CHARGES


@<TRIPOS>ATOM
1 C 79.861 61.399 84.748 C 0.0 **** 0.0
2 H 79.533 60.71 83.97 H 0.0 **** 0.0
3 H 80.594 62.092 84.335 H 0.0 **** 0.0
4 H 80.313 60.835 85.565 H 0.0 **** 0.0
5 H 79.004 61.957 85.124 H 0.0 **** 0.0
@<TRIPOS>BOND
1 1 2 1
2 1 5 1
3 1 3 1
4 1 4 1
@<TRIPOS>MOLECULE
CH4
5 4
SMALL
USER_CHARGES


@<TRIPOS>ATOM
1 C 77.851 76.566 73.182 C 0.0 **** 0.0
2 H 77.805 76.613 72.094 H 0.0 **** 0.0
3 H 76.846 76.663 73.592 H 0.0 **** 0.0
4 H 78.475 77.379 73.554 H 0.0 **** 0.0
5 H 78.279 75.611 73.487 H 0.0 **** 0.0
@<TRIPOS>BOND
1 1 2 1
2 1 3 1
3 1 4 1
4 1 5 1
@<TRIPOS>MOLECULE
CH4
5 4
SMALL
USER_CHARGES


@<TRIPOS>ATOM
1 C 24.596 28.1 62.449 C 0.0 **** 0.0
2 H 25.487 27.626 62.037 H 0.0 **** 0.0
3 H 24.026 28.564 61.645 H 0.0 **** 0.0
4 H 24.892 28.861 63.171 H 0.0 **** 0.0
5 H 23.982 27.348 62.945 H 0.0 **** 0.0
@<TRIPOS>BOND
1 1 2 1
2 1 3 1
3 1 4 1
4 1 5 1
@<TRIPOS>MOLECULE
CH4
5 4
SMALL
USER_CHARGES


@<TRIPOS>ATOM
1 C 0.961 30.818 20.271 C 0.0 **** 0.0
2 H 1.501 30.036 20.804 H 0.0 **** 0.0
3 H 0.797 31.665 20.937 H 0.0 **** 0.0
4 H -0.0 30.429 19.933 H 0.0 **** 0.0
5 H 1.545 31.14 19.409 H 0.0 **** 0.0
@<TRIPOS>BOND
1 1 2 1
2 1 3 1
3 1 4 1
4 1 5 1
@<TRIPOS>MOLECULE
CH4
5 4
SMALL
USER_CHARGES


@<TRIPOS>ATOM
1 C 27.566 68.12 46.036 C 0.0 **** 0.0
2 H 27.866 68.642 45.127 H 0.0 **** 0.0
3 H 26.505 68.293 46.22 H 0.0 **** 0.0
4 H 28.147 68.494 46.879 H 0.0 **** 0.0
5 H 27.745 67.052 45.916 H 0.0 **** 0.0
@<TRIPOS>BOND
1 1 2 1
2 1 3 1
3 1 4 1
4 1 5 1
@<TRIPOS>MOLECULE
CH4
5 4
SMALL
USER_CHARGES


@<TRIPOS>ATOM
1 C 81.997 26.776 42.425 C 0.0 **** 0.0
2 H 81.889 26.726 43.509 H 0.0 **** 0.0
3 H 81.318 27.53 42.027 H 0.0 **** 0.0
4 H 81.758 25.805 41.992 H 0.0 **** 0.0
5 H 83.024 27.042 42.175 H 0.0 **** 0.0
@<TRIPOS>BOND
1 1 2 1
2 1 3 1
3 1 4 1
4 1 5 1
@<TRIPOS>MOLECULE
CH4
5 4
SMALL
USER_CHARGES


@<TRIPOS>ATOM
1 C 78.453 94.403 64.363 C 0.0 **** 0.0
2 H 79.318 93.767 64.553 H 0.0 **** 0.0
3 H 78.545 95.323 64.94 H 0.0 **** 0.0
4 H 77.545 93.878 64.659 H 0.0 **** 0.0
5 H 78.404 94.643 63.301 H 0.0 **** 0.0
@<TRIPOS>BOND
1 1 2 1
2 1 3 1
3 1 4 1
4 1 5 1
@<TRIPOS>MOLECULE
CH4
5 4
SMALL
USER_CHARGES


@<TRIPOS>ATOM
1 C 96.049 76.647 62.269 C 0.0 **** 0.0
2 H 95.651 76.731 61.258 H 0.0 **** 0.0
3 H 96.43 75.638 62.427 H 0.0 **** 0.0
4 H 95.256 76.854 62.989 H 0.0 **** 0.0
5 H 96.857 77.367 62.403 H 0.0 **** 0.0
@<TRIPOS>BOND
1 1 2 1
2 1 3 1
3 1 4 1
4 1 5 1
@<TRIPOS>MOLECULE
CH4
5 4
SMALL
USER_CHARGES


@<TRIPOS>ATOM
1 C 26.344 8.969 60.261 C 0.0 **** 0.0
2 H 26.238 9.792 60.969 H 0.0 **** 0.0
3 H 26.886 9.315 59.381 H 0.0 **** 0.0
4 H 25.356 8.616 59.965 H 0.0 **** 0.0
5 H 26.896 8.155 60.731 H 0.0 **** 0.0
@<TRIPOS>BOND
1 1 2 1
2 1 3 1
3 1 4 1
4 1 5 1
@<TRIPOS>MOLECULE
CH4
5 4
SMALL
USER_CHARGES


@<TRIPOS>ATOM
1 C 36.131 56.488 88.383 C 0.0 **** 0.0
2 H 35.887 56.424 89.444 H 0.0 **** 0.0
3 H 36.902 55.755 88.143 H 0.0 **** 0.0
4 H 36.496 57.489 88.154 H 0.0 **** 0.0
5 H 35.238 56.283 87.793 H 0.0 **** 0.0
@<TRIPOS>BOND
1 1 2 1
2 1 3 1
3 1 4 1
4 1 5 1
@<TRIPOS>MOLECULE
CH4
5 4
SMALL
USER_CHARGES


@<TRIPOS>ATOM
1 C 39.38 11.009 31.782 C 0.0 **** 0.0
2 H 38.386 10.563 31.814 H 0.0 **** 0.0
3 H 39.341 11.939 31.214 H 0.0 **** 0.0
4 H 40.072 10.318 31.301 H 0.0 **** 0.0
5 H 39.718 11.216 32.797 H 0.0 **** 0.0
@<TRIPOS>BOND
1 1 2 1
2 1 3 1
3 1 4 1
4 1 5 1
@<TRIPOS>MOLECULE
CH4
5 4
SMALL
USER_CHARGES


@<TRIPOS>ATOM
1 C 44.176 1.014 89.348 C 0.0 **** 0.0
2 H 44.337 1.048 90.425 H 0.0 **** 0.0
3 H 43.361 1.688 89.081 H 0.0 **** 0.0
4 H 43.918 -0.003 89.051 H 0.0 **** 0.0
5 H 45.086 1.323 88.834 H 0.0 **** 0.0
@<TRIPOS>BOND
1 1 3 1
2 1 4 1
3 1 5 1
4 1 2 1
@<TRIPOS>MOLECULE
CH4
5 4
SMALL
USER_CHARGES


@<TRIPOS>ATOM
1 C 56.475 32.167 59.472 C 0.0 **** 0.0
2 H 57.226 31.379 59.417 H 0.0 **** 0.0
3 H 55.928 32.214 58.531 H 0.0 **** 0.0
4 H 56.965 33.123 59.656 H 0.0 **** 0.0
5 H 55.782 31.951 60.286 H 0.0 **** 0.0
@<TRIPOS>BOND
1 1 2 1
2 1 3 1
3 1 4 1
4 1 5 1
@<TRIPOS>MOLECULE
CH4
5 4
SMALL
USER_CHARGES


@<TRIPOS>ATOM
1 C 94.516 41.662 60.279 C 0.0 **** 0.0
2 H 95.474 42.174 60.377 H 0.0 **** 0.0
3 H 94.466 41.17 59.308 H 0.0 **** 0.0
4 H 93.707 42.388 60.362 H 0.0 **** 0.0
5 H 94.42 40.918 61.07 H 0.0 **** 0.0
@<TRIPOS>BOND
1 1 2 1
2 1 3 1
3 1 4 1
4 1 5 1
@<TRIPOS>MOLECULE
CH4
5 4
SMALL
USER_CHARGES


@<TRIPOS>ATOM
1 C 38.656 60.726 59.722 C 0.0 **** 0.0
2 H 38.162 60.091 58.986 H 0.0 **** 0.0
3 H 39.289 61.451 59.209 H 0.0 **** 0.0
4 H 39.269 60.11 60.38 H 0.0 **** 0.0
5 H 37.905 61.251 60.311 H 0.0 **** 0.0
@<TRIPOS>BOND
1 1 2 1
2 1 3 1
3 1 4 1
4 1 5 1
@<TRIPOS>MOLECULE
CH4
5 4
SMALL
USER_CHARGES


@<TRIPOS>ATOM
1 C 86.664 84.447 90.915 C 0.0 **** 0.0
2 H 86.527 84.561 89.84 H 0.0 **** 0.0
3 H 87.508 83.783 91.105 H 0.0 **** 0.0
4 H 85.761 84.023 91.354 H 0.0 **** 0.0
5 H 86.861 85.422 91.361 H 0.0 **** 0.0
@<TRIPOS>BOND
1 1 2 1
2 1 3 1
3 1 4 1
4 1 5 1
@<TRIPOS>MOLECULE
CH4
5 4
SMALL
USER_CHARGES


@<TRIPOS>ATOM
1 C 9.229 58.995 89.328 C 0.0 **** 0.0
2 H 9.003 58.336 90.166 H 0.0 **** 0.0
3 H 9.713 58.423 88.536 H 0.0 **** 0.0
4 H 9.895 59.791 89.662 H 0.0 **** 0.0
5 H 8.305 59.431 88.949 H 0.0 **** 0.0
@<TRIPOS>BOND
1 1 2 1
2 1 3 1
3 1 4 1
4 1 5 1
@<TRIPOS>MOLECULE
CH4
5 4
SMALL
USER_CHARGES


@<TRIPOS>ATOM
1 C 81.697 82.878 83.607 C 0.0 **** 0.0
2 H 82.686 82.47 83.817 H 0.0 **** 0.0
3 H 81.116 82.15 83.041 H 0.0 **** 0.0
4 H 81.799 83.794 83.025 H 0.0 **** 0.0
5 H 81.188 83.098 84.546 H 0.0 **** 0.0
@<TRIPOS>BOND
1 1 2 1
2 1 3 1
3 1 4 1
4 1 5 1
@<TRIPOS>MOLECULE
CH4
5 4
SMALL
USER_CHARGES


@<TRIPOS>ATOM
1 C 27.919 91.653 45.504 C 0.0 **** 0.0
2 H 27.324 91.183 44.721 H 0.0 **** 0.0
3 H 27.362 91.638 46.441 H 0.0 **** 0.0
4 H 28.136 92.684 45.226 H 0.0 **** 0.0
5 H 28.853 91.105 45.628 H 0.0 **** 0.0
@<TRIPOS>BOND
1 1 2 1
2 1 3 1
3 1 4 1
4 1 5 1
@<TRIPOS>MOLECULE
CH4
5 4
SMALL
USER_CHARGES


@<TRIPOS>ATOM
1 C 39.356 93.381 94.038 C 0.0 **** 0.0
2 H 38.484 92.965 94.543 H 0.0 **** 0.0
3 H 39.537 92.831 93.114 H 0.0 **** 0.0
4 H 40.227 93.295 94.688 H 0.0 **** 0.0
5 H 39.177 94.431 93.807 H 0.0 **** 0.0
@<TRIPOS>BOND
1 1 2 1
2 1 3 1
3 1 4 1
4 1 5 1
@<TRIPOS>MOLECULE
CH4
5 4
SMALL
USER_CHARGES


@<TRIPOS>ATOM
1 C 52.741 9.502 7.778 C 0.0 **** 0.0
2 H 52.127 9.282 8.651 H 0.0 **** 0.0
3 H 52.155 9.342 6.873 H 0.0 **** 0.0
4 H 53.61 8.843 7.77 H 0.0 **** 0.0
5 H 53.072 10.54 7.818 H 0.0 **** 0.0
@<TRIPOS>BOND
1 1 2 1
2 1 3 1
3 1 4 1
4 1 5 1
@<TRIPOS>MOLECULE
CH4
5 4
SMALL
USER_CHARGES


@<TRIPOS>ATOM
1 C 83.027 25.784 60.935 C 0.0 **** 0.0
2 H 83.657 24.983 60.547 H 0.0 **** 0.0
3 H 83.285 25.976 61.977 H 0.0 **** 0.0
4 H 81.981 25.487 60.868 H 0.0 **** 0.0
5 H 83.187 26.688 60.348 H 0.0 **** 0.0
@<TRIPOS>BOND
1 1 2 1
2 1 3 1
3 1 4 1
4 1 5 1
@<TRIPOS>MOLECULE
CH4
5 4
SMALL
USER_CHARGES


@<TRIPOS>ATOM
1 C 89.395 13.183 94.51 C 0.0 **** 0.0
2 H 90.407 13.587 94.472 H 0.0 **** 0.0
3 H 88.843 13.663 95.318 H 0.0 **** 0.0
4 H 89.44 12.109 94.687 H 0.0 **** 0.0
5 H 88.893 13.375 93.562 H 0.0 **** 0.0
@<TRIPOS>BOND
1 1 2 1
2 1 3 1
3 1 4 1
4 1 5 1
@<TRIPOS>MOLECULE
CH4
5 4
SMALL
USER_CHARGES


@<TRIPOS>ATOM
1 C 42.065 40.509 75.094 C 0.0 **** 0.0
2 H 42.23 40.361 76.161 H 0.0 **** 0.0
3 H 41.346 41.316 74.946 H 0.0 **** 0.0
4 H 41.676 39.591 74.655 H 0.0 **** 0.0
5 H 43.008 40.77 74.614 H 0.0 **** 0.0
@<TRIPOS>BOND
1 1 2 1
2 1 3 1
3 1 4 1
4 1 5 1
@<TRIPOS>MOLECULE
CH4
5 4
SMALL
USER_CHARGES


@<TRIPOS>ATOM
1 C 66.239 93.321 49.989 C 0.0 **** 0.0
2 H 65.889 94.131 49.351 H 0.0 **** 0.0
3 H 66.898 92.666 49.418 H 0.0 **** 0.0
4 H 65.385 92.749 50.353 H 0.0 **** 0.0
5 H 66.785 93.736 50.837 H 0.0 **** 0.0
@<TRIPOS>BOND
1 1 2 1
2 1 3 1
3 1 4 1
4 1 5 1
@<TRIPOS>MOLECULE
CH4
5 4
SMALL
USER_CHARGES


@<TRIPOS>ATOM
1 C 42.111 79.257 83.28 C 0.0 **** 0.0
2 H 41.901 80.092 82.611 H 0.0 **** 0.0
3 H 42.223 79.629 84.299 H 0.0 **** 0.0
4 H 43.032 78.765 82.969 H 0.0 **** 0.0
5 H 41.287 78.545 83.241 H 0.0 **** 0.0
@<TRIPOS>BOND
1 1 2 1
2 1 3 1
3 1 4 1
4 1 5 1
@<TRIPOS>MOLECULE
CH4
5 4
SMALL
USER_CHARGES


@<TRIPOS>ATOM
1 C 65.922 72.953 94.346 C 0.0 **** 0.0
2 H 66.812 72.807 93.734 H 0.0 **** 0.0
3 H 66.07 73.81 95.003 H 0.0 **** 0.0
4 H 65.744 72.06 94.946 H 0.0 **** 0.0
5 H 65.063 73.133 93.7 H 0.0 **** 0.0
@<TRIPOS>BOND
1 1 2 1
2 1 3 1
3 1 4 1
4 1 5 1
@<TRIPOS>MOLECULE
CH4
5 4
SMALL
USER_CHARGES


@<TRIPOS>ATOM
1 C 79.44 3.233 86.19 C 0.0 **** 0.0
2 H 79.079 2.49 86.901 H 0.0 **** 0.0
3 H 80.526 3.304 86.258 H 0.0 **** 0.0
4 H 78.997 4.202 86.421 H 0.0 **** 0.0
5 H 79.158 2.936 85.179 H 0.0 **** 0.0
@<TRIPOS>BOND
1 1 2 1
2 1 3 1
3 1 4 1
4 1 5 1
@<TRIPOS>MOLECULE
CH4
5 4
SMALL
USER_CHARGES


@<TRIPOS>ATOM
1 C 90.814 73.361 87.105 C 0.0 **** 0.0
2 H 90.411 73.527 86.106 H 0.0 **** 0.0
3 H 91.262 72.368 87.155 H 0.0 **** 0.0
4 H 90.011 73.435 87.838 H 0.0 **** 0.0
5 H 91.573 74.114 87.319 H 0.0 **** 0.0
@<TRIPOS>BOND
1 1 2 1
2 1 3 1
3 1 4 1
4 1 5 1
@<TRIPOS>MOLECULE
CH4
5 4
SMALL
USER_CHARGES


@<TRIPOS>ATOM
1 C 33.908 25.988 59.693 C 0.0 **** 0.0
2 H 33.627 27.037 59.605 H 0.0 **** 0.0
3 H 34.883 25.833 59.23 H 0.0 **** 0.0
4 H 33.164 25.37 59.191 H 0.0 **** 0.0
5 H 33.958 25.713 60.746 H 0.0 **** 0.0
@<TRIPOS>BOND
1 1 2 1
2 1 3 1
3 1 4 1
4 1 5 1
@<TRIPOS>MOLECULE
CH4
5 4
SMALL
USER_CHARGES


@<TRIPOS>ATOM
1 C 5.504 94.943 98.046 C 0.0 **** 0.0
2 H 4.825 94.196 97.634 H 0.0 **** 0.0
3 H 4.966 95.568 98.759 H 0.0 **** 0.0
4 H 5.893 95.564 97.239 H 0.0 **** 0.0
5 H 6.33 94.444 98.551 H 0.0 **** 0.0
@<TRIPOS>BOND
1 1 2 1
2 1 3 1
3 1 4 1
4 1 5 1
@<TRIPOS>MOLECULE
CH4
5 4
SMALL
USER_CHARGES


@<TRIPOS>ATOM
1 C 28.722 88.776 84.419 C 0.0 **** 0.0
2 H 27.816 88.187 84.275 H 0.0 **** 0.0
3 H 29.569 88.107 84.574 H 0.0 **** 0.0
4 H 28.602 89.419 85.291 H 0.0 **** 0.0
5 H 28.901 89.39 83.537 H 0.0 **** 0.0
@<TRIPOS>BOND
1 1 2 1
2 1 3 1
3 1 4 1
4 1 5 1
@<TRIPOS>MOLECULE
CH4
5 4
SMALL
USER_CHARGES


@<TRIPOS>ATOM
1 C 24.909 67.469 63.321 C 0.0 **** 0.0
2 H 25.022 68.254 64.069 H 0.0 **** 0.0
3 H 25.368 67.791 62.386 H 0.0 **** 0.0
4 H 23.85 67.272 63.158 H 0.0 **** 0.0
5 H 25.398 66.56 63.672 H 0.0 **** 0.0
@<TRIPOS>BOND
1 1 2 1
2 1 3 1
3 1 4 1
4 1 5 1
@<TRIPOS>MOLECULE
CH4
5 4
SMALL
USER_CHARGES


@<TRIPOS>ATOM
1 C 95.128 47.796 42.38 C 0.0 **** 0.0
2 H 95.586 47.693 41.396 H 0.0 **** 0.0
3 H 95.008 48.854 42.615 H 0.0 **** 0.0
4 H 95.768 47.328 43.128 H 0.0 **** 0.0
5 H 94.153 47.31 42.38 H 0.0 **** 0.0
@<TRIPOS>BOND
1 1 2 1
2 1 3 1
3 1 4 1
4 1 5 1
@<TRIPOS>MOLECULE
CH4
5 4
SMALL
USER_CHARGES


@<TRIPOS>ATOM
1 C 40.875 35.11 80.101 C 0.0 **** 0.0
2 H 41.312 35.473 81.031 H 0.0 **** 0.0
3 H 41.443 35.502 79.257 H 0.0 **** 0.0
4 H 39.84 35.446 80.031 H 0.0 **** 0.0
5 H 40.906 34.021 80.086 H 0.0 **** 0.0
@<TRIPOS>BOND
1 1 2 1
2 1 3 1
3 1 4 1
4 1 5 1
@<TRIPOS>MOLECULE
CH4
5 4
SMALL
USER_CHARGES


@<TRIPOS>ATOM
1 C 69.195 95.775 8.299 C 0.0 **** 0.0
2 H 68.855 94.827 8.718 H 0.0 **** 0.0
3 H 70.255 95.907 8.515 H 0.0 **** 0.0
4 H 68.628 96.592 8.745 H 0.0 **** 0.0
5 H 69.041 95.771 7.22 H 0.0 **** 0.0
@<TRIPOS>BOND
1 1 2 1
2 1 3 1
3 1 4 1
4 1 5 1
@<TRIPOS>MOLECULE
CH4
5 4
SMALL
USER_CHARGES


@<TRIPOS>ATOM
1 C 36.467 86.3 66.367 C 0.0 **** 0.0
2 H 36.351 86.159 67.441 H 0.0 **** 0.0
3 H 37.099 85.51 65.963 H 0.0 **** 0.0
4 H 36.929 87.269 66.177 H 0.0 **** 0.0
5 H 35.488 86.264 65.888 H 0.0 **** 0.0
@<TRIPOS>BOND
1 1 2 1
2 1 3 1
3 1 4 1
4 1 5 1
@<TRIPOS>MOLECULE
CH4
5 4
SMALL
USER_CHARGES


@<TRIPOS>ATOM
1 C 67.261 89.425 97.209 C 0.0 **** 0.0
2 H 67.131 89.156 98.258 H 0.0 **** 0.0
3 H 66.649 88.772 96.588 H 0.0 **** 0.0
4 H 68.31 89.313 96.933 H 0.0 **** 0.0
5 H 66.955 90.461 97.06 H 0.0 **** 0.0
@<TRIPOS>BOND
1 1 2 1
2 1 3 1
3 1 4 1
4 1 5 1
@<TRIPOS>MOLECULE
CH4
5 4
SMALL
USER_CHARGES


@<TRIPOS>ATOM
1 C 19.416 56.121 92.302 C 0.0 **** 0.0
2 H 19.255 55.611 91.352 H 0.0 **** 0.0
3 H 19.743 55.399 93.051 H 0.0 **** 0.0
4 H 18.485 56.585 92.627 H 0.0 **** 0.0
5 H 20.18 56.888 92.178 H 0.0 **** 0.0
@<TRIPOS>BOND
1 1 2 1
2 1 3 1
3 1 4 1
4 1 5 1
@<TRIPOS>MOLECULE
CH4
5 4
SMALL
USER_CHARGES


@<TRIPOS>ATOM
1 C 80.586 67.689 64.419 C 0.0 **** 0.0
2 H 79.889 67.418 65.212 H 0.0 **** 0.0
3 H 81.472 67.056 64.483 H 0.0 **** 0.0
4 H 80.877 68.733 64.531 H 0.0 **** 0.0
5 H 80.108 67.547 63.45 H 0.0 **** 0.0
@<TRIPOS>BOND
1 1 2 1
2 1 3 1
3 1 4 1
4 1 5 1
@<TRIPOS>MOLECULE
CH4
5 4
SMALL
USER_CHARGES


@<TRIPOS>ATOM
1 C 97.358 87.533 82.077 C 0.0 **** 0.0
2 H 98.179 86.818 82.039 H 0.0 **** 0.0
3 H 97.612 88.411 81.483 H 0.0 **** 0.0
4 H 97.184 87.832 83.111 H 0.0 **** 0.0
5 H 96.455 87.072 81.676 H 0.0 **** 0.0
@<TRIPOS>BOND
1 1 2 1
2 1 3 1
3 1 4 1
4 1 5 1
@<TRIPOS>MOLECULE
CH4
5 4
SMALL
USER_CHARGES


@<TRIPOS>ATOM
1 C 35.944 82.421 7.164 C 0.0 **** 0.0
2 H 34.855 82.467 7.18 H 0.0 **** 0.0
3 H 36.267 81.395 7.345 H 0.0 **** 0.0
4 H 36.346 83.071 7.941 H 0.0 **** 0.0
5 H 36.307 82.75 6.191 H 0.0 **** 0.0
@<TRIPOS>BOND
1 1 2 1
2 1 3 1
3 1 4 1
4 1 5 1
@<TRIPOS>MOLECULE
CH4
5 4
SMALL
USER_CHARGES


@<TRIPOS>ATOM
1 C 82.539 12.675 17.225 C 0.0 **** 0.0
2 H 81.5 12.359 17.138 H 0.0 **** 0.0
3 H 83.127 12.21 16.434 H 0.0 **** 0.0
4 H 82.931 12.371 18.196 H 0.0 **** 0.0
5 H 82.597 13.76 17.133 H 0.0 **** 0.0
@<TRIPOS>BOND
1 1 2 1
2 1 3 1
3 1 4 1
4 1 5 1
@<TRIPOS>MOLECULE
CH4
5 4
SMALL
USER_CHARGES


@<TRIPOS>ATOM
1 C 19.395 0.946 58.023 C 0.0 **** 0.0
2 H 19.638 0.522 57.048 H 0.0 **** 0.0
3 H 19.786 0.298 58.808 H 0.0 **** 0.0
4 H 18.313 1.028 58.123 H 0.0 **** 0.0
5 H 19.844 1.935 58.111 H 0.0 **** 0.0
@<TRIPOS>BOND
1 1 2 1
2 1 3 1
3 1 4 1
4 1 5 1
@<TRIPOS>MOLECULE
CH4
5 4
SMALL
USER_CHARGES


@<TRIPOS>ATOM
1 C 25.016 61.369 47.926 C 0.0 **** 0.0
2 H 25.802 60.661 48.193 H 0.0 **** 0.0
3 H 24.671 61.883 48.823 H 0.0 **** 0.0
4 H 24.184 60.832 47.471 H 0.0 **** 0.0
5 H 25.409 62.098 47.218 H 0.0 **** 0.0
@<TRIPOS>BOND
1 1 4 1
2 1 5 1
3 1 2 1
4 1 3 1
@<TRIPOS>MOLECULE
CH4
5 4
SMALL
USER_CHARGES


@<TRIPOS>ATOM
1 C 87.09 27.343 4.44 C 0.0 **** 0.0
2 H 86.196 27.834 4.056 H 0.0 **** 0.0
3 H 87.796 28.097 4.789 H 0.0 **** 0.0
4 H 87.549 26.753 3.647 H 0.0 **** 0.0
5 H 86.817 26.689 5.268 H 0.0 **** 0.0
@<TRIPOS>BOND
1 1 2 1
2 1 3 1
3 1 4 1
4 1 5 1
@<TRIPOS>MOLECULE
CH4
5 4
SMALL
USER_CHARGES


@<TRIPOS>ATOM
1 C 35.378 18.656 85.568 C 0.0 **** 0.0
2 H 35.629 18.846 86.612 H 0.0 **** 0.0
3 H 36.219 18.938 84.935 H 0.0 **** 0.0
4 H 34.503 19.245 85.293 H 0.0 **** 0.0
5 H 35.16 17.597 85.434 H 0.0 **** 0.0
@<TRIPOS>BOND
1 1 2 1
2 1 3 1
3 1 4 1
4 1 5 1
@<TRIPOS>MOLECULE
CH4
5 4
SMALL
USER_CHARGES


@<TRIPOS>ATOM
1 C 76.711 14.773 57.931 C 0.0 **** 0.0
2 H 76.552 14.339 58.918 H 0.0 **** 0.0
3 H 77.558 14.283 57.451 H 0.0 **** 0.0
4 H 76.916 15.839 58.032 H 0.0 **** 0.0
5 H 75.817 14.632 57.324 H 0.0 **** 0.0
@<TRIPOS>BOND
1 1 2 1
2 1 3 1
3 1 4 1
4 1 5 1
@<TRIPOS>MOLECULE
CH4
5 4
SMALL
USER_CHARGES


@<TRIPOS>ATOM
1 C 72.369 3.598 63.399 C 0.0 **** 0.0
2 H 72.168 4.607 63.761 H 0.0 **** 0.0
3 H 71.464 3.187 62.95 H 0.0 **** 0.0
4 H 72.68 2.969 64.233 H 0.0 **** 0.0
5 H 73.162 3.632 62.653 H 0.0 **** 0.0
@<TRIPOS>BOND
1 1 2 1
2 1 3 1
3 1 4 1
4 1 5 1
@<TRIPOS>MOLECULE
CH4
5 4
SMALL
USER_CHARGES


@<TRIPOS>ATOM
1 C 51.532 8.438 89.104 C 0.0 **** 0.0
2 H 51.257 8.147 88.091 H 0.0 **** 0.0
3 H 52.523 8.893 89.096 H 0.0 **** 0.0
4 H 51.541 7.556 89.745 H 0.0 **** 0.0
5 H 50.805 9.156 89.485 H 0.0 **** 0.0
@<TRIPOS>BOND
1 1 2 1
2 1 3 1
3 1 4 1
4 1 5 1
@<TRIPOS>MOLECULE
CH4
5 4
SMALL
USER_CHARGES


@<TRIPOS>ATOM
1 C 25.725 78.386 28.919 C 0.0 **** 0.0
2 H 25.667 79.394 29.329 H 0.0 **** 0.0
3 H 25.485 78.412 27.856 H 0.0 **** 0.0
4 H 25.013 77.742 29.437 H 0.0 **** 0.0
5 H 26.733 77.995 29.055 H 0.0 **** 0.0
@<TRIPOS>BOND
1 1 3 1
2 1 2 1
3 1 4 1
4 1 5 1
@<TRIPOS>MOLECULE
CH4
5 4
SMALL
USER_CHARGES


@<TRIPOS>ATOM
1 C 62.422 24.655 73.01 C 0.0 **** 0.0
2 H 61.473 24.406 72.533 H 0.0 **** 0.0
3 H 63.161 23.892 72.766 H 0.0 **** 0.0
4 H 62.285 24.698 74.09 H 0.0 **** 0.0
5 H 62.766 25.624 72.648 H 0.0 **** 0.0
@<TRIPOS>BOND
1 1 2 1
2 1 3 1
3 1 4 1
4 1 5 1
@<TRIPOS>MOLECULE
CH4
5 4
SMALL
USER_CHARGES


@<TRIPOS>ATOM
1 C 97.345 53.772 84.338 C 0.0 **** 0.0
2 H 97.539 54.367 85.23 H 0.0 **** 0.0
3 H 96.761 54.359 83.63 H 0.0 **** 0.0
4 H 96.789 52.876 84.614 H 0.0 **** 0.0
5 H 98.291 53.485 83.88 H 0.0 **** 0.0
@<TRIPOS>BOND
1 1 2 1
2 1 3 1
3 1 4 1
4 1 5 1
@<TRIPOS>MOLECULE
CH4
5 4
SMALL
USER_CHARGES


@<TRIPOS>ATOM
1 C 62.724 83.246 90.998 C 0.0 **** 0.0
2 H 62.746 83.867 90.102 H 0.0 **** 0.0
3 H 62.086 82.38 90.823 H 0.0 **** 0.0
4 H 62.329 83.826 91.832 H 0.0 **** 0.0
5 H 63.734 82.912 91.233 H 0.0 **** 0.0
@<TRIPOS>BOND
1 1 2 1
2 1 3 1
3 1 4 1
4 1 5 1
@<TRIPOS>MOLECULE
CH4
5 4
SMALL
USER_CHARGES


@<TRIPOS>ATOM
1 C 87.583 77.939 72.868 C 0.0 **** 0.0
2 H 86.655 77.622 73.345 H 0.0 **** 0.0
3 H 87.886 77.194 72.132 H 0.0 **** 0.0
4 H 88.362 78.043 73.622 H 0.0 **** 0.0
5 H 87.426 78.897 72.372 H 0.0 **** 0.0
@<TRIPOS>BOND
1 1 2 1
2 1 3 1
3 1 4 1
4 1 5 1
@<TRIPOS>MOLECULE
CH4
5 4
SMALL
USER_CHARGES


@<TRIPOS>ATOM
1 C 26.723 83.653 86.581 C 0.0 **** 0.0
2 H 26.056 83.978 87.379 H 0.0 **** 0.0
3 H 27.129 84.527 86.07 H 0.0 **** 0.0
4 H 26.168 83.041 85.87 H 0.0 **** 0.0
5 H 27.539 83.068 87.005 H 0.0 **** 0.0
@<TRIPOS>BOND
1 1 2 1
2 1 3 1
3 1 4 1
4 1 5 1
@<TRIPOS>MOLECULE
CH4
5 4
SMALL
USER_CHARGES


@<TRIPOS>ATOM
1 C 19.143 94.589 49.378 C 0.0 **** 0.0
2 H 19.632 95.184 48.607 H 0.0 **** 0.0
3 H 19.807 93.781 49.688 H 0.0 **** 0.0
4 H 18.219 94.168 48.981 H 0.0 **** 0.0
5 H 18.915 95.222 50.235 H 0.0 **** 0.0
@<TRIPOS>BOND
1 1 2 1
2 1 3 1
3 1 4 1
4 1 5 1
@<TRIPOS>MOLECULE
CH4
5 4
SMALL
USER_CHARGES


@<TRIPOS>ATOM
1 C 96.276 18.974 69.329 C 0.0 **** 0.0
2 H 95.978 18.962 70.377 H 0.0 **** 0.0
3 H 95.898 18.079 68.834 H 0.0 **** 0.0
4 H 97.363 18.995 69.261 H 0.0 **** 0.0
5 H 95.864 19.859 68.844 H 0.0 **** 0.0
@<TRIPOS>BOND
1 1 2 1
2 1 3 1
3 1 4 1
4 1 5 1
@<TRIPOS>MOLECULE
CH4
5 4
SMALL
USER_CHARGES


@<TRIPOS>ATOM
1 C 25.331 57.116 71.668 C 0.0 **** 0.0
2 H 24.974 56.22 71.162 H 0.0 **** 0.0
3 H 26.247 57.463 71.189 H 0.0 **** 0.0
4 H 25.533 56.887 72.714 H 0.0 **** 0.0
5 H 24.571 57.896 71.607 H 0.0 **** 0.0
@<TRIPOS>BOND
1 1 2 1
2 1 3 1
3 1 4 1
4 1 5 1
@<TRIPOS>MOLECULE
CH4
5 4
SMALL
USER_CHARGES


@<TRIPOS>ATOM
1 C 29.825 12.762 4.213 C 0.0 **** 0.0
2 H 29.044 12.062 4.51 H 0.0 **** 0.0
3 H 30.363 13.102 5.098 H 0.0 **** 0.0
4 H 29.375 13.617 3.71 H 0.0 **** 0.0
5 H 30.519 12.264 3.535 H 0.0 **** 0.0
@<TRIPOS>BOND
1 1 2 1
2 1 3 1
3 1 4 1
4 1 5 1
@<TRIPOS>MOLECULE
CH4
5 4
SMALL
USER_CHARGES


@<TRIPOS>ATOM
1 C 73.327 87.911 95.8 C 0.0 **** 0.0
2 H 72.482 87.876 96.487 H 0.0 **** 0.0
3 H 74.048 88.65 96.149 H 0.0 **** 0.0
4 H 72.976 88.186 94.806 H 0.0 **** 0.0
5 H 73.802 86.931 95.759 H 0.0 **** 0.0
@<TRIPOS>BOND
1 1 2 1
2 1 3 1
3 1 4 1
4 1 5 1
@<TRIPOS>MOLECULE
CH4
5 4
SMALL
USER_CHARGES


@<TRIPOS>ATOM
1 C 26.578 74.481 65.424 C 0.0 **** 0.0
2 H 26.023 75.218 66.004 H 0.0 **** 0.0
3 H 26.028 73.54 65.411 H 0.0 **** 0.0
4 H 27.557 74.324 65.878 H 0.0 **** 0.0
5 H 26.705 74.843 64.403 H 0.0 **** 0.0
@<TRIPOS>BOND
1 1 3 1
2 1 5 1
3 1 2 1
4 1 4 1
@<TRIPOS>MOLECULE
CH4
5 4
SMALL
USER_CHARGES


@<TRIPOS>ATOM
1 C 96.618 13.046 40.069 C 0.0 **** 0.0
2 H 96.495 12.907 41.143 H 0.0 **** 0.0
3 H 97.347 12.328 39.691 H 0.0 **** 0.0
4 H 96.97 14.059 39.872 H 0.0 **** 0.0
5 H 95.662 12.89 39.57 H 0.0 **** 0.0
@<TRIPOS>BOND
1 1 2 1
2 1 3 1
3 1 4 1
4 1 5 1
@<TRIPOS>MOLECULE
CH4
5 4
SMALL
USER_CHARGES


@<TRIPOS>ATOM
1 C 60.184 34.383 75.985 C 0.0 **** 0.0
2 H 60.054 34.164 74.925 H 0.0 **** 0.0
3 H 60.634 35.369 76.1 H 0.0 **** 0.0
4 H 60.835 33.632 76.434 H 0.0 **** 0.0
5 H 59.213 34.365 76.481 H 0.0 **** 0.0
@<TRIPOS>BOND
1 1 2 1
2 1 3 1
3 1 4 1
4 1 5 1
@<TRIPOS>MOLECULE
CH4
5 4
SMALL
USER_CHARGES


@<TRIPOS>ATOM
1 C 85.854 58.14 20.544 C 0.0 **** 0.0
2 H 85.074 58.266 19.793 H 0.0 **** 0.0
3 H 86.471 59.038 20.58 H 0.0 **** 0.0
4 H 86.474 57.283 20.283 H 0.0 **** 0.0
5 H 85.396 57.974 21.519 H 0.0 **** 0.0
@<TRIPOS>BOND
1 1 2 1
2 1 3 1
3 1 4 1
4 1 5 1
@<TRIPOS>MOLECULE
CH4
5 4
SMALL
USER_CHARGES


@<TRIPOS>ATOM
1 C 29.13 50.804 4.67 C 0.0 **** 0.0
2 H 28.663 50.097 3.985 H 0.0 **** 0.0
3 H 28.547 51.725 4.694 H 0.0 **** 0.0
4 H 30.143 51.023 4.332 H 0.0 **** 0.0
5 H 29.166 50.371 5.67 H 0.0 **** 0.0
@<TRIPOS>BOND
1 1 2 1
2 1 3 1
3 1 4 1
4 1 5 1
@<TRIPOS>MOLECULE
CH4
5 4
SMALL
USER_CHARGES


@<TRIPOS>ATOM
1 C 91.488 42.365 63.609 C 0.0 **** 0.0
2 H 92.477 42.774 63.403 H 0.0 **** 0.0
3 H 91.132 41.817 62.736 H 0.0 **** 0.0
4 H 90.798 43.178 63.834 H 0.0 **** 0.0
5 H 91.545 41.69 64.463 H 0.0 **** 0.0
@<TRIPOS>BOND
1 1 2 1
2 1 3 1
3 1 4 1
4 1 5 1
@<TRIPOS>MOLECULE
CH4
5 4
SMALL
USER_CHARGES


@<TRIPOS>ATOM
1 C 14.083 43.104 29.57 C 0.0 **** 0.0
2 H 14.384 43.378 30.582 H 0.0 **** 0.0
3 H 13.788 44.0 29.024 H 0.0 **** 0.0
4 H 13.242 42.413 29.616 H 0.0 **** 0.0
5 H 14.919 42.626 29.06 H 0.0 **** 0.0
@<TRIPOS>BOND
1 1 2 1
2 1 3 1
3 1 4 1
4 1 5 1
@<TRIPOS>MOLECULE
CH4
5 4
SMALL
USER_CHARGES


@<TRIPOS>ATOM
1 C 19.996 89.76 30.156 C 0.0 **** 0.0
2 H 18.93 89.54 30.226 H 0.0 **** 0.0
3 H 20.429 89.199 29.327 H 0.0 **** 0.0
4 H 20.487 89.473 31.086 H 0.0 **** 0.0
5 H 20.135 90.827 29.985 H 0.0 **** 0.0
@<TRIPOS>BOND
1 1 2 1
2 1 3 1
3 1 4 1
4 1 5 1
@<TRIPOS>MOLECULE
CH4
5 4
SMALL
USER_CHARGES


@<TRIPOS>ATOM
1 C 97.623 75.623 30.843 C 0.0 **** 0.0
2 H 98.649 75.634 31.21 H 0.0 **** 0.0
3 H 97.265 76.648 30.736 H 0.0 **** 0.0
4 H 96.99 75.09 31.552 H 0.0 **** 0.0
5 H 97.588 75.122 29.876 H 0.0 **** 0.0
@<TRIPOS>BOND
1 1 2 1
2 1 3 1
3 1 4 1
4 1 5 1
@<TRIPOS>MOLECULE
CH4
5 4
SMALL
USER_CHARGES


@<TRIPOS>ATOM
1 C 64.8 26.134 69.658 C 0.0 **** 0.0
2 H 65.572 26.594 69.042 H 0.0 **** 0.0
3 H 65.053 25.089 69.837 H 0.0 **** 0.0
4 H 63.841 26.192 69.142 H 0.0 **** 0.0
5 H 64.733 26.66 70.61 H 0.0 **** 0.0
@<TRIPOS>BOND
1 1 2 1
2 1 3 1
3 1 4 1
4 1 5 1
@<TRIPOS>MOLECULE
CH4
5 4
SMALL
USER_CHARGES


@<TRIPOS>ATOM
1 C 80.954 88.39 60.141 C 0.0 **** 0.0
2 H 80.909 88.626 61.205 H 0.0 **** 0.0
3 H 81.206 87.338 60.013 H 0.0 **** 0.0
4 H 81.715 89.008 59.665 H 0.0 **** 0.0
5 H 79.985 88.591 59.684 H 0.0 **** 0.0
@<TRIPOS>BOND
1 1 2 1
2 1 3 1
3 1 4 1
4 1 5 1
@<TRIPOS>MOLECULE
CH4
5 4
SMALL
USER_CHARGES


@<TRIPOS>ATOM
1 C 18.704 20.639 80.805 C 0.0 **** 0.0
2 H 19.41 20.769 81.625 H 0.0 **** 0.0
3 H 19.247 20.612 79.86 H 0.0 **** 0.0
4 H 18.0 21.471 80.796 H 0.0 **** 0.0
5 H 18.16 19.704 80.938 H 0.0 **** 0.0
@<TRIPOS>BOND
1 1 2 1
2 1 3 1
3 1 4 1
4 1 5 1
@<TRIPOS>MOLECULE
CH4
5 4
SMALL
USER_CHARGES


@<TRIPOS>ATOM
1 C 12.101 61.052 29.653 C 0.0 **** 0.0
2 H 11.152 61.072 30.19 H 0.0 **** 0.0
3 H 12.921 61.172 30.361 H 0.0 **** 0.0
4 H 12.125 61.865 28.927 H 0.0 **** 0.0
5 H 12.204 60.098 29.135 H 0.0 **** 0.0
@<TRIPOS>BOND
1 1 2 1
2 1 3 1
3 1 4 1
4 1 5 1
@<TRIPOS>MOLECULE
CH4
5 4
SMALL
USER_CHARGES


@<TRIPOS>ATOM
1 C 86.8 79.191 44.352 C 0.0 **** 0.0
2 H 87.693 78.638 44.643 H 0.0 **** 0.0
3 H 86.213 79.426 45.24 H 0.0 **** 0.0
4 H 86.202 78.584 43.672 H 0.0 **** 0.0
5 H 87.091 80.115 43.854 H 0.0 **** 0.0
@<TRIPOS>BOND
1 1 2 1
2 1 3 1
3 1 4 1
4 1 5 1
@<TRIPOS>MOLECULE
CH4
5 4
SMALL
USER_CHARGES


@<TRIPOS>ATOM
1 C 68.088 80.675 32.701 C 0.0 **** 0.0
2 H 67.427 80.45 33.538 H 0.0 **** 0.0
3 H 68.259 81.75 32.652 H 0.0 **** 0.0
4 H 67.628 80.337 31.773 H 0.0 **** 0.0
5 H 69.04 80.161 32.843 H 0.0 **** 0.0
@<TRIPOS>BOND
1 1 2 1
2 1 3 1
3 1 4 1
4 1 5 1
@<TRIPOS>MOLECULE
CH4
5 4
SMALL
USER_CHARGES


@<TRIPOS>ATOM
1 C 16.179 24.307 65.493 C 0.0 **** 0.0
2 H 16.157 24.211 64.407 H 0.0 **** 0.0
3 H 17.188 24.109 65.855 H 0.0 **** 0.0
4 H 15.487 23.589 65.935 H 0.0 **** 0.0
5 H 15.883 25.317 65.774 H 0.0 **** 0.0
@<TRIPOS>BOND
1 1 2 1
2 1 3 1
3 1 4 1
4 1 5 1
@<TRIPOS>MOLECULE
CH4
5 4
SMALL
USER_CHARGES


@<TRIPOS>ATOM
1 C 11.014 83.072 13.034 C 0.0 **** 0.0
2 H 10.082 83.56 13.32 H 0.0 **** 0.0
3 H 11.185 83.212 11.967 H 0.0 **** 0.0
4 H 10.948 82.006 13.255 H 0.0 **** 0.0
5 H 11.84 83.509 13.595 H 0.0 **** 0.0
@<TRIPOS>BOND
1 1 2 1
2 1 3 1
3 1 4 1
4 1 5 1
@<TRIPOS>MOLECULE
CH4
5 4
SMALL
USER_CHARGES


@<TRIPOS>ATOM
1 C 29.408 56.603 28.911 C 0.0 **** 0.0
2 H 29.225 57.367 29.666 H 0.0 **** 0.0
3 H 29.169 55.622 29.321 H 0.0 **** 0.0
4 H 30.457 56.628 28.615 H 0.0 **** 0.0
5 H 28.781 56.796 28.04 H 0.0 **** 0.0
@<TRIPOS>BOND
1 1 4 1
2 1 5 1
3 1 2 1
4 1 3 1
@<TRIPOS>MOLECULE
CH4
5 4
SMALL
USER_CHARGES


@<TRIPOS>ATOM
1 C 60.383 44.094 84.469 C 0.0 **** 0.0
2 H 60.142 44.617 83.543 H 0.0 **** 0.0
3 H 60.121 43.041 84.37 H 0.0 **** 0.0
4 H 59.818 44.534 85.291 H 0.0 **** 0.0
5 H 61.45 44.187 84.671 H 0.0 **** 0.0
@<TRIPOS>BOND
1 1 2 1
2 1 3 1
3 1 4 1
4 1 5 1
@<TRIPOS>MOLECULE
CH4
5 4
SMALL
USER_CHARGES


@<TRIPOS>ATOM
1 C 69.933 3.295 93.178 C 0.0 **** 0.0
2 H 69.8 4.322 93.517 H 0.0 **** 0.0
3 H 69.777 2.613 94.014 H 0.0 **** 0.0
4 H 70.944 3.168 92.79 H 0.0 **** 0.0
5 H 69.212 3.076 92.39 H 0.0 **** 0.0
@<TRIPOS>BOND
1 1 2 1
2 1 3 1
3 1 4 1
4 1 5 1
@<TRIPOS>MOLECULE
CH4
5 4
SMALL
USER_CHARGES


@<TRIPOS>ATOM
1 C 26.665 54.525 67.673 C 0.0 **** 0.0
2 H 26.851 55.594 67.567 H 0.0 **** 0.0
3 H 26.648 54.263 68.731 H 0.0 **** 0.0
4 H 27.456 53.968 67.172 H 0.0 **** 0.0
5 H 25.704 54.278 67.222 H 0.0 **** 0.0
@<TRIPOS>BOND
1 1 2 1
2 1 3 1
3 1 4 1
4 1 5 1
@<TRIPOS>MOLECULE
CH4
5 4
SMALL
USER_CHARGES


@<TRIPOS>ATOM
1 C 76.618 78.971 71.032 C 0.0 **** 0.0
2 H 76.609 77.926 70.72 H 0.0 **** 0.0
3 H 77.038 79.584 70.235 H 0.0 **** 0.0
4 H 77.225 79.076 71.931 H 0.0 **** 0.0
5 H 75.598 79.295 71.242 H 0.0 **** 0.0
@<TRIPOS>BOND
1 1 2 1
2 1 3 1
3 1 4 1
4 1 5 1
@<TRIPOS>MOLECULE
CH4
5 4
SMALL
USER_CHARGES


@<TRIPOS>ATOM
1 C 64.528 32.921 31.507 C 0.0 **** 0.0
2 H 64.387 32.393 30.564 H 0.0 **** 0.0
3 H 65.483 32.632 31.946 H 0.0 **** 0.0
4 H 63.72 32.663 32.192 H 0.0 **** 0.0
5 H 64.521 33.996 31.326 H 0.0 **** 0.0
@<TRIPOS>BOND
1 1 2 1
2 1 3 1
3 1 4 1
4 1 5 1
@<TRIPOS>MOLECULE
CH4
5 4
SMALL
USER_CHARGES


@<TRIPOS>ATOM
1 C 32.667 77.849 96.203 C 0.0 **** 0.0
2 H 31.614 77.666 96.414 H 0.0 **** 0.0
3 H 33.019 77.129 95.463 H 0.0 **** 0.0
4 H 33.246 77.741 97.12 H 0.0 **** 0.0
5 H 32.789 78.86 95.813 H 0.0 **** 0.0
@<TRIPOS>BOND
1 1 2 1
2 1 3 1
3 1 4 1
4 1 5 1
@<TRIPOS>MOLECULE
CH4
5 4
SMALL
USER_CHARGES


@<TRIPOS>ATOM
1 C 22.823 97.65 76.001 C 0.0 **** 0.0
2 H 23.853 97.302 76.088 H 0.0 **** 0.0
3 H 22.17 96.803 75.792 H 0.0 **** 0.0
4 H 22.753 98.373 75.188 H 0.0 **** 0.0
5 H 22.52 98.123 76.935 H 0.0 **** 0.0
@<TRIPOS>BOND
1 1 2 1
2 1 3 1
3 1 4 1
4 1 5 1
@<TRIPOS>MOLECULE
CH4
5 4
SMALL
USER_CHARGES


@<TRIPOS>ATOM
1 C 9.168 13.466 88.198 C 0.0 **** 0.0
2 H 9.096 14.286 88.913 H 0.0 **** 0.0
3 H 9.335 12.531 88.734 H 0.0 **** 0.0
4 H 10.0 13.65 87.518 H 0.0 **** 0.0
5 H 8.241 13.398 87.629 H 0.0 **** 0.0
@<TRIPOS>BOND
1 1 2 1
2 1 3 1
3 1 4 1
4 1 5 1
@<TRIPOS>MOLECULE
CH4
5 4
SMALL
USER_CHARGES


@<TRIPOS>ATOM
1 C 15.489 90.033 6.181 C 0.0 **** 0.0
2 H 16.391 89.713 5.659 H 0.0 **** 0.0
3 H 14.611 89.682 5.638 H 0.0 **** 0.0
4 H 15.47 91.122 6.238 H 0.0 **** 0.0
5 H 15.485 89.617 7.188 H 0.0 **** 0.0
@<TRIPOS>BOND
1 1 2 1
2 1 3 1
3 1 4 1
4 1 5 1
@<TRIPOS>MOLECULE
CH4
5 4
SMALL
USER_CHARGES


@<TRIPOS>ATOM
1 C 11.762 19.303 92.291 C 0.0 **** 0.0
2 H 11.813 19.308 93.379 H 0.0 **** 0.0
3 H 12.681 18.879 91.886 H 0.0 **** 0.0
4 H 11.641 20.324 91.928 H 0.0 **** 0.0
5 H 10.912 18.701 91.97 H 0.0 **** 0.0
@<TRIPOS>BOND
1 1 2 1
2 1 3 1
3 1 4 1
4 1 5 1
@<TRIPOS>MOLECULE
CH4
5 4
SMALL
USER_CHARGES


@<TRIPOS>ATOM
1 C 47.269 11.218 42.887 C 0.0 **** 0.0
2 H 48.192 11.709 43.198 H 0.0 **** 0.0
3 H 46.813 10.725 43.745 H 0.0 **** 0.0
4 H 47.493 10.478 42.119 H 0.0 **** 0.0
5 H 46.58 11.962 42.486 H 0.0 **** 0.0
@<TRIPOS>BOND
1 1 2 1
2 1 3 1
3 1 4 1
4 1 5 1
@<TRIPOS>MOLECULE
CH4
5 4
SMALL
USER_CHARGES


@<TRIPOS>ATOM
1 C 32.551 6.9 44.985 C 0.0 **** 0.0
2 H 31.737 6.914 44.26 H 0.0 **** 0.0
3 H 32.269 6.277 45.834 H 0.0 **** 0.0
4 H 32.75 7.915 45.327 H 0.0 **** 0.0
5 H 33.447 6.492 44.516 H 0.0 **** 0.0
@<TRIPOS>BOND
1 1 2 1
2 1 3 1
3 1 4 1
4 1 5 1
@<TRIPOS>MOLECULE
CH4
5 4
SMALL
USER_CHARGES


@<TRIPOS>ATOM
1 C 85.198 64.697 20.486 C 0.0 **** 0.0
2 H 84.734 64.163 21.315 H 0.0 **** 0.0
3 H 85.143 65.771 20.669 H 0.0 **** 0.0
4 H 84.673 64.459 19.561 H 0.0 **** 0.0
5 H 86.242 64.396 20.4 H 0.0 **** 0.0
@<TRIPOS>BOND
1 1 2 1
2 1 3 1
3 1 4 1
4 1 5 1
@<TRIPOS>MOLECULE
CH4
5 4
SMALL
USER_CHARGES


@<TRIPOS>ATOM
1 C 54.852 71.229 14.116 C 0.0 **** 0.0
2 H 55.626 71.452 14.85 H 0.0 **** 0.0
3 H 53.871 71.424 14.551 H 0.0 **** 0.0
4 H 54.919 70.18 13.825 H 0.0 **** 0.0
5 H 54.992 71.859 13.237 H 0.0 **** 0.0
@<TRIPOS>BOND
1 1 2 1
2 1 3 1
3 1 4 1
4 1 5 1
@<TRIPOS>MOLECULE
CH4
5 4
SMALL
USER_CHARGES


@<TRIPOS>ATOM
1 C 98.201 46.396 28.74 C 0.0 **** 0.0
2 H 98.143 46.327 27.654 H 0.0 **** 0.0
3 H 97.249 46.091 29.175 H 0.0 **** 0.0
4 H 98.42 47.425 29.027 H 0.0 **** 0.0
5 H 98.993 45.741 29.103 H 0.0 **** 0.0
@<TRIPOS>BOND
1 1 2 1
2 1 3 1
3 1 4 1
4 1 5 1
@<TRIPOS>MOLECULE
CH4
5 4
SMALL
USER_CHARGES


@<TRIPOS>ATOM
1 C 16.236 35.621 3.965 C 0.0 **** 0.0
2 H 16.112 35.514 5.042 H 0.0 **** 0.0
3 H 16.061 34.66 3.482 H 0.0 **** 0.0
4 H 17.249 35.959 3.747 H 0.0 **** 0.0
5 H 15.521 36.353 3.588 H 0.0 **** 0.0
@<TRIPOS>BOND
1 1 5 1
2 1 2 1
3 1 3 1
4 1 4 1
@<TRIPOS>MOLECULE
CH4
5 4
SMALL
USER_CHARGES


@<TRIPOS>ATOM
1 C 81.305 81.127 35.216 C 0.0 **** 0.0
2 H 81.7 80.47 34.441 H 0.0 **** 0.0
3 H 80.349 81.538 34.891 H 0.0 **** 0.0
4 H 82.009 81.939 35.397 H 0.0 **** 0.0
5 H 81.162 80.559 36.135 H 0.0 **** 0.0
@<TRIPOS>BOND
1 1 3 1
2 1 4 1
3 1 5 1
4 1 2 1
@<TRIPOS>MOLECULE
CH4
5 4
SMALL
USER_CHARGES


@<TRIPOS>ATOM
1 C 77.916 53.191 50.929 C 0.0 **** 0.0
2 H 77.532 53.14 51.948 H 0.0 **** 0.0
3 H 77.51 52.365 50.346 H 0.0 **** 0.0
4 H 79.004 53.123 50.948 H 0.0 **** 0.0
5 H 77.619 54.137 50.476 H 0.0 **** 0.0
@<TRIPOS>BOND
1 1 2 1
2 1 3 1
3 1 4 1
4 1 5 1
@<TRIPOS>MOLECULE
CH4
5 4
SMALL
USER_CHARGES


@<TRIPOS>ATOM
1 C 78.913 20.46 26.261 C 0.0 **** 0.0
2 H 79.088 21.359 26.852 H 0.0 **** 0.0
3 H 79.852 19.921 26.134 H 0.0 **** 0.0
4 H 78.519 20.739 25.284 H 0.0 **** 0.0
5 H 78.194 19.823 26.775 H 0.0 **** 0.0
@<TRIPOS>BOND
1 1 2 1
2 1 3 1
3 1 4 1
4 1 5 1
@<TRIPOS>MOLECULE
CH4
5 4
SMALL
USER_CHARGES


@<TRIPOS>ATOM
1 C 62.605 84.172 27.95 C 0.0 **** 0.0
2 H 63.268 83.723 28.69 H 0.0 **** 0.0
3 H 61.84 84.76 28.457 H 0.0 **** 0.0
4 H 62.131 83.385 27.363 H 0.0 **** 0.0
5 H 63.183 84.818 27.29 H 0.0 **** 0.0
@<TRIPOS>BOND
1 1 2 1
2 1 3 1
3 1 4 1
4 1 5 1
@<TRIPOS>MOLECULE
CH4
5 4
SMALL
USER_CHARGES


@<TRIPOS>ATOM
1 C 65.358 47.399 73.176 C 0.0 **** 0.0
2 H 65.366 48.079 72.325 H 0.0 **** 0.0
3 H 66.379 47.233 73.519 H 0.0 **** 0.0
4 H 64.916 46.448 72.876 H 0.0 **** 0.0
5 H 64.769 47.835 73.983 H 0.0 **** 0.0
@<TRIPOS>BOND
1 1 2 1
2 1 3 1
3 1 4 1
4 1 5 1
@<TRIPOS>MOLECULE
CH4
5 4
SMALL
USER_CHARGES


@<TRIPOS>ATOM
1 C 25.224 5.571 24.88 C 0.0 **** 0.0
2 H 25.555 5.136 23.937 H 0.0 **** 0.0
3 H 25.674 5.025 25.71 H 0.0 **** 0.0
4 H 24.138 5.508 24.948 H 0.0 **** 0.0
5 H 25.531 6.616 24.925 H 0.0 **** 0.0
@<TRIPOS>BOND
1 1 2 1
2 1 3 1
3 1 4 1
4 1 5 1
@<TRIPOS>MOLECULE
CH4
5 4
SMALL
USER_CHARGES


@<TRIPOS>ATOM
1 C 43.347 26.776 29.531 C 0.0 **** 0.0
2 H 42.771 26.298 30.324 H 0.0 **** 0.0
3 H 43.251 26.196 28.613 H 0.0 **** 0.0
4 H 44.396 26.824 29.824 H 0.0 **** 0.0
5 H 42.969 27.785 29.366 H 0.0 **** 0.0
@<TRIPOS>BOND
1 1 2 1
2 1 3 1
3 1 4 1
4 1 5 1
@<TRIPOS>MOLECULE
CH4
5 4
SMALL
USER_CHARGES


@<TRIPOS>ATOM
1 C 9.737 44.042 35.776 C 0.0 **** 0.0
2 H 10.468 44.847 35.845 H 0.0 **** 0.0
3 H 9.257 44.07 34.798 H 0.0 **** 0.0
4 H 8.984 44.168 36.554 H 0.0 **** 0.0
5 H 10.239 43.083 35.908 H 0.0 **** 0.0
@<TRIPOS>BOND
1 1 2 1
2 1 3 1
3 1 4 1
4 1 5 1
@<TRIPOS>MOLECULE
CH4
5 4
SMALL
USER_CHARGES


@<TRIPOS>ATOM
1 C 1.589 14.46 76.164 C 0.0 **** 0.0
2 H 1.154 13.638 76.732 H 0.0 **** 0.0
3 H 1.796 15.295 76.835 H 0.0 **** 0.0
4 H 0.889 14.778 75.392 H 0.0 **** 0.0
5 H 2.518 14.128 75.699 H 0.0 **** 0.0
@<TRIPOS>BOND
1 1 5 1
2 1 4 1
3 1 2 1
4 1 3 1
@<TRIPOS>MOLECULE
CH4
5 4
SMALL
USER_CHARGES


@<TRIPOS>ATOM
1 C 75.275 13.286 54.1 C 0.0 **** 0.0
2 H 75.497 13.326 55.167 H 0.0 **** 0.0
3 H 74.541 12.502 53.912 H 0.0 **** 0.0
4 H 76.189 13.07 53.547 H 0.0 **** 0.0
5 H 74.873 14.246 53.777 H 0.0 **** 0.0
@<TRIPOS>BOND
1 1 2 1
2 1 3 1
3 1 4 1
4 1 5 1
@<TRIPOS>MOLECULE
CH4
5 4
SMALL
USER_CHARGES


@<TRIPOS>ATOM
1 C 73.881 6.273 61.304 C 0.0 **** 0.0
2 H 73.829 6.004 62.359 H 0.0 **** 0.0
3 H 74.646 5.672 60.812 H 0.0 **** 0.0
4 H 74.132 7.329 61.211 H 0.0 **** 0.0
5 H 72.915 6.087 60.834 H 0.0 **** 0.0
@<TRIPOS>BOND
1 1 2 1
2 1 3 1
3 1 4 1
4 1 5 1
@<TRIPOS>MOLECULE
CH4
5 4
SMALL
USER_CHARGES


@<TRIPOS>ATOM
1 C 3.27 52.423 11.714 C 0.0 **** 0.0
2 H 3.308 52.444 12.804 H 0.0 **** 0.0
3 H 3.213 53.442 11.333 H 0.0 **** 0.0
4 H 2.39 51.865 11.393 H 0.0 **** 0.0
5 H 4.168 51.94 11.329 H 0.0 **** 0.0
@<TRIPOS>BOND
1 1 2 1
2 1 3 1
3 1 4 1
4 1 5 1
@<TRIPOS>MOLECULE
CH4
5 4
SMALL
USER_CHARGES


@<TRIPOS>ATOM
1 C 12.414 93.207 2.347 C 0.0 **** 0.0
2 H 12.32 92.803 3.355 H 0.0 **** 0.0
3 H 11.677 93.997 2.202 H 0.0 **** 0.0
4 H 12.243 92.412 1.62 H 0.0 **** 0.0
5 H 13.416 93.614 2.211 H 0.0 **** 0.0
@<TRIPOS>BOND
1 1 2 1
2 1 3 1
3 1 4 1
4 1 5 1
@<TRIPOS>MOLECULE
CH4
5 4
SMALL
USER_CHARGES


@<TRIPOS>ATOM
1 C 17.553 2.832 3.48 C 0.0 **** 0.0
2 H 18.134 2.252 2.762 H 0.0 **** 0.0
3 H 17.859 2.567 4.492 H 0.0 **** 0.0
4 H 16.493 2.611 3.351 H 0.0 **** 0.0
5 H 17.725 3.895 3.313 H 0.0 **** 0.0
@<TRIPOS>BOND
1 1 2 1
2 1 3 1
3 1 4 1
4 1 5 1
@<TRIPOS>MOLECULE
CH4
5 4
SMALL
USER_CHARGES


@<TRIPOS>ATOM
1 C 13.18 7.453 9.483 C 0.0 **** 0.0
2 H 13.189 7.037 10.491 H 0.0 **** 0.0
3 H 14.078 8.051 9.329 H 0.0 **** 0.0
4 H 12.298 8.082 9.358 H 0.0 **** 0.0
5 H 13.153 6.641 8.756 H 0.0 **** 0.0
@<TRIPOS>BOND
1 1 2 1
2 1 3 1
3 1 4 1
4 1 5 1
@<TRIPOS>MOLECULE
CH4
5 4
SMALL
USER_CHARGES


@<TRIPOS>ATOM
1 C 93.988 40.664 77.567 C 0.0 **** 0.0
2 H 94.947 40.909 78.024 H 0.0 **** 0.0
3 H 93.383 41.567 77.489 H 0.0 **** 0.0
4 H 93.469 39.93 78.184 H 0.0 **** 0.0
5 H 94.155 40.25 76.573 H 0.0 **** 0.0
@<TRIPOS>BOND
1 1 2 1
2 1 3 1
3 1 4 1
4 1 5 1
@<TRIPOS>MOLECULE
CH4
5 4
SMALL
USER_CHARGES


@<TRIPOS>ATOM
1 C 97.794 50.899 95.554 C 0.0 **** 0.0
2 H 98.19 51.352 96.463 H 0.0 **** 0.0
3 H 96.707 50.855 95.614 H 0.0 **** 0.0
4 H 98.194 49.891 95.446 H 0.0 **** 0.0
5 H 98.087 51.5 94.692 H 0.0 **** 0.0
@<TRIPOS>BOND
1 1 2 1
2 1 3 1
3 1 4 1
4 1 5 1
@<TRIPOS>MOLECULE
CH4
5 4
SMALL
USER_CHARGES


@<TRIPOS>ATOM
1 C 40.545 96.294 80.186 C 0.0 **** 0.0
2 H 41.042 96.754 79.333 H 0.0 **** 0.0
3 H 40.476 95.217 80.029 H 0.0 **** 0.0
4 H 39.543 96.711 80.291 H 0.0 **** 0.0
5 H 41.118 96.493 81.092 H 0.0 **** 0.0
@<TRIPOS>BOND
1 1 4 1
2 1 5 1
3 1 2 1
4 1 3 1
@<TRIPOS>MOLECULE
CH4
5 4
SMALL
USER_CHARGES


@<TRIPOS>ATOM
1 C 92.221 60.61 48.719 C 0.0 **** 0.0
2 H 92.118 60.046 47.792 H 0.0 **** 0.0
3 H 91.472 61.401 48.749 H 0.0 **** 0.0
4 H 93.217 61.05 48.767 H 0.0 **** 0.0
5 H 92.079 59.941 49.568 H 0.0 **** 0.0
@<TRIPOS>BOND
1 1 2 1
2 1 3 1
3 1 4 1
4 1 5 1
@<TRIPOS>MOLECULE
CH4
5 4
SMALL
USER_CHARGES


@<TRIPOS>ATOM
1 C 10.204 45.807 77.568 C 0.0 **** 0.0
2 H 9.746 46.694 78.005 H 0.0 **** 0.0
3 H 9.977 44.938 78.187 H 0.0 **** 0.0
4 H 11.285 45.944 77.518 H 0.0 **** 0.0
5 H 9.81 45.652 76.564 H 0.0 **** 0.0
@<TRIPOS>BOND
1 1 3 1
2 1 4 1
3 1 5 1
4 1 2 1
@<TRIPOS>MOLECULE
CH4
5 4
SMALL
USER_CHARGES


@<TRIPOS>ATOM
1 C 69.418 0.957 80.976 C 0.0 **** 0.0
2 H 70.347 0.386 80.982 H 0.0 **** 0.0
3 H 69.047 1.056 81.997 H 0.0 **** 0.0
4 H 68.677 0.437 80.369 H 0.0 **** 0.0
5 H 69.602 1.946 80.558 H 0.0 **** 0.0
@<TRIPOS>BOND
1 1 2 1
2 1 3 1
3 1 4 1
4 1 5 1
@<TRIPOS>MOLECULE
CH4
5 4
SMALL
USER_CHARGES


@<TRIPOS>ATOM
1 C 33.532 50.38 44.351 C 0.0 **** 0.0
2 H 34.182 49.61 43.935 H 0.0 **** 0.0
3 H 33.543 51.255 43.7 H 0.0 **** 0.0
4 H 33.89 50.66 45.342 H 0.0 **** 0.0
5 H 32.516 49.995 44.426 H 0.0 **** 0.0
@<TRIPOS>BOND
1 1 2 1
2 1 3 1
3 1 4 1
4 1 5 1
@<TRIPOS>MOLECULE
CH4
5 4
SMALL
USER_CHARGES


@<TRIPOS>ATOM
1 C 37.85 84.338 82.815 C 0.0 **** 0.0
2 H 38.267 85.074 83.502 H 0.0 **** 0.0
3 H 37.594 83.432 83.364 H 0.0 **** 0.0
4 H 38.586 84.102 82.046 H 0.0 **** 0.0
5 H 36.953 84.745 82.347 H 0.0 **** 0.0
@<TRIPOS>BOND
1 1 2 1
2 1 3 1
3 1 4 1
4 1 5 1
@<TRIPOS>MOLECULE
CH4
5 4
SMALL
USER_CHARGES


@<TRIPOS>ATOM
1 C 1.16 36.717 51.978 C 0.0 **** 0.0
2 H 0.815 37.736 52.154 H 0.0 **** 0.0
3 H 0.381 36.014 52.273 H 0.0 **** 0.0
4 H 2.059 36.532 52.566 H 0.0 **** 0.0
5 H 1.385 36.588 50.919 H 0.0 **** 0.0
@<TRIPOS>BOND
1 1 2 1
2 1 3 1
3 1 4 1
4 1 5 1
@<TRIPOS>MOLECULE
CH4
5 4
SMALL
USER_CHARGES


@<TRIPOS>ATOM
1 C 81.092 31.501 9.364 C 0.0 **** 0.0
2 H 81.989 30.972 9.043 H 0.0 **** 0.0
3 H 81.062 32.483 8.893 H 0.0 **** 0.0
4 H 81.108 31.617 10.448 H 0.0 **** 0.0
5 H 80.21 30.93 9.073 H 0.0 **** 0.0
@<TRIPOS>BOND
1 1 2 1
2 1 3 1
3 1 4 1
4 1 5 1
@<TRIPOS>MOLECULE
CH4
5 4
SMALL
USER_CHARGES


@<TRIPOS>ATOM
1 C 82.321 80.686 43.436 C 0.0 **** 0.0
2 H 82.528 81.572 44.037 H 0.0 **** 0.0
3 H 81.28 80.391 43.573 H 0.0 **** 0.0
4 H 82.974 79.873 43.751 H 0.0 **** 0.0
5 H 82.5 80.911 42.385 H 0.0 **** 0.0
@<TRIPOS>BOND
1 1 2 1
2 1 3 1
3 1 5 1
4 1 4 1
@<TRIPOS>MOLECULE
CH4
5 4
SMALL
USER_CHARGES


@<TRIPOS>ATOM
1 C 23.456 95.97 92.433 C 0.0 **** 0.0
2 H 23.052 94.959 92.378 H 0.0 **** 0.0
3 H 23.356 96.454 91.462 H 0.0 **** 0.0
4 H 24.509 95.926 92.711 H 0.0 **** 0.0
5 H 22.906 96.54 93.182 H 0.0 **** 0.0
@<TRIPOS>BOND
1 1 2 1
2 1 3 1
3 1 4 1
4 1 5 1
@<TRIPOS>MOLECULE
CH4
5 4
SMALL
USER_CHARGES


@<TRIPOS>ATOM
1 C 38.284 32.701 12.86 C 0.0 **** 0.0
2 H 38.878 32.552 13.762 H 0.0 **** 0.0
3 H 37.691 33.61 12.961 H 0.0 **** 0.0
4 H 37.621 31.848 12.717 H 0.0 **** 0.0
5 H 38.948 32.793 12.0 H 0.0 **** 0.0
@<TRIPOS>BOND
1 1 2 1
2 1 3 1
3 1 4 1
4 1 5 1
@<TRIPOS>MOLECULE
CH4
5 4
SMALL
USER_CHARGES


@<TRIPOS>ATOM
1 C 9.138 52.969 31.573 C 0.0 **** 0.0
2 H 8.666 52.861 30.597 H 0.0 **** 0.0
3 H 10.14 53.379 31.448 H 0.0 **** 0.0
4 H 9.202 51.994 32.056 H 0.0 **** 0.0
5 H 8.544 53.643 32.191 H 0.0 **** 0.0
@<TRIPOS>BOND
1 1 2 1
2 1 3 1
3 1 4 1
4 1 5 1
@<TRIPOS>MOLECULE
CH4
5 4
SMALL
USER_CHARGES


@<TRIPOS>ATOM
1 C 60.818 95.568 89.552 C 0.0 **** 0.0
2 H 60.684 95.088 90.522 H 0.0 **** 0.0
3 H 59.937 95.391 88.934 H 0.0 **** 0.0
4 H 61.697 95.153 89.06 H 0.0 **** 0.0
5 H 60.953 96.64 89.694 H 0.0 **** 0.0
@<TRIPOS>BOND
1 1 3 1
2 1 4 1
3 1 5 1
4 1 2 1
@<TRIPOS>MOLECULE
CH4
5 4
SMALL
USER_CHARGES


@<TRIPOS>ATOM
1 C 16.931 39.47 37.271 C 0.0 **** 0.0
2 H 16.703 38.526 37.765 H 0.0 **** 0.0
3 H 17.445 39.273 36.33 H 0.0 **** 0.0
4 H 17.571 40.072 37.916 H 0.0 **** 0.0
5 H 16.004 40.009 37.074 H 0.0 **** 0.0
@<TRIPOS>BOND
1 1 2 1
2 1 3 1
3 1 4 1
4 1 5 1
@<TRIPOS>MOLECULE
CH4
5 4
SMALL
USER_CHARGES


@<TRIPOS>ATOM
1 C 68.159 56.058 63.808 C 0.0 **** 0.0
2 H 69.07 55.466 63.71 H 0.0 **** 0.0
3 H 67.314 55.395 63.995 H 0.0 **** 0.0
4 H 67.988 56.614 62.886 H 0.0 **** 0.0
5 H 68.266 56.755 64.639 H 0.0 **** 0.0
@<TRIPOS>BOND
1 1 2 1
2 1 3 1
3 1 4 1
4 1 5 1
@<TRIPOS>MOLECULE
CH4
5 4
SMALL
USER_CHARGES


@<TRIPOS>ATOM
1 C 38.619 19.395 16.811 C 0.0 **** 0.0
2 H 38.604 19.456 15.723 H 0.0 **** 0.0
3 H 39.473 18.798 17.13 H 0.0 **** 0.0
4 H 37.698 18.928 17.162 H 0.0 **** 0.0
5 H 38.7 20.398 17.23 H 0.0 **** 0.0
@<TRIPOS>BOND
1 1 2 1
2 1 3 1
3 1 4 1
4 1 5 1
@<TRIPOS>MOLECULE
CH4
5 4
SMALL
USER_CHARGES


@<TRIPOS>ATOM
1 C 63.392 46.415 14.735 C 0.0 **** 0.0
2 H 63.236 45.835 13.825 H 0.0 **** 0.0
3 H 64.407 46.811 14.743 H 0.0 **** 0.0
4 H 63.243 45.775 15.604 H 0.0 **** 0.0
5 H 62.68 47.24 14.765 H 0.0 **** 0.0
@<TRIPOS>BOND
1 1 2 1
2 1 3 1
3 1 4 1
4 1 5 1
@<TRIPOS>MOLECULE
CH4
5 4
SMALL
USER_CHARGES


@<TRIPOS>ATOM
1 C 25.569 91.76 50.422 C 0.0 **** 0.0
2 H 25.79 91.592 51.476 H 0.0 **** 0.0
3 H 24.576 91.372 50.193 H 0.0 **** 0.0
4 H 26.31 91.246 49.809 H 0.0 **** 0.0
5 H 25.6 92.828 50.21 H 0.0 **** 0.0
@<TRIPOS>BOND
1 1 2 1
2 1 3 1
3 1 4 1
4 1 5 1
@<TRIPOS>MOLECULE
CH4
5 4
SMALL
USER_CHARGES


@<TRIPOS>ATOM
1 C 16.49 50.89 52.252 C 0.0 **** 0.0
2 H 16.531 50.491 51.239 H 0.0 **** 0.0
3 H 15.814 50.282 52.854 H 0.0 **** 0.0
4 H 16.128 51.917 52.225 H 0.0 **** 0.0
5 H 17.487 50.867 52.691 H 0.0 **** 0.0
@<TRIPOS>BOND
1 1 2 1
2 1 3 1
3 1 4 1
4 1 5 1
@<TRIPOS>MOLECULE
CH4
5 4
SMALL
USER_CHARGES


@<TRIPOS>ATOM
1 C 87.435 92.925 41.297 C 0.0 **** 0.0
2 H 86.886 93.865 41.235 H 0.0 **** 0.0
3 H 87.232 92.326 40.41 H 0.0 **** 0.0
4 H 87.119 92.379 42.186 H 0.0 **** 0.0
5 H 88.503 93.133 41.359 H 0.0 **** 0.0
@<TRIPOS>BOND
1 1 2 1
2 1 3 1
3 1 4 1
4 1 5 1
@<TRIPOS>MOLECULE
CH4
5 4
SMALL
USER_CHARGES


@<TRIPOS>ATOM
1 C 39.304 78.448 61.077 C 0.0 **** 0.0
2 H 39.351 78.48 59.988 H 0.0 **** 0.0
3 H 38.27 78.296 61.39 H 0.0 **** 0.0
4 H 39.673 79.389 61.485 H 0.0 **** 0.0
5 H 39.919 77.626 61.443 H 0.0 **** 0.0
@<TRIPOS>BOND
1 1 2 1
2 1 3 1
3 1 4 1
4 1 5 1
@<TRIPOS>MOLECULE
CH4
5 4
SMALL
USER_CHARGES


@<TRIPOS>ATOM
1 C 40.026 88.064 57.934 C 0.0 **** 0.0
2 H 39.911 87.618 56.947 H 0.0 **** 0.0
3 H 39.125 87.885 58.521 H 0.0 **** 0.0
4 H 40.187 89.137 57.832 H 0.0 **** 0.0
5 H 40.883 87.615 58.437 H 0.0 **** 0.0
@<TRIPOS>BOND
1 1 2 1
2 1 3 1
3 1 4 1
4 1 5 1
@<TRIPOS>MOLECULE
CH4
5 4
SMALL
USER_CHARGES


@<TRIPOS>ATOM
1 C 95.067 83.115 73.608 C 0.0 **** 0.0
2 H 94.601 83.373 72.657 H 0.0 **** 0.0
3 H 95.989 83.684 73.726 H 0.0 **** 0.0
4 H 95.293 82.049 73.624 H 0.0 **** 0.0
5 H 94.385 83.354 74.423 H 0.0 **** 0.0
@<TRIPOS>BOND
1 1 2 1
2 1 3 1
3 1 4 1
4 1 5 1
@<TRIPOS>MOLECULE
CH4
5 4
SMALL
USER_CHARGES


@<TRIPOS>ATOM
1 C 41.987 77.955 66.056 C 0.0 **** 0.0
2 H 41.968 78.3 67.089 H 0.0 **** 0.0
3 H 42.822 78.423 65.532 H 0.0 **** 0.0
4 H 41.052 78.225 65.565 H 0.0 **** 0.0
5 H 42.108 76.872 66.037 H 0.0 **** 0.0
@<TRIPOS>BOND
1 1 2 1
2 1 3 1
3 1 4 1
4 1 5 1
@<TRIPOS>MOLECULE
CH4
5 4
SMALL
USER_CHARGES


@<TRIPOS>ATOM
1 C 7.201 85.32 51.015 C 0.0 **** 0.0
2 H 8.288 85.236 51.035 H 0.0 **** 0.0
3 H 6.91 86.336 51.282 H 0.0 **** 0.0
4 H 6.77 84.619 51.729 H 0.0 **** 0.0
5 H 6.838 85.089 50.014 H 0.0 **** 0.0
@<TRIPOS>BOND
1 1 2 1
2 1 3 1
3 1 4 1
4 1 5 1
@<TRIPOS>MOLECULE
CH4
5 4
SMALL
USER_CHARGES


@<TRIPOS>ATOM
1 C 44.36 43.223 32.048 C 0.0 **** 0.0
2 H 44.664 42.405 31.395 H 0.0 **** 0.0
3 H 44.534 42.943 33.087 H 0.0 **** 0.0
4 H 43.301 43.431 31.899 H 0.0 **** 0.0
5 H 44.943 44.113 31.809 H 0.0 **** 0.0
@<TRIPOS>BOND
1 1 2 1
2 1 3 1
3 1 4 1
4 1 5 1
@<TRIPOS>MOLECULE
CH4
5 4
SMALL
USER_CHARGES


@<TRIPOS>ATOM
1 C 45.421 98.127 96.81 C 0.0 **** 0.0
2 H 45.501 98.379 95.753 H 0.0 **** 0.0
3 H 46.148 98.709 97.378 H 0.0 **** 0.0
4 H 45.62 97.064 96.946 H 0.0 **** 0.0
5 H 44.416 98.357 97.163 H 0.0 **** 0.0
@<TRIPOS>BOND
1 1 2 1
2 1 3 1
3 1 4 1
4 1 5 1
@<TRIPOS>MOLECULE
CH4
5 4
SMALL
USER_CHARGES


@<TRIPOS>ATOM
1 C 98.306 78.399 74.745 C 0.0 **** 0.0
2 H 98.389 78.815 73.741 H 0.0 **** 0.0
3 H 99.0 78.913 75.41 H 0.0 **** 0.0
4 H 98.547 77.336 74.718 H 0.0 **** 0.0
5 H 97.287 78.531 75.109 H 0.0 **** 0.0
@<TRIPOS>BOND
1 1 2 1
2 1 3 1
3 1 4 1
4 1 5 1
@<TRIPOS>MOLECULE
CH4
5 4
SMALL
USER_CHARGES


@<TRIPOS>ATOM
1 C 53.523 81.534 83.645 C 0.0 **** 0.0
2 H 52.814 81.307 82.849 H 0.0 **** 0.0
3 H 54.316 80.785 83.649 H 0.0 **** 0.0
4 H 53.007 81.523 84.605 H 0.0 **** 0.0
5 H 53.956 82.52 83.476 H 0.0 **** 0.0
@<TRIPOS>BOND
1 1 2 1
2 1 3 1
3 1 4 1
4 1 5 1
@<TRIPOS>MOLECULE
CH4
5 4
SMALL
USER_CHARGES


@<TRIPOS>ATOM
1 C 13.977 1.952 79.957 C 0.0 **** 0.0
2 H 13.677 1.139 79.295 H 0.0 **** 0.0
3 H 14.882 2.42 79.569 H 0.0 **** 0.0
4 H 14.17 1.556 80.954 H 0.0 **** 0.0
5 H 13.179 2.692 80.008 H 0.0 **** 0.0
@<TRIPOS>BOND
1 1 2 1
2 1 3 1
3 1 4 1
4 1 5 1
@<TRIPOS>MOLECULE
CH4
5 4
SMALL
USER_CHARGES


@<TRIPOS>ATOM
1 C 91.522 3.379 43.129 C 0.0 **** 0.0
2 H 90.946 3.152 42.232 H 0.0 **** 0.0
3 H 91.841 2.449 43.6 H 0.0 **** 0.0
4 H 90.904 3.945 43.824 H 0.0 **** 0.0
5 H 92.398 3.968 42.858 H 0.0 **** 0.0
@<TRIPOS>BOND
1 1 2 1
2 1 3 1
3 1 4 1
4 1 5 1
@<TRIPOS>MOLECULE
CH4
5 4
SMALL
USER_CHARGES


@<TRIPOS>ATOM
1 C 9.827 69.64 33.353 C 0.0 **** 0.0
2 H 9.603 69.35 32.326 H 0.0 **** 0.0
3 H 10.654 69.038 33.729 H 0.0 **** 0.0
4 H 8.947 69.478 33.975 H 0.0 **** 0.0
5 H 10.102 70.694 33.38 H 0.0 **** 0.0
@<TRIPOS>BOND
1 1 2 1
2 1 3 1
3 1 4 1
4 1 5 1
@<TRIPOS>MOLECULE
CH4
5 4
SMALL
USER_CHARGES


@<TRIPOS>ATOM
1 C 4.758 90.55 68.257 C 0.0 **** 0.0
2 H 5.191 90.928 67.332 H 0.0 **** 0.0
3 H 5.532 90.053 68.844 H 0.0 **** 0.0
4 H 3.966 89.838 68.024 H 0.0 **** 0.0
5 H 4.343 91.379 68.83 H 0.0 **** 0.0
@<TRIPOS>BOND
1 1 2 1
2 1 3 1
3 1 4 1
4 1 5 1
@<TRIPOS>MOLECULE
CH4
5 4
SMALL
USER_CHARGES


@<TRIPOS>ATOM
1 C 40.135 18.373 53.747 C 0.0 **** 0.0
2 H 40.14 18.31 52.659 H 0.0 **** 0.0
3 H 39.787 19.361 54.052 H 0.0 **** 0.0
4 H 41.145 18.211 54.124 H 0.0 **** 0.0
5 H 39.469 17.612 54.152 H 0.0 **** 0.0
@<TRIPOS>BOND
1 1 5 1
2 1 2 1
3 1 3 1
4 1 4 1
@<TRIPOS>MOLECULE
CH4
5 4
SMALL
USER_CHARGES


@<TRIPOS>ATOM
1 C 90.268 20.114 84.932 C 0.0 **** 0.0
2 H 90.098 20.515 85.931 H 0.0 **** 0.0
3 H 90.949 20.769 84.389 H 0.0 **** 0.0
4 H 89.319 20.053 84.399 H 0.0 **** 0.0
5 H 90.705 19.118 85.009 H 0.0 **** 0.0
@<TRIPOS>BOND
1 1 2 1
2 1 3 1
3 1 4 1
4 1 5 1
@<TRIPOS>MOLECULE
CH4
5 4
SMALL
USER_CHARGES


@<TRIPOS>ATOM
1 C 21.929 10.908 26.854 C 0.0 **** 0.0
2 H 21.914 10.881 27.944 H 0.0 **** 0.0
3 H 20.905 10.91 26.477 H 0.0 **** 0.0
4 H 22.454 10.032 26.476 H 0.0 **** 0.0
5 H 22.44 11.811 26.52 H 0.0 **** 0.0
@<TRIPOS>BOND
1 1 2 1
2 1 3 1
3 1 4 1
4 1 5 1
@<TRIPOS>MOLECULE
CH4
5 4
SMALL
USER_CHARGES


@<TRIPOS>ATOM
1 C 60.088 77.092 20.388 C 0.0 **** 0.0
2 H 61.078 76.744 20.683 H 0.0 **** 0.0
3 H 59.434 76.234 20.23 H 0.0 **** 0.0
4 H 60.165 77.666 19.465 H 0.0 **** 0.0
5 H 59.676 77.724 21.175 H 0.0 **** 0.0
@<TRIPOS>BOND
1 1 2 1
2 1 3 1
3 1 4 1
4 1 5 1
@<TRIPOS>MOLECULE
CH4
5 4
SMALL
USER_CHARGES


@<TRIPOS>ATOM
1 C 68.244 28.373 94.694 C 0.0 **** 0.0
2 H 67.473 29.042 95.075 H 0.0 **** 0.0
3 H 68.943 28.937 94.076 H 0.0 **** 0.0
4 H 67.781 27.588 94.096 H 0.0 **** 0.0
5 H 68.78 27.923 95.531 H 0.0 **** 0.0
@<TRIPOS>BOND
1 1 2 1
2 1 3 1
3 1 4 1
4 1 5 1
@<TRIPOS>MOLECULE
CH4
5 4
SMALL
USER_CHARGES


@<TRIPOS>ATOM
1 C 7.806 17.193 88.297 C 0.0 **** 0.0
2 H 7.037 17.956 88.414 H 0.0 **** 0.0
3 H 8.369 17.099 89.225 H 0.0 **** 0.0
4 H 8.481 17.479 87.49 H 0.0 **** 0.0
5 H 7.337 16.239 88.057 H 0.0 **** 0.0
@<TRIPOS>BOND
1 1 2 1
2 1 3 1
3 1 4 1
4 1 5 1
@<TRIPOS>MOLECULE
CH4
5 4
SMALL
USER_CHARGES


@<TRIPOS>ATOM
1 C 13.834 69.342 38.355 C 0.0 **** 0.0
2 H 12.745 69.363 38.325 H 0.0 **** 0.0
3 H 14.163 68.843 39.267 H 0.0 **** 0.0
4 H 14.218 70.362 38.34 H 0.0 **** 0.0
5 H 14.211 68.8 37.487 H 0.0 **** 0.0
@<TRIPOS>BOND
1 1 2 1
2 1 3 1
3 1 4 1
4 1 5 1
@<TRIPOS>MOLECULE
CH4
5 4
SMALL
USER_CHARGES


@<TRIPOS>ATOM
1 C 29.175 81.797 72.006 C 0.0 **** 0.0
2 H 29.705 82.347 71.229 H 0.0 **** 0.0
3 H 29.437 82.205 72.983 H 0.0 **** 0.0
4 H 29.458 80.745 71.964 H 0.0 **** 0.0
5 H 28.101 81.891 71.849 H 0.0 **** 0.0
@<TRIPOS>BOND
1 1 2 1
2 1 3 1
3 1 4 1
4 1 5 1
@<TRIPOS>MOLECULE
CH4
5 4
SMALL
USER_CHARGES


@<TRIPOS>ATOM
1 C 56.571 7.959 28.278 C 0.0 **** 0.0
2 H 56.927 8.975 28.451 H 0.0 **** 0.0
3 H 55.49 7.926 28.409 H 0.0 **** 0.0
4 H 57.045 7.283 28.989 H 0.0 **** 0.0
5 H 56.825 7.654 27.263 H 0.0 **** 0.0
@<TRIPOS>BOND
1 1 2 1
2 1 3 1
3 1 4 1
4 1 5 1
@<TRIPOS>MOLECULE
CH4
5 4
SMALL
USER_CHARGES


@<TRIPOS>ATOM
1 C 21.78 33.839 4.036 C 0.0 **** 0.0
2 H 22.218 33.107 4.715 H 0.0 **** 0.0
3 H 21.702 34.802 4.542 H 0.0 **** 0.0
4 H 20.787 33.506 3.734 H 0.0 **** 0.0
5 H 22.413 33.941 3.155 H 0.0 **** 0.0
@<TRIPOS>BOND
1 1 2 1
2 1 3 1
3 1 4 1
4 1 5 1
@<TRIPOS>MOLECULE
CH4
5 4
SMALL
USER_CHARGES


@<TRIPOS>ATOM
1 C 85.826 7.751 4.135 C 0.0 **** 0.0
2 H 86.436 8.626 4.359 H 0.0 **** 0.0
3 H 85.125 7.993 3.335 H 0.0 **** 0.0
4 H 85.273 7.456 5.027 H 0.0 **** 0.0
5 H 86.47 6.931 3.818 H 0.0 **** 0.0
@<TRIPOS>BOND
1 1 2 1
2 1 3 1
3 1 4 1
4 1 5 1
@<TRIPOS>MOLECULE
CH4
5 4
SMALL
USER_CHARGES


@<TRIPOS>ATOM
1 C 86.084 12.118 74.958 C 0.0 **** 0.0
2 H 86.261 11.501 74.077 H 0.0 **** 0.0
3 H 85.813 13.127 74.646 H 0.0 **** 0.0
4 H 86.991 12.156 75.562 H 0.0 **** 0.0
5 H 85.273 11.689 75.546 H 0.0 **** 0.0
@<TRIPOS>BOND
1 1 2 1
2 1 3 1
3 1 4 1
4 1 5 1
@<TRIPOS>MOLECULE
CH4
5 4
SMALL
USER_CHARGES


@<TRIPOS>ATOM
1 C 47.764 72.565 37.152 C 0.0 **** 0.0
2 H 47.628 72.423 36.079 H 0.0 **** 0.0
3 H 46.79 72.661 37.631 H 0.0 **** 0.0
4 H 48.347 73.469 37.327 H 0.0 **** 0.0
5 H 48.292 71.706 37.567 H 0.0 **** 0.0
@<TRIPOS>BOND
1 1 2 1
2 1 3 1
3 1 4 1
4 1 5 1
@<TRIPOS>MOLECULE
CH4
5 4
SMALL
USER_CHARGES


@<TRIPOS>ATOM
1 C 70.197 44.813 97.233 C 0.0 **** 0.0
2 H 69.971 45.828 96.908 H 0.0 **** 0.0
3 H 70.632 44.84 98.232 H 0.0 **** 0.0
4 H 70.905 44.359 96.54 H 0.0 **** 0.0
5 H 69.279 44.225 97.252 H 0.0 **** 0.0
@<TRIPOS>BOND
1 1 2 1
2 1 3 1
3 1 4 1
4 1 5 1
@<TRIPOS>MOLECULE
CH4
5 4
SMALL
USER_CHARGES


@<TRIPOS>ATOM
1 C 48.235 84.494 74.586 C 0.0 **** 0.0
2 H 49.323 84.431 74.576 H 0.0 **** 0.0
3 H 47.892 84.69 75.602 H 0.0 **** 0.0
4 H 47.814 83.553 74.234 H 0.0 **** 0.0
5 H 47.913 85.304 73.931 H 0.0 **** 0.0
@<TRIPOS>BOND
1 1 2 1
2 1 3 1
3 1 4 1
4 1 5 1
@<TRIPOS>MOLECULE
CH4
5 4
SMALL
USER_CHARGES


@<TRIPOS>ATOM
1 C 33.164 34.709 7.734 C 0.0 **** 0.0
2 H 32.321 35.16 7.21 H 0.0 **** 0.0
3 H 33.392 33.74 7.288 H 0.0 **** 0.0
4 H 32.908 34.575 8.785 H 0.0 **** 0.0
5 H 34.033 35.361 7.652 H 0.0 **** 0.0
@<TRIPOS>BOND
1 1 2 1
2 1 3 1
3 1 4 1
4 1 5 1
@<TRIPOS>MOLECULE
CH4
5 4
SMALL
USER_CHARGES


@<TRIPOS>ATOM
1 C 42.917 49.286 21.939 C 0.0 **** 0.0
2 H 43.349 48.722 22.766 H 0.0 **** 0.0
3 H 42.34 48.614 21.303 H 0.0 **** 0.0
4 H 43.716 49.743 21.355 H 0.0 **** 0.0
5 H 42.264 50.064 22.332 H 0.0 **** 0.0
@<TRIPOS>BOND
1 1 2 1
2 1 3 1
3 1 4 1
4 1 5 1
@<TRIPOS>MOLECULE
CH4
5 4
SMALL
USER_CHARGES


@<TRIPOS>ATOM
1 C 53.63 51.341 90.8 C 0.0 **** 0.0
2 H 54.152 51.514 89.859 H 0.0 **** 0.0
3 H 53.619 52.262 91.384 H 0.0 **** 0.0
4 H 54.144 50.561 91.362 H 0.0 **** 0.0
5 H 52.607 51.027 90.596 H 0.0 **** 0.0
@<TRIPOS>BOND
1 1 4 1
2 1 5 1
3 1 2 1
4 1 3 1
@<TRIPOS>MOLECULE
CH4
5 4
SMALL
USER_CHARGES


@<TRIPOS>ATOM
1 C 73.152 32.955 92.677 C 0.0 **** 0.0
2 H 73.453 33.763 93.343 H 0.0 **** 0.0
3 H 72.238 32.495 93.053 H 0.0 **** 0.0
4 H 73.943 32.206 92.633 H 0.0 **** 0.0
5 H 72.974 33.354 91.678 H 0.0 **** 0.0
@<TRIPOS>BOND
1 1 2 1
2 1 3 1
3 1 4 1
4 1 5 1
@<TRIPOS>MOLECULE
CH4
5 4
SMALL
USER_CHARGES


@<TRIPOS>ATOM
1 C 48.214 37.979 16.487 C 0.0 **** 0.0
2 H 48.024 37.621 15.476 H 0.0 **** 0.0
3 H 48.871 38.848 16.447 H 0.0 **** 0.0
4 H 48.689 37.189 17.069 H 0.0 **** 0.0
5 H 47.27 38.258 16.957 H 0.0 **** 0.0
@<TRIPOS>BOND
1 1 2 1
2 1 3 1
3 1 4 1
4 1 5 1
@<TRIPOS>MOLECULE
CH4
5 4
SMALL
USER_CHARGES


@<TRIPOS>ATOM
1 C 93.478 91.96 73.71 C 0.0 **** 0.0
2 H 92.619 92.597 73.501 H 0.0 **** 0.0
3 H 93.869 91.559 72.775 H 0.0 **** 0.0
4 H 93.171 91.138 74.358 H 0.0 **** 0.0
5 H 94.252 92.545 74.207 H 0.0 **** 0.0
@<TRIPOS>BOND
1 1 2 1
2 1 3 1
3 1 4 1
4 1 5 1
@<TRIPOS>MOLECULE
CH4
5 4
SMALL
USER_CHARGES


@<TRIPOS>ATOM
1 C 81.379 81.892 31.587 C 0.0 **** 0.0
2 H 82.097 82.567 31.122 H 0.0 **** 0.0
3 H 81.651 81.735 32.631 H 0.0 **** 0.0
4 H 81.387 80.936 31.062 H 0.0 **** 0.0
5 H 80.382 82.328 31.532 H 0.0 **** 0.0
@<TRIPOS>BOND
1 1 2 1
2 1 3 1
3 1 4 1
4 1 5 1
@<TRIPOS>MOLECULE
CH4
5 4
SMALL
USER_CHARGES


@<TRIPOS>ATOM
1 C 15.593 3.596 45.664 C 0.0 **** 0.0
2 H 16.35 4.302 45.324 H 0.0 **** 0.0
3 H 14.828 3.485 44.895 H 0.0 **** 0.0
4 H 15.136 3.968 46.581 H 0.0 **** 0.0
5 H 16.058 2.629 45.856 H 0.0 **** 0.0
@<TRIPOS>BOND
1 1 2 1
2 1 3 1
3 1 4 1
4 1 5 1
@<TRIPOS>MOLECULE
CH4
5 4
SMALL
USER_CHARGES


@<TRIPOS>ATOM
1 C 68.721 58.025 83.559 C 0.0 **** 0.0
2 H 68.744 57.761 84.616 H 0.0 **** 0.0
3 H 69.654 57.716 83.087 H 0.0 **** 0.0
4 H 68.601 59.103 83.456 H 0.0 **** 0.0
5 H 67.884 57.519 83.077 H 0.0 **** 0.0
@<TRIPOS>BOND
1 1 2 1
2 1 3 1
3 1 4 1
4 1 5 1
@<TRIPOS>MOLECULE
CH4
5 4
SMALL
USER_CHARGES


@<TRIPOS>ATOM
1 C 82.993 22.153 63.839 C 0.0 **** 0.0
2 H 82.981 22.144 64.928 H 0.0 **** 0.0
3 H 83.92 21.703 63.483 H 0.0 **** 0.0
4 H 82.928 23.181 63.483 H 0.0 **** 0.0
5 H 82.144 21.583 63.461 H 0.0 **** 0.0
@<TRIPOS>BOND
1 1 2 1
2 1 3 1
3 1 4 1
4 1 5 1
@<TRIPOS>MOLECULE
CH4
5 4
SMALL
USER_CHARGES


@<TRIPOS>ATOM
1 C 78.068 33.265 56.535 C 0.0 **** 0.0
2 H 78.094 32.759 57.5 H 0.0 **** 0.0
3 H 77.184 33.9 56.482 H 0.0 **** 0.0
4 H 78.032 32.523 55.737 H 0.0 **** 0.0
5 H 78.963 33.877 56.423 H 0.0 **** 0.0
@<TRIPOS>BOND
1 1 2 1
2 1 3 1
3 1 4 1
4 1 5 1
@<TRIPOS>MOLECULE
CH4
5 4
SMALL
USER_CHARGES


@<TRIPOS>ATOM
1 C 26.569 85.216 93.72 C 0.0 **** 0.0
2 H 27.509 84.933 94.194 H 0.0 **** 0.0
3 H 26.522 86.302 93.626 H 0.0 **** 0.0
4 H 25.735 84.868 94.33 H 0.0 **** 0.0
5 H 26.51 84.763 92.73 H 0.0 **** 0.0
@<TRIPOS>BOND
1 1 2 1
2 1 3 1
3 1 4 1
4 1 5 1
@<TRIPOS>MOLECULE
CH4
5 4
SMALL
USER_CHARGES


@<TRIPOS>ATOM
1 C 12.046 45.467 84.222 C 0.0 **** 0.0
2 H 12.484 45.573 85.215 H 0.0 **** 0.0
3 H 11.657 44.456 84.102 H 0.0 **** 0.0
4 H 12.808 45.656 83.467 H 0.0 **** 0.0
5 H 11.234 46.185 84.106 H 0.0 **** 0.0
@<TRIPOS>BOND
1 1 5 1
2 1 4 1
3 1 2 1
4 1 3 1
@<TRIPOS>MOLECULE
CH4
5 4
SMALL
USER_CHARGES


@<TRIPOS>ATOM
1 C 67.231 38.047 60.392 C 0.0 **** 0.0
2 H 66.419 37.642 59.788 H 0.0 **** 0.0
3 H 66.901 38.141 61.427 H 0.0 **** 0.0
4 H 67.514 39.027 60.009 H 0.0 **** 0.0
5 H 68.088 37.376 60.344 H 0.0 **** 0.0
@<TRIPOS>BOND
1 1 2 1
2 1 3 1
3 1 5 1
4 1 4 1
@<TRIPOS>MOLECULE
CH4
5 4
SMALL
USER_CHARGES


@<TRIPOS>ATOM
1 C 96.226 77.015 39.989 C 0.0 **** 0.0
2 H 96.433 75.974 39.737 H 0.0 **** 0.0
3 H 97.122 77.613 39.824 H 0.0 **** 0.0
4 H 95.93 77.083 41.035 H 0.0 **** 0.0
5 H 95.419 77.387 39.357 H 0.0 **** 0.0
@<TRIPOS>BOND
1 1 2 1
2 1 3 1
3 1 4 1
4 1 5 1
@<TRIPOS>MOLECULE
CH4
5 4
SMALL
USER_CHARGES


@<TRIPOS>ATOM
1 C 51.861 7.058 73.087 C 0.0 **** 0.0
2 H 51.341 7.75 73.749 H 0.0 **** 0.0
3 H 52.937 7.152 73.235 H 0.0 **** 0.0
4 H 51.615 7.291 72.051 H 0.0 **** 0.0
5 H 51.551 6.038 73.313 H 0.0 **** 0.0
@<TRIPOS>BOND
1 1 2 1
2 1 3 1
3 1 4 1
4 1 5 1
@<TRIPOS>MOLECULE
CH4
5 4
SMALL
USER_CHARGES


@<TRIPOS>ATOM
1 C 89.401 49.14 73.429 C 0.0 **** 0.0
2 H 89.217 49.661 74.369 H 0.0 **** 0.0
3 H 89.258 49.83 72.598 H 0.0 **** 0.0
4 H 88.704 48.306 73.334 H 0.0 **** 0.0
5 H 90.423 48.762 73.418 H 0.0 **** 0.0
@<TRIPOS>BOND
1 1 2 1
2 1 3 1
3 1 4 1
4 1 5 1
@<TRIPOS>MOLECULE
CH4
5 4
SMALL
USER_CHARGES


@<TRIPOS>ATOM
1 C 13.834 50.725 22.915 C 0.0 **** 0.0
2 H 13.252 51.08 23.766 H 0.0 **** 0.0
3 H 14.751 51.309 22.834 H 0.0 **** 0.0
4 H 13.249 50.837 22.003 H 0.0 **** 0.0
5 H 14.084 49.674 23.06 H 0.0 **** 0.0
@<TRIPOS>BOND
1 1 2 1
2 1 3 1
3 1 4 1
4 1 5 1
@<TRIPOS>MOLECULE
CH4
5 4
SMALL
USER_CHARGES


@<TRIPOS>ATOM
1 C 8.775 48.185 93.831 C 0.0 **** 0.0
2 H 9.034 48.597 92.856 H 0.0 **** 0.0
3 H 9.678 48.081 94.433 H 0.0 **** 0.0
4 H 8.31 47.207 93.7 H 0.0 **** 0.0
5 H 8.077 48.854 94.334 H 0.0 **** 0.0
@<TRIPOS>BOND
1 1 2 1
2 1 3 1
3 1 4 1
4 1 5 1
@<TRIPOS>MOLECULE
CH4
5 4
SMALL
USER_CHARGES


@<TRIPOS>ATOM
1 C 54.2 98.018 73.212 C 0.0 **** 0.0
2 H 53.394 97.286 73.191 H 0.0 **** 0.0
3 H 54.633 98.053 74.212 H 0.0 **** 0.0
4 H 53.805 99.001 72.953 H 0.0 **** 0.0
5 H 54.968 97.734 72.492 H 0.0 **** 0.0
@<TRIPOS>BOND
1 1 2 1
2 1 3 1
3 1 4 1
4 1 5 1
@<TRIPOS>MOLECULE
CH4
5 4
SMALL
USER_CHARGES


@<TRIPOS>ATOM
1 C 27.974 74.339 56.546 C 0.0 **** 0.0
2 H 28.416 73.912 57.446 H 0.0 **** 0.0
3 H 27.301 73.611 56.091 H 0.0 **** 0.0
4 H 28.765 74.594 55.84 H 0.0 **** 0.0
5 H 27.415 75.238 56.806 H 0.0 **** 0.0
@<TRIPOS>BOND
1 1 4 1
2 1 2 1
3 1 3 1
4 1 5 1
@<TRIPOS>MOLECULE
CH4
5 4
SMALL
USER_CHARGES


@<TRIPOS>ATOM
1 C 34.198 90.675 53.921 C 0.0 **** 0.0
2 H 33.167 90.343 53.806 H 0.0 **** 0.0
3 H 34.301 91.224 54.857 H 0.0 **** 0.0
4 H 34.466 91.324 53.088 H 0.0 **** 0.0
5 H 34.859 89.808 53.933 H 0.0 **** 0.0
@<TRIPOS>BOND
1 1 2 1
2 1 3 1
3 1 4 1
4 1 5 1
@<TRIPOS>MOLECULE
CH4
5 4
SMALL
USER_CHARGES


@<TRIPOS>ATOM
1 C 65.472 42.759 72.121 C 0.0 **** 0.0
2 H 65.703 42.834 73.183 H 0.0 **** 0.0
3 H 65.328 41.711 71.854 H 0.0 **** 0.0
4 H 66.296 43.172 71.54 H 0.0 **** 0.0
5 H 64.561 43.317 71.907 H 0.0 **** 0.0
@<TRIPOS>BOND
1 1 2 1
2 1 3 1
3 1 4 1
4 1 5 1
@<TRIPOS>MOLECULE
CH4
5 4
SMALL
USER_CHARGES


@<TRIPOS>ATOM
1 C 3.716 86.234 23.607 C 0.0 **** 0.0
2 H 4.322 85.623 24.276 H 0.0 **** 0.0
3 H 4.05 87.271 23.66 H 0.0 **** 0.0
4 H 2.67 86.172 23.906 H 0.0 **** 0.0
5 H 3.825 85.869 22.585 H 0.0 **** 0.0
@<TRIPOS>BOND
1 1 2 1
2 1 3 1
3 1 4 1
4 1 5 1
@<TRIPOS>MOLECULE
CH4
5 4
SMALL
USER_CHARGES


@<TRIPOS>ATOM
1 C 4.038 21.277 22.706 C 0.0 **** 0.0
2 H 3.24 22.01 22.821 H 0.0 **** 0.0
3 H 4.857 21.523 23.382 H 0.0 **** 0.0
4 H 4.399 21.292 21.677 H 0.0 **** 0.0
5 H 3.657 20.284 22.943 H 0.0 **** 0.0
@<TRIPOS>BOND
1 1 2 1
2 1 3 1
3 1 4 1
4 1 5 1
@<TRIPOS>MOLECULE
CH4
5 4
SMALL
USER_CHARGES


@<TRIPOS>ATOM
1 C 21.455 54.271 14.203 C 0.0 **** 0.0
2 H 20.511 54.816 14.236 H 0.0 **** 0.0
3 H 21.791 54.066 15.22 H 0.0 **** 0.0
4 H 22.204 54.873 13.688 H 0.0 **** 0.0
5 H 21.314 53.332 13.67 H 0.0 **** 0.0
@<TRIPOS>BOND
1 1 2 1
2 1 3 1
3 1 4 1
4 1 5 1
@<TRIPOS>MOLECULE
CH4
5 4
SMALL
USER_CHARGES


@<TRIPOS>ATOM
1 C 82.205 82.763 74.074 C 0.0 **** 0.0
2 H 82.962 83.5 73.804 H 0.0 **** 0.0
3 H 82.079 82.752 75.156 H 0.0 **** 0.0
4 H 82.522 81.777 73.734 H 0.0 **** 0.0
5 H 81.259 83.024 73.599 H 0.0 **** 0.0
@<TRIPOS>BOND
1 1 2 1
2 1 3 1
3 1 4 1
4 1 5 1
@<TRIPOS>MOLECULE
CH4
5 4
SMALL
USER_CHARGES


@<TRIPOS>ATOM
1 C 73.808 60.954 57.412 C 0.0 **** 0.0
2 H 73.386 60.691 56.442 H 0.0 **** 0.0
3 H 74.841 61.277 57.283 H 0.0 **** 0.0
4 H 73.778 60.084 58.068 H 0.0 **** 0.0
5 H 73.226 61.762 57.854 H 0.0 **** 0.0
@<TRIPOS>BOND
1 1 2 1
2 1 3 1
3 1 4 1
4 1 5 1
@<TRIPOS>MOLECULE
CH4
5 4
SMALL
USER_CHARGES


@<TRIPOS>ATOM
1 C 22.495 52.06 68.295 C 0.0 **** 0.0
2 H 21.427 51.894 68.158 H 0.0 **** 0.0
3 H 22.857 52.749 67.531 H 0.0 **** 0.0
4 H 23.024 51.111 68.209 H 0.0 **** 0.0
5 H 22.673 52.486 69.283 H 0.0 **** 0.0
@<TRIPOS>BOND
1 1 2 1
2 1 3 1
3 1 4 1
4 1 5 1
@<TRIPOS>MOLECULE
CH4
5 4
SMALL
USER_CHARGES


@<TRIPOS>ATOM
1 C 69.568 96.445 11.99 C 0.0 **** 0.0
2 H 69.527 96.556 13.073 H 0.0 **** 0.0
3 H 68.893 95.647 11.681 H 0.0 **** 0.0
4 H 70.586 96.198 11.688 H 0.0 **** 0.0
5 H 69.266 97.38 11.517 H 0.0 **** 0.0
@<TRIPOS>BOND
1 1 2 1
2 1 3 1
3 1 4 1
4 1 5 1
@<TRIPOS>MOLECULE
CH4
5 4
SMALL
USER_CHARGES


@<TRIPOS>ATOM
1 C 41.931 74.895 9.739 C 0.0 **** 0.0
2 H 41.397 74.015 10.099 H 0.0 **** 0.0
3 H 42.242 74.734 8.707 H 0.0 **** 0.0
4 H 42.809 75.067 10.361 H 0.0 **** 0.0
5 H 41.274 75.764 9.79 H 0.0 **** 0.0
@<TRIPOS>BOND
1 1 2 1
2 1 3 1
3 1 4 1
4 1 5 1
@<TRIPOS>MOLECULE
CH4
5 4
SMALL
USER_CHARGES


@<TRIPOS>ATOM
1 C 22.124 75.683 84.014 C 0.0 **** 0.0
2 H 22.294 75.658 85.09 H 0.0 **** 0.0
3 H 23.061 75.907 83.504 H 0.0 **** 0.0
4 H 21.389 76.453 83.78 H 0.0 **** 0.0
5 H 21.752 74.714 83.683 H 0.0 **** 0.0
@<TRIPOS>BOND
1 1 2 1
2 1 3 1
3 1 4 1
4 1 5 1
@<TRIPOS>MOLECULE
CH4
5 4
SMALL
USER_CHARGES


@<TRIPOS>ATOM
1 C 76.482 24.023 2.037 C 0.0 **** 0.0
2 H 76.612 23.919 0.96 H 0.0 **** 0.0
3 H 75.418 24.038 2.274 H 0.0 **** 0.0
4 H 76.941 24.954 2.37 H 0.0 **** 0.0
5 H 76.956 23.183 2.543 H 0.0 **** 0.0
@<TRIPOS>BOND
1 1 2 1
2 1 3 1
3 1 4 1
4 1 5 1
@<TRIPOS>MOLECULE
CH4
5 4
SMALL
USER_CHARGES


@<TRIPOS>ATOM
1 C 32.171 86.791 88.591 C 0.0 **** 0.0
2 H 31.949 86.419 89.591 H 0.0 **** 0.0
3 H 32.838 87.65 88.663 H 0.0 **** 0.0
4 H 31.245 87.089 88.1 H 0.0 **** 0.0
5 H 32.653 86.004 88.01 H 0.0 **** 0.0
@<TRIPOS>BOND
1 1 2 1
2 1 3 1
3 1 4 1
4 1 5 1
@<TRIPOS>MOLECULE
CH4
5 4
SMALL
USER_CHARGES


@<TRIPOS>ATOM
1 C 46.193 81.656 54.478 C 0.0 **** 0.0
2 H 46.191 81.111 53.535 H 0.0 **** 0.0
3 H 46.561 82.669 54.311 H 0.0 **** 0.0
4 H 46.841 81.147 55.191 H 0.0 **** 0.0
5 H 45.179 81.699 54.875 H 0.0 **** 0.0
@<TRIPOS>BOND
1 1 2 1
2 1 3 1
3 1 4 1
4 1 5 1
@<TRIPOS>MOLECULE
CH4
5 4
SMALL
USER_CHARGES


@<TRIPOS>ATOM
1 C 33.705 68.288 87.21 C 0.0 **** 0.0
2 H 34.472 68.959 87.598 H 0.0 **** 0.0
3 H 34.084 67.266 87.205 H 0.0 **** 0.0
4 H 33.444 68.585 86.194 H 0.0 **** 0.0
5 H 32.82 68.345 87.844 H 0.0 **** 0.0
@<TRIPOS>BOND
1 1 2 1
2 1 3 1
3 1 4 1
4 1 5 1
@<TRIPOS>MOLECULE
CH4
5 4
SMALL
USER_CHARGES


@<TRIPOS>ATOM
1 C 96.645 36.106 1.239 C 0.0 **** 0.0
2 H 96.633 36.15 0.15 H 0.0 **** 0.0
3 H 95.682 36.441 1.626 H 0.0 **** 0.0
4 H 97.435 36.753 1.62 H 0.0 **** 0.0
5 H 96.829 35.08 1.559 H 0.0 **** 0.0
@<TRIPOS>BOND
1 1 4 1
2 1 5 1
3 1 2 1
4 1 3 1
@<TRIPOS>MOLECULE
CH4
5 4
SMALL
USER_CHARGES


@<TRIPOS>ATOM
1 C 82.185 40.799 84.344 C 0.0 **** 0.0
2 H 82.158 41.49 83.501 H 0.0 **** 0.0
3 H 83.172 40.827 84.805 H 0.0 **** 0.0
4 H 81.977 39.788 83.991 H 0.0 **** 0.0
5 H 81.432 41.09 85.076 H 0.0 **** 0.0
@<TRIPOS>BOND
1 1 3 1
2 1 4 1
3 1 5 1
4 1 2 1
@<TRIPOS>MOLECULE
CH4
5 4
SMALL
USER_CHARGES


@<TRIPOS>ATOM
1 C 63.403 31.948 75.618 C 0.0 **** 0.0
2 H 62.483 32.44 75.303 H 0.0 **** 0.0
3 H 64.187 32.14 74.885 H 0.0 **** 0.0
4 H 63.232 30.874 75.695 H 0.0 **** 0.0
5 H 63.709 32.337 76.589 H 0.0 **** 0.0
@<TRIPOS>BOND
1 1 2 1
2 1 3 1
3 1 4 1
4 1 5 1
@<TRIPOS>MOLECULE
CH4
5 4
SMALL
USER_CHARGES


@<TRIPOS>ATOM
1 C 20.14 54.18 65.947 C 0.0 **** 0.0
2 H 20.925 54.019 65.208 H 0.0 **** 0.0
3 H 20.537 53.992 66.945 H 0.0 **** 0.0
4 H 19.312 53.499 65.75 H 0.0 **** 0.0
5 H 19.787 55.209 65.883 H 0.0 **** 0.0
@<TRIPOS>BOND
1 1 2 1
2 1 3 1
3 1 4 1
4 1 5 1
@<TRIPOS>MOLECULE
CH4
5 4
SMALL
USER_CHARGES


@<TRIPOS>ATOM
1 C 24.98 58.401 19.429 C 0.0 **** 0.0
2 H 24.798 59.331 18.889 H 0.0 **** 0.0
3 H 24.287 58.327 20.268 H 0.0 **** 0.0
4 H 26.004 58.393 19.801 H 0.0 **** 0.0
5 H 24.83 57.556 18.757 H 0.0 **** 0.0
@<TRIPOS>BOND
1 1 2 1
2 1 3 1
3 1 4 1
4 1 5 1
@<TRIPOS>MOLECULE
CH4
5 4
SMALL
USER_CHARGES


@<TRIPOS>ATOM
1 C 50.886 88.787 80.791 C 0.0 **** 0.0
2 H 50.187 89.592 80.562 H 0.0 **** 0.0
3 H 50.499 87.847 80.399 H 0.0 **** 0.0
4 H 51.008 88.709 81.871 H 0.0 **** 0.0
5 H 51.851 89.003 80.332 H 0.0 **** 0.0
@<TRIPOS>BOND
1 1 2 1
2 1 3 1
3 1 4 1
4 1 5 1
@<TRIPOS>MOLECULE
CH4
5 4
SMALL
USER_CHARGES


@<TRIPOS>ATOM
1 C 20.16 70.014 73.942 C 0.0 **** 0.0
2 H 20.072 70.082 75.026 H 0.0 **** 0.0
3 H 19.269 70.438 73.478 H 0.0 **** 0.0
4 H 20.26 68.969 73.65 H 0.0 **** 0.0
5 H 21.039 70.569 73.613 H 0.0 **** 0.0
@<TRIPOS>BOND
1 1 2 1
2 1 3 1
3 1 4 1
4 1 5 1
@<TRIPOS>MOLECULE
CH4
5 4
SMALL
USER_CHARGES


@<TRIPOS>ATOM
1 C 42.71 92.254 27.212 C 0.0 **** 0.0
2 H 43.201 91.504 27.832 H 0.0 **** 0.0
3 H 43.168 93.227 27.388 H 0.0 **** 0.0
4 H 41.651 92.299 27.465 H 0.0 **** 0.0
5 H 42.822 91.985 26.161 H 0.0 **** 0.0
@<TRIPOS>BOND
1 1 2 1
2 1 3 1
3 1 4 1
4 1 5 1
@<TRIPOS>MOLECULE
CH4
5 4
SMALL
USER_CHARGES


@<TRIPOS>ATOM
1 C 67.947 83.005 55.157 C 0.0 **** 0.0
2 H 66.951 83.422 55.304 H 0.0 **** 0.0
3 H 68.546 83.698 54.565 H 0.0 **** 0.0
4 H 67.869 82.053 54.633 H 0.0 **** 0.0
5 H 68.423 82.849 56.125 H 0.0 **** 0.0
@<TRIPOS>BOND
1 1 2 1
2 1 3 1
3 1 4 1
4 1 5 1
@<TRIPOS>MOLECULE
CH4
5 4
SMALL
USER_CHARGES


@<TRIPOS>ATOM
1 C 53.009 10.157 40.028 C 0.0 **** 0.0
2 H 53.394 9.59 40.875 H 0.0 **** 0.0
3 H 52.202 9.599 39.554 H 0.0 **** 0.0
4 H 53.81 10.322 39.307 H 0.0 **** 0.0
5 H 52.631 11.119 40.376 H 0.0 **** 0.0
@<TRIPOS>BOND
1 1 2 1
2 1 3 1
3 1 4 1
4 1 5 1
@<TRIPOS>MOLECULE
CH4
5 4
SMALL
USER_CHARGES


@<TRIPOS>ATOM
1 C 98.022 8.322 72.386 C 0.0 **** 0.0
2 H 99.007 7.936 72.124 H 0.0 **** 0.0
3 H 97.494 7.588 72.995 H 0.0 **** 0.0
4 H 97.454 8.516 71.476 H 0.0 **** 0.0
5 H 98.134 9.249 72.949 H 0.0 **** 0.0
@<TRIPOS>BOND
1 1 3 1
2 1 4 1
3 1 5 1
4 1 2 1
@<TRIPOS>MOLECULE
CH4
5 4
SMALL
USER_CHARGES


@<TRIPOS>ATOM
1 C 84.229 5.908 76.512 C 0.0 **** 0.0
2 H 85.24 5.718 76.152 H 0.0 **** 0.0
3 H 83.899 5.07 77.126 H 0.0 **** 0.0
4 H 83.556 6.024 75.662 H 0.0 **** 0.0
5 H 84.221 6.821 77.108 H 0.0 **** 0.0
@<TRIPOS>BOND
1 1 2 1
2 1 3 1
3 1 4 1
4 1 5 1
@<TRIPOS>MOLECULE
CH4
5 4
SMALL
USER_CHARGES


@<TRIPOS>ATOM
1 C 49.311 72.549 11.841 C 0.0 **** 0.0
2 H 48.557 72.931 11.153 H 0.0 **** 0.0
3 H 50.287 72.564 11.356 H 0.0 **** 0.0
4 H 49.06 71.527 12.124 H 0.0 **** 0.0
5 H 49.339 73.176 12.733 H 0.0 **** 0.0
@<TRIPOS>BOND
1 1 2 1
2 1 3 1
3 1 4 1
4 1 5 1
@<TRIPOS>MOLECULE
CH4
5 4
SMALL
USER_CHARGES


@<TRIPOS>ATOM
1 C 27.627 78.071 66.695 C 0.0 **** 0.0
2 H 27.711 77.071 67.122 H 0.0 **** 0.0
3 H 27.945 78.047 65.652 H 0.0 **** 0.0
4 H 28.261 78.759 67.253 H 0.0 **** 0.0
5 H 26.591 78.404 66.752 H 0.0 **** 0.0
@<TRIPOS>BOND
1 1 2 1
2 1 3 1
3 1 4 1
4 1 5 1
@<TRIPOS>MOLECULE
CH4
5 4
SMALL
USER_CHARGES


@<TRIPOS>ATOM
1 C 57.234 62.631 68.914 C 0.0 **** 0.0
2 H 57.664 62.229 69.831 H 0.0 **** 0.0
3 H 58.033 62.97 68.256 H 0.0 **** 0.0
4 H 56.582 63.47 69.157 H 0.0 **** 0.0
5 H 56.655 61.854 68.414 H 0.0 **** 0.0
@<TRIPOS>BOND
1 1 2 1
2 1 3 1
3 1 4 1
4 1 5 1
@<TRIPOS>MOLECULE
CH4
5 4
SMALL
USER_CHARGES


@<TRIPOS>ATOM
1 C 80.367 58.478 58.458 C 0.0 **** 0.0
2 H 79.61 58.429 57.675 H 0.0 **** 0.0
3 H 81.271 57.971 58.121 H 0.0 **** 0.0
4 H 79.991 57.99 59.357 H 0.0 **** 0.0
5 H 80.595 59.521 58.678 H 0.0 **** 0.0
@<TRIPOS>BOND
1 1 2 1
2 1 3 1
3 1 4 1
4 1 5 1
@<TRIPOS>MOLECULE
CH4
5 4
SMALL
USER_CHARGES


@<TRIPOS>ATOM
1 C 18.989 56.267 80.636 C 0.0 **** 0.0
2 H 18.896 56.37 79.555 H 0.0 **** 0.0
3 H 18.0 56.32 81.092 H 0.0 **** 0.0
4 H 19.612 57.073 81.025 H 0.0 **** 0.0
5 H 19.448 55.307 80.871 H 0.0 **** 0.0
@<TRIPOS>BOND
1 1 2 1
2 1 3 1
3 1 4 1
4 1 5 1
@<TRIPOS>MOLECULE
CH4
5 4
SMALL
USER_CHARGES


@<TRIPOS>ATOM
1 C 49.368 14.959 26.255 C 0.0 **** 0.0
2 H 48.501 14.644 25.674 H 0.0 **** 0.0
3 H 49.942 14.082 26.553 H 0.0 **** 0.0
4 H 49.034 15.495 27.143 H 0.0 **** 0.0
5 H 49.993 15.615 25.649 H 0.0 **** 0.0
@<TRIPOS>BOND
1 1 2 1
2 1 3 1
3 1 4 1
4 1 5 1
@<TRIPOS>MOLECULE
CH4
5 4
SMALL
USER_CHARGES


@<TRIPOS>ATOM
1 C 91.36 97.105 52.535 C 0.0 **** 0.0
2 H 91.372 97.087 53.625 H 0.0 **** 0.0
3 H 90.905 98.034 52.191 H 0.0 **** 0.0
4 H 90.781 96.258 52.165 H 0.0 **** 0.0
5 H 92.381 97.038 52.159 H 0.0 **** 0.0
@<TRIPOS>BOND
1 1 5 1
2 1 2 1
3 1 3 1
4 1 4 1
@<TRIPOS>MOLECULE
CH4
5 4
SMALL
USER_CHARGES


@<TRIPOS>ATOM
1 C 13.061 17.126 78.608 C 0.0 **** 0.0
2 H 14.147 17.089 78.528 H 0.0 **** 0.0
3 H 12.667 16.111 78.67 H 0.0 **** 0.0
4 H 12.649 17.623 77.73 H 0.0 **** 0.0
5 H 12.781 17.679 79.504 H 0.0 **** 0.0
@<TRIPOS>BOND
1 1 2 1
2 1 3 1
3 1 4 1
4 1 5 1
@<TRIPOS>MOLECULE
CH4
5 4
SMALL
USER_CHARGES


@<TRIPOS>ATOM
1 C 7.832 87.264 69.914 C 0.0 **** 0.0
2 H 8.303 87.403 70.887 H 0.0 **** 0.0
3 H 8.543 86.799 69.23 H 0.0 **** 0.0
4 H 7.525 88.231 69.518 H 0.0 **** 0.0
5 H 6.958 86.621 70.022 H 0.0 **** 0.0
@<TRIPOS>BOND
1 1 2 1
2 1 3 1
3 1 4 1
4 1 5 1
@<TRIPOS>MOLECULE
CH4
5 4
SMALL
USER_CHARGES


@<TRIPOS>ATOM
1 C 4.544 23.041 93.95 C 0.0 **** 0.0
2 H 3.684 23.304 94.567 H 0.0 **** 0.0
3 H 5.243 23.877 93.927 H 0.0 **** 0.0
4 H 4.208 22.82 92.936 H 0.0 **** 0.0
5 H 5.037 22.165 94.369 H 0.0 **** 0.0
@<TRIPOS>BOND
1 1 2 1
2 1 3 1
3 1 4 1
4 1 5 1
@<TRIPOS>MOLECULE
CH4
5 4
SMALL
USER_CHARGES


@<TRIPOS>ATOM
1 C 63.366 68.008 19.479 C 0.0 **** 0.0
2 H 64.285 68.593 19.442 H 0.0 **** 0.0
3 H 63.604 66.95 19.369 H 0.0 **** 0.0
4 H 62.706 68.319 18.668 H 0.0 **** 0.0
5 H 62.869 68.172 20.435 H 0.0 **** 0.0
@<TRIPOS>BOND
1 1 2 1
2 1 3 1
3 1 4 1
4 1 5 1
@<TRIPOS>MOLECULE
CH4
5 4
SMALL
USER_CHARGES


@<TRIPOS>ATOM
1 C 72.63 46.657 38.601 C 0.0 **** 0.0
2 H 71.739 46.886 38.017 H 0.0 **** 0.0
3 H 72.544 47.112 39.588 H 0.0 **** 0.0
4 H 73.509 47.053 38.093 H 0.0 **** 0.0
5 H 72.728 45.576 38.707 H 0.0 **** 0.0
@<TRIPOS>BOND
1 1 2 1
2 1 3 1
3 1 4 1
4 1 5 1
@<TRIPOS>MOLECULE
CH4
5 4
SMALL
USER_CHARGES


@<TRIPOS>ATOM
1 C 52.022 2.168 86.372 C 0.0 **** 0.0
2 H 52.738 1.369 86.183 H 0.0 **** 0.0
3 H 52.417 2.837 87.138 H 0.0 **** 0.0
4 H 51.081 1.739 86.715 H 0.0 **** 0.0
5 H 51.853 2.729 85.453 H 0.0 **** 0.0
@<TRIPOS>BOND
1 1 2 1
2 1 3 1
3 1 4 1
4 1 5 1
@<TRIPOS>MOLECULE
CH4
5 4
SMALL
USER_CHARGES


@<TRIPOS>ATOM
1 C 31.599 76.946 5.807 C 0.0 **** 0.0
2 H 31.516 77.959 5.412 H 0.0 **** 0.0
3 H 32.65 76.66 5.855 H 0.0 **** 0.0
4 H 31.064 76.257 5.154 H 0.0 **** 0.0
5 H 31.166 76.91 6.806 H 0.0 **** 0.0
@<TRIPOS>BOND
1 1 2 1
2 1 3 1
3 1 4 1
4 1 5 1
@<TRIPOS>MOLECULE
CH4
5 4
SMALL
USER_CHARGES


@<TRIPOS>ATOM
1 C 30.91 39.89 11.915 C 0.0 **** 0.0
2 H 31.459 40.35 11.093 H 0.0 **** 0.0
3 H 31.582 39.741 12.761 H 0.0 **** 0.0
4 H 30.512 38.928 11.593 H 0.0 **** 0.0
5 H 30.09 40.543 12.213 H 0.0 **** 0.0
@<TRIPOS>BOND
1 1 2 1
2 1 3 1
3 1 4 1
4 1 5 1
@<TRIPOS>MOLECULE
CH4
5 4
SMALL
USER_CHARGES


@<TRIPOS>ATOM
1 C 35.651 51.789 11.461 C 0.0 **** 0.0
2 H 36.476 51.341 12.015 H 0.0 **** 0.0
3 H 35.829 51.675 10.391 H 0.0 **** 0.0
4 H 35.581 52.848 11.707 H 0.0 **** 0.0
5 H 34.72 51.29 11.729 H 0.0 **** 0.0
@<TRIPOS>BOND
1 1 2 1
2 1 3 1
3 1 4 1
4 1 5 1
@<TRIPOS>MOLECULE
CH4
5 4
SMALL
USER_CHARGES


@<TRIPOS>ATOM
1 C 74.0 74.041 70.19 C 0.0 **** 0.0
2 H 73.851 74.692 71.052 H 0.0 **** 0.0
3 H 74.608 73.185 70.482 H 0.0 **** 0.0
4 H 74.507 74.596 69.401 H 0.0 **** 0.0
5 H 73.033 73.694 69.827 H 0.0 **** 0.0
@<TRIPOS>BOND
1 1 2 1
2 1 3 1
3 1 4 1
4 1 5 1
@<TRIPOS>MOLECULE
CH4
5 4
SMALL
USER_CHARGES


@<TRIPOS>ATOM
1 C 8.051 97.218 54.098 C 0.0 **** 0.0
2 H 7.124 96.663 54.238 H 0.0 **** 0.0
3 H 8.826 96.545 53.733 H 0.0 **** 0.0
4 H 8.362 97.65 55.049 H 0.0 **** 0.0
5 H 7.891 98.016 53.372 H 0.0 **** 0.0
@<TRIPOS>BOND
1 1 2 1
2 1 3 1
3 1 4 1
4 1 5 1
@<TRIPOS>MOLECULE
CH4
5 4
SMALL
USER_CHARGES


@<TRIPOS>ATOM
1 C 89.454 97.412 66.165 C 0.0 **** 0.0
2 H 90.484 97.752 66.273 H 0.0 **** 0.0
3 H 88.967 97.414 67.14 H 0.0 **** 0.0
4 H 89.446 96.402 65.756 H 0.0 **** 0.0
5 H 88.92 98.081 65.49 H 0.0 **** 0.0
@<TRIPOS>BOND
1 1 2 1
2 1 3 1
3 1 4 1
4 1 5 1
@<TRIPOS>MOLECULE
CH4
5 4
SMALL
USER_CHARGES


@<TRIPOS>ATOM
1 C 35.431 90.127 29.979 C 0.0 **** 0.0
2 H 34.768 89.544 30.619 H 0.0 **** 0.0
3 H 36.339 90.378 30.528 H 0.0 **** 0.0
4 H 34.927 91.044 29.673 H 0.0 **** 0.0
5 H 35.69 89.543 29.096 H 0.0 **** 0.0
@<TRIPOS>BOND
1 1 2 1
2 1 3 1
3 1 4 1
4 1 5 1
@<TRIPOS>MOLECULE
CH4
5 4
SMALL
USER_CHARGES


@<TRIPOS>ATOM
1 C 8.981 91.386 98.022 C 0.0 **** 0.0
2 H 9.436 91.236 99.001 H 0.0 **** 0.0
3 H 8.66 90.425 97.619 H 0.0 **** 0.0
4 H 9.709 91.838 97.348 H 0.0 **** 0.0
5 H 8.119 92.046 98.12 H 0.0 **** 0.0
@<TRIPOS>BOND
1 1 2 1
2 1 3 1
3 1 4 1
4 1 5 1
@<TRIPOS>MOLECULE
CH4
5 4
SMALL
USER_CHARGES


@<TRIPOS>ATOM
1 C 78.781 77.799 67.715 C 0.0 **** 0.0
2 H 79.427 78.48 68.27 H 0.0 **** 0.0
3 H 79.026 77.851 66.654 H 0.0 **** 0.0
4 H 77.74 78.085 67.864 H 0.0 **** 0.0
5 H 78.933 76.781 68.074 H 0.0 **** 0.0
@<TRIPOS>BOND
1 1 2 1
2 1 3 1
3 1 4 1
4 1 5 1
@<TRIPOS>MOLECULE
CH4
5 4
SMALL
USER_CHARGES


@<TRIPOS>ATOM
1 C 28.749 14.218 7.898 C 0.0 **** 0.0
2 H 28.325 14.93 7.19 H 0.0 **** 0.0
3 H 28.167 13.296 7.878 H 0.0 **** 0.0
4 H 28.722 14.644 8.901 H 0.0 **** 0.0
5 H 29.781 14.002 7.623 H 0.0 **** 0.0
@<TRIPOS>BOND
1 1 2 1
2 1 3 1
3 1 4 1
4 1 5 1
@<TRIPOS>MOLECULE
CH4
5 4
SMALL
USER_CHARGES


@<TRIPOS>ATOM
1 C 46.662 46.079 74.253 C 0.0 **** 0.0
2 H 46.77 46.934 73.586 H 0.0 **** 0.0
3 H 45.621 45.758 74.266 H 0.0 **** 0.0
4 H 46.969 46.362 75.26 H 0.0 **** 0.0
5 H 47.29 45.261 73.899 H 0.0 **** 0.0
@<TRIPOS>BOND
1 1 4 1
2 1 5 1
3 1 2 1
4 1 3 1
@<TRIPOS>MOLECULE
CH4
5 4
SMALL
USER_CHARGES


@<TRIPOS>ATOM
1 C 6.64 70.507 44.251 C 0.0 **** 0.0
2 H 6.585 69.448 43.997 H 0.0 **** 0.0
3 H 7.684 70.799 44.363 H 0.0 **** 0.0
4 H 6.11 70.683 45.188 H 0.0 **** 0.0
5 H 6.18 71.095 43.457 H 0.0 **** 0.0
@<TRIPOS>BOND
1 1 2 1
2 1 3 1
3 1 4 1
4 1 5 1
@<TRIPOS>MOLECULE
CH4
5 4
SMALL
USER_CHARGES


@<TRIPOS>ATOM
1 C 79.919 79.551 96.221 C 0.0 **** 0.0
2 H 80.593 78.755 95.904 H 0.0 **** 0.0
3 H 80.498 80.443 96.459 H 0.0 **** 0.0
4 H 79.366 79.229 97.103 H 0.0 **** 0.0
5 H 79.219 79.776 95.416 H 0.0 **** 0.0
@<TRIPOS>BOND
1 1 2 1
2 1 3 1
3 1 4 1
4 1 5 1
@<TRIPOS>MOLECULE
CH4
5 4
SMALL
USER_CHARGES


@<TRIPOS>ATOM
1 C 7.573 88.943 29.559 C 0.0 **** 0.0
2 H 6.654 88.752 30.113 H 0.0 **** 0.0
3 H 8.223 88.07 29.623 H 0.0 **** 0.0
4 H 8.081 89.807 29.986 H 0.0 **** 0.0
5 H 7.333 89.142 28.515 H 0.0 **** 0.0
@<TRIPOS>BOND
1 1 2 1
2 1 3 1
3 1 4 1
4 1 5 1
@<TRIPOS>MOLECULE
CH4
5 4
SMALL
USER_CHARGES


@<TRIPOS>ATOM
1 C 16.376 53.75 81.537 C 0.0 **** 0.0
2 H 16.577 53.411 82.553 H 0.0 **** 0.0
3 H 15.979 54.765 81.565 H 0.0 **** 0.0
4 H 15.648 53.087 81.07 H 0.0 **** 0.0
5 H 17.301 53.737 80.96 H 0.0 **** 0.0
@<TRIPOS>BOND
1 1 2 1
2 1 3 1
3 1 4 1
4 1 5 1
@<TRIPOS>MOLECULE
CH4
5 4
SMALL
USER_CHARGES


@<TRIPOS>ATOM
1 C 65.404 92.852 11.068 C 0.0 **** 0.0
2 H 65.357 92.986 9.987 H 0.0 **** 0.0
3 H 64.918 93.696 11.559 H 0.0 **** 0.0
4 H 66.446 92.799 11.382 H 0.0 **** 0.0
5 H 64.894 91.929 11.342 H 0.0 **** 0.0
@<TRIPOS>BOND
1 1 2 1
2 1 3 1
3 1 4 1
4 1 5 1
@<TRIPOS>MOLECULE
CH4
5 4
SMALL
USER_CHARGES


@<TRIPOS>ATOM
1 C 12.782 59.949 22.245 C 0.0 **** 0.0
2 H 12.964 59.314 21.379 H 0.0 **** 0.0
3 H 12.651 59.327 23.131 H 0.0 **** 0.0
4 H 11.882 60.54 22.079 H 0.0 **** 0.0
5 H 13.632 60.615 22.391 H 0.0 **** 0.0
@<TRIPOS>BOND
1 1 2 1
2 1 3 1
3 1 4 1
4 1 5 1
@<TRIPOS>MOLECULE
CH4
5 4
SMALL
USER_CHARGES


@<TRIPOS>ATOM
1 C 13.98 12.705 54.82 C 0.0 **** 0.0
2 H 14.954 12.928 55.256 H 0.0 **** 0.0
3 H 13.635 13.564 54.245 H 0.0 **** 0.0
4 H 13.267 12.491 55.617 H 0.0 **** 0.0
5 H 14.065 11.838 54.165 H 0.0 **** 0.0
@<TRIPOS>BOND
1 1 2 1
2 1 3 1
3 1 4 1
4 1 5 1
@<TRIPOS>MOLECULE
CH4
5 4
SMALL
USER_CHARGES


@<TRIPOS>ATOM
1 C 97.392 58.223 22.424 C 0.0 **** 0.0
2 H 96.658 57.469 22.709 H 0.0 **** 0.0
3 H 97.179 59.154 22.948 H 0.0 **** 0.0
4 H 97.341 58.391 21.348 H 0.0 **** 0.0
5 H 98.391 57.876 22.69 H 0.0 **** 0.0
@<TRIPOS>BOND
1 1 2 1
2 1 3 1
3 1 4 1
4 1 5 1
@<TRIPOS>MOLECULE
CH4
5 4
SMALL
USER_CHARGES


@<TRIPOS>ATOM
1 C 38.529 98.286 34.397 C 0.0 **** 0.0
2 H 38.152 98.02 35.384 H 0.0 **** 0.0
3 H 37.831 98.97 33.913 H 0.0 **** 0.0
4 H 38.632 97.385 33.793 H 0.0 **** 0.0
5 H 39.501 98.769 34.497 H 0.0 **** 0.0
@<TRIPOS>BOND
1 1 2 1
2 1 3 1
3 1 4 1
4 1 5 1
@<TRIPOS>MOLECULE
CH4
5 4
SMALL
USER_CHARGES


@<TRIPOS>ATOM
1 C 20.373 39.293 7.783 C 0.0 **** 0.0
2 H 19.573 39.186 8.515 H 0.0 **** 0.0
3 H 20.356 40.302 7.371 H 0.0 **** 0.0
4 H 20.23 38.569 6.981 H 0.0 **** 0.0
5 H 21.333 39.114 8.267 H 0.0 **** 0.0
@<TRIPOS>BOND
1 1 2 1
2 1 3 1
3 1 4 1
4 1 5 1
@<TRIPOS>MOLECULE
CH4
5 4
SMALL
USER_CHARGES


@<TRIPOS>ATOM
1 C 12.251 4.191 18.639 C 0.0 **** 0.0
2 H 12.351 4.175 17.553 H 0.0 **** 0.0
3 H 13.21 3.945 19.095 H 0.0 **** 0.0
4 H 11.504 3.459 18.945 H 0.0 **** 0.0
5 H 11.94 5.185 18.96 H 0.0 **** 0.0
@<TRIPOS>BOND
1 1 2 1
2 1 3 1
3 1 4 1
4 1 5 1
@<TRIPOS>MOLECULE
CH4
5 4
SMALL
USER_CHARGES


@<TRIPOS>ATOM
1 C 3.004 2.057 91.627 C 0.0 **** 0.0
2 H 3.032 3.079 92.005 H 0.0 **** 0.0
3 H 3.854 1.501 92.022 H 0.0 **** 0.0
4 H 3.052 2.072 90.538 H 0.0 **** 0.0
5 H 2.077 1.579 91.943 H 0.0 **** 0.0
@<TRIPOS>BOND
1 1 2 1
2 1 3 1
3 1 4 1
4 1 5 1
@<TRIPOS>MOLECULE
CH4
5 4
SMALL
USER_CHARGES


@<TRIPOS>ATOM
1 C 21.495 78.555 55.111 C 0.0 **** 0.0
2 H 22.038 77.909 54.421 H 0.0 **** 0.0
3 H 21.678 78.228 56.135 H 0.0 **** 0.0
4 H 20.428 78.5 54.896 H 0.0 **** 0.0
5 H 21.837 79.583 54.991 H 0.0 **** 0.0
@<TRIPOS>BOND
1 1 2 1
2 1 3 1
3 1 4 1
4 1 5 1
@<TRIPOS>MOLECULE
CH4
5 4
SMALL
USER_CHARGES


@<TRIPOS>ATOM
1 C 20.512 7.235 83.427 C 0.0 **** 0.0
2 H 19.967 7.008 84.343 H 0.0 **** 0.0
3 H 20.311 8.265 83.13 H 0.0 **** 0.0
4 H 20.189 6.559 82.635 H 0.0 **** 0.0
5 H 21.581 7.108 83.599 H 0.0 **** 0.0
@<TRIPOS>BOND
1 1 2 1
2 1 3 1
3 1 4 1
4 1 5 1
@<TRIPOS>MOLECULE
CH4
5 4
SMALL
USER_CHARGES


@<TRIPOS>ATOM
1 C 48.357 63.543 48.114 C 0.0 **** 0.0
2 H 48.945 63.377 47.21 H 0.0 **** 0.0
3 H 47.296 63.52 47.865 H 0.0 **** 0.0
4 H 48.611 64.514 48.539 H 0.0 **** 0.0
5 H 48.578 62.76 48.839 H 0.0 **** 0.0
@<TRIPOS>BOND
1 1 2 1
2 1 3 1
3 1 4 1
4 1 5 1
@<TRIPOS>MOLECULE
CH4
5 4
SMALL
USER_CHARGES


@<TRIPOS>ATOM
1 C 46.589 48.166 77.713 C 0.0 **** 0.0
2 H 45.988 47.297 77.981 H 0.0 **** 0.0
3 H 46.699 48.212 76.63 H 0.0 **** 0.0
4 H 47.573 48.083 78.175 H 0.0 **** 0.0
5 H 46.097 49.072 78.068 H 0.0 **** 0.0
@<TRIPOS>BOND
1 1 2 1
2 1 3 1
3 1 4 1
4 1 5 1
@<TRIPOS>MOLECULE
CH4
5 4
SMALL
USER_CHARGES


@<TRIPOS>ATOM
1 C 9.189 58.61 28.166 C 0.0 **** 0.0
2 H 9.282 58.962 29.194 H 0.0 **** 0.0
3 H 9.173 59.464 27.489 H 0.0 **** 0.0
4 H 8.264 58.043 28.059 H 0.0 **** 0.0
5 H 10.038 57.97 27.925 H 0.0 **** 0.0
@<TRIPOS>BOND
1 1 2 1
2 1 3 1
3 1 4 1
4 1 5 1
@<TRIPOS>MOLECULE
CH4
5 4
SMALL
USER_CHARGES


@<TRIPOS>ATOM
1 C 88.279 76.398 78.318 C 0.0 **** 0.0
2 H 88.443 77.288 78.925 H 0.0 **** 0.0
3 H 88.39 76.652 77.263 H 0.0 **** 0.0
4 H 87.273 76.017 78.496 H 0.0 **** 0.0
5 H 89.009 75.635 78.587 H 0.0 **** 0.0
@<TRIPOS>BOND
1 1 2 1
2 1 3 1
3 1 4 1
4 1 5 1
@<TRIPOS>MOLECULE
CH4
5 4
SMALL
USER_CHARGES


@<TRIPOS>ATOM
1 C 18.338 17.879 12.295 C 0.0 **** 0.0
2 H 18.481 17.362 13.243 H 0.0 **** 0.0
3 H 18.528 17.189 11.472 H 0.0 **** 0.0
4 H 19.029 18.72 12.232 H 0.0 **** 0.0
5 H 17.313 18.246 12.232 H 0.0 **** 0.0
@<TRIPOS>BOND
1 1 2 1
2 1 3 1
3 1 4 1
4 1 5 1
@<TRIPOS>MOLECULE
CH4
5 4
SMALL
USER_CHARGES


@<TRIPOS>ATOM
1 C 95.39 70.966 0.984 C 0.0 **** 0.0
2 H 94.34 70.677 1.018 H 0.0 **** 0.0
3 H 96.015 70.075 1.056 H 0.0 **** 0.0
4 H 95.61 71.633 1.818 H 0.0 **** 0.0
5 H 95.595 71.479 0.045 H 0.0 **** 0.0
@<TRIPOS>BOND
1 1 2 1
2 1 3 1
3 1 4 1
4 1 5 1
@<TRIPOS>MOLECULE
CH4
5 4
SMALL
USER_CHARGES


@<TRIPOS>ATOM
1 C 57.354 2.33 42.229 C 0.0 **** 0.0
2 H 57.417 2.339 43.317 H 0.0 **** 0.0
3 H 56.518 2.952 41.908 H 0.0 **** 0.0
4 H 57.201 1.308 41.882 H 0.0 **** 0.0
5 H 58.281 2.721 41.808 H 0.0 **** 0.0
@<TRIPOS>BOND
1 1 2 1
2 1 3 1
3 1 4 1
4 1 5 1
@<TRIPOS>MOLECULE
CH4
5 4
SMALL
USER_CHARGES


@<TRIPOS>ATOM
1 C 47.932 58.422 86.245 C 0.0 **** 0.0
2 H 47.518 57.431 86.059 H 0.0 **** 0.0
3 H 48.739 58.348 86.974 H 0.0 **** 0.0
4 H 47.151 59.076 86.633 H 0.0 **** 0.0
5 H 48.32 58.833 85.313 H 0.0 **** 0.0
@<TRIPOS>BOND
1 1 2 1
2 1 3 1
3 1 4 1
4 1 5 1
@<TRIPOS>MOLECULE
CH4
5 4
SMALL
USER_CHARGES


@<TRIPOS>ATOM
1 C 85.563 54.547 39.943 C 0.0 **** 0.0
2 H 85.161 54.872 38.983 H 0.0 **** 0.0
3 H 84.915 54.898 40.746 H 0.0 **** 0.0
4 H 86.563 54.958 40.075 H 0.0 **** 0.0
5 H 85.612 53.458 39.965 H 0.0 **** 0.0
@<TRIPOS>BOND
1 1 2 1
2 1 3 1
3 1 4 1
4 1 5 1
@<TRIPOS>MOLECULE
CH4
5 4
SMALL
USER_CHARGES


@<TRIPOS>ATOM
1 C 87.708 72.492 67.909 C 0.0 **** 0.0
2 H 87.722 71.589 67.299 H 0.0 **** 0.0
3 H 86.711 72.932 67.884 H 0.0 **** 0.0
4 H 88.431 73.207 67.515 H 0.0 **** 0.0
5 H 87.969 72.241 68.937 H 0.0 **** 0.0
@<TRIPOS>BOND
1 1 2 1
2 1 3 1
3 1 4 1
4 1 5 1
@<TRIPOS>MOLECULE
CH4
5 4
SMALL
USER_CHARGES


@<TRIPOS>ATOM
1 C 8.126 27.684 69.96 C 0.0 **** 0.0
2 H 8.538 26.98 70.684 H 0.0 **** 0.0
3 H 8.642 28.64 70.051 H 0.0 **** 0.0
4 H 7.063 27.824 70.155 H 0.0 **** 0.0
5 H 8.262 27.291 68.953 H 0.0 **** 0.0
@<TRIPOS>BOND
1 1 2 1
2 1 3 1
3 1 4 1
4 1 5 1
@<TRIPOS>MOLECULE
CH4
5 4
SMALL
USER_CHARGES


@<TRIPOS>ATOM
1 C 27.841 7.256 7.005 C 0.0 **** 0.0
2 H 27.789 8.334 7.156 H 0.0 **** 0.0
3 H 28.507 6.817 7.749 H 0.0 **** 0.0
4 H 28.224 7.047 6.006 H 0.0 **** 0.0
5 H 26.845 6.826 7.11 H 0.0 **** 0.0
@<TRIPOS>BOND
1 1 2 1
2 1 3 1
3 1 4 1
4 1 5 1
@<TRIPOS>MOLECULE
CH4
5 4
SMALL
USER_CHARGES


@<TRIPOS>ATOM
1 C 31.315 60.155 78.033 C 0.0 **** 0.0
2 H 32.146 60.842 78.193 H 0.0 **** 0.0
3 H 31.117 59.606 78.954 H 0.0 **** 0.0
4 H 31.572 59.454 77.239 H 0.0 **** 0.0
5 H 30.428 60.719 77.748 H 0.0 **** 0.0
@<TRIPOS>BOND
1 1 2 1
2 1 3 1
3 1 4 1
4 1 5 1
@<TRIPOS>MOLECULE
CH4
5 4
SMALL
USER_CHARGES


@<TRIPOS>ATOM
1 C 95.869 77.765 54.564 C 0.0 **** 0.0
2 H 95.641 77.71 53.499 H 0.0 **** 0.0
3 H 96.025 76.759 54.954 H 0.0 **** 0.0
4 H 95.038 78.234 55.089 H 0.0 **** 0.0
5 H 96.773 78.356 54.711 H 0.0 **** 0.0
@<TRIPOS>BOND
1 1 2 1
2 1 3 1
3 1 4 1
4 1 5 1
@<TRIPOS>MOLECULE
CH4
5 4
SMALL
USER_CHARGES


@<TRIPOS>ATOM
1 C 39.14 64.39 69.76 C 0.0 **** 0.0
2 H 38.446 64.242 68.932 H 0.0 **** 0.0
3 H 39.118 65.434 70.07 H 0.0 **** 0.0
4 H 40.148 64.127 69.44 H 0.0 **** 0.0
5 H 38.847 63.755 70.597 H 0.0 **** 0.0
@<TRIPOS>BOND
1 1 2 1
2 1 3 1
3 1 4 1
4 1 5 1
@<TRIPOS>MOLECULE
CH4
5 4
SMALL
USER_CHARGES


@<TRIPOS>ATOM
1 C 11.811 81.637 1.193 C 0.0 **** 0.0
2 H 11.655 82.707 1.328 H 0.0 **** 0.0
3 H 11.596 81.118 2.128 H 0.0 **** 0.0
4 H 12.846 81.454 0.906 H 0.0 **** 0.0
5 H 11.146 81.269 0.412 H 0.0 **** 0.0
@<TRIPOS>BOND
1 1 2 1
2 1 3 1
3 1 4 1
4 1 5 1
@<TRIPOS>MOLECULE
CH4
5 4
SMALL
USER_CHARGES


@<TRIPOS>ATOM
1 C 20.169 36.483 63.684 C 0.0 **** 0.0
2 H 19.814 36.831 64.654 H 0.0 **** 0.0
3 H 21.236 36.267 63.744 H 0.0 **** 0.0
4 H 19.996 37.256 62.935 H 0.0 **** 0.0
5 H 19.63 35.578 63.404 H 0.0 **** 0.0
@<TRIPOS>BOND
1 1 2 1
2 1 3 1
3 1 4 1
4 1 5 1
@<TRIPOS>MOLECULE
CH4
5 4
SMALL
USER_CHARGES


@<TRIPOS>ATOM
1 C 78.668 80.058 47.436 C 0.0 **** 0.0
2 H 79.367 80.12 46.602 H 0.0 **** 0.0
3 H 77.66 79.892 47.055 H 0.0 **** 0.0
4 H 78.693 80.991 48.001 H 0.0 **** 0.0
5 H 78.952 79.232 48.088 H 0.0 **** 0.0
@<TRIPOS>BOND
1 1 2 1
2 1 3 1
3 1 4 1
4 1 5 1
@<TRIPOS>MOLECULE
CH4
5 4
SMALL
USER_CHARGES


@<TRIPOS>ATOM
1 C 2.791 56.242 95.86 C 0.0 **** 0.0
2 H 2.698 57.171 95.298 H 0.0 **** 0.0
3 H 2.0 56.19 96.609 H 0.0 **** 0.0
4 H 3.762 56.213 96.354 H 0.0 **** 0.0
5 H 2.704 55.396 95.179 H 0.0 **** 0.0
@<TRIPOS>BOND
1 1 5 1
2 1 2 1
3 1 4 1
4 1 3 1
@<TRIPOS>MOLECULE
CH4
5 4
SMALL
USER_CHARGES


@<TRIPOS>ATOM
1 C 55.003 95.079 96.521 C 0.0 **** 0.0
2 H 54.232 95.173 95.756 H 0.0 **** 0.0
3 H 55.931 95.519 96.157 H 0.0 **** 0.0
4 H 55.164 94.025 96.747 H 0.0 **** 0.0
5 H 54.683 95.599 97.424 H 0.0 **** 0.0
@<TRIPOS>BOND
1 1 2 1
2 1 3 1
3 1 4 1
4 1 5 1
@<TRIPOS>MOLECULE
CH4
5 4
SMALL
USER_CHARGES


@<TRIPOS>ATOM
1 C 59.503 66.079 59.437 C 0.0 **** 0.0
2 H 58.798 65.252 59.347 H 0.0 **** 0.0
3 H 59.547 66.407 60.476 H 0.0 **** 0.0
4 H 59.173 66.907 58.809 H 0.0 **** 0.0
5 H 60.491 65.751 59.116 H 0.0 **** 0.0
@<TRIPOS>BOND
1 1 2 1
2 1 3 1
3 1 4 1
4 1 5 1
@<TRIPOS>MOLECULE
CH4
5 4
SMALL
USER_CHARGES


@<TRIPOS>ATOM
1 C 61.547 44.726 53.713 C 0.0 **** 0.0
2 H 60.564 44.323 53.47 H 0.0 **** 0.0
3 H 62.263 44.42 52.95 H 0.0 **** 0.0
4 H 61.865 44.346 54.684 H 0.0 **** 0.0
5 H 61.496 45.814 53.747 H 0.0 **** 0.0
@<TRIPOS>BOND
1 1 2 1
2 1 3 1
3 1 4 1
4 1 5 1
@<TRIPOS>MOLECULE
CH4
5 4
SMALL
USER_CHARGES


@<TRIPOS>ATOM
1 C 17.925 3.609 63.076 C 0.0 **** 0.0
2 H 18.084 4.605 63.488 H 0.0 **** 0.0
3 H 18.05 3.639 61.994 H 0.0 **** 0.0
4 H 16.916 3.274 63.317 H 0.0 **** 0.0
5 H 18.649 2.917 63.507 H 0.0 **** 0.0
@<TRIPOS>BOND
1 1 2 1
2 1 3 1
3 1 4 1
4 1 5 1
@<TRIPOS>MOLECULE
CH4
5 4
SMALL
USER_CHARGES


@<TRIPOS>ATOM
1 C 53.722 4.202 8.452 C 0.0 **** 0.0
2 H 54.148 4.832 7.671 H 0.0 **** 0.0
3 H 53.983 4.609 9.429 H 0.0 **** 0.0
4 H 54.119 3.191 8.361 H 0.0 **** 0.0
5 H 52.637 4.177 8.347 H 0.0 **** 0.0
@<TRIPOS>BOND
1 1 2 1
2 1 3 1
3 1 4 1
4 1 5 1
@<TRIPOS>MOLECULE
CH4
5 4
SMALL
USER_CHARGES


@<TRIPOS>ATOM
1 C 74.78 98.48 16.201 C 0.0 **** 0.0
2 H 73.797 98.949 16.166 H 0.0 **** 0.0
3 H 74.695 97.435 15.901 H 0.0 **** 0.0
4 H 75.173 98.536 17.216 H 0.0 **** 0.0
5 H 75.455 98.999 15.521 H 0.0 **** 0.0
@<TRIPOS>BOND
1 1 2 1
2 1 3 1
3 1 4 1
4 1 5 1
@<TRIPOS>MOLECULE
CH4
5 4
SMALL
USER_CHARGES


@<TRIPOS>ATOM
1 C 73.167 15.208 88.993 C 0.0 **** 0.0
2 H 72.331 15.436 89.654 H 0.0 **** 0.0
3 H 73.444 14.159 89.107 H 0.0 **** 0.0
4 H 74.017 15.838 89.254 H 0.0 **** 0.0
5 H 72.876 15.398 87.96 H 0.0 **** 0.0
@<TRIPOS>BOND
1 1 2 1
2 1 3 1
3 1 4 1
4 1 5 1
@<TRIPOS>MOLECULE
CH4
5 4
SMALL
USER_CHARGES


@<TRIPOS>ATOM
1 C 9.172 36.425 48.71 C 0.0 **** 0.0
2 H 8.685 37.271 48.225 H 0.0 **** 0.0
3 H 9.41 35.667 47.963 H 0.0 **** 0.0
4 H 8.504 36.001 49.459 H 0.0 **** 0.0
5 H 10.091 36.762 49.19 H 0.0 **** 0.0
@<TRIPOS>BOND
1 1 2 1
2 1 3 1
3 1 4 1
4 1 5 1
@<TRIPOS>MOLECULE
CH4
5 4
SMALL
USER_CHARGES


@<TRIPOS>ATOM
1 C 68.557 31.718 14.589 C 0.0 **** 0.0
2 H 68.692 30.964 15.364 H 0.0 **** 0.0
3 H 68.044 32.584 15.011 H 0.0 **** 0.0
4 H 67.96 31.302 13.778 H 0.0 **** 0.0
5 H 69.53 32.023 14.205 H 0.0 **** 0.0
@<TRIPOS>BOND
1 1 2 1
2 1 3 1
3 1 4 1
4 1 5 1
@<TRIPOS>MOLECULE
CH4
5 4
SMALL
USER_CHARGES


@<TRIPOS>ATOM
1 C 86.505 29.066 85.023 C 0.0 **** 0.0
2 H 86.565 28.352 84.201 H 0.0 **** 0.0
3 H 87.39 29.703 85.014 H 0.0 **** 0.0
4 H 86.454 28.527 85.969 H 0.0 **** 0.0
5 H 85.613 29.68 84.906 H 0.0 **** 0.0
@<TRIPOS>BOND
1 1 2 1
2 1 3 1
3 1 4 1
4 1 5 1
@<TRIPOS>MOLECULE
CH4
5 4
SMALL
USER_CHARGES


@<TRIPOS>ATOM
1 C 90.853 87.678 74.712 C 0.0 **** 0.0
2 H 90.851 87.672 75.802 H 0.0 **** 0.0
3 H 90.649 86.673 74.343 H 0.0 **** 0.0
4 H 91.829 88.007 74.353 H 0.0 **** 0.0
5 H 90.084 88.362 74.352 H 0.0 **** 0.0
@<TRIPOS>BOND
1 1 2 1
2 1 3 1
3 1 4 1
4 1 5 1
@<TRIPOS>MOLECULE
CH4
5 4
SMALL
USER_CHARGES


@<TRIPOS>ATOM
1 C 54.876 80.001 0.849 C 0.0 **** 0.0
2 H 54.199 79.882 0.003 H 0.0 **** 0.0
3 H 55.904 79.856 0.515 H 0.0 **** 0.0
4 H 54.634 79.262 1.613 H 0.0 **** 0.0
5 H 54.766 81.003 1.264 H 0.0 **** 0.0
@<TRIPOS>BOND
1 1 2 1
2 1 3 1
3 1 4 1
4 1 5 1
@<TRIPOS>MOLECULE
CH4
5 4
SMALL
USER_CHARGES


@<TRIPOS>ATOM
1 C 23.651 37.277 47.009 C 0.0 **** 0.0
2 H 24.356 36.447 46.964 H 0.0 **** 0.0
3 H 23.239 37.458 46.015 H 0.0 **** 0.0
4 H 24.165 38.172 47.358 H 0.0 **** 0.0
5 H 22.843 37.03 47.698 H 0.0 **** 0.0
@<TRIPOS>BOND
1 1 2 1
2 1 3 1
3 1 4 1
4 1 5 1
@<TRIPOS>MOLECULE
CH4
5 4
SMALL
USER_CHARGES


@<TRIPOS>ATOM
1 C 64.474 4.94 46.267 C 0.0 **** 0.0
2 H 63.938 4.133 45.769 H 0.0 **** 0.0
3 H 63.966 5.193 47.198 H 0.0 **** 0.0
4 H 64.498 5.815 45.617 H 0.0 **** 0.0
5 H 65.493 4.62 46.484 H 0.0 **** 0.0
@<TRIPOS>BOND
1 1 2 1
2 1 3 1
3 1 4 1
4 1 5 1
@<TRIPOS>MOLECULE
CH4
5 4
SMALL
USER_CHARGES


@<TRIPOS>ATOM
1 C 13.369 15.446 75.685 C 0.0 **** 0.0
2 H 14.098 16.234 75.877 H 0.0 **** 0.0
3 H 12.365 15.826 75.879 H 0.0 **** 0.0
4 H 13.569 14.598 76.34 H 0.0 **** 0.0
5 H 13.443 15.129 74.645 H 0.0 **** 0.0
@<TRIPOS>BOND
1 1 2 1
2 1 3 1
3 1 4 1
4 1 5 1
@<TRIPOS>MOLECULE
CH4
5 4
SMALL
USER_CHARGES


@<TRIPOS>ATOM
1 C 3.804 65.531 90.445 C 0.0 **** 0.0
2 H 4.716 65.465 89.852 H 0.0 **** 0.0
3 H 4.062 65.624 91.5 H 0.0 **** 0.0
4 H 3.207 64.631 90.295 H 0.0 **** 0.0
5 H 3.23 66.404 90.133 H 0.0 **** 0.0
@<TRIPOS>BOND
1 1 2 1
2 1 3 1
3 1 4 1
4 1 5 1
@<TRIPOS>MOLECULE
CH4
5 4
SMALL
USER_CHARGES


@<TRIPOS>ATOM
1 C 23.926 49.063 49.802 C 0.0 **** 0.0
2 H 23.424 49.853 50.36 H 0.0 **** 0.0
3 H 23.551 48.093 50.13 H 0.0 **** 0.0
4 H 25.0 49.118 49.982 H 0.0 **** 0.0
5 H 23.729 49.188 48.738 H 0.0 **** 0.0
@<TRIPOS>BOND
1 1 2 1
2 1 3 1
3 1 4 1
4 1 5 1
@<TRIPOS>MOLECULE
CH4
5 4
SMALL
USER_CHARGES


@<TRIPOS>ATOM
1 C 6.579 87.31 5.016 C 0.0 **** 0.0
2 H 6.874 87.18 3.975 H 0.0 **** 0.0
3 H 6.931 88.278 5.375 H 0.0 **** 0.0
4 H 7.018 86.516 5.62 H 0.0 **** 0.0
5 H 5.492 87.267 5.094 H 0.0 **** 0.0
@<TRIPOS>BOND
1 1 2 1
2 1 3 1
3 1 4 1
4 1 5 1
@<TRIPOS>MOLECULE
CH4
5 4
SMALL
USER_CHARGES


@<TRIPOS>ATOM
1 C 96.901 95.119 68.991 C 0.0 **** 0.0
2 H 97.291 94.718 68.055 H 0.0 **** 0.0
3 H 97.73 95.445 69.619 H 0.0 **** 0.0
4 H 96.334 94.346 69.509 H 0.0 **** 0.0
5 H 96.25 95.967 68.779 H 0.0 **** 0.0
@<TRIPOS>BOND
1 1 2 1
2 1 3 1
3 1 4 1
4 1 5 1
@<TRIPOS>MOLECULE
CH4
5 4
SMALL
USER_CHARGES


@<TRIPOS>ATOM
1 C 26.811 64.31 34.687 C 0.0 **** 0.0
2 H 26.783 64.329 35.776 H 0.0 **** 0.0
3 H 27.476 65.095 34.327 H 0.0 **** 0.0
4 H 25.807 64.476 34.295 H 0.0 **** 0.0
5 H 27.177 63.34 34.35 H 0.0 **** 0.0
@<TRIPOS>BOND
1 1 2 1
2 1 3 1
3 1 4 1
4 1 5 1
@<TRIPOS>MOLECULE
CH4
5 4
SMALL
USER_CHARGES


@<TRIPOS>ATOM
1 C 44.117 57.336 66.354 C 0.0 **** 0.0
2 H 45.158 57.056 66.517 H 0.0 **** 0.0
3 H 43.985 58.394 66.583 H 0.0 **** 0.0
4 H 43.475 56.74 67.002 H 0.0 **** 0.0
5 H 43.851 57.154 65.312 H 0.0 **** 0.0
@<TRIPOS>BOND
1 1 2 1
2 1 3 1
3 1 4 1
4 1 5 1
@<TRIPOS>MOLECULE
CH4
5 4
SMALL
USER_CHARGES


@<TRIPOS>ATOM
1 C 4.328 85.34 59.305 C 0.0 **** 0.0
2 H 3.455 84.903 58.82 H 0.0 **** 0.0
3 H 4.991 85.761 58.549 H 0.0 **** 0.0
4 H 4.857 84.568 59.864 H 0.0 **** 0.0
5 H 4.008 86.127 59.987 H 0.0 **** 0.0
@<TRIPOS>BOND
1 1 2 1
2 1 3 1
3 1 4 1
4 1 5 1
@<TRIPOS>MOLECULE
CH4
5 4
SMALL
USER_CHARGES


@<TRIPOS>ATOM
1 C 73.739 41.372 25.4 C 0.0 **** 0.0
2 H 74.604 40.725 25.55 H 0.0 **** 0.0
3 H 73.0 40.853 24.79 H 0.0 **** 0.0
4 H 74.052 42.285 24.894 H 0.0 **** 0.0
5 H 73.301 41.623 26.366 H 0.0 **** 0.0
@<TRIPOS>BOND
1 1 2 1
2 1 3 1
3 1 4 1
4 1 5 1
@<TRIPOS>MOLECULE
CH4
5 4
SMALL
USER_CHARGES


@<TRIPOS>ATOM
1 C 94.219 13.49 26.212 C 0.0 **** 0.0
2 H 93.77 12.836 26.959 H 0.0 **** 0.0
3 H 95.117 13.95 26.625 H 0.0 **** 0.0
4 H 93.508 14.267 25.934 H 0.0 **** 0.0
5 H 94.483 12.906 25.33 H 0.0 **** 0.0
@<TRIPOS>BOND
1 1 2 1
2 1 3 1
3 1 4 1
4 1 5 1
@<TRIPOS>MOLECULE
CH4
5 4
SMALL
USER_CHARGES


@<TRIPOS>ATOM
1 C 27.424 42.801 2.191 C 0.0 **** 0.0
2 H 27.865 43.033 1.221 H 0.0 **** 0.0
3 H 26.456 43.295 2.276 H 0.0 **** 0.0
4 H 28.084 43.154 2.983 H 0.0 **** 0.0
5 H 27.292 41.723 2.281 H 0.0 **** 0.0
@<TRIPOS>BOND
1 1 2 1
2 1 3 1
3 1 4 1
4 1 5 1
@<TRIPOS>MOLECULE
CH4
5 4
SMALL
USER_CHARGES


@<TRIPOS>ATOM
1 C 26.016 85.387 22.204 C 0.0 **** 0.0
2 H 25.962 85.281 23.288 H 0.0 **** 0.0
3 H 26.964 85.851 21.931 H 0.0 **** 0.0
4 H 25.193 86.013 21.86 H 0.0 **** 0.0
5 H 25.945 84.404 21.739 H 0.0 **** 0.0
@<TRIPOS>BOND
1 1 2 1
2 1 3 1
3 1 4 1
4 1 5 1
@<TRIPOS>MOLECULE
CH4
5 4
SMALL
USER_CHARGES


@<TRIPOS>ATOM
1 C 21.636 76.725 27.885 C 0.0 **** 0.0
2 H 21.587 76.806 26.799 H 0.0 **** 0.0
3 H 21.09 75.839 28.208 H 0.0 **** 0.0
4 H 21.189 77.612 28.335 H 0.0 **** 0.0
5 H 22.677 76.645 28.196 H 0.0 **** 0.0
@<TRIPOS>BOND
1 1 2 1
2 1 3 1
3 1 4 1
4 1 5 1
@<TRIPOS>MOLECULE
CH4
5 4
SMALL
USER_CHARGES


@<TRIPOS>ATOM
1 C 15.389 70.502 85.501 C 0.0 **** 0.0
2 H 14.736 70.157 86.302 H 0.0 **** 0.0
3 H 14.992 70.171 84.541 H 0.0 **** 0.0
4 H 16.388 70.09 85.643 H 0.0 **** 0.0
5 H 15.44 71.591 85.518 H 0.0 **** 0.0
@<TRIPOS>BOND
1 1 2 1
2 1 3 1
3 1 4 1
4 1 5 1
@<TRIPOS>MOLECULE
CH4
5 4
SMALL
USER_CHARGES


@<TRIPOS>ATOM
1 C 53.115 38.058 61.245 C 0.0 **** 0.0
2 H 53.213 37.164 60.629 H 0.0 **** 0.0
3 H 52.521 38.802 60.713 H 0.0 **** 0.0
4 H 54.104 38.465 61.455 H 0.0 **** 0.0
5 H 52.622 37.801 62.182 H 0.0 **** 0.0
@<TRIPOS>BOND
1 1 2 1
2 1 3 1
3 1 4 1
4 1 5 1
@<TRIPOS>MOLECULE
CH4
5 4
SMALL
USER_CHARGES


@<TRIPOS>ATOM
1 C 70.497 31.356 6.699 C 0.0 **** 0.0
2 H 70.445 31.895 5.753 H 0.0 **** 0.0
3 H 69.519 31.375 7.182 H 0.0 **** 0.0
4 H 71.232 31.83 7.348 H 0.0 **** 0.0
5 H 70.79 30.323 6.512 H 0.0 **** 0.0
@<TRIPOS>BOND
1 1 2 1
2 1 3 1
3 1 4 1
4 1 5 1
@<TRIPOS>MOLECULE
CH4
5 4
SMALL
USER_CHARGES


@<TRIPOS>ATOM
1 C 83.948 43.798 52.156 C 0.0 **** 0.0
2 H 83.495 44.145 51.228 H 0.0 **** 0.0
3 H 83.925 42.708 52.187 H 0.0 **** 0.0
4 H 83.391 44.198 53.003 H 0.0 **** 0.0
5 H 84.982 44.141 52.206 H 0.0 **** 0.0
@<TRIPOS>BOND
1 1 2 1
2 1 3 1
3 1 4 1
4 1 5 1
@<TRIPOS>MOLECULE
CH4
5 4
SMALL
USER_CHARGES


@<TRIPOS>ATOM
1 C 77.723 89.14 95.353 C 0.0 **** 0.0
2 H 78.441 88.57 94.763 H 0.0 **** 0.0
3 H 77.574 88.649 96.315 H 0.0 **** 0.0
4 H 76.774 89.191 94.819 H 0.0 **** 0.0
5 H 78.104 90.148 95.514 H 0.0 **** 0.0
@<TRIPOS>BOND
1 1 2 1
2 1 3 1
3 1 4 1
4 1 5 1
@<TRIPOS>MOLECULE
CH4
5 4
SMALL
USER_CHARGES


@<TRIPOS>ATOM
1 C 79.794 57.143 71.937 C 0.0 **** 0.0
2 H 79.598 58.106 72.409 H 0.0 **** 0.0
3 H 79.712 56.351 72.681 H 0.0 **** 0.0
4 H 80.799 57.143 71.515 H 0.0 **** 0.0
5 H 79.066 56.974 71.143 H 0.0 **** 0.0
@<TRIPOS>BOND
1 1 2 1
2 1 3 1
3 1 4 1
4 1 5 1
@<TRIPOS>MOLECULE
CH4
5 4
SMALL
USER_CHARGES


@<TRIPOS>ATOM
1 C 13.153 2.458 11.693 C 0.0 **** 0.0
2 H 12.074 2.553 11.565 H 0.0 **** 0.0
3 H 13.527 1.664 11.046 H 0.0 **** 0.0
4 H 13.374 2.215 12.733 H 0.0 **** 0.0
5 H 13.634 3.399 11.43 H 0.0 **** 0.0
@<TRIPOS>BOND
1 1 3 1
2 1 5 1
3 1 2 1
4 1 4 1
@<TRIPOS>MOLECULE
CH4
5 4
SMALL
USER_CHARGES


@<TRIPOS>ATOM
1 C 63.141 60.093 44.33 C 0.0 **** 0.0
2 H 63.338 59.811 43.296 H 0.0 **** 0.0
3 H 62.254 60.726 44.371 H 0.0 **** 0.0
4 H 63.997 60.638 44.727 H 0.0 **** 0.0
5 H 62.974 59.194 44.925 H 0.0 **** 0.0
@<TRIPOS>BOND
1 1 2 1
2 1 3 1
3 1 4 1
4 1 5 1
@<TRIPOS>MOLECULE
CH4
5 4
SMALL
USER_CHARGES


@<TRIPOS>ATOM
1 C 32.776 73.277 48.264 C 0.0 **** 0.0
2 H 33.287 74.169 48.626 H 0.0 **** 0.0
3 H 31.719 73.501 48.114 H 0.0 **** 0.0
4 H 32.878 72.477 48.997 H 0.0 **** 0.0
5 H 33.219 72.963 47.319 H 0.0 **** 0.0
@<TRIPOS>BOND
1 1 2 1
2 1 3 1
3 1 4 1
4 1 5 1
@<TRIPOS>MOLECULE
CH4
5 4
SMALL
USER_CHARGES


@<TRIPOS>ATOM
1 C 9.456 3.305 34.685 C 0.0 **** 0.0
2 H 10.121 2.597 34.189 H 0.0 **** 0.0
3 H 9.749 3.408 35.73 H 0.0 **** 0.0
4 H 8.431 2.94 34.629 H 0.0 **** 0.0
5 H 9.525 4.274 34.191 H 0.0 **** 0.0
@<TRIPOS>BOND
1 1 2 1
2 1 3 1
3 1 4 1
4 1 5 1
@<TRIPOS>MOLECULE
CH4
5 4
SMALL
USER_CHARGES


@<TRIPOS>ATOM
1 C 26.566 89.912 40.08 C 0.0 **** 0.0
2 H 27.087 89.247 39.391 H 0.0 **** 0.0
3 H 26.162 90.761 39.529 H 0.0 **** 0.0
4 H 27.263 90.268 40.838 H 0.0 **** 0.0
5 H 25.752 89.37 40.561 H 0.0 **** 0.0
@<TRIPOS>BOND
1 1 2 1
2 1 3 1
3 1 4 1
4 1 5 1
@<TRIPOS>MOLECULE
CH4
5 4
SMALL
USER_CHARGES


@<TRIPOS>ATOM
1 C 21.024 43.473 31.779 C 0.0 **** 0.0
2 H 20.717 43.483 30.733 H 0.0 **** 0.0
3 H 21.409 42.486 32.035 H 0.0 **** 0.0
4 H 20.166 43.704 32.411 H 0.0 **** 0.0
5 H 21.802 44.219 31.936 H 0.0 **** 0.0
@<TRIPOS>BOND
1 1 2 1
2 1 3 1
3 1 4 1
4 1 5 1
@<TRIPOS>MOLECULE
CH4
5 4
SMALL
USER_CHARGES


@<TRIPOS>ATOM
1 C 43.428 70.957 69.792 C 0.0 **** 0.0
2 H 43.785 70.11 69.207 H 0.0 **** 0.0
3 H 42.435 70.737 70.182 H 0.0 **** 0.0
4 H 43.382 71.842 69.158 H 0.0 **** 0.0
5 H 44.112 71.14 70.621 H 0.0 **** 0.0
@<TRIPOS>BOND
1 1 2 1
2 1 3 1
3 1 4 1
4 1 5 1
@<TRIPOS>MOLECULE
CH4
5 4
SMALL
USER_CHARGES


@<TRIPOS>ATOM
1 C 60.117 69.27 16.302 C 0.0 **** 0.0
2 H 59.046 69.159 16.467 H 0.0 **** 0.0
3 H 60.35 70.319 16.123 H 0.0 **** 0.0
4 H 60.415 68.678 15.437 H 0.0 **** 0.0
5 H 60.658 68.923 17.183 H 0.0 **** 0.0
@<TRIPOS>BOND
1 1 2 1
2 1 3 1
3 1 4 1
4 1 5 1
@<TRIPOS>MOLECULE
CH4
5 4
SMALL
USER_CHARGES


@<TRIPOS>ATOM
1 C 6.203 79.846 53.403 C 0.0 **** 0.0
2 H 6.315 80.16 54.441 H 0.0 **** 0.0
3 H 6.318 78.764 53.337 H 0.0 **** 0.0
4 H 6.964 80.33 52.793 H 0.0 **** 0.0
5 H 5.214 80.129 53.043 H 0.0 **** 0.0
@<TRIPOS>BOND
1 1 2 1
2 1 3 1
3 1 4 1
4 1 5 1
@<TRIPOS>MOLECULE
CH4
5 4
SMALL
USER_CHARGES


@<TRIPOS>ATOM
1 C 28.406 12.944 96.645 C 0.0 **** 0.0
2 H 27.33 13.117 96.653 H 0.0 **** 0.0
3 H 28.631 12.03 97.195 H 0.0 **** 0.0
4 H 28.913 13.786 97.117 H 0.0 **** 0.0
5 H 28.75 12.844 95.616 H 0.0 **** 0.0
@<TRIPOS>BOND
1 1 2 1
2 1 3 1
3 1 4 1
4 1 5 1
@<TRIPOS>MOLECULE
CH4
5 4
SMALL
USER_CHARGES


@<TRIPOS>ATOM
1 C 61.108 94.685 21.839 C 0.0 **** 0.0
2 H 61.892 93.94 21.978 H 0.0 **** 0.0
3 H 61.289 95.53 22.504 H 0.0 **** 0.0
4 H 60.14 94.241 22.07 H 0.0 **** 0.0
5 H 61.113 95.028 20.804 H 0.0 **** 0.0
@<TRIPOS>BOND
1 1 2 1
2 1 3 1
3 1 4 1
4 1 5 1
@<TRIPOS>MOLECULE
CH4
5 4
SMALL
USER_CHARGES


@<TRIPOS>ATOM
1 C 61.951 13.767 97.132 C 0.0 **** 0.0
2 H 62.094 13.659 98.207 H 0.0 **** 0.0
3 H 62.66 14.499 96.744 H 0.0 **** 0.0
4 H 60.934 14.105 96.933 H 0.0 **** 0.0
5 H 62.118 12.806 96.646 H 0.0 **** 0.0
@<TRIPOS>BOND
1 1 2 1
2 1 3 1
3 1 4 1
4 1 5 1
@<TRIPOS>MOLECULE
CH4
5 4
SMALL
USER_CHARGES


@<TRIPOS>ATOM
1 C 85.349 26.602 46.564 C 0.0 **** 0.0
2 H 84.603 25.886 46.22 H 0.0 **** 0.0
3 H 85.795 27.103 45.704 H 0.0 **** 0.0
4 H 86.125 26.078 47.122 H 0.0 **** 0.0
5 H 84.873 27.341 47.209 H 0.0 **** 0.0
@<TRIPOS>BOND
1 1 2 1
2 1 3 1
3 1 4 1
4 1 5 1
@<TRIPOS>MOLECULE
CH4
5 4
SMALL
USER_CHARGES


@<TRIPOS>ATOM
1 C 87.58 71.161 55.365 C 0.0 **** 0.0
2 H 87.003 70.381 55.861 H 0.0 **** 0.0
3 H 88.502 70.734 54.969 H 0.0 **** 0.0
4 H 87.822 71.945 56.083 H 0.0 **** 0.0
5 H 86.994 71.583 54.549 H 0.0 **** 0.0
@<TRIPOS>BOND
1 1 2 1
2 1 3 1
3 1 4 1
4 1 5 1
@<TRIPOS>MOLECULE
CH4
5 4
SMALL
USER_CHARGES


@<TRIPOS>ATOM
1 C 64.338 75.703 47.426 C 0.0 **** 0.0
2 H 64.385 76.491 48.178 H 0.0 **** 0.0
3 H 64.876 74.826 47.786 H 0.0 **** 0.0
4 H 64.795 76.057 46.501 H 0.0 **** 0.0
5 H 63.297 75.441 47.24 H 0.0 **** 0.0
@<TRIPOS>BOND
1 1 2 1
2 1 3 1
3 1 4 1
4 1 5 1
@<TRIPOS>MOLECULE
CH4
5 4
SMALL
USER_CHARGES


@<TRIPOS>ATOM
1 C 63.783 91.27 85.811 C 0.0 **** 0.0
2 H 63.597 91.71 86.791 H 0.0 **** 0.0
3 H 62.832 91.047 85.327 H 0.0 **** 0.0
4 H 64.355 90.349 85.929 H 0.0 **** 0.0
5 H 64.348 91.972 85.199 H 0.0 **** 0.0
@<TRIPOS>BOND
1 1 2 1
2 1 3 1
3 1 4 1
4 1 5 1
@<TRIPOS>MOLECULE
CH4
5 4
SMALL
USER_CHARGES


@<TRIPOS>ATOM
1 C 64.196 70.406 6.252 C 0.0 **** 0.0
2 H 64.053 69.325 6.233 H 0.0 **** 0.0
3 H 63.256 70.901 6.008 H 0.0 **** 0.0
4 H 64.955 70.684 5.522 H 0.0 **** 0.0
5 H 64.52 70.711 7.247 H 0.0 **** 0.0
@<TRIPOS>BOND
1 1 2 1
2 1 3 1
3 1 4 1
4 1 5 1
@<TRIPOS>MOLECULE
CH4
5 4
SMALL
USER_CHARGES


@<TRIPOS>ATOM
1 C 92.079 34.263 16.245 C 0.0 **** 0.0
2 H 93.083 34.66 16.094 H 0.0 **** 0.0
3 H 91.686 33.899 15.296 H 0.0 **** 0.0
4 H 91.431 35.051 16.629 H 0.0 **** 0.0
5 H 92.118 33.443 16.962 H 0.0 **** 0.0
@<TRIPOS>BOND
1 1 4 1
2 1 5 1
3 1 2 1
4 1 3 1
@<TRIPOS>MOLECULE
CH4
5 4
SMALL
USER_CHARGES


@<TRIPOS>ATOM
1 C 85.256 87.923 87.457 C 0.0 **** 0.0
2 H 85.391 87.946 86.376 H 0.0 **** 0.0
3 H 84.579 88.724 87.755 H 0.0 **** 0.0
4 H 86.22 88.06 87.946 H 0.0 **** 0.0
5 H 84.833 86.962 87.749 H 0.0 **** 0.0
@<TRIPOS>BOND
1 1 2 1
2 1 3 1
3 1 4 1
4 1 5 1
@<TRIPOS>MOLECULE
CH4
5 4
SMALL
USER_CHARGES


@<TRIPOS>ATOM
1 C 46.512 16.793 39.048 C 0.0 **** 0.0
2 H 47.122 17.261 38.275 H 0.0 **** 0.0
3 H 46.618 15.71 38.988 H 0.0 **** 0.0
4 H 45.467 17.065 38.9 H 0.0 **** 0.0
5 H 46.842 17.137 40.028 H 0.0 **** 0.0
@<TRIPOS>BOND
1 1 2 1
2 1 3 1
3 1 4 1
4 1 5 1
@<TRIPOS>MOLECULE
CH4
5 4
SMALL
USER_CHARGES


@<TRIPOS>ATOM
1 C 88.341 46.411 82.372 C 0.0 **** 0.0
2 H 89.321 45.935 82.322 H 0.0 **** 0.0
3 H 87.866 46.365 81.392 H 0.0 **** 0.0
4 H 88.459 47.453 82.671 H 0.0 **** 0.0
5 H 87.721 45.891 83.102 H 0.0 **** 0.0
@<TRIPOS>BOND
1 1 2 1
2 1 3 1
3 1 4 1
4 1 5 1
@<TRIPOS>MOLECULE
CH4
5 4
SMALL
USER_CHARGES


@<TRIPOS>ATOM
1 C 63.44 20.603 17.253 C 0.0 **** 0.0
2 H 63.748 20.912 16.254 H 0.0 **** 0.0
3 H 63.933 21.231 17.996 H 0.0 **** 0.0
4 H 63.721 19.562 17.414 H 0.0 **** 0.0
5 H 62.359 20.707 17.348 H 0.0 **** 0.0
@<TRIPOS>BOND
1 1 2 1
2 1 3 1
3 1 4 1
4 1 5 1
@<TRIPOS>MOLECULE
CH4
5 4
SMALL
USER_CHARGES


@<TRIPOS>ATOM
1 C 95.222 70.196 32.663 C 0.0 **** 0.0
2 H 94.516 69.419 32.954 H 0.0 **** 0.0
3 H 96.128 69.734 32.27 H 0.0 **** 0.0
4 H 95.471 70.804 33.533 H 0.0 **** 0.0
5 H 94.773 70.827 31.896 H 0.0 **** 0.0
@<TRIPOS>BOND
1 1 2 1
2 1 3 1
3 1 4 1
4 1 5 1
@<TRIPOS>MOLECULE
CH4
5 4
SMALL
USER_CHARGES


@<TRIPOS>ATOM
1 C 73.147 92.241 3.838 C 0.0 **** 0.0
2 H 73.845 92.742 3.168 H 0.0 **** 0.0
3 H 73.165 91.168 3.645 H 0.0 **** 0.0
4 H 72.141 92.625 3.668 H 0.0 **** 0.0
5 H 73.437 92.43 4.872 H 0.0 **** 0.0
@<TRIPOS>BOND
1 1 2 1
2 1 3 1
3 1 4 1
4 1 5 1
@<TRIPOS>MOLECULE
CH4
5 4
SMALL
USER_CHARGES


@<TRIPOS>ATOM
1 C 17.622 21.889 11.113 C 0.0 **** 0.0
2 H 17.045 22.243 10.259 H 0.0 **** 0.0
3 H 18.316 22.667 11.43 H 0.0 **** 0.0
4 H 18.181 20.997 10.828 H 0.0 **** 0.0
5 H 16.946 21.648 11.933 H 0.0 **** 0.0
@<TRIPOS>BOND
1 1 2 1
2 1 3 1
3 1 4 1
4 1 5 1
@<TRIPOS>MOLECULE
CH4
5 4
SMALL
USER_CHARGES


@<TRIPOS>ATOM
1 C 6.78 1.958 16.009 C 0.0 **** 0.0
2 H 6.613 2.039 17.083 H 0.0 **** 0.0
3 H 6.216 1.112 15.616 H 0.0 **** 0.0
4 H 7.842 1.808 15.817 H 0.0 **** 0.0
5 H 6.448 2.874 15.52 H 0.0 **** 0.0
@<TRIPOS>BOND
1 1 2 1
2 1 3 1
3 1 4 1
4 1 5 1
@<TRIPOS>MOLECULE
CH4
5 4
SMALL
USER_CHARGES


@<TRIPOS>ATOM
1 C 54.489 20.886 22.355 C 0.0 **** 0.0
2 H 54.094 20.985 23.366 H 0.0 **** 0.0
3 H 55.36 21.531 22.24 H 0.0 **** 0.0
4 H 53.723 21.177 21.636 H 0.0 **** 0.0
5 H 54.778 19.85 22.179 H 0.0 **** 0.0
@<TRIPOS>BOND
1 1 2 1
2 1 3 1
3 1 4 1
4 1 5 1
@<TRIPOS>MOLECULE
CH4
5 4
SMALL
USER_CHARGES


@<TRIPOS>ATOM
1 C 25.875 91.108 62.702 C 0.0 **** 0.0
2 H 25.833 90.525 61.782 H 0.0 **** 0.0
3 H 26.637 91.881 62.608 H 0.0 **** 0.0
4 H 26.123 90.451 63.536 H 0.0 **** 0.0
5 H 24.905 91.572 62.882 H 0.0 **** 0.0
@<TRIPOS>BOND
1 1 2 1
2 1 3 1
3 1 4 1
4 1 5 1
@<TRIPOS>MOLECULE
CH4
5 4
SMALL
USER_CHARGES


@<TRIPOS>ATOM
1 C 28.607 68.711 92.442 C 0.0 **** 0.0
2 H 28.567 68.692 91.353 H 0.0 **** 0.0
3 H 28.838 67.712 92.814 H 0.0 **** 0.0
4 H 27.643 69.032 92.835 H 0.0 **** 0.0
5 H 29.381 69.407 92.765 H 0.0 **** 0.0
@<TRIPOS>BOND
1 1 2 1
2 1 3 1
3 1 4 1
4 1 5 1
@<TRIPOS>MOLECULE
CH4
5 4
SMALL
USER_CHARGES


@<TRIPOS>ATOM
1 C 39.55 3.695 91.341 C 0.0 **** 0.0
2 H 40.003 3.954 90.384 H 0.0 **** 0.0
3 H 39.35 4.606 91.906 H 0.0 **** 0.0
4 H 40.232 3.059 91.905 H 0.0 **** 0.0
5 H 38.615 3.162 91.167 H 0.0 **** 0.0
@<TRIPOS>BOND
1 1 2 1
2 1 3 1
3 1 4 1
4 1 5 1
@<TRIPOS>MOLECULE
CH4
5 4
SMALL
USER_CHARGES


@<TRIPOS>ATOM
1 C 2.914 1.786 36.68 C 0.0 **** 0.0
2 H 1.843 1.626 36.804 H 0.0 **** 0.0
3 H 3.162 2.81 36.959 H 0.0 **** 0.0
4 H 3.188 1.615 35.639 H 0.0 **** 0.0
5 H 3.461 1.092 37.319 H 0.0 **** 0.0
@<TRIPOS>BOND
1 1 2 1
2 1 3 1
3 1 4 1
4 1 5 1
@<TRIPOS>MOLECULE
CH4
5 4
SMALL
USER_CHARGES


@<TRIPOS>ATOM
1 C 78.109 11.547 61.972 C 0.0 **** 0.0
2 H 78.094 11.508 63.061 H 0.0 **** 0.0
3 H 79.048 11.13 61.606 H 0.0 **** 0.0
4 H 78.018 12.582 61.644 H 0.0 **** 0.0
5 H 77.275 10.966 61.577 H 0.0 **** 0.0
@<TRIPOS>BOND
1 1 2 1
2 1 3 1
3 1 4 1
4 1 5 1
@<TRIPOS>MOLECULE
CH4
5 4
SMALL
USER_CHARGES


@<TRIPOS>ATOM
1 C 76.522 80.497 24.166 C 0.0 **** 0.0
2 H 77.085 80.289 23.256 H 0.0 **** 0.0
3 H 76.069 81.486 24.094 H 0.0 **** 0.0
4 H 77.194 80.466 25.023 H 0.0 **** 0.0
5 H 75.741 79.747 24.289 H 0.0 **** 0.0
@<TRIPOS>BOND
1 1 2 1
2 1 3 1
3 1 4 1
4 1 5 1
@<TRIPOS>MOLECULE
CH4
5 4
SMALL
USER_CHARGES


@<TRIPOS>ATOM
1 C 6.048 91.578 62.424 C 0.0 **** 0.0
2 H 6.505 91.132 63.307 H 0.0 **** 0.0
3 H 5.106 92.051 62.702 H 0.0 **** 0.0
4 H 5.86 90.802 61.681 H 0.0 **** 0.0
5 H 6.721 92.326 62.005 H 0.0 **** 0.0
@<TRIPOS>BOND
1 1 2 1
2 1 3 1
3 1 4 1
4 1 5 1
@<TRIPOS>MOLECULE
CH4
5 4
SMALL
USER_CHARGES


@<TRIPOS>ATOM
1 C 42.12 12.095 46.69 C 0.0 **** 0.0
2 H 42.157 11.006 46.691 H 0.0 **** 0.0
3 H 43.064 12.491 47.064 H 0.0 **** 0.0
4 H 41.304 12.431 47.33 H 0.0 **** 0.0
5 H 41.953 12.451 45.673 H 0.0 **** 0.0
@<TRIPOS>BOND
1 1 3 1
2 1 4 1
3 1 5 1
4 1 2 1
@<TRIPOS>MOLECULE
CH4
5 4
SMALL
USER_CHARGES


@<TRIPOS>ATOM
1 C 52.906 50.952 10.559 C 0.0 **** 0.0
2 H 52.353 50.131 10.103 H 0.0 **** 0.0
3 H 53.619 51.354 9.839 H 0.0 **** 0.0
4 H 53.441 50.587 11.436 H 0.0 **** 0.0
5 H 52.21 51.736 10.859 H 0.0 **** 0.0
@<TRIPOS>BOND
1 1 2 1
2 1 3 1
3 1 4 1
4 1 5 1
@<TRIPOS>MOLECULE
CH4
5 4
SMALL
USER_CHARGES


@<TRIPOS>ATOM
1 C 15.628 19.433 15.823 C 0.0 **** 0.0
2 H 14.648 19.855 16.046 H 0.0 **** 0.0
3 H 15.543 18.35 15.725 H 0.0 **** 0.0
4 H 16.319 19.672 16.632 H 0.0 **** 0.0
5 H 16.001 19.855 14.89 H 0.0 **** 0.0
@<TRIPOS>BOND
1 1 2 1
2 1 3 1
3 1 4 1
4 1 5 1
@<TRIPOS>MOLECULE
CH4
5 4
SMALL
USER_CHARGES


@<TRIPOS>ATOM
1 C 59.242 10.295 5.306 C 0.0 **** 0.0
2 H 58.951 11.081 6.001 H 0.0 **** 0.0
3 H 59.705 9.476 5.857 H 0.0 **** 0.0
4 H 59.954 10.694 4.583 H 0.0 **** 0.0
5 H 58.36 9.928 4.782 H 0.0 **** 0.0
@<TRIPOS>BOND
1 1 2 1
2 1 3 1
3 1 4 1
4 1 5 1
@<TRIPOS>MOLECULE
CH4
5 4
SMALL
USER_CHARGES


@<TRIPOS>ATOM
1 C 28.663 58.951 56.476 C 0.0 **** 0.0
2 H 28.85 58.123 57.16 H 0.0 **** 0.0
3 H 28.921 58.648 55.461 H 0.0 **** 0.0
4 H 29.273 59.807 56.766 H 0.0 **** 0.0
5 H 27.609 59.225 56.517 H 0.0 **** 0.0
@<TRIPOS>BOND
1 1 2 1
2 1 3 1
3 1 4 1
4 1 5 1
@<TRIPOS>MOLECULE
CH4
5 4
SMALL
USER_CHARGES


@<TRIPOS>ATOM
1 C 76.879 92.13 82.051 C 0.0 **** 0.0
2 H 76.922 92.889 81.27 H 0.0 **** 0.0
3 H 77.012 91.144 81.607 H 0.0 **** 0.0
4 H 75.911 92.177 82.55 H 0.0 **** 0.0
5 H 77.671 92.312 82.778 H 0.0 **** 0.0
@<TRIPOS>BOND
1 1 2 1
2 1 3 1
3 1 4 1
4 1 5 1
@<TRIPOS>MOLECULE
CH4
5 4
SMALL
USER_CHARGES


@<TRIPOS>ATOM
1 C 74.278 3.029 58.74 C 0.0 **** 0.0
2 H 74.025 2.221 58.054 H 0.0 **** 0.0
3 H 73.368 3.555 59.032 H 0.0 **** 0.0
4 H 74.958 3.724 58.249 H 0.0 **** 0.0
5 H 74.759 2.615 59.627 H 0.0 **** 0.0
@<TRIPOS>BOND
1 1 2 1
2 1 3 1
3 1 4 1
4 1 5 1
@<TRIPOS>MOLECULE
CH4
5 4
SMALL
USER_CHARGES


@<TRIPOS>ATOM
1 C 2.594 56.231 89.984 C 0.0 **** 0.0
2 H 2.882 56.107 91.028 H 0.0 **** 0.0
3 H 2.56 55.255 89.498 H 0.0 **** 0.0
4 H 3.323 56.864 89.479 H 0.0 **** 0.0
5 H 1.61 56.697 89.932 H 0.0 **** 0.0
@<TRIPOS>BOND
1 1 2 1
2 1 3 1
3 1 4 1
4 1 5 1
@<TRIPOS>MOLECULE
CH4
5 4
SMALL
USER_CHARGES


@<TRIPOS>ATOM
1 C 22.255 78.685 78.851 C 0.0 **** 0.0
2 H 22.311 78.738 79.938 H 0.0 **** 0.0
3 H 21.302 78.244 78.558 H 0.0 **** 0.0
4 H 23.072 78.069 78.475 H 0.0 **** 0.0
5 H 22.335 79.689 78.434 H 0.0 **** 0.0
@<TRIPOS>BOND
1 1 2 1
2 1 3 1
3 1 4 1
4 1 5 1
@<TRIPOS>MOLECULE
CH4
5 4
SMALL
USER_CHARGES


@<TRIPOS>ATOM
1 C 74.453 12.263 64.138 C 0.0 **** 0.0
2 H 74.505 12.255 65.226 H 0.0 **** 0.0
3 H 74.997 13.127 63.754 H 0.0 **** 0.0
4 H 73.411 12.321 63.825 H 0.0 **** 0.0
5 H 74.9 11.349 63.746 H 0.0 **** 0.0
@<TRIPOS>BOND
1 1 2 1
2 1 3 1
3 1 4 1
4 1 5 1
@<TRIPOS>MOLECULE
CH4
5 4
SMALL
USER_CHARGES


@<TRIPOS>ATOM
1 C 82.288 25.303 64.939 C 0.0 **** 0.0
2 H 82.525 26.146 65.589 H 0.0 **** 0.0
3 H 81.264 25.398 64.58 H 0.0 **** 0.0
4 H 82.393 24.373 65.498 H 0.0 **** 0.0
5 H 82.973 25.296 64.091 H 0.0 **** 0.0
@<TRIPOS>BOND
1 1 2 1
2 1 3 1
3 1 4 1
4 1 5 1
@<TRIPOS>MOLECULE
CH4
5 4
SMALL
USER_CHARGES


@<TRIPOS>ATOM
1 C 10.705 51.642 94.372 C 0.0 **** 0.0
2 H 11.415 51.323 95.136 H 0.0 **** 0.0
3 H 10.031 50.819 94.137 H 0.0 **** 0.0
4 H 11.247 51.936 93.473 H 0.0 **** 0.0
5 H 10.13 52.49 94.743 H 0.0 **** 0.0
@<TRIPOS>BOND
1 1 2 1
2 1 3 1
3 1 4 1
4 1 5 1
@<TRIPOS>MOLECULE
CH4
5 4
SMALL
USER_CHARGES


@<TRIPOS>ATOM
1 C 57.425 50.564 20.066 C 0.0 **** 0.0
2 H 57.056 51.572 19.876 H 0.0 **** 0.0
3 H 57.433 50.376 21.139 H 0.0 **** 0.0
4 H 58.437 50.467 19.672 H 0.0 **** 0.0
5 H 56.774 49.841 19.575 H 0.0 **** 0.0
@<TRIPOS>BOND
1 1 2 1
2 1 3 1
3 1 4 1
4 1 5 1
@<TRIPOS>MOLECULE
CH4
5 4
SMALL
USER_CHARGES


@<TRIPOS>ATOM
1 C 53.922 15.79 6.863 C 0.0 **** 0.0
2 H 54.06 15.842 7.943 H 0.0 **** 0.0
3 H 52.926 16.15 6.606 H 0.0 **** 0.0
4 H 54.033 14.758 6.533 H 0.0 **** 0.0
5 H 54.671 16.412 6.372 H 0.0 **** 0.0
@<TRIPOS>BOND
1 1 2 1
2 1 3 1
3 1 4 1
4 1 5 1
@<TRIPOS>MOLECULE
CH4
5 4
SMALL
USER_CHARGES


@<TRIPOS>ATOM
1 C 46.252 79.895 88.233 C 0.0 **** 0.0
2 H 45.746 79.723 89.182 H 0.0 **** 0.0
3 H 45.512 80.078 87.454 H 0.0 **** 0.0
4 H 46.844 79.017 87.973 H 0.0 **** 0.0
5 H 46.908 80.762 88.322 H 0.0 **** 0.0
@<TRIPOS>BOND
1 1 2 1
2 1 3 1
3 1 4 1
4 1 5 1
@<TRIPOS>MOLECULE
CH4
5 4
SMALL
USER_CHARGES


@<TRIPOS>ATOM
1 C 96.73 48.305 93.334 C 0.0 **** 0.0
2 H 96.812 48.258 92.248 H 0.0 **** 0.0
3 H 97.711 48.509 93.764 H 0.0 **** 0.0
4 H 96.359 47.352 93.711 H 0.0 **** 0.0
5 H 96.038 49.1 93.613 H 0.0 **** 0.0
@<TRIPOS>BOND
1 1 2 1
2 1 3 1
3 1 4 1
4 1 5 1
@<TRIPOS>MOLECULE
CH4
5 4
SMALL
USER_CHARGES


@<TRIPOS>ATOM
1 C 36.921 81.206 62.599 C 0.0 **** 0.0
2 H 36.682 81.467 63.629 H 0.0 **** 0.0
3 H 37.747 80.494 62.587 H 0.0 **** 0.0
4 H 37.208 82.105 62.053 H 0.0 **** 0.0
5 H 36.047 80.757 62.126 H 0.0 **** 0.0
@<TRIPOS>BOND
1 1 2 1
2 1 3 1
3 1 4 1
4 1 5 1
@<TRIPOS>MOLECULE
CH4
5 4
SMALL
USER_CHARGES


@<TRIPOS>ATOM
1 C 10.438 47.04 96.753 C 0.0 **** 0.0
2 H 10.512 46.517 95.8 H 0.0 **** 0.0
3 H 9.692 47.831 96.676 H 0.0 **** 0.0
4 H 11.405 47.475 97.004 H 0.0 **** 0.0
5 H 10.144 46.336 97.531 H 0.0 **** 0.0
@<TRIPOS>BOND
1 1 2 1
2 1 3 1
3 1 4 1
4 1 5 1
@<TRIPOS>MOLECULE
CH4
5 4
SMALL
USER_CHARGES


@<TRIPOS>ATOM
1 C 85.701 49.059 77.07 C 0.0 **** 0.0
2 H 86.38 49.201 76.229 H 0.0 **** 0.0
3 H 85.512 50.019 77.55 H 0.0 **** 0.0
4 H 86.153 48.375 77.789 H 0.0 **** 0.0
5 H 84.761 48.64 76.711 H 0.0 **** 0.0
@<TRIPOS>BOND
1 1 2 1
2 1 3 1
3 1 4 1
4 1 5 1
@<TRIPOS>MOLECULE
CH4
5 4
SMALL
USER_CHARGES


@<TRIPOS>ATOM
1 C 4.988 36.277 16.635 C 0.0 **** 0.0
2 H 4.726 36.202 17.69 H 0.0 **** 0.0
3 H 5.931 36.814 16.532 H 0.0 **** 0.0
4 H 4.202 36.815 16.104 H 0.0 **** 0.0
5 H 5.091 35.277 16.214 H 0.0 **** 0.0
@<TRIPOS>BOND
1 1 2 1
2 1 3 1
3 1 4 1
4 1 5 1
@<TRIPOS>MOLECULE
CH4
5 4
SMALL
USER_CHARGES


@<TRIPOS>ATOM
1 C 74.925 42.95 28.806 C 0.0 **** 0.0
2 H 75.141 41.889 28.934 H 0.0 **** 0.0
3 H 73.973 43.186 29.283 H 0.0 **** 0.0
4 H 74.867 43.182 27.743 H 0.0 **** 0.0
5 H 75.718 43.54 29.264 H 0.0 **** 0.0
@<TRIPOS>BOND
1 1 2 1
2 1 3 1
3 1 4 1
4 1 5 1
@<TRIPOS>MOLECULE
CH4
5 4
SMALL
USER_CHARGES


@<TRIPOS>ATOM
1 C 96.244 30.087 82.974 C 0.0 **** 0.0
2 H 96.121 29.383 83.798 H 0.0 **** 0.0
3 H 95.836 31.056 83.261 H 0.0 **** 0.0
4 H 95.716 29.715 82.097 H 0.0 **** 0.0
5 H 97.304 30.192 82.743 H 0.0 **** 0.0
@<TRIPOS>BOND
1 1 2 1
2 1 3 1
3 1 4 1
4 1 5 1
@<TRIPOS>MOLECULE
CH4
5 4
SMALL
USER_CHARGES


@<TRIPOS>ATOM
1 C 14.377 12.085 61.891 C 0.0 **** 0.0
2 H 13.546 11.654 61.332 H 0.0 **** 0.0
3 H 14.015 12.459 62.849 H 0.0 **** 0.0
4 H 14.812 12.906 61.32 H 0.0 **** 0.0
5 H 15.135 11.32 62.062 H 0.0 **** 0.0
@<TRIPOS>BOND
1 1 2 1
2 1 3 1
3 1 4 1
4 1 5 1
@<TRIPOS>MOLECULE
CH4
5 4
SMALL
USER_CHARGES


@<TRIPOS>ATOM
1 C 2.164 39.346 38.464 C 0.0 **** 0.0
2 H 1.974 40.25 39.044 H 0.0 **** 0.0
3 H 1.572 38.525 38.868 H 0.0 **** 0.0
4 H 3.223 39.095 38.522 H 0.0 **** 0.0
5 H 1.888 39.518 37.424 H 0.0 **** 0.0
@<TRIPOS>BOND
1 1 2 1
2 1 3 1
3 1 4 1
4 1 5 1
@<TRIPOS>MOLECULE
CH4
5 4
SMALL
USER_CHARGES


@<TRIPOS>ATOM
1 C 64.555 52.183 61.19 C 0.0 **** 0.0
2 H 64.433 52.088 60.111 H 0.0 **** 0.0
3 H 65.484 51.7 61.495 H 0.0 **** 0.0
4 H 63.714 51.706 61.694 H 0.0 **** 0.0
5 H 64.588 53.238 61.46 H 0.0 **** 0.0
@<TRIPOS>BOND
1 1 2 1
2 1 3 1
3 1 4 1
4 1 5 1
@<TRIPOS>MOLECULE
CH4
5 4
SMALL
USER_CHARGES


@<TRIPOS>ATOM
1 C 84.144 47.49 74.566 C 0.0 **** 0.0
2 H 83.391 47.497 75.355 H 0.0 **** 0.0
3 H 84.195 48.476 74.104 H 0.0 **** 0.0
4 H 83.874 46.749 73.813 H 0.0 **** 0.0
5 H 85.114 47.237 74.993 H 0.0 **** 0.0
@<TRIPOS>BOND
1 1 2 1
2 1 3 1
3 1 4 1
4 1 5 1
@<TRIPOS>MOLECULE
CH4
5 4
SMALL
USER_CHARGES


@<TRIPOS>ATOM
1 C 3.619 72.967 10.017 C 0.0 **** 0.0
2 H 3.044 72.784 10.925 H 0.0 **** 0.0
3 H 2.941 73.031 9.166 H 0.0 **** 0.0
4 H 4.322 72.149 9.861 H 0.0 **** 0.0
5 H 4.167 73.903 10.117 H 0.0 **** 0.0
@<TRIPOS>BOND
1 1 2 1
2 1 3 1
3 1 4 1
4 1 5 1
@<TRIPOS>MOLECULE
CH4
5 4
SMALL
USER_CHARGES


@<TRIPOS>ATOM
1 C 39.809 58.132 25.557 C 0.0 **** 0.0
2 H 39.428 58.141 24.536 H 0.0 **** 0.0
3 H 40.735 57.558 25.595 H 0.0 **** 0.0
4 H 39.07 57.675 26.216 H 0.0 **** 0.0
5 H 40.002 59.155 25.882 H 0.0 **** 0.0
@<TRIPOS>BOND
1 1 2 1
2 1 3 1
3 1 4 1
4 1 5 1
@<TRIPOS>MOLECULE
CH4
5 4
SMALL
USER_CHARGES


@<TRIPOS>ATOM
1 C 57.208 29.706 50.78 C 0.0 **** 0.0
2 H 57.048 30.019 49.748 H 0.0 **** 0.0
3 H 57.433 28.64 50.805 H 0.0 **** 0.0
4 H 56.307 29.901 51.362 H 0.0 **** 0.0
5 H 58.042 30.264 51.204 H 0.0 **** 0.0
@<TRIPOS>BOND
1 1 2 1
2 1 3 1
3 1 4 1
4 1 5 1
@<TRIPOS>MOLECULE
CH4
5 4
SMALL
USER_CHARGES


@<TRIPOS>ATOM
1 C 25.137 42.952 19.109 C 0.0 **** 0.0
2 H 25.218 43.068 20.19 H 0.0 **** 0.0
3 H 25.997 42.393 18.739 H 0.0 **** 0.0
4 H 25.112 43.935 18.64 H 0.0 **** 0.0
5 H 24.222 42.411 18.87 H 0.0 **** 0.0
@<TRIPOS>BOND
1 1 2 1
2 1 3 1
3 1 4 1
4 1 5 1
@<TRIPOS>MOLECULE
CH4
5 4
SMALL
USER_CHARGES


@<TRIPOS>ATOM
1 C 37.104 74.969 85.649 C 0.0 **** 0.0
2 H 37.206 74.911 84.565 H 0.0 **** 0.0
3 H 37.997 74.558 86.119 H 0.0 **** 0.0
4 H 36.231 74.395 85.962 H 0.0 **** 0.0
5 H 36.981 76.01 85.947 H 0.0 **** 0.0
@<TRIPOS>BOND
1 1 5 1
2 1 2 1
3 1 3 1
4 1 4 1
@<TRIPOS>MOLECULE
CH4
5 4
SMALL
USER_CHARGES


@<TRIPOS>ATOM
1 C 45.449 42.726 37.096 C 0.0 **** 0.0
2 H 44.859 41.907 36.685 H 0.0 **** 0.0
3 H 46.458 42.689 36.684 H 0.0 **** 0.0
4 H 45.497 42.631 38.181 H 0.0 **** 0.0
5 H 44.983 43.676 36.835 H 0.0 **** 0.0
@<TRIPOS>BOND
1 1 2 1
2 1 3 1
3 1 4 1
4 1 5 1
@<TRIPOS>MOLECULE
CH4
5 4
SMALL
USER_CHARGES


@<TRIPOS>ATOM
1 C 73.186 22.647 89.267 C 0.0 **** 0.0
2 H 73.598 22.647 88.258 H 0.0 **** 0.0
3 H 73.915 22.219 89.956 H 0.0 **** 0.0
4 H 72.273 22.052 89.287 H 0.0 **** 0.0
5 H 72.96 23.671 89.566 H 0.0 **** 0.0
@<TRIPOS>BOND
1 1 2 1
2 1 3 1
3 1 4 1
4 1 5 1
@<TRIPOS>MOLECULE
CH4
5 4
SMALL
USER_CHARGES


@<TRIPOS>ATOM
1 C 48.87 8.148 60.605 C 0.0 **** 0.0
2 H 49.007 8.644 61.566 H 0.0 **** 0.0
3 H 49.41 7.201 60.606 H 0.0 **** 0.0
4 H 49.254 8.785 59.809 H 0.0 **** 0.0
5 H 47.809 7.961 60.441 H 0.0 **** 0.0
@<TRIPOS>BOND
1 1 3 1
2 1 4 1
3 1 2 1
4 1 5 1
@<TRIPOS>MOLECULE
CH4
5 4
SMALL
USER_CHARGES


@<TRIPOS>ATOM
1 C 49.366 31.415 26.321 C 0.0 **** 0.0
2 H 50.109 31.03 25.623 H 0.0 **** 0.0
3 H 48.464 31.692 25.774 H 0.0 **** 0.0
4 H 49.765 32.292 26.83 H 0.0 **** 0.0
5 H 49.125 30.647 27.056 H 0.0 **** 0.0
@<TRIPOS>BOND
1 1 2 1
2 1 3 1
3 1 4 1
4 1 5 1
@<TRIPOS>MOLECULE
CH4
5 4
SMALL
USER_CHARGES


@<TRIPOS>ATOM
1 C 78.171 33.1 34.98 C 0.0 **** 0.0
2 H 77.842 33.249 33.951 H 0.0 **** 0.0
3 H 77.711 33.853 35.62 H 0.0 **** 0.0
4 H 79.255 33.192 35.032 H 0.0 **** 0.0
5 H 77.874 32.107 35.316 H 0.0 **** 0.0
@<TRIPOS>BOND
1 1 2 1
2 1 3 1
3 1 4 1
4 1 5 1
@<TRIPOS>MOLECULE
CH4
5 4
SMALL
USER_CHARGES


@<TRIPOS>ATOM
1 C 69.61 42.004 12.738 C 0.0 **** 0.0
2 H 70.025 42.097 11.735 H 0.0 **** 0.0
3 H 68.522 42.037 12.686 H 0.0 **** 0.0
4 H 69.97 42.826 13.358 H 0.0 **** 0.0
5 H 69.925 41.056 13.174 H 0.0 **** 0.0
@<TRIPOS>BOND
1 1 2 1
2 1 3 1
3 1 4 1
4 1 5 1
@<TRIPOS>MOLECULE
CH4
5 4
SMALL
USER_CHARGES


@<TRIPOS>ATOM
1 C 98.066 16.464 28.624 C 0.0 **** 0.0
2 H 97.523 16.819 27.749 H 0.0 **** 0.0
3 H 98.77 17.231 28.951 H 0.0 **** 0.0
4 H 98.611 15.555 28.369 H 0.0 **** 0.0
5 H 97.361 16.252 29.428 H 0.0 **** 0.0
@<TRIPOS>BOND
1 1 2 1
2 1 3 1
3 1 4 1
4 1 5 1
@<TRIPOS>MOLECULE
CH4
5 4
SMALL
USER_CHARGES


@<TRIPOS>ATOM
1 C 65.209 67.265 53.541 C 0.0 **** 0.0
2 H 65.66 67.49 54.507 H 0.0 **** 0.0
3 H 64.992 68.195 53.015 H 0.0 **** 0.0
4 H 64.283 66.709 53.693 H 0.0 **** 0.0
5 H 65.899 66.664 52.948 H 0.0 **** 0.0
@<TRIPOS>BOND
1 1 2 1
2 1 3 1
3 1 4 1
4 1 5 1
@<TRIPOS>MOLECULE
CH4
5 4
SMALL
USER_CHARGES


@<TRIPOS>ATOM
1 C 71.187 34.313 79.342 C 0.0 **** 0.0
2 H 71.632 34.266 80.336 H 0.0 **** 0.0
3 H 71.973 34.45 78.599 H 0.0 **** 0.0
4 H 70.492 35.151 79.295 H 0.0 **** 0.0
5 H 70.652 33.386 79.139 H 0.0 **** 0.0
@<TRIPOS>BOND
1 1 2 1
2 1 3 1
3 1 4 1
4 1 5 1
@<TRIPOS>MOLECULE
CH4
5 4
SMALL
USER_CHARGES


@<TRIPOS>ATOM
1 C 62.17 9.551 27.354 C 0.0 **** 0.0
2 H 62.404 9.54 28.418 H 0.0 **** 0.0
3 H 62.625 8.684 26.873 H 0.0 **** 0.0
4 H 62.564 10.463 26.905 H 0.0 **** 0.0
5 H 61.089 9.516 27.218 H 0.0 **** 0.0
@<TRIPOS>BOND
1 1 2 1
2 1 3 1
3 1 4 1
4 1 5 1
@<TRIPOS>MOLECULE
CH4
5 4
SMALL
USER_CHARGES


@<TRIPOS>ATOM
1 C 23.053 25.154 14.35 C 0.0 **** 0.0
2 H 23.161 25.644 13.382 H 0.0 **** 0.0
3 H 23.49 25.783 15.126 H 0.0 **** 0.0
4 H 23.566 24.193 14.329 H 0.0 **** 0.0
5 H 21.996 24.997 14.562 H 0.0 **** 0.0
@<TRIPOS>BOND
1 1 2 1
2 1 3 1
3 1 4 1
4 1 5 1
@<TRIPOS>MOLECULE
CH4
5 4
SMALL
USER_CHARGES


@<TRIPOS>ATOM
1 C 59.222 56.211 77.184 C 0.0 **** 0.0
2 H 58.592 56.957 76.699 H 0.0 **** 0.0
3 H 58.599 55.402 77.566 H 0.0 **** 0.0
4 H 59.763 56.674 78.01 H 0.0 **** 0.0
5 H 59.934 55.812 76.462 H 0.0 **** 0.0
@<TRIPOS>BOND
1 1 3 1
2 1 4 1
3 1 5 1
4 1 2 1
@<TRIPOS>MOLECULE
CH4
5 4
SMALL
USER_CHARGES


@<TRIPOS>ATOM
1 C 65.426 72.006 39.731 C 0.0 **** 0.0
2 H 66.248 72.257 40.401 H 0.0 **** 0.0
3 H 65.34 70.922 39.652 H 0.0 **** 0.0
4 H 65.619 72.428 38.745 H 0.0 **** 0.0
5 H 64.497 72.416 40.127 H 0.0 **** 0.0
@<TRIPOS>BOND
1 1 2 1
2 1 3 1
3 1 4 1
4 1 5 1
@<TRIPOS>MOLECULE
CH4
5 4
SMALL
USER_CHARGES


@<TRIPOS>ATOM
1 C 72.518 81.346 74.639 C 0.0 **** 0.0
2 H 72.941 82.243 75.09 H 0.0 **** 0.0
3 H 71.608 81.607 74.098 H 0.0 **** 0.0
4 H 72.281 80.623 75.421 H 0.0 **** 0.0
5 H 73.24 80.911 73.949 H 0.0 **** 0.0
@<TRIPOS>BOND
1 1 2 1
2 1 3 1
3 1 4 1
4 1 5 1
@<TRIPOS>MOLECULE
CH4
5 4
SMALL
USER_CHARGES


@<TRIPOS>ATOM
1 C 61.47 98.142 60.654 C 0.0 **** 0.0
2 H 62.073 99.0 60.355 H 0.0 **** 0.0
3 H 62.045 97.516 61.337 H 0.0 **** 0.0
4 H 61.2 97.564 59.771 H 0.0 **** 0.0
5 H 60.566 98.49 61.152 H 0.0 **** 0.0
@<TRIPOS>BOND
1 1 2 1
2 1 3 1
3 1 4 1
4 1 5 1
@<TRIPOS>MOLECULE
CH4
5 4
SMALL
USER_CHARGES


@<TRIPOS>ATOM
1 C 15.941 57.964 7.146 C 0.0 **** 0.0
2 H 16.153 57.521 8.12 H 0.0 **** 0.0
3 H 15.143 58.7 7.249 H 0.0 **** 0.0
4 H 15.628 57.183 6.453 H 0.0 **** 0.0
5 H 16.839 58.45 6.765 H 0.0 **** 0.0
@<TRIPOS>BOND
1 1 2 1
2 1 3 1
3 1 4 1
4 1 5 1
@<TRIPOS>MOLECULE
CH4
5 4
SMALL
USER_CHARGES


@<TRIPOS>ATOM
1 C 68.271 91.123 88.978 C 0.0 **** 0.0
2 H 69.265 90.743 89.213 H 0.0 **** 0.0
3 H 67.555 90.743 89.707 H 0.0 **** 0.0
4 H 67.983 90.793 87.98 H 0.0 **** 0.0
5 H 68.281 92.212 89.011 H 0.0 **** 0.0
@<TRIPOS>BOND
1 1 2 1
2 1 3 1
3 1 4 1
4 1 5 1
@<TRIPOS>MOLECULE
CH4
5 4
SMALL
USER_CHARGES


@<TRIPOS>ATOM
1 C 83.226 44.002 9.813 C 0.0 **** 0.0
2 H 83.133 43.955 8.728 H 0.0 **** 0.0
3 H 82.341 44.479 10.233 H 0.0 **** 0.0
4 H 84.111 44.581 10.076 H 0.0 **** 0.0
5 H 83.32 42.993 10.213 H 0.0 **** 0.0
@<TRIPOS>BOND
1 1 2 1
2 1 3 1
3 1 4 1
4 1 5 1
@<TRIPOS>MOLECULE
CH4
5 4
SMALL
USER_CHARGES


@<TRIPOS>ATOM
1 C 59.355 85.294 16.004 C 0.0 **** 0.0
2 H 59.896 86.175 15.658 H 0.0 **** 0.0
3 H 59.875 84.861 16.859 H 0.0 **** 0.0
4 H 59.304 84.56 15.2 H 0.0 **** 0.0
5 H 58.346 85.581 16.299 H 0.0 **** 0.0
@<TRIPOS>BOND
1 1 2 1
2 1 3 1
3 1 4 1
4 1 5 1
@<TRIPOS>MOLECULE
CH4
5 4
SMALL
USER_CHARGES


@<TRIPOS>ATOM
1 C 22.395 21.695 91.191 C 0.0 **** 0.0
2 H 22.247 21.979 90.149 H 0.0 **** 0.0
3 H 21.569 21.061 91.515 H 0.0 **** 0.0
4 H 22.43 22.591 91.81 H 0.0 **** 0.0
5 H 23.333 21.148 91.288 H 0.0 **** 0.0
@<TRIPOS>BOND
1 1 5 1
2 1 2 1
3 1 3 1
4 1 4 1
@<TRIPOS>MOLECULE
CH4
5 4
SMALL
USER_CHARGES


@<TRIPOS>ATOM
1 C 69.787 19.71 36.608 C 0.0 **** 0.0
2 H 70.331 20.106 37.465 H 0.0 **** 0.0
3 H 70.182 20.151 35.692 H 0.0 **** 0.0
4 H 68.73 19.955 36.704 H 0.0 **** 0.0
5 H 69.907 18.627 36.571 H 0.0 **** 0.0
@<TRIPOS>BOND
1 1 2 1
2 1 3 1
3 1 4 1
4 1 5 1
@<TRIPOS>MOLECULE
CH4
5 4
SMALL
USER_CHARGES


@<TRIPOS>ATOM
1 C 36.543 75.548 19.895 C 0.0 **** 0.0
2 H 36.643 74.979 20.819 H 0.0 **** 0.0
3 H 35.486 75.683 19.665 H 0.0 **** 0.0
4 H 37.026 75.006 19.081 H 0.0 **** 0.0
5 H 37.017 76.522 20.014 H 0.0 **** 0.0
@<TRIPOS>BOND
1 1 2 1
2 1 3 1
3 1 4 1
4 1 5 1
@<TRIPOS>MOLECULE
CH4
5 4
SMALL
USER_CHARGES


@<TRIPOS>ATOM
1 C 71.071 67.824 94.816 C 0.0 **** 0.0
2 H 70.467 68.559 94.282 H 0.0 **** 0.0
3 H 70.492 67.408 95.64 H 0.0 **** 0.0
4 H 71.967 68.306 95.207 H 0.0 **** 0.0
5 H 71.357 67.024 94.132 H 0.0 **** 0.0
@<TRIPOS>BOND
1 1 2 1
2 1 3 1
3 1 4 1
4 1 5 1
@<TRIPOS>MOLECULE
CH4
5 4
SMALL
USER_CHARGES


@<TRIPOS>ATOM
1 C 33.373 68.271 40.491 C 0.0 **** 0.0
2 H 32.333 68.177 40.802 H 0.0 **** 0.0
3 H 33.794 69.189 40.904 H 0.0 **** 0.0
4 H 33.426 68.304 39.403 H 0.0 **** 0.0
5 H 33.94 67.415 40.857 H 0.0 **** 0.0
@<TRIPOS>BOND
1 1 2 1
2 1 3 1
3 1 4 1
4 1 5 1
@<TRIPOS>MOLECULE
CH4
5 4
SMALL
USER_CHARGES


@<TRIPOS>ATOM
1 C 61.085 70.329 94.024 C 0.0 **** 0.0
2 H 61.713 70.79 93.262 H 0.0 **** 0.0
3 H 60.542 69.49 93.589 H 0.0 **** 0.0
4 H 60.374 71.065 94.402 H 0.0 **** 0.0
5 H 61.71 69.974 94.843 H 0.0 **** 0.0
@<TRIPOS>BOND
1 1 2 1
2 1 3 1
3 1 4 1
4 1 5 1
@<TRIPOS>MOLECULE
CH4
5 4
SMALL
USER_CHARGES


@<TRIPOS>ATOM
1 C 24.317 98.124 70.739 C 0.0 **** 0.0
2 H 24.555 98.374 71.773 H 0.0 **** 0.0
3 H 23.659 98.887 70.324 H 0.0 **** 0.0
4 H 23.818 97.156 70.706 H 0.0 **** 0.0
5 H 25.236 98.08 70.156 H 0.0 **** 0.0
@<TRIPOS>BOND
1 1 2 1
2 1 3 1
3 1 4 1
4 1 5 1
@<TRIPOS>MOLECULE
CH4
5 4
SMALL
USER_CHARGES


@<TRIPOS>ATOM
1 C 95.27 4.863 19.702 C 0.0 **** 0.0
2 H 95.739 3.92 19.981 H 0.0 **** 0.0
3 H 95.718 5.675 20.275 H 0.0 **** 0.0
4 H 94.202 4.814 19.916 H 0.0 **** 0.0
5 H 95.42 5.043 18.638 H 0.0 **** 0.0
@<TRIPOS>BOND
1 1 2 1
2 1 3 1
3 1 4 1
4 1 5 1
@<TRIPOS>MOLECULE
CH4
5 4
SMALL
USER_CHARGES


@<TRIPOS>ATOM
1 C 12.953 86.07 27.189 C 0.0 **** 0.0
2 H 12.356 85.188 26.958 H 0.0 **** 0.0
3 H 13.971 85.923 26.829 H 0.0 **** 0.0
4 H 12.967 86.226 28.268 H 0.0 **** 0.0
5 H 12.517 86.942 26.702 H 0.0 **** 0.0
@<TRIPOS>BOND
1 1 2 1
2 1 3 1
3 1 4 1
4 1 5 1
@<TRIPOS>MOLECULE
CH4
5 4
SMALL
USER_CHARGES


@<TRIPOS>ATOM
1 C 76.589 78.598 83.05 C 0.0 **** 0.0
2 H 77.375 78.203 82.406 H 0.0 **** 0.0
3 H 75.956 79.276 82.477 H 0.0 **** 0.0
4 H 77.041 79.139 83.882 H 0.0 **** 0.0
5 H 75.987 77.776 83.435 H 0.0 **** 0.0
@<TRIPOS>BOND
1 1 2 1
2 1 3 1
3 1 4 1
4 1 5 1
@<TRIPOS>MOLECULE
CH4
5 4
SMALL
USER_CHARGES


@<TRIPOS>ATOM
1 C 59.061 22.395 71.98 C 0.0 **** 0.0
2 H 59.234 22.459 70.906 H 0.0 **** 0.0
3 H 58.388 21.564 72.191 H 0.0 **** 0.0
4 H 58.612 23.325 72.331 H 0.0 **** 0.0
5 H 60.01 22.234 72.491 H 0.0 **** 0.0
@<TRIPOS>BOND
1 1 2 1
2 1 3 1
3 1 4 1
4 1 5 1
@<TRIPOS>MOLECULE
CH4
5 4
SMALL
USER_CHARGES


@<TRIPOS>ATOM
1 C 54.433 37.451 35.168 C 0.0 **** 0.0
2 H 53.631 36.913 35.674 H 0.0 **** 0.0
3 H 55.169 36.738 34.794 H 0.0 **** 0.0
4 H 54.912 38.134 35.869 H 0.0 **** 0.0
5 H 54.02 38.017 34.333 H 0.0 **** 0.0
@<TRIPOS>BOND
1 1 2 1
2 1 3 1
3 1 4 1
4 1 5 1
@<TRIPOS>MOLECULE
CH4
5 4
SMALL
USER_CHARGES


@<TRIPOS>ATOM
1 C 88.472 83.073 80.9 C 0.0 **** 0.0
2 H 88.563 83.566 79.932 H 0.0 **** 0.0
3 H 89.149 82.219 80.937 H 0.0 **** 0.0
4 H 87.447 82.731 81.038 H 0.0 **** 0.0
5 H 88.73 83.777 81.691 H 0.0 **** 0.0
@<TRIPOS>BOND
1 1 2 1
2 1 3 1
3 1 4 1
4 1 5 1
@<TRIPOS>MOLECULE
CH4
5 4
SMALL
USER_CHARGES


@<TRIPOS>ATOM
1 C 48.452 17.236 66.221 C 0.0 **** 0.0
2 H 47.887 17.702 65.414 H 0.0 **** 0.0
3 H 49.1 17.978 66.688 H 0.0 **** 0.0
4 H 49.06 16.426 65.817 H 0.0 **** 0.0
5 H 47.762 16.837 66.964 H 0.0 **** 0.0
@<TRIPOS>BOND
1 1 2 1
2 1 3 1
3 1 4 1
4 1 5 1
@<TRIPOS>MOLECULE
CH4
5 4
SMALL
USER_CHARGES


@<TRIPOS>ATOM
1 C 40.24 86.782 24.959 C 0.0 **** 0.0
2 H 41.065 86.905 25.661 H 0.0 **** 0.0
3 H 40.354 87.49 24.138 H 0.0 **** 0.0
4 H 39.297 86.968 25.472 H 0.0 **** 0.0
5 H 40.246 85.765 24.567 H 0.0 **** 0.0
@<TRIPOS>BOND
1 1 2 1
2 1 3 1
3 1 4 1
4 1 5 1
@<TRIPOS>MOLECULE
CH4
5 4
SMALL
USER_CHARGES


@<TRIPOS>ATOM
1 C 15.439 10.134 67.749 C 0.0 **** 0.0
2 H 16.059 9.301 67.416 H 0.0 **** 0.0
3 H 14.387 9.863 67.656 H 0.0 **** 0.0
4 H 15.646 11.009 67.133 H 0.0 **** 0.0
5 H 15.666 10.361 68.791 H 0.0 **** 0.0
@<TRIPOS>BOND
1 1 2 1
2 1 3 1
3 1 4 1
4 1 5 1
@<TRIPOS>MOLECULE
CH4
5 4
SMALL
USER_CHARGES


@<TRIPOS>ATOM
1 C 13.316 30.102 57.492 C 0.0 **** 0.0
2 H 12.663 30.214 56.627 H 0.0 **** 0.0
3 H 13.75 31.07 57.746 H 0.0 **** 0.0
4 H 14.113 29.397 57.256 H 0.0 **** 0.0
5 H 12.739 29.729 58.338 H 0.0 **** 0.0
@<TRIPOS>BOND
1 1 2 1
2 1 3 1
3 1 4 1
4 1 5 1
@<TRIPOS>MOLECULE
CH4
5 4
SMALL
USER_CHARGES


@<TRIPOS>ATOM
1 C 62.207 74.279 88.541 C 0.0 **** 0.0
2 H 62.125 73.652 87.653 H 0.0 **** 0.0
3 H 62.898 75.099 88.345 H 0.0 **** 0.0
4 H 62.578 73.682 89.374 H 0.0 **** 0.0
5 H 61.226 74.682 88.793 H 0.0 **** 0.0
@<TRIPOS>BOND
1 1 4 1
2 1 5 1
3 1 2 1
4 1 3 1
@<TRIPOS>MOLECULE
CH4
5 4
SMALL
USER_CHARGES


@<TRIPOS>ATOM
1 C 88.142 78.337 60.088 C 0.0 **** 0.0
2 H 87.975 77.92 59.095 H 0.0 **** 0.0
3 H 87.434 79.146 60.266 H 0.0 **** 0.0
4 H 89.16 78.722 60.154 H 0.0 **** 0.0
5 H 87.999 77.558 60.837 H 0.0 **** 0.0
@<TRIPOS>BOND
1 1 2 1
2 1 3 1
3 1 4 1
4 1 5 1
@<TRIPOS>MOLECULE
CH4
5 4
SMALL
USER_CHARGES


@<TRIPOS>ATOM
1 C 97.279 15.507 16.162 C 0.0 **** 0.0
2 H 97.084 15.137 15.156 H 0.0 **** 0.0
3 H 96.692 16.409 16.338 H 0.0 **** 0.0
4 H 98.34 15.738 16.264 H 0.0 **** 0.0
5 H 97.002 14.745 16.89 H 0.0 **** 0.0
@<TRIPOS>BOND
1 1 2 1
2 1 3 1
3 1 4 1
4 1 5 1
@<TRIPOS>MOLECULE
CH4
5 4
SMALL
USER_CHARGES


@<TRIPOS>ATOM
1 C 37.861 36.561 86.696 C 0.0 **** 0.0
2 H 37.415 36.348 85.724 H 0.0 **** 0.0
3 H 38.846 36.098 86.753 H 0.0 **** 0.0
4 H 37.224 36.159 87.484 H 0.0 **** 0.0
5 H 37.958 37.639 86.822 H 0.0 **** 0.0
@<TRIPOS>BOND
1 1 2 1
2 1 3 1
3 1 4 1
4 1 5 1
@<TRIPOS>MOLECULE
CH4
5 4
SMALL
USER_CHARGES


@<TRIPOS>ATOM
1 C 27.578 20.058 62.233 C 0.0 **** 0.0
2 H 28.327 19.881 63.005 H 0.0 **** 0.0
3 H 27.291 21.11 62.239 H 0.0 **** 0.0
4 H 26.701 19.441 62.429 H 0.0 **** 0.0
5 H 27.993 19.8 61.259 H 0.0 **** 0.0
@<TRIPOS>BOND
1 1 2 1
2 1 3 1
3 1 4 1
4 1 5 1
@<TRIPOS>MOLECULE
CH4
5 4
SMALL
USER_CHARGES


@<TRIPOS>ATOM
1 C 81.894 37.263 1.0 C 0.0 **** 0.0
2 H 82.655 37.662 0.329 H 0.0 **** 0.0
3 H 80.957 37.798 0.844 H 0.0 **** 0.0
4 H 82.218 37.39 2.033 H 0.0 **** 0.0
5 H 81.747 36.203 0.793 H 0.0 **** 0.0
@<TRIPOS>BOND
1 1 2 1
2 1 3 1
3 1 4 1
4 1 5 1
@<TRIPOS>MOLECULE
CH4
5 4
SMALL
USER_CHARGES


@<TRIPOS>ATOM
1 C 73.837 31.038 28.872 C 0.0 **** 0.0
2 H 74.45 30.531 28.126 H 0.0 **** 0.0
3 H 73.848 30.466 29.8 H 0.0 **** 0.0
4 H 72.814 31.119 28.506 H 0.0 **** 0.0
5 H 74.238 32.035 29.054 H 0.0 **** 0.0
@<TRIPOS>BOND
1 1 3 1
2 1 4 1
3 1 5 1
4 1 2 1
@<TRIPOS>MOLECULE
CH4
5 4
SMALL
USER_CHARGES


@<TRIPOS>ATOM
1 C 91.508 32.019 87.282 C 0.0 **** 0.0
2 H 91.167 32.651 86.462 H 0.0 **** 0.0
3 H 90.691 31.865 87.986 H 0.0 **** 0.0
4 H 92.341 32.504 87.791 H 0.0 **** 0.0
5 H 91.835 31.057 86.887 H 0.0 **** 0.0
@<TRIPOS>BOND
1 1 2 1
2 1 3 1
3 1 4 1
4 1 5 1
@<TRIPOS>MOLECULE
CH4
5 4
SMALL
USER_CHARGES


@<TRIPOS>ATOM
1 C 5.933 0.709 57.005 C 0.0 **** 0.0
2 H 5.756 1.766 57.204 H 0.0 **** 0.0
3 H 6.252 0.215 57.923 H 0.0 **** 0.0
4 H 6.711 0.608 56.248 H 0.0 **** 0.0
5 H 5.013 0.249 56.645 H 0.0 **** 0.0
@<TRIPOS>BOND
1 1 2 1
2 1 3 1
3 1 4 1
4 1 5 1
@<TRIPOS>MOLECULE
CH4
5 4
SMALL
USER_CHARGES


@<TRIPOS>ATOM
1 C 88.375 90.583 87.06 C 0.0 **** 0.0
2 H 88.329 91.641 86.802 H 0.0 **** 0.0
3 H 87.791 90.008 86.342 H 0.0 **** 0.0
4 H 87.968 90.435 88.061 H 0.0 **** 0.0
5 H 89.412 90.249 87.037 H 0.0 **** 0.0
@<TRIPOS>BOND
1 1 2 1
2 1 3 1
3 1 4 1
4 1 5 1
@<TRIPOS>MOLECULE
CH4
5 4
SMALL
USER_CHARGES


@<TRIPOS>ATOM
1 C 97.369 72.261 31.784 C 0.0 **** 0.0
2 H 97.397 72.423 32.862 H 0.0 **** 0.0
3 H 97.599 71.218 31.568 H 0.0 **** 0.0
4 H 98.106 72.903 31.302 H 0.0 **** 0.0
5 H 96.375 72.501 31.407 H 0.0 **** 0.0
@<TRIPOS>BOND
1 1 2 1
2 1 3 1
3 1 4 1
4 1 5 1
@<TRIPOS>MOLECULE
CH4
5 4
SMALL
USER_CHARGES


@<TRIPOS>ATOM
1 C 22.343 71.325 21.723 C 0.0 **** 0.0
2 H 22.198 70.419 22.31 H 0.0 **** 0.0
3 H 21.845 71.218 20.759 H 0.0 **** 0.0
4 H 23.409 71.489 21.565 H 0.0 **** 0.0
5 H 21.921 72.176 22.258 H 0.0 **** 0.0
@<TRIPOS>BOND
1 1 2 1
2 1 3 1
3 1 4 1
4 1 5 1
@<TRIPOS>MOLECULE
CH4
5 4
SMALL
USER_CHARGES


@<TRIPOS>ATOM
1 C 24.669 97.596 16.979 C 0.0 **** 0.0
2 H 25.741 97.692 17.151 H 0.0 **** 0.0
3 H 24.444 97.841 15.941 H 0.0 **** 0.0
4 H 24.133 98.279 17.638 H 0.0 **** 0.0
5 H 24.358 96.572 17.187 H 0.0 **** 0.0
@<TRIPOS>BOND
1 1 2 1
2 1 3 1
3 1 4 1
4 1 5 1
@<TRIPOS>MOLECULE
CH4
5 4
SMALL
USER_CHARGES


@<TRIPOS>ATOM
1 C 0.938 32.93 32.79 C 0.0 **** 0.0
2 H 0.869 32.978 33.877 H 0.0 **** 0.0
3 H 0.032 33.347 32.349 H 0.0 **** 0.0
4 H 1.05 31.891 32.479 H 0.0 **** 0.0
5 H 1.802 33.504 32.456 H 0.0 **** 0.0
@<TRIPOS>BOND
1 1 2 1
2 1 3 1
3 1 4 1
4 1 5 1
@<TRIPOS>MOLECULE
CH4
5 4
SMALL
USER_CHARGES


@<TRIPOS>ATOM
1 C 69.981 46.135 52.505 C 0.0 **** 0.0
2 H 69.674 46.705 51.628 H 0.0 **** 0.0
3 H 70.09 45.085 52.235 H 0.0 **** 0.0
4 H 69.227 46.234 53.285 H 0.0 **** 0.0
5 H 70.934 46.517 52.87 H 0.0 **** 0.0
@<TRIPOS>BOND
1 1 2 1
2 1 3 1
3 1 4 1
4 1 5 1
@<TRIPOS>MOLECULE
CH4
5 4
SMALL
USER_CHARGES


@<TRIPOS>ATOM
1 C 55.003 37.388 79.622 C 0.0 **** 0.0
2 H 54.777 36.418 79.18 H 0.0 **** 0.0
3 H 54.45 37.5 80.555 H 0.0 **** 0.0
4 H 54.712 38.179 78.93 H 0.0 **** 0.0
5 H 56.072 37.456 79.822 H 0.0 **** 0.0
@<TRIPOS>BOND
1 1 2 1
2 1 3 1
3 1 4 1
4 1 5 1
@<TRIPOS>MOLECULE
CH4
5 4
SMALL
USER_CHARGES


@<TRIPOS>ATOM
1 C 56.071 85.977 30.46 C 0.0 **** 0.0
2 H 56.987 85.624 30.934 H 0.0 **** 0.0
3 H 55.359 85.155 30.389 H 0.0 **** 0.0
4 H 56.299 86.348 29.46 H 0.0 **** 0.0
5 H 55.64 86.781 31.056 H 0.0 **** 0.0
@<TRIPOS>BOND
1 1 2 1
2 1 3 1
3 1 4 1
4 1 5 1
@<TRIPOS>MOLECULE
CH4
5 4
SMALL
USER_CHARGES


@<TRIPOS>ATOM
1 C 88.772 75.658 6.845 C 0.0 **** 0.0
2 H 89.553 76.258 6.377 H 0.0 **** 0.0
3 H 88.617 76.0 7.869 H 0.0 **** 0.0
4 H 89.074 74.611 6.853 H 0.0 **** 0.0
5 H 87.845 75.765 6.282 H 0.0 **** 0.0
@<TRIPOS>BOND
1 1 3 1
2 1 4 1
3 1 5 1
4 1 2 1
@<TRIPOS>MOLECULE
CH4
5 4
SMALL
USER_CHARGES


@<TRIPOS>ATOM
1 C 5.358 62.853 89.824 C 0.0 **** 0.0
2 H 4.961 63.299 88.912 H 0.0 **** 0.0
3 H 5.817 61.892 89.588 H 0.0 **** 0.0
4 H 4.548 62.704 90.538 H 0.0 **** 0.0
5 H 6.106 63.517 90.258 H 0.0 **** 0.0
@<TRIPOS>BOND
1 1 2 1
2 1 3 1
3 1 4 1
4 1 5 1
@<TRIPOS>MOLECULE
CH4
5 4
SMALL
USER_CHARGES


@<TRIPOS>ATOM
1 C 43.569 74.294 13.953 C 0.0 **** 0.0
2 H 43.047 75.221 14.186 H 0.0 **** 0.0
3 H 42.848 73.479 13.88 H 0.0 **** 0.0
4 H 44.288 74.074 14.742 H 0.0 **** 0.0
5 H 44.094 74.401 13.003 H 0.0 **** 0.0
@<TRIPOS>BOND
1 1 2 1
2 1 3 1
3 1 4 1
4 1 5 1
@<TRIPOS>MOLECULE
CH4
5 4
SMALL
USER_CHARGES


@<TRIPOS>ATOM
1 C 92.954 14.689 87.773 C 0.0 **** 0.0
2 H 92.013 14.666 88.322 H 0.0 **** 0.0
3 H 92.911 15.467 87.01 H 0.0 **** 0.0
4 H 93.121 13.723 87.298 H 0.0 **** 0.0
5 H 93.771 14.902 88.463 H 0.0 **** 0.0
@<TRIPOS>BOND
1 1 2 1
2 1 3 1
3 1 4 1
4 1 5 1
@<TRIPOS>MOLECULE
CH4
5 4
SMALL
USER_CHARGES


@<TRIPOS>ATOM
1 C 66.674 90.964 2.637 C 0.0 **** 0.0
2 H 65.89 91.509 2.111 H 0.0 **** 0.0
3 H 66.221 90.21 3.282 H 0.0 **** 0.0
4 H 67.256 91.659 3.242 H 0.0 **** 0.0
5 H 67.327 90.478 1.912 H 0.0 **** 0.0
@<TRIPOS>BOND
1 1 2 1
2 1 3 1
3 1 4 1
4 1 5 1
@<TRIPOS>MOLECULE
CH4
5 4
SMALL
USER_CHARGES


@<TRIPOS>ATOM
1 C 95.759 45.576 27.018 C 0.0 **** 0.0
2 H 95.143 46.047 27.784 H 0.0 **** 0.0
3 H 96.297 46.343 26.461 H 0.0 **** 0.0
4 H 95.122 45.011 26.337 H 0.0 **** 0.0
5 H 96.473 44.902 27.491 H 0.0 **** 0.0
@<TRIPOS>BOND
1 1 2 1
2 1 3 1
3 1 4 1
4 1 5 1
@<TRIPOS>MOLECULE
CH4
5 4
SMALL
USER_CHARGES


@<TRIPOS>ATOM
1 C 64.474 39.817 91.406 C 0.0 **** 0.0
2 H 64.99 40.712 91.058 H 0.0 **** 0.0
3 H 63.893 40.056 92.297 H 0.0 **** 0.0
4 H 65.206 39.046 91.645 H 0.0 **** 0.0
5 H 63.807 39.455 90.623 H 0.0 **** 0.0
@<TRIPOS>BOND
1 1 2 1
2 1 3 1
3 1 4 1
4 1 5 1
@<TRIPOS>MOLECULE
CH4
5 4
SMALL
USER_CHARGES


@<TRIPOS>ATOM
1 C 29.051 69.64 16.953 C 0.0 **** 0.0
2 H 29.422 69.855 17.955 H 0.0 **** 0.0
3 H 28.062 69.186 17.022 H 0.0 **** 0.0
4 H 29.733 68.953 16.452 H 0.0 **** 0.0
5 H 28.986 70.567 16.383 H 0.0 **** 0.0
@<TRIPOS>BOND
1 1 2 1
2 1 3 1
3 1 4 1
4 1 5 1
@<TRIPOS>MOLECULE
CH4
5 4
SMALL
USER_CHARGES


@<TRIPOS>ATOM
1 C 10.637 91.992 68.818 C 0.0 **** 0.0
2 H 11.559 91.411 68.804 H 0.0 **** 0.0
3 H 10.126 91.84 69.77 H 0.0 **** 0.0
4 H 9.99 91.667 68.003 H 0.0 **** 0.0
5 H 10.872 93.049 68.696 H 0.0 **** 0.0
@<TRIPOS>BOND
1 1 2 1
2 1 3 1
3 1 4 1
4 1 5 1
@<TRIPOS>MOLECULE
CH4
5 4
SMALL
USER_CHARGES


@<TRIPOS>ATOM
1 C 75.676 92.398 23.794 C 0.0 **** 0.0
2 H 76.467 92.888 24.361 H 0.0 **** 0.0
3 H 74.709 92.644 24.233 H 0.0 **** 0.0
4 H 75.824 91.319 23.821 H 0.0 **** 0.0
5 H 75.703 92.743 22.76 H 0.0 **** 0.0
@<TRIPOS>BOND
1 1 2 1
2 1 3 1
3 1 4 1
4 1 5 1
@<TRIPOS>MOLECULE
CH4
5 4
SMALL
USER_CHARGES


@<TRIPOS>ATOM
1 C 6.281 92.065 95.906 C 0.0 **** 0.0
2 H 6.345 92.502 96.902 H 0.0 **** 0.0
3 H 7.276 91.769 95.575 H 0.0 **** 0.0
4 H 5.87 92.799 95.213 H 0.0 **** 0.0
5 H 5.632 91.189 95.935 H 0.0 **** 0.0
@<TRIPOS>BOND
1 1 2 1
2 1 3 1
3 1 4 1
4 1 5 1
@<TRIPOS>MOLECULE
CH4
5 4
SMALL
USER_CHARGES


@<TRIPOS>ATOM
1 C 11.58 20.847 70.158 C 0.0 **** 0.0
2 H 11.888 20.452 69.19 H 0.0 **** 0.0
3 H 12.226 20.443 70.938 H 0.0 **** 0.0
4 H 10.548 20.559 70.356 H 0.0 **** 0.0
5 H 11.658 21.934 70.148 H 0.0 **** 0.0
@<TRIPOS>BOND
1 1 2 1
2 1 3 1
3 1 4 1
4 1 5 1
@<TRIPOS>MOLECULE
CH4
5 4
SMALL
USER_CHARGES


@<TRIPOS>ATOM
1 C 11.595 75.703 42.265 C 0.0 **** 0.0
2 H 11.987 76.707 42.101 H 0.0 **** 0.0
3 H 10.513 75.709 42.129 H 0.0 **** 0.0
4 H 11.832 75.381 43.279 H 0.0 **** 0.0
5 H 12.048 75.015 41.55 H 0.0 **** 0.0
@<TRIPOS>BOND
1 1 2 1
2 1 3 1
3 1 4 1
4 1 5 1
@<TRIPOS>MOLECULE
CH4
5 4
SMALL
USER_CHARGES


@<TRIPOS>ATOM
1 C 3.95 50.665 47.53 C 0.0 **** 0.0
2 H 4.167 50.045 46.66 H 0.0 **** 0.0
3 H 4.109 51.714 47.277 H 0.0 **** 0.0
4 H 4.611 50.384 48.35 H 0.0 **** 0.0
5 H 2.913 50.517 47.832 H 0.0 **** 0.0
@<TRIPOS>BOND
1 1 2 1
2 1 3 1
3 1 4 1
4 1 5 1
@<TRIPOS>MOLECULE
CH4
5 4
SMALL
USER_CHARGES


@<TRIPOS>ATOM
1 C 84.728 52.068 79.014 C 0.0 **** 0.0
2 H 84.739 52.061 77.924 H 0.0 **** 0.0
3 H 85.349 51.254 79.388 H 0.0 **** 0.0
4 H 83.705 51.937 79.367 H 0.0 **** 0.0
5 H 85.118 53.019 79.374 H 0.0 **** 0.0
@<TRIPOS>BOND
1 1 2 1
2 1 3 1
3 1 4 1
4 1 5 1
@<TRIPOS>MOLECULE
CH4
5 4
SMALL
USER_CHARGES


@<TRIPOS>ATOM
1 C 95.985 82.347 96.419 C 0.0 **** 0.0
2 H 95.698 81.961 97.397 H 0.0 **** 0.0
3 H 96.47 83.316 96.539 H 0.0 **** 0.0
4 H 95.097 82.46 95.798 H 0.0 **** 0.0
5 H 96.676 81.651 95.943 H 0.0 **** 0.0
@<TRIPOS>BOND
1 1 2 1
2 1 3 1
3 1 4 1
4 1 5 1
@<TRIPOS>MOLECULE
CH4
5 4
SMALL
USER_CHARGES


@<TRIPOS>ATOM
1 C 81.751 61.214 47.112 C 0.0 **** 0.0
2 H 80.944 60.764 47.69 H 0.0 **** 0.0
3 H 82.532 61.56 47.789 H 0.0 **** 0.0
4 H 81.362 62.058 46.543 H 0.0 **** 0.0
5 H 82.164 60.473 46.428 H 0.0 **** 0.0
@<TRIPOS>BOND
1 1 2 1
2 1 3 1
3 1 4 1
4 1 5 1
@<TRIPOS>MOLECULE
CH4
5 4
SMALL
USER_CHARGES


@<TRIPOS>ATOM
1 C 92.524 1.088 65.4 C 0.0 **** 0.0
2 H 93.237 1.614 64.766 H 0.0 **** 0.0
3 H 91.515 1.244 65.017 H 0.0 **** 0.0
4 H 92.59 1.471 66.418 H 0.0 **** 0.0
5 H 92.753 0.022 65.397 H 0.0 **** 0.0
@<TRIPOS>BOND
1 1 2 1
2 1 3 1
3 1 4 1
4 1 5 1
@<TRIPOS>MOLECULE
CH4
5 4
SMALL
USER_CHARGES


@<TRIPOS>ATOM
1 C 95.768 43.016 5.716 C 0.0 **** 0.0
2 H 94.874 42.881 6.325 H 0.0 **** 0.0
3 H 96.541 42.322 6.047 H 0.0 **** 0.0
4 H 96.128 44.039 5.821 H 0.0 **** 0.0
5 H 95.529 42.821 4.671 H 0.0 **** 0.0
@<TRIPOS>BOND
1 1 2 1
2 1 3 1
3 1 4 1
4 1 5 1
@<TRIPOS>MOLECULE
CH4
5 4
SMALL
USER_CHARGES


@<TRIPOS>ATOM
1 C 51.715 10.962 96.214 C 0.0 **** 0.0
2 H 52.641 11.301 96.679 H 0.0 **** 0.0
3 H 51.097 10.459 96.958 H 0.0 **** 0.0
4 H 51.947 10.27 95.404 H 0.0 **** 0.0
5 H 51.175 11.821 95.814 H 0.0 **** 0.0
@<TRIPOS>BOND
1 1 2 1
2 1 3 1
3 1 4 1
4 1 5 1
@<TRIPOS>MOLECULE
CH4
5 4
SMALL
USER_CHARGES


@<TRIPOS>ATOM
1 C 2.219 31.448 55.968 C 0.0 **** 0.0
2 H 1.226 31.048 55.763 H 0.0 **** 0.0
3 H 2.341 32.398 55.448 H 0.0 **** 0.0
4 H 2.974 30.743 55.62 H 0.0 **** 0.0
5 H 2.333 31.603 57.041 H 0.0 **** 0.0
@<TRIPOS>BOND
1 1 2 1
2 1 3 1
3 1 4 1
4 1 5 1
@<TRIPOS>MOLECULE
CH4
5 4
SMALL
USER_CHARGES


@<TRIPOS>ATOM
1 C 80.716 55.564 50.902 C 0.0 **** 0.0
2 H 80.338 56.213 51.692 H 0.0 **** 0.0
3 H 81.383 56.133 50.253 H 0.0 **** 0.0
4 H 79.881 55.179 50.317 H 0.0 **** 0.0
5 H 81.263 54.732 51.346 H 0.0 **** 0.0
@<TRIPOS>BOND
1 1 2 1
2 1 3 1
3 1 4 1
4 1 5 1
@<TRIPOS>MOLECULE
CH4
5 4
SMALL
USER_CHARGES


@<TRIPOS>ATOM
1 C 12.765 91.749 31.897 C 0.0 **** 0.0
2 H 13.509 92.491 31.606 H 0.0 **** 0.0
3 H 13.204 90.753 31.839 H 0.0 **** 0.0
4 H 11.91 91.809 31.224 H 0.0 **** 0.0
5 H 12.438 91.944 32.918 H 0.0 **** 0.0
@<TRIPOS>BOND
1 1 2 1
2 1 3 1
3 1 4 1
4 1 5 1
@<TRIPOS>MOLECULE
CH4
5 4
SMALL
USER_CHARGES


@<TRIPOS>ATOM
1 C 42.819 65.182 20.29 C 0.0 **** 0.0
2 H 42.135 65.589 21.035 H 0.0 **** 0.0
3 H 43.306 64.293 20.692 H 0.0 **** 0.0
4 H 43.572 65.929 20.042 H 0.0 **** 0.0
5 H 42.261 64.916 19.392 H 0.0 **** 0.0
@<TRIPOS>BOND
1 1 2 1
2 1 3 1
3 1 4 1
4 1 5 1
@<TRIPOS>MOLECULE
CH4
5 4
SMALL
USER_CHARGES


@<TRIPOS>ATOM
1 C 60.428 66.434 49.37 C 0.0 **** 0.0
2 H 59.684 67.199 49.151 H 0.0 **** 0.0
3 H 60.421 66.216 50.438 H 0.0 **** 0.0
4 H 61.415 66.794 49.079 H 0.0 **** 0.0
5 H 60.193 65.528 48.812 H 0.0 **** 0.0
@<TRIPOS>BOND
1 1 2 1
2 1 3 1
3 1 4 1
4 1 5 1
@<TRIPOS>MOLECULE
CH4
5 4
SMALL
USER_CHARGES


@<TRIPOS>ATOM
1 C 73.382 58.655 31.305 C 0.0 **** 0.0
2 H 73.448 58.78 30.224 H 0.0 **** 0.0
3 H 73.11 57.624 31.535 H 0.0 **** 0.0
4 H 72.624 59.329 31.703 H 0.0 **** 0.0
5 H 74.347 58.886 31.756 H 0.0 **** 0.0
@<TRIPOS>BOND
1 1 2 1
2 1 3 1
3 1 4 1
4 1 5 1
@<TRIPOS>MOLECULE
CH4
5 4
SMALL
USER_CHARGES


@<TRIPOS>ATOM
1 C 51.054 23.532 45.584 C 0.0 **** 0.0
2 H 50.737 24.574 45.555 H 0.0 **** 0.0
3 H 50.843 23.062 44.623 H 0.0 **** 0.0
4 H 50.512 23.009 46.372 H 0.0 **** 0.0
5 H 52.124 23.484 45.786 H 0.0 **** 0.0
@<TRIPOS>BOND
1 1 2 1
2 1 3 1
3 1 4 1
4 1 5 1
@<TRIPOS>MOLECULE
CH4
5 4
SMALL
USER_CHARGES


@<TRIPOS>ATOM
1 C 89.257 24.912 62.059 C 0.0 **** 0.0
2 H 89.211 25.705 61.312 H 0.0 **** 0.0
3 H 88.595 24.098 61.765 H 0.0 **** 0.0
4 H 88.942 25.306 63.026 H 0.0 **** 0.0
5 H 90.279 24.542 62.133 H 0.0 **** 0.0
@<TRIPOS>BOND
1 1 2 1
2 1 3 1
3 1 4 1
4 1 5 1
@<TRIPOS>MOLECULE
CH4
5 4
SMALL
USER_CHARGES


@<TRIPOS>ATOM
1 C 16.588 54.2 7.812 C 0.0 **** 0.0
2 H 17.411 54.753 8.264 H 0.0 **** 0.0
3 H 16.102 53.588 8.572 H 0.0 **** 0.0
4 H 16.975 53.558 7.02 H 0.0 **** 0.0
5 H 15.867 54.901 7.392 H 0.0 **** 0.0
@<TRIPOS>BOND
1 1 2 1
2 1 3 1
3 1 4 1
4 1 5 1
@<TRIPOS>MOLECULE
CH4
5 4
SMALL
USER_CHARGES


@<TRIPOS>ATOM
1 C 9.48 52.858 16.872 C 0.0 **** 0.0
2 H 8.869 53.755 16.971 H 0.0 **** 0.0
3 H 9.052 52.21 16.107 H 0.0 **** 0.0
4 H 9.506 52.329 17.824 H 0.0 **** 0.0
5 H 10.494 53.139 16.585 H 0.0 **** 0.0
@<TRIPOS>BOND
1 1 2 1
2 1 3 1
3 1 4 1
4 1 5 1
@<TRIPOS>MOLECULE
CH4
5 4
SMALL
USER_CHARGES


@<TRIPOS>ATOM
1 C 29.581 75.652 93.955 C 0.0 **** 0.0
2 H 29.261 74.902 93.231 H 0.0 **** 0.0
3 H 29.62 75.204 94.948 H 0.0 **** 0.0
4 H 28.872 76.48 93.957 H 0.0 **** 0.0
5 H 30.57 76.021 93.683 H 0.0 **** 0.0
@<TRIPOS>BOND
1 1 2 1
2 1 3 1
3 1 4 1
4 1 5 1
@<TRIPOS>MOLECULE
CH4
5 4
SMALL
USER_CHARGES


@<TRIPOS>ATOM
1 C 28.833 52.26 50.822 C 0.0 **** 0.0
2 H 28.872 52.338 51.908 H 0.0 **** 0.0
3 H 29.044 51.233 50.523 H 0.0 **** 0.0
4 H 29.577 52.926 50.384 H 0.0 **** 0.0
5 H 27.841 52.544 50.472 H 0.0 **** 0.0
@<TRIPOS>BOND
1 1 2 1
2 1 3 1
3 1 4 1
4 1 5 1
@<TRIPOS>MOLECULE
CH4
5 4
SMALL
USER_CHARGES


@<TRIPOS>ATOM
1 C 50.778 32.528 93.366 C 0.0 **** 0.0
2 H 51.005 32.194 92.354 H 0.0 **** 0.0
3 H 50.107 31.812 93.842 H 0.0 **** 0.0
4 H 50.298 33.506 93.327 H 0.0 **** 0.0
5 H 51.701 32.599 93.941 H 0.0 **** 0.0
@<TRIPOS>BOND
1 1 2 1
2 1 3 1
3 1 4 1
4 1 5 1
@<TRIPOS>MOLECULE
CH4
5 4
SMALL
USER_CHARGES


@<TRIPOS>ATOM
1 C 92.361 84.183 42.476 C 0.0 **** 0.0
2 H 93.335 83.864 42.847 H 0.0 **** 0.0
3 H 91.852 83.335 42.017 H 0.0 **** 0.0
4 H 92.496 84.97 41.734 H 0.0 **** 0.0
5 H 91.763 84.562 43.304 H 0.0 **** 0.0
@<TRIPOS>BOND
1 1 2 1
2 1 3 1
3 1 4 1
4 1 5 1
@<TRIPOS>MOLECULE
CH4
5 4
SMALL
USER_CHARGES


@<TRIPOS>ATOM
1 C 87.658 33.134 30.016 C 0.0 **** 0.0
2 H 87.486 32.958 31.078 H 0.0 **** 0.0
3 H 86.727 33.451 29.545 H 0.0 **** 0.0
4 H 88.008 32.214 29.548 H 0.0 **** 0.0
5 H 88.411 33.913 29.895 H 0.0 **** 0.0
@<TRIPOS>BOND
1 1 2 1
2 1 3 1
3 1 4 1
4 1 5 1
@<TRIPOS>MOLECULE
CH4
5 4
SMALL
USER_CHARGES


@<TRIPOS>ATOM
1 C 9.725 90.639 81.9 C 0.0 **** 0.0
2 H 10.409 91.327 82.397 H 0.0 **** 0.0
3 H 8.97 90.301 82.609 H 0.0 **** 0.0
4 H 10.283 89.78 81.525 H 0.0 **** 0.0
5 H 9.24 91.148 81.067 H 0.0 **** 0.0
@<TRIPOS>BOND
1 1 2 1
2 1 3 1
3 1 4 1
4 1 5 1
@<TRIPOS>MOLECULE
CH4
5 4
SMALL
USER_CHARGES


@<TRIPOS>ATOM
1 C 89.877 93.306 82.998 C 0.0 **** 0.0
2 H 89.179 93.523 82.19 H 0.0 **** 0.0
3 H 89.322 93.1 83.913 H 0.0 **** 0.0
4 H 90.53 94.164 83.154 H 0.0 **** 0.0
5 H 90.478 92.436 82.734 H 0.0 **** 0.0
@<TRIPOS>BOND
1 1 2 1
2 1 3 1
3 1 4 1
4 1 5 1
@<TRIPOS>MOLECULE
CH4
5 4
SMALL
USER_CHARGES


@<TRIPOS>ATOM
1 C 22.475 41.673 58.513 C 0.0 **** 0.0
2 H 22.21 42.713 58.706 H 0.0 **** 0.0
3 H 23.541 41.531 58.69 H 0.0 **** 0.0
4 H 22.242 41.425 57.478 H 0.0 **** 0.0
5 H 21.906 41.024 59.18 H 0.0 **** 0.0
@<TRIPOS>BOND
1 1 2 1
2 1 3 1
3 1 4 1
4 1 5 1
@<TRIPOS>MOLECULE
CH4
5 4
SMALL
USER_CHARGES


@<TRIPOS>ATOM
1 C 32.492 59.02 4.091 C 0.0 **** 0.0
2 H 32.699 58.127 3.501 H 0.0 **** 0.0
3 H 31.432 59.052 4.343 H 0.0 **** 0.0
4 H 32.756 59.906 3.514 H 0.0 **** 0.0
5 H 33.083 58.994 5.007 H 0.0 **** 0.0
@<TRIPOS>BOND
1 1 2 1
2 1 3 1
3 1 4 1
4 1 5 1
@<TRIPOS>MOLECULE
CH4
5 4
SMALL
USER_CHARGES


@<TRIPOS>ATOM
1 C 93.853 86.377 8.029 C 0.0 **** 0.0
2 H 94.164 86.654 9.036 H 0.0 **** 0.0
3 H 94.653 85.818 7.543 H 0.0 **** 0.0
4 H 93.637 87.278 7.455 H 0.0 **** 0.0
5 H 92.958 85.758 8.083 H 0.0 **** 0.0
@<TRIPOS>BOND
1 1 2 1
2 1 3 1
3 1 4 1
4 1 5 1
@<TRIPOS>MOLECULE
CH4
5 4
SMALL
USER_CHARGES


@<TRIPOS>ATOM
1 C 97.867 26.296 79.837 C 0.0 **** 0.0
2 H 97.861 25.307 80.295 H 0.0 **** 0.0
3 H 97.767 26.196 78.756 H 0.0 **** 0.0
4 H 98.805 26.799 80.071 H 0.0 **** 0.0
5 H 97.034 26.881 80.227 H 0.0 **** 0.0
@<TRIPOS>BOND
1 1 2 1
2 1 3 1
3 1 4 1
4 1 5 1
@<TRIPOS>MOLECULE
CH4
5 4
SMALL
USER_CHARGES


@<TRIPOS>ATOM
1 C 27.477 52.436 23.098 C 0.0 **** 0.0
2 H 28.522 52.125 23.117 H 0.0 **** 0.0
3 H 27.011 52.082 22.178 H 0.0 **** 0.0
4 H 27.421 53.523 23.14 H 0.0 **** 0.0
5 H 26.957 52.011 23.956 H 0.0 **** 0.0
@<TRIPOS>BOND
1 1 2 1
2 1 3 1
3 1 4 1
4 1 5 1
@<TRIPOS>MOLECULE
CH4
5 4
SMALL
USER_CHARGES


@<TRIPOS>ATOM
1 C 35.696 74.482 53.23 C 0.0 **** 0.0
2 H 34.939 73.984 52.624 H 0.0 **** 0.0
3 H 35.309 75.441 53.577 H 0.0 **** 0.0
4 H 36.59 74.647 52.629 H 0.0 **** 0.0
5 H 35.944 73.858 54.088 H 0.0 **** 0.0
@<TRIPOS>BOND
1 1 2 1
2 1 3 1
3 1 4 1
4 1 5 1
@<TRIPOS>MOLECULE
CH4
5 4
SMALL
USER_CHARGES


@<TRIPOS>ATOM
1 C 69.464 67.049 78.4 C 0.0 **** 0.0
2 H 70.021 67.595 77.638 H 0.0 **** 0.0
3 H 69.527 67.583 79.348 H 0.0 **** 0.0
4 H 69.888 66.051 78.515 H 0.0 **** 0.0
5 H 68.42 66.967 78.098 H 0.0 **** 0.0
@<TRIPOS>BOND
1 1 2 1
2 1 3 1
3 1 4 1
4 1 5 1
@<TRIPOS>MOLECULE
CH4
5 4
SMALL
USER_CHARGES


@<TRIPOS>ATOM
1 C 72.042 98.088 13.295 C 0.0 **** 0.0
2 H 72.744 98.558 13.984 H 0.0 **** 0.0
3 H 71.085 97.942 13.795 H 0.0 **** 0.0
4 H 72.437 97.123 12.976 H 0.0 **** 0.0
5 H 71.904 98.729 12.424 H 0.0 **** 0.0
@<TRIPOS>BOND
1 1 2 1
2 1 3 1
3 1 4 1
4 1 5 1
@<TRIPOS>MOLECULE
CH4
5 4
SMALL
USER_CHARGES


@<TRIPOS>ATOM
1 C 91.075 80.533 68.745 C 0.0 **** 0.0
2 H 90.789 80.128 69.715 H 0.0 **** 0.0
3 H 91.782 79.856 68.263 H 0.0 **** 0.0
4 H 91.542 81.508 68.882 H 0.0 **** 0.0
5 H 90.189 80.639 68.12 H 0.0 **** 0.0
@<TRIPOS>BOND
1 1 2 1
2 1 3 1
3 1 4 1
4 1 5 1
@<TRIPOS>MOLECULE
CH4
5 4
SMALL
USER_CHARGES


@<TRIPOS>ATOM
1 C 49.932 43.828 23.357 C 0.0 **** 0.0
2 H 50.676 43.056 23.163 H 0.0 **** 0.0
3 H 49.588 43.749 24.389 H 0.0 **** 0.0
4 H 49.087 43.697 22.681 H 0.0 **** 0.0
5 H 50.377 44.81 23.197 H 0.0 **** 0.0
@<TRIPOS>BOND
1 1 2 1
2 1 3 1
3 1 4 1
4 1 5 1
@<TRIPOS>MOLECULE
CH4
5 4
SMALL
USER_CHARGES


@<TRIPOS>ATOM
1 C 76.212 45.23 76.837 C 0.0 **** 0.0
2 H 77.043 45.029 77.513 H 0.0 **** 0.0
3 H 75.884 44.298 76.377 H 0.0 **** 0.0
4 H 76.536 45.924 76.061 H 0.0 **** 0.0
5 H 75.387 45.67 77.397 H 0.0 **** 0.0
@<TRIPOS>BOND
1 1 2 1
2 1 3 1
3 1 4 1
4 1 5 1
@<TRIPOS>MOLECULE
CH4
5 4
SMALL
USER_CHARGES


@<TRIPOS>ATOM
1 C 5.121 18.336 37.011 C 0.0 **** 0.0
2 H 5.023 19.277 37.552 H 0.0 **** 0.0
3 H 5.566 17.585 37.665 H 0.0 **** 0.0
4 H 5.759 18.483 36.139 H 0.0 **** 0.0
5 H 4.137 17.998 36.687 H 0.0 **** 0.0
@<TRIPOS>BOND
1 1 2 1
2 1 3 1
3 1 4 1
4 1 5 1
@<TRIPOS>MOLECULE
CH4
5 4
SMALL
USER_CHARGES


@<TRIPOS>ATOM
1 C 55.686 55.356 60.102 C 0.0 **** 0.0
2 H 56.011 55.53 61.128 H 0.0 **** 0.0
3 H 55.885 54.32 59.829 H 0.0 **** 0.0
4 H 56.231 56.02 59.431 H 0.0 **** 0.0
5 H 54.617 55.555 60.021 H 0.0 **** 0.0
@<TRIPOS>BOND
1 1 2 1
2 1 3 1
3 1 4 1
4 1 5 1
@<TRIPOS>MOLECULE
CH4
5 4
SMALL
USER_CHARGES


@<TRIPOS>ATOM
1 C 62.624 54.629 26.196 C 0.0 **** 0.0
2 H 62.724 53.756 26.841 H 0.0 **** 0.0
3 H 62.251 54.318 25.22 H 0.0 **** 0.0
4 H 63.597 55.107 26.079 H 0.0 **** 0.0
5 H 61.925 55.334 26.645 H 0.0 **** 0.0
@<TRIPOS>BOND
1 1 2 1
2 1 3 1
3 1 4 1
4 1 5 1
@<TRIPOS>MOLECULE
CH4
5 4
SMALL
USER_CHARGES


@<TRIPOS>ATOM
1 C 49.99 29.001 38.302 C 0.0 **** 0.0
2 H 50.033 27.923 38.148 H 0.0 **** 0.0
3 H 50.9 29.333 38.802 H 0.0 **** 0.0
4 H 49.126 29.246 38.918 H 0.0 **** 0.0
5 H 49.903 29.502 37.337 H 0.0 **** 0.0
@<TRIPOS>BOND
1 1 2 1
2 1 3 1
3 1 4 1
4 1 5 1
@<TRIPOS>MOLECULE
CH4
5 4
SMALL
USER_CHARGES


@<TRIPOS>ATOM
1 C 45.766 96.773 20.467 C 0.0 **** 0.0
2 H 44.724 96.534 20.255 H 0.0 **** 0.0
3 H 46.072 96.278 21.389 H 0.0 **** 0.0
4 H 45.877 97.851 20.578 H 0.0 **** 0.0
5 H 46.392 96.426 19.644 H 0.0 **** 0.0
@<TRIPOS>BOND
1 1 2 1
2 1 3 1
3 1 4 1
4 1 5 1
@<TRIPOS>MOLECULE
CH4
5 4
SMALL
USER_CHARGES


@<TRIPOS>ATOM
1 C 42.522 56.762 70.094 C 0.0 **** 0.0
2 H 42.554 56.724 69.005 H 0.0 **** 0.0
3 H 42.987 57.686 70.439 H 0.0 **** 0.0
4 H 43.062 55.908 70.503 H 0.0 **** 0.0
5 H 41.485 56.731 70.428 H 0.0 **** 0.0
@<TRIPOS>BOND
1 1 2 1
2 1 3 1
3 1 4 1
4 1 5 1
@<TRIPOS>MOLECULE
CH4
5 4
SMALL
USER_CHARGES


@<TRIPOS>ATOM
1 C 57.133 36.473 69.939 C 0.0 **** 0.0
2 H 56.649 36.796 70.861 H 0.0 **** 0.0
3 H 56.658 36.963 69.089 H 0.0 **** 0.0
4 H 57.036 35.392 69.837 H 0.0 **** 0.0
5 H 58.189 36.741 69.97 H 0.0 **** 0.0
@<TRIPOS>BOND
1 1 2 1
2 1 3 1
3 1 4 1
4 1 5 1
@<TRIPOS>MOLECULE
CH4
5 4
SMALL
USER_CHARGES


@<TRIPOS>ATOM
1 C 87.101 92.095 89.902 C 0.0 **** 0.0
2 H 87.92 91.39 90.043 H 0.0 **** 0.0
3 H 87.267 92.667 88.989 H 0.0 **** 0.0
4 H 87.057 92.775 90.754 H 0.0 **** 0.0
5 H 86.161 91.549 89.824 H 0.0 **** 0.0
@<TRIPOS>BOND
1 1 2 1
2 1 3 1
3 1 4 1
4 1 5 1
@<TRIPOS>MOLECULE
CH4
5 4
SMALL
USER_CHARGES


@<TRIPOS>ATOM
1 C 64.065 89.254 98.29 C 0.0 **** 0.0
2 H 63.401 88.574 97.757 H 0.0 **** 0.0
3 H 64.82 88.679 98.826 H 0.0 **** 0.0
4 H 63.486 89.845 99.0 H 0.0 **** 0.0
5 H 64.553 89.919 97.577 H 0.0 **** 0.0
@<TRIPOS>BOND
1 1 2 1
2 1 3 1
3 1 4 1
4 1 5 1
@<TRIPOS>MOLECULE
CH4
5 4
SMALL
USER_CHARGES


@<TRIPOS>ATOM
1 C 93.99 48.117 31.216 C 0.0 **** 0.0
2 H 94.995 47.712 31.328 H 0.0 **** 0.0
3 H 93.672 48.022 30.178 H 0.0 **** 0.0
4 H 93.989 49.169 31.502 H 0.0 **** 0.0
5 H 93.303 47.566 31.858 H 0.0 **** 0.0
@<TRIPOS>BOND
1 1 2 1
2 1 3 1
3 1 4 1
4 1 5 1
@<TRIPOS>MOLECULE
CH4
5 4
SMALL
USER_CHARGES


@<TRIPOS>ATOM
1 C 71.568 98.023 68.0 C 0.0 **** 0.0
2 H 71.577 97.791 69.065 H 0.0 **** 0.0
3 H 70.648 98.552 67.752 H 0.0 **** 0.0
4 H 71.621 97.097 67.427 H 0.0 **** 0.0
5 H 72.425 98.65 67.757 H 0.0 **** 0.0
@<TRIPOS>BOND
1 1 2 1
2 1 3 1
3 1 4 1
4 1 5 1
@<TRIPOS>MOLECULE
CH4
5 4
SMALL
USER_CHARGES


@<TRIPOS>ATOM
1 C 97.62 81.309 33.443 C 0.0 **** 0.0
2 H 97.544 82.15 32.754 H 0.0 **** 0.0
3 H 96.769 81.319 34.124 H 0.0 **** 0.0
4 H 98.545 81.389 34.014 H 0.0 **** 0.0
5 H 97.622 80.377 32.877 H 0.0 **** 0.0
@<TRIPOS>BOND
1 1 2 1
2 1 3 1
3 1 4 1
4 1 5 1
@<TRIPOS>MOLECULE
CH4
5 4
SMALL
USER_CHARGES


@<TRIPOS>ATOM
1 C 48.149 82.425 70.456 C 0.0 **** 0.0
2 H 47.572 82.235 69.551 H 0.0 **** 0.0
3 H 48.357 81.48 70.959 H 0.0 **** 0.0
4 H 47.577 83.073 71.122 H 0.0 **** 0.0
5 H 49.087 82.912 70.193 H 0.0 **** 0.0
@<TRIPOS>BOND
1 1 2 1
2 1 3 1
3 1 4 1
4 1 5 1
@<TRIPOS>MOLECULE
CH4
5 4
SMALL
USER_CHARGES


@<TRIPOS>ATOM
1 C 27.13 84.419 38.244 C 0.0 **** 0.0
2 H 26.861 85.432 37.945 H 0.0 **** 0.0
3 H 28.07 84.138 37.768 H 0.0 **** 0.0
4 H 26.345 83.729 37.936 H 0.0 **** 0.0
5 H 27.244 84.379 39.327 H 0.0 **** 0.0
@<TRIPOS>BOND
1 1 2 1
2 1 3 1
3 1 4 1
4 1 5 1
@<TRIPOS>MOLECULE
CH4
5 4
SMALL
USER_CHARGES


@<TRIPOS>ATOM
1 C 7.389 41.264 45.075 C 0.0 **** 0.0
2 H 7.517 41.858 44.17 H 0.0 **** 0.0
3 H 6.987 40.285 44.813 H 0.0 **** 0.0
4 H 6.7 41.772 45.749 H 0.0 **** 0.0
5 H 8.354 41.14 45.568 H 0.0 **** 0.0
@<TRIPOS>BOND
1 1 2 1
2 1 3 1
3 1 4 1
4 1 5 1
@<TRIPOS>MOLECULE
CH4
5 4
SMALL
USER_CHARGES


@<TRIPOS>ATOM
1 C 71.785 48.499 13.781 C 0.0 **** 0.0
2 H 72.497 49.283 14.041 H 0.0 **** 0.0
3 H 72.042 48.083 12.807 H 0.0 **** 0.0
4 H 70.78 48.92 13.744 H 0.0 **** 0.0
5 H 71.821 47.712 14.534 H 0.0 **** 0.0
@<TRIPOS>BOND
1 1 2 1
2 1 3 1
3 1 4 1
4 1 5 1
@<TRIPOS>MOLECULE
CH4
5 4
SMALL
USER_CHARGES


@<TRIPOS>ATOM
1 C 75.853 71.589 97.085 C 0.0 **** 0.0
2 H 75.984 71.286 96.047 H 0.0 **** 0.0
3 H 75.332 70.801 97.63 H 0.0 **** 0.0
4 H 75.267 72.507 97.124 H 0.0 **** 0.0
5 H 76.829 71.761 97.54 H 0.0 **** 0.0
@<TRIPOS>BOND
1 1 2 1
2 1 3 1
3 1 4 1
4 1 5 1
@<TRIPOS>MOLECULE
CH4
5 4
SMALL
USER_CHARGES


@<TRIPOS>ATOM
1 C 53.719 57.808 35.166 C 0.0 **** 0.0
2 H 54.334 58.698 35.031 H 0.0 **** 0.0
3 H 54.281 56.928 34.852 H 0.0 **** 0.0
4 H 52.815 57.897 34.562 H 0.0 **** 0.0
5 H 53.446 57.711 36.216 H 0.0 **** 0.0
@<TRIPOS>BOND
1 1 2 1
2 1 3 1
3 1 4 1
4 1 5 1
@<TRIPOS>MOLECULE
CH4
5 4
SMALL
USER_CHARGES


@<TRIPOS>ATOM
1 C 25.097 50.381 60.556 C 0.0 **** 0.0
2 H 24.183 50.834 60.171 H 0.0 **** 0.0
3 H 25.638 51.111 61.158 H 0.0 **** 0.0
4 H 25.722 50.061 59.723 H 0.0 **** 0.0
5 H 24.843 49.519 61.172 H 0.0 **** 0.0
@<TRIPOS>BOND
1 1 2 1
2 1 3 1
3 1 4 1
4 1 5 1
@<TRIPOS>MOLECULE
CH4
5 4
SMALL
USER_CHARGES


@<TRIPOS>ATOM
1 C 93.093 50.527 25.356 C 0.0 **** 0.0
2 H 92.51 50.696 24.451 H 0.0 **** 0.0
3 H 93.374 49.476 25.416 H 0.0 **** 0.0
4 H 92.495 50.794 26.228 H 0.0 **** 0.0
5 H 93.992 51.143 25.329 H 0.0 **** 0.0
@<TRIPOS>BOND
1 1 4 1
2 1 5 1
3 1 3 1
4 1 2 1
@<TRIPOS>MOLECULE
CH4
5 4
SMALL
USER_CHARGES


@<TRIPOS>ATOM
1 C 72.191 19.125 89.89 C 0.0 **** 0.0
2 H 71.26 19.526 90.29 H 0.0 **** 0.0
3 H 73.034 19.663 90.325 H 0.0 **** 0.0
4 H 72.203 19.246 88.807 H 0.0 **** 0.0
5 H 72.268 18.067 90.139 H 0.0 **** 0.0
@<TRIPOS>BOND
1 1 2 1
2 1 3 1
3 1 4 1
4 1 5 1
@<TRIPOS>MOLECULE
CH4
5 4
SMALL
USER_CHARGES


@<TRIPOS>ATOM
1 C 45.576 66.819 66.26 C 0.0 **** 0.0
2 H 46.516 66.392 66.608 H 0.0 **** 0.0
3 H 44.926 67.01 67.115 H 0.0 **** 0.0
4 H 45.088 66.12 65.581 H 0.0 **** 0.0
5 H 45.774 67.755 65.738 H 0.0 **** 0.0
@<TRIPOS>BOND
1 1 2 1
2 1 3 1
3 1 4 1
4 1 5 1
@<TRIPOS>MOLECULE
CH4
5 4
SMALL
USER_CHARGES


@<TRIPOS>ATOM
1 C 57.563 43.272 97.884 C 0.0 **** 0.0
2 H 58.138 43.605 98.748 H 0.0 **** 0.0
3 H 57.505 42.183 97.885 H 0.0 **** 0.0
4 H 58.053 43.61 96.97 H 0.0 **** 0.0
5 H 56.558 43.69 97.934 H 0.0 **** 0.0
@<TRIPOS>BOND
1 1 2 1
2 1 3 1
3 1 4 1
4 1 5 1
@<TRIPOS>MOLECULE
CH4
5 4
SMALL
USER_CHARGES


@<TRIPOS>ATOM
1 C 62.442 29.606 34.893 C 0.0 **** 0.0
2 H 62.48 29.706 33.809 H 0.0 **** 0.0
3 H 61.584 30.157 35.278 H 0.0 **** 0.0
4 H 63.357 30.008 35.328 H 0.0 **** 0.0
5 H 62.346 28.553 35.157 H 0.0 **** 0.0
@<TRIPOS>BOND
1 1 2 1
2 1 3 1
3 1 4 1
4 1 5 1
@<TRIPOS>MOLECULE
CH4
5 4
SMALL
USER_CHARGES


@<TRIPOS>ATOM
1 C 23.544 56.266 68.221 C 0.0 **** 0.0
2 H 23.092 55.47 67.629 H 0.0 **** 0.0
3 H 23.609 55.951 69.263 H 0.0 **** 0.0
4 H 22.93 57.164 68.151 H 0.0 **** 0.0
5 H 24.543 56.479 67.842 H 0.0 **** 0.0
@<TRIPOS>BOND
1 1 2 1
2 1 3 1
3 1 4 1
4 1 5 1
@<TRIPOS>MOLECULE
CH4
5 4
SMALL
USER_CHARGES


@<TRIPOS>ATOM
1 C 41.247 98.123 3.11 C 0.0 **** 0.0
2 H 40.66 97.636 2.332 H 0.0 **** 0.0
3 H 42.116 98.605 2.66 H 0.0 **** 0.0
4 H 41.578 97.38 3.835 H 0.0 **** 0.0
5 H 40.635 98.873 3.611 H 0.0 **** 0.0
@<TRIPOS>BOND
1 1 2 1
2 1 3 1
3 1 4 1
4 1 5 1
@<TRIPOS>MOLECULE
CH4
5 4
SMALL
USER_CHARGES


@<TRIPOS>ATOM
1 C 96.611 38.96 88.749 C 0.0 **** 0.0
2 H 97.214 39.862 88.653 H 0.0 **** 0.0
3 H 97.101 38.267 89.433 H 0.0 **** 0.0
4 H 96.501 38.49 87.772 H 0.0 **** 0.0
5 H 95.627 39.22 89.14 H 0.0 **** 0.0
@<TRIPOS>BOND
1 1 2 1
2 1 3 1
3 1 4 1
4 1 5 1
@<TRIPOS>MOLECULE
CH4
5 4
SMALL
USER_CHARGES


@<TRIPOS>ATOM
1 C 29.71 55.571 87.364 C 0.0 **** 0.0
2 H 29.982 54.604 87.787 H 0.0 **** 0.0
3 H 30.384 56.338 87.747 H 0.0 **** 0.0
4 H 28.685 55.815 87.646 H 0.0 **** 0.0
5 H 29.787 55.528 86.278 H 0.0 **** 0.0
@<TRIPOS>BOND
1 1 2 1
2 1 3 1
3 1 4 1
4 1 5 1
@<TRIPOS>MOLECULE
CH4
5 4
SMALL
USER_CHARGES


@<TRIPOS>ATOM
1 C 64.98 3.622 35.761 C 0.0 **** 0.0
2 H 64.843 3.758 36.834 H 0.0 **** 0.0
3 H 64.2 4.164 35.225 H 0.0 **** 0.0
4 H 64.919 2.562 35.519 H 0.0 **** 0.0
5 H 65.957 4.007 35.468 H 0.0 **** 0.0
@<TRIPOS>BOND
1 1 2 1
2 1 3 1
3 1 4 1
4 1 5 1
@<TRIPOS>MOLECULE
CH4
5 4
SMALL
USER_CHARGES


@<TRIPOS>ATOM
1 C 12.762 82.805 74.868 C 0.0 **** 0.0
2 H 12.728 82.703 75.953 H 0.0 **** 0.0
3 H 11.861 82.37 74.434 H 0.0 **** 0.0
4 H 13.639 82.285 74.482 H 0.0 **** 0.0
5 H 12.82 83.861 74.604 H 0.0 **** 0.0
@<TRIPOS>BOND
1 1 2 1
2 1 3 1
3 1 4 1
4 1 5 1
@<TRIPOS>MOLECULE
CH4
5 4
SMALL
USER_CHARGES


@<TRIPOS>ATOM
1 C 63.972 23.234 5.563 C 0.0 **** 0.0
2 H 64.052 23.928 6.4 H 0.0 **** 0.0
3 H 62.921 23.101 5.301 H 0.0 **** 0.0
4 H 64.401 22.273 5.845 H 0.0 **** 0.0
5 H 64.512 23.636 4.705 H 0.0 **** 0.0
@<TRIPOS>BOND
1 1 2 1
2 1 3 1
3 1 4 1
4 1 5 1
@<TRIPOS>MOLECULE
CH4
5 4
SMALL
USER_CHARGES


@<TRIPOS>ATOM
1 C 39.209 74.143 24.42 C 0.0 **** 0.0
2 H 40.263 74.255 24.166 H 0.0 **** 0.0
3 H 39.013 73.11 24.708 H 0.0 **** 0.0
4 H 38.597 74.402 23.555 H 0.0 **** 0.0
5 H 38.963 74.805 25.25 H 0.0 **** 0.0
@<TRIPOS>BOND
1 1 2 1
2 1 3 1
3 1 4 1
4 1 5 1
@<TRIPOS>MOLECULE
CH4
5 4
SMALL
USER_CHARGES


@<TRIPOS>ATOM
1 C 91.132 88.582 20.52 C 0.0 **** 0.0
2 H 91.417 87.74 21.15 H 0.0 **** 0.0
3 H 91.044 88.249 19.485 H 0.0 **** 0.0
4 H 91.893 89.36 20.588 H 0.0 **** 0.0
5 H 90.174 88.98 20.856 H 0.0 **** 0.0
@<TRIPOS>BOND
1 1 2 1
2 1 3 1
3 1 4 1
4 1 5 1
@<TRIPOS>MOLECULE
CH4
5 4
SMALL
USER_CHARGES


@<TRIPOS>ATOM
1 C 63.641 9.639 9.755 C 0.0 **** 0.0
2 H 64.154 8.681 9.837 H 0.0 **** 0.0
3 H 63.193 9.728 8.765 H 0.0 **** 0.0
4 H 64.357 10.448 9.904 H 0.0 **** 0.0
5 H 62.861 9.699 10.514 H 0.0 **** 0.0
@<TRIPOS>BOND
1 1 2 1
2 1 3 1
3 1 4 1
4 1 5 1
@<TRIPOS>MOLECULE
CH4
5 4
SMALL
USER_CHARGES


@<TRIPOS>ATOM
1 C 36.45 18.38 76.555 C 0.0 **** 0.0
2 H 37.055 17.946 77.351 H 0.0 **** 0.0
3 H 37.079 19.005 75.921 H 0.0 **** 0.0
4 H 35.657 18.986 76.991 H 0.0 **** 0.0
5 H 36.011 17.582 75.957 H 0.0 **** 0.0
@<TRIPOS>BOND
1 1 2 1
2 1 3 1
3 1 4 1
4 1 5 1
@<TRIPOS>MOLECULE
CH4
5 4
SMALL
USER_CHARGES


@<TRIPOS>ATOM
1 C 34.47 56.694 18.162 C 0.0 **** 0.0
2 H 34.503 56.752 17.074 H 0.0 **** 0.0
3 H 35.333 57.213 18.58 H 0.0 **** 0.0
4 H 34.489 55.649 18.471 H 0.0 **** 0.0
5 H 33.555 57.163 18.523 H 0.0 **** 0.0
@<TRIPOS>BOND
1 1 2 1
2 1 3 1
3 1 4 1
4 1 5 1
@<TRIPOS>MOLECULE
CH4
5 4
SMALL
USER_CHARGES


@<TRIPOS>ATOM
1 C 49.669 5.546 83.224 C 0.0 **** 0.0
2 H 48.693 5.148 82.944 H 0.0 **** 0.0
3 H 50.34 5.5 82.365 H 0.0 **** 0.0
4 H 50.082 4.954 84.041 H 0.0 **** 0.0
5 H 49.56 6.582 83.545 H 0.0 **** 0.0
@<TRIPOS>BOND
1 1 3 1
2 1 4 1
3 1 5 1
4 1 2 1
@<TRIPOS>MOLECULE
CH4
5 4
SMALL
USER_CHARGES


@<TRIPOS>ATOM
1 C 15.902 64.732 70.088 C 0.0 **** 0.0
2 H 15.741 65.656 70.644 H 0.0 **** 0.0
3 H 16.582 64.922 69.257 H 0.0 **** 0.0
4 H 14.949 64.369 69.702 H 0.0 **** 0.0
5 H 16.336 63.982 70.749 H 0.0 **** 0.0
@<TRIPOS>BOND
1 1 2 1
2 1 3 1
3 1 4 1
4 1 5 1
@<TRIPOS>MOLECULE
CH4
5 4
SMALL
USER_CHARGES


@<TRIPOS>ATOM
1 C 35.461 26.237 45.295 C 0.0 **** 0.0
2 H 34.922 25.855 44.428 H 0.0 **** 0.0
3 H 35.265 25.596 46.155 H 0.0 **** 0.0
4 H 35.125 27.251 45.514 H 0.0 **** 0.0
5 H 36.53 26.246 45.083 H 0.0 **** 0.0
@<TRIPOS>BOND
1 1 2 1
2 1 3 1
3 1 4 1
4 1 5 1
@<TRIPOS>MOLECULE
CH4
5 4
SMALL
USER_CHARGES


@<TRIPOS>ATOM
1 C 75.825 89.519 85.246 C 0.0 **** 0.0
2 H 75.314 89.713 86.189 H 0.0 **** 0.0
3 H 76.9 89.469 85.419 H 0.0 **** 0.0
4 H 75.607 90.324 84.544 H 0.0 **** 0.0
5 H 75.478 88.572 84.832 H 0.0 **** 0.0
@<TRIPOS>BOND
1 1 2 1
2 1 3 1
3 1 4 1
4 1 5 1
@<TRIPOS>MOLECULE
CH4
5 4
SMALL
USER_CHARGES


@<TRIPOS>ATOM
1 C 30.709 90.96 29.14 C 0.0 **** 0.0
2 H 31.615 91.464 29.475 H 0.0 **** 0.0
3 H 29.854 91.625 29.27 H 0.0 **** 0.0
4 H 30.558 90.055 29.729 H 0.0 **** 0.0
5 H 30.808 90.696 28.087 H 0.0 **** 0.0
@<TRIPOS>BOND
1 1 2 1
2 1 3 1
3 1 4 1
4 1 5 1
@<TRIPOS>MOLECULE
CH4
5 4
SMALL
USER_CHARGES


@<TRIPOS>ATOM
1 C 55.431 54.116 39.674 C 0.0 **** 0.0
2 H 55.749 53.537 40.54 H 0.0 **** 0.0
3 H 56.083 54.982 39.557 H 0.0 **** 0.0
4 H 54.404 54.452 39.819 H 0.0 **** 0.0
5 H 55.488 53.495 38.78 H 0.0 **** 0.0
@<TRIPOS>BOND
1 1 2 1
2 1 3 1
3 1 4 1
4 1 5 1
@<TRIPOS>MOLECULE
CH4
5 4
SMALL
USER_CHARGES


@<TRIPOS>ATOM
1 C 26.461 18.667 31.73 C 0.0 **** 0.0
2 H 26.646 18.867 32.786 H 0.0 **** 0.0
3 H 25.887 19.489 31.301 H 0.0 **** 0.0
4 H 25.898 17.74 31.63 H 0.0 **** 0.0
5 H 27.412 18.574 31.206 H 0.0 **** 0.0
@<TRIPOS>BOND
1 1 2 1
2 1 3 1
3 1 4 1
4 1 5 1
@<TRIPOS>MOLECULE
CH4
5 4
SMALL
USER_CHARGES


@<TRIPOS>ATOM
1 C 83.337 13.657 44.709 C 0.0 **** 0.0
2 H 82.704 13.206 45.473 H 0.0 **** 0.0
3 H 82.918 13.451 43.723 H 0.0 **** 0.0
4 H 84.34 13.236 44.773 H 0.0 **** 0.0
5 H 83.384 14.735 44.866 H 0.0 **** 0.0
@<TRIPOS>BOND
1 1 2 1
2 1 3 1
3 1 4 1
4 1 5 1
@<TRIPOS>MOLECULE
CH4
5 4
SMALL
USER_CHARGES


@<TRIPOS>ATOM
1 C 22.659 20.803 71.621 C 0.0 **** 0.0
2 H 22.474 21.746 71.106 H 0.0 **** 0.0
3 H 23.286 20.984 72.494 H 0.0 **** 0.0
4 H 23.167 20.115 70.945 H 0.0 **** 0.0
5 H 21.711 20.37 71.937 H 0.0 **** 0.0
@<TRIPOS>BOND
1 1 2 1
2 1 3 1
3 1 4 1
4 1 5 1
@<TRIPOS>MOLECULE
CH4
5 4
SMALL
USER_CHARGES


@<TRIPOS>ATOM
1 C 46.296 57.327 88.839 C 0.0 **** 0.0
2 H 46.455 57.917 89.741 H 0.0 **** 0.0
3 H 47.252 57.15 88.346 H 0.0 **** 0.0
4 H 45.633 57.868 88.163 H 0.0 **** 0.0
5 H 45.842 56.372 89.105 H 0.0 **** 0.0
@<TRIPOS>BOND
1 1 2 1
2 1 3 1
3 1 4 1
4 1 5 1
@<TRIPOS>MOLECULE
CH4
5 4
SMALL
USER_CHARGES


@<TRIPOS>ATOM
1 C 7.244 77.144 47.113 C 0.0 **** 0.0
2 H 6.869 76.906 48.109 H 0.0 **** 0.0
3 H 7.862 78.041 47.163 H 0.0 **** 0.0
4 H 6.403 77.319 46.442 H 0.0 **** 0.0
5 H 7.84 76.311 46.741 H 0.0 **** 0.0
@<TRIPOS>BOND
1 1 2 1
2 1 3 1
3 1 4 1
4 1 5 1
@<TRIPOS>MOLECULE
CH4
5 4
SMALL
USER_CHARGES


@<TRIPOS>ATOM
1 C 52.664 17.964 46.537 C 0.0 **** 0.0
2 H 53.514 18.501 46.115 H 0.0 **** 0.0
3 H 51.928 18.681 46.903 H 0.0 **** 0.0
4 H 53.003 17.338 47.361 H 0.0 **** 0.0
5 H 52.211 17.339 45.768 H 0.0 **** 0.0
@<TRIPOS>BOND
1 1 2 1
2 1 3 1
3 1 4 1
4 1 5 1
@<TRIPOS>MOLECULE
CH4
5 4
SMALL
USER_CHARGES


@<TRIPOS>ATOM
1 C 50.101 71.035 59.381 C 0.0 **** 0.0
2 H 49.75 70.132 59.88 H 0.0 **** 0.0
3 H 50.463 70.78 58.384 H 0.0 **** 0.0
4 H 50.911 71.478 59.96 H 0.0 **** 0.0
5 H 49.28 71.747 59.298 H 0.0 **** 0.0
@<TRIPOS>BOND
1 1 2 1
2 1 3 1
3 1 4 1
4 1 5 1
@<TRIPOS>MOLECULE
CH4
5 4
SMALL
USER_CHARGES


@<TRIPOS>ATOM
1 C 83.938 96.374 54.562 C 0.0 **** 0.0
2 H 84.668 97.035 55.028 H 0.0 **** 0.0
3 H 84.166 96.273 53.501 H 0.0 **** 0.0
4 H 82.939 96.794 54.682 H 0.0 **** 0.0
5 H 83.98 95.394 55.038 H 0.0 **** 0.0
@<TRIPOS>BOND
1 1 2 1
2 1 3 1
3 1 4 1
4 1 5 1
@<TRIPOS>MOLECULE
CH4
5 4
SMALL
USER_CHARGES


@<TRIPOS>ATOM
1 C 47.35 57.845 44.3 C 0.0 **** 0.0
2 H 47.351 57.843 45.39 H 0.0 **** 0.0
3 H 47.313 56.818 43.935 H 0.0 **** 0.0
4 H 48.257 58.328 43.937 H 0.0 **** 0.0
5 H 46.478 58.391 43.939 H 0.0 **** 0.0
@<TRIPOS>BOND
1 1 2 1
2 1 3 1
3 1 4 1
4 1 5 1
@<TRIPOS>MOLECULE
CH4
5 4
SMALL
USER_CHARGES


@<TRIPOS>ATOM
1 C 90.592 66.931 69.098 C 0.0 **** 0.0
2 H 90.419 67.599 69.942 H 0.0 **** 0.0
3 H 89.763 66.228 69.016 H 0.0 **** 0.0
4 H 91.521 66.382 69.255 H 0.0 **** 0.0
5 H 90.666 67.516 68.181 H 0.0 **** 0.0
@<TRIPOS>BOND
1 1 2 1
2 1 3 1
3 1 4 1
4 1 5 1
@<TRIPOS>MOLECULE
CH4
5 4
SMALL
USER_CHARGES


@<TRIPOS>ATOM
1 C 92.864 77.256 12.874 C 0.0 **** 0.0
2 H 92.735 77.277 11.792 H 0.0 **** 0.0
3 H 91.892 77.352 13.357 H 0.0 **** 0.0
4 H 93.505 78.083 13.179 H 0.0 **** 0.0
5 H 93.325 76.312 13.166 H 0.0 **** 0.0
@<TRIPOS>BOND
1 1 2 1
2 1 3 1
3 1 4 1
4 1 5 1
@<TRIPOS>MOLECULE
CH4
5 4
SMALL
USER_CHARGES


@<TRIPOS>ATOM
1 C 23.306 75.217 30.984 C 0.0 **** 0.0
2 H 23.346 75.221 29.894 H 0.0 **** 0.0
3 H 22.808 74.31 31.326 H 0.0 **** 0.0
4 H 22.75 76.089 31.329 H 0.0 **** 0.0
5 H 24.319 75.25 31.384 H 0.0 **** 0.0
@<TRIPOS>BOND
1 1 2 1
2 1 3 1
3 1 4 1
4 1 5 1
@<TRIPOS>MOLECULE
CH4
5 4
SMALL
USER_CHARGES


@<TRIPOS>ATOM
1 C 10.563 37.475 96.132 C 0.0 **** 0.0
2 H 10.438 37.499 97.214 H 0.0 **** 0.0
3 H 9.776 38.065 95.663 H 0.0 **** 0.0
4 H 10.503 36.445 95.782 H 0.0 **** 0.0
5 H 11.536 37.892 95.869 H 0.0 **** 0.0
@<TRIPOS>BOND
1 1 3 1
2 1 2 1
3 1 4 1
4 1 5 1
@<TRIPOS>MOLECULE
CH4
5 4
SMALL
USER_CHARGES


@<TRIPOS>ATOM
1 C 4.97 56.542 71.901 C 0.0 **** 0.0
2 H 5.278 56.24 72.902 H 0.0 **** 0.0
3 H 3.974 56.148 71.694 H 0.0 **** 0.0
4 H 5.676 56.149 71.17 H 0.0 **** 0.0
5 H 4.95 57.63 71.84 H 0.0 **** 0.0
@<TRIPOS>BOND
1 1 2 1
2 1 3 1
3 1 4 1
4 1 5 1
@<TRIPOS>MOLECULE
CH4
5 4
SMALL
USER_CHARGES


@<TRIPOS>ATOM
1 C 51.465 59.842 5.012 C 0.0 **** 0.0
2 H 51.538 59.992 3.934 H 0.0 **** 0.0
3 H 51.525 60.807 5.517 H 0.0 **** 0.0
4 H 52.285 59.206 5.345 H 0.0 **** 0.0
5 H 50.515 59.365 5.249 H 0.0 **** 0.0
@<TRIPOS>BOND
1 1 2 1
2 1 3 1
3 1 4 1
4 1 5 1
@<TRIPOS>MOLECULE
CH4
5 4
SMALL
USER_CHARGES


@<TRIPOS>ATOM
1 C 73.306 47.684 91.526 C 0.0 **** 0.0
2 H 72.687 48.407 90.994 H 0.0 **** 0.0
3 H 74.185 47.449 90.925 H 0.0 **** 0.0
4 H 72.732 46.775 91.703 H 0.0 **** 0.0
5 H 73.62 48.108 92.48 H 0.0 **** 0.0
@<TRIPOS>BOND
1 1 2 1
2 1 3 1
3 1 4 1
4 1 5 1
@<TRIPOS>MOLECULE
CH4
5 4
SMALL
USER_CHARGES


@<TRIPOS>ATOM
1 C 56.182 83.655 9.164 C 0.0 **** 0.0
2 H 56.386 83.671 8.094 H 0.0 **** 0.0
3 H 55.825 82.666 9.451 H 0.0 **** 0.0
4 H 55.421 84.399 9.4 H 0.0 **** 0.0
5 H 57.096 83.885 9.711 H 0.0 **** 0.0
@<TRIPOS>BOND
1 1 2 1
2 1 3 1
3 1 4 1
4 1 5 1
@<TRIPOS>MOLECULE
CH4
5 4
SMALL
USER_CHARGES


@<TRIPOS>ATOM
1 C 65.096 45.388 91.206 C 0.0 **** 0.0
2 H 64.868 44.431 91.676 H 0.0 **** 0.0
3 H 64.231 46.047 91.286 H 0.0 **** 0.0
4 H 65.336 45.229 90.155 H 0.0 **** 0.0
5 H 65.948 45.845 91.709 H 0.0 **** 0.0
@<TRIPOS>BOND
1 1 2 1
2 1 3 1
3 1 4 1
4 1 5 1
@<TRIPOS>MOLECULE
CH4
5 4
SMALL
USER_CHARGES


@<TRIPOS>ATOM
1 C 30.204 10.906 59.876 C 0.0 **** 0.0
2 H 30.189 11.081 60.952 H 0.0 **** 0.0
3 H 29.734 11.747 59.365 H 0.0 **** 0.0
4 H 29.658 9.991 59.649 H 0.0 **** 0.0
5 H 31.236 10.807 59.539 H 0.0 **** 0.0
@<TRIPOS>BOND
1 1 2 1
2 1 3 1
3 1 4 1
4 1 5 1
@<TRIPOS>MOLECULE
CH4
5 4
SMALL
USER_CHARGES


@<TRIPOS>ATOM
1 C 63.253 73.081 60.128 C 0.0 **** 0.0
2 H 62.636 72.26 59.763 H 0.0 **** 0.0
3 H 63.317 73.855 59.363 H 0.0 **** 0.0
4 H 64.252 72.711 60.356 H 0.0 **** 0.0
5 H 62.805 73.498 61.03 H 0.0 **** 0.0
@<TRIPOS>BOND
1 1 2 1
2 1 3 1
3 1 4 1
4 1 5 1
@<TRIPOS>MOLECULE
CH4
5 4
SMALL
USER_CHARGES


@<TRIPOS>ATOM
1 C 54.271 65.154 87.825 C 0.0 **** 0.0
2 H 53.723 65.076 88.765 H 0.0 **** 0.0
3 H 54.876 64.258 87.683 H 0.0 **** 0.0
4 H 54.918 66.03 87.853 H 0.0 **** 0.0
5 H 53.564 65.25 87.0 H 0.0 **** 0.0
@<TRIPOS>BOND
1 1 2 1
2 1 3 1
3 1 4 1
4 1 5 1
@<TRIPOS>MOLECULE
CH4
5 4
SMALL
USER_CHARGES


@<TRIPOS>ATOM
1 C 5.356 80.186 46.128 C 0.0 **** 0.0
2 H 5.108 80.481 47.148 H 0.0 **** 0.0
3 H 4.723 80.733 45.429 H 0.0 **** 0.0
4 H 5.189 79.116 46.01 H 0.0 **** 0.0
5 H 6.402 80.416 45.928 H 0.0 **** 0.0
@<TRIPOS>BOND
1 1 2 1
2 1 3 1
3 1 4 1
4 1 5 1
@<TRIPOS>MOLECULE
CH4
5 4
SMALL
USER_CHARGES


@<TRIPOS>ATOM
1 C 61.45 66.142 2.865 C 0.0 **** 0.0
2 H 60.919 67.033 2.528 H 0.0 **** 0.0
3 H 61.275 65.328 2.161 H 0.0 **** 0.0
4 H 61.087 65.855 3.852 H 0.0 **** 0.0
5 H 62.518 66.355 2.917 H 0.0 **** 0.0
@<TRIPOS>BOND
1 1 2 1
2 1 3 1
3 1 4 1
4 1 5 1
@<TRIPOS>MOLECULE
CH4
5 4
SMALL
USER_CHARGES


@<TRIPOS>ATOM
1 C 12.996 56.214 82.654 C 0.0 **** 0.0
2 H 12.912 55.447 83.424 H 0.0 **** 0.0
3 H 12.325 57.04 82.89 H 0.0 **** 0.0
4 H 12.726 55.789 81.687 H 0.0 **** 0.0
5 H 14.023 56.579 82.616 H 0.0 **** 0.0
@<TRIPOS>BOND
1 1 2 1
2 1 3 1
3 1 4 1
4 1 5 1
@<TRIPOS>MOLECULE
CH4
5 4
SMALL
USER_CHARGES


@<TRIPOS>ATOM
1 C 15.359 95.879 75.506 C 0.0 **** 0.0
2 H 15.493 95.889 76.587 H 0.0 **** 0.0
3 H 14.316 95.663 75.271 H 0.0 **** 0.0
4 H 15.997 95.112 75.067 H 0.0 **** 0.0
5 H 15.628 96.854 75.098 H 0.0 **** 0.0
@<TRIPOS>BOND
1 1 2 1
2 1 3 1
3 1 4 1
4 1 5 1
@<TRIPOS>MOLECULE
CH4
5 4
SMALL
USER_CHARGES


@<TRIPOS>ATOM
1 C 32.295 18.276 36.606 C 0.0 **** 0.0
2 H 32.799 18.088 37.555 H 0.0 **** 0.0
3 H 32.303 19.345 36.396 H 0.0 **** 0.0
4 H 31.265 17.925 36.667 H 0.0 **** 0.0
5 H 32.814 17.744 35.808 H 0.0 **** 0.0
@<TRIPOS>BOND
1 1 2 1
2 1 3 1
3 1 4 1
4 1 5 1
@<TRIPOS>MOLECULE
CH4
5 4
SMALL
USER_CHARGES


@<TRIPOS>ATOM
1 C 79.978 35.533 37.709 C 0.0 **** 0.0
2 H 79.122 35.448 37.04 H 0.0 **** 0.0
3 H 79.641 35.451 38.742 H 0.0 **** 0.0
4 H 80.462 36.498 37.559 H 0.0 **** 0.0
5 H 80.688 34.734 37.493 H 0.0 **** 0.0
@<TRIPOS>BOND
1 1 2 1
2 1 3 1
3 1 4 1
4 1 5 1
@<TRIPOS>MOLECULE
CH4
5 4
SMALL
USER_CHARGES


@<TRIPOS>ATOM
1 C 92.166 23.331 27.349 C 0.0 **** 0.0
2 H 91.939 23.833 28.29 H 0.0 **** 0.0
3 H 91.587 22.41 27.28 H 0.0 **** 0.0
4 H 93.229 23.096 27.309 H 0.0 **** 0.0
5 H 91.907 23.986 26.517 H 0.0 **** 0.0
@<TRIPOS>BOND
1 1 2 1
2 1 3 1
3 1 4 1
4 1 5 1
@<TRIPOS>MOLECULE
CH4
5 4
SMALL
USER_CHARGES


@<TRIPOS>ATOM
1 C 75.353 77.072 76.683 C 0.0 **** 0.0
2 H 74.576 77.642 76.174 H 0.0 **** 0.0
3 H 75.612 76.197 76.085 H 0.0 **** 0.0
4 H 74.987 76.751 77.658 H 0.0 **** 0.0
5 H 76.236 77.697 76.813 H 0.0 **** 0.0
@<TRIPOS>BOND
1 1 2 1
2 1 3 1
3 1 4 1
4 1 5 1
@<TRIPOS>MOLECULE
CH4
5 4
SMALL
USER_CHARGES


@<TRIPOS>ATOM
1 C 64.359 71.439 20.926 C 0.0 **** 0.0
2 H 64.58 72.106 20.092 H 0.0 **** 0.0
3 H 65.269 71.26 21.499 H 0.0 **** 0.0
4 H 63.978 70.492 20.542 H 0.0 **** 0.0
5 H 63.608 71.899 21.569 H 0.0 **** 0.0
@<TRIPOS>BOND
1 1 2 1
2 1 3 1
3 1 4 1
4 1 5 1
@<TRIPOS>MOLECULE
CH4
5 4
SMALL
USER_CHARGES


@<TRIPOS>ATOM
1 C 74.081 21.322 64.185 C 0.0 **** 0.0
2 H 75.085 21.669 64.432 H 0.0 **** 0.0
3 H 74.144 20.351 63.693 H 0.0 **** 0.0
4 H 73.604 22.038 63.516 H 0.0 **** 0.0
5 H 73.494 21.23 65.099 H 0.0 **** 0.0
@<TRIPOS>BOND
1 1 2 1
2 1 3 1
3 1 4 1
4 1 5 1
@<TRIPOS>MOLECULE
CH4
5 4
SMALL
USER_CHARGES


@<TRIPOS>ATOM
1 C 2.355 42.578 41.287 C 0.0 **** 0.0
2 H 2.322 42.595 40.198 H 0.0 **** 0.0
3 H 3.167 43.216 41.636 H 0.0 **** 0.0
4 H 2.522 41.557 41.629 H 0.0 **** 0.0
5 H 1.408 42.944 41.685 H 0.0 **** 0.0
@<TRIPOS>BOND
1 1 2 1
2 1 3 1
3 1 4 1
4 1 5 1
@<TRIPOS>MOLECULE
CH4
5 4
SMALL
USER_CHARGES


@<TRIPOS>ATOM
1 C 4.821 51.659 79.976 C 0.0 **** 0.0
2 H 5.233 51.133 80.838 H 0.0 **** 0.0
3 H 4.209 52.493 80.319 H 0.0 **** 0.0
4 H 4.208 50.974 79.391 H 0.0 **** 0.0
5 H 5.636 52.036 79.358 H 0.0 **** 0.0
@<TRIPOS>BOND
1 1 2 1
2 1 3 1
3 1 4 1
4 1 5 1
@<TRIPOS>MOLECULE
CH4
5 4
SMALL
USER_CHARGES


@<TRIPOS>ATOM
1 C 92.491 29.6 51.032 C 0.0 **** 0.0
2 H 91.782 29.281 51.796 H 0.0 **** 0.0
3 H 92.705 30.662 51.157 H 0.0 **** 0.0
4 H 92.062 29.429 50.045 H 0.0 **** 0.0
5 H 93.413 29.029 51.131 H 0.0 **** 0.0
@<TRIPOS>BOND
1 1 2 1
2 1 3 1
3 1 4 1
4 1 5 1
@<TRIPOS>MOLECULE
CH4
5 4
SMALL
USER_CHARGES


@<TRIPOS>ATOM
1 C 73.939 50.359 25.73 C 0.0 **** 0.0
2 H 73.848 50.323 24.644 H 0.0 **** 0.0
3 H 73.63 51.342 26.087 H 0.0 **** 0.0
4 H 74.975 50.178 26.014 H 0.0 **** 0.0
5 H 73.301 49.594 26.173 H 0.0 **** 0.0
@<TRIPOS>BOND
1 1 2 1
2 1 3 1
3 1 4 1
4 1 5 1
@<TRIPOS>MOLECULE
CH4
5 4
SMALL
USER_CHARGES


@<TRIPOS>ATOM
1 C 39.993 14.572 33.222 C 0.0 **** 0.0
2 H 39.531 13.602 33.04 H 0.0 **** 0.0
3 H 39.222 15.343 33.236 H 0.0 **** 0.0
4 H 40.709 14.788 32.43 H 0.0 **** 0.0
5 H 40.507 14.555 34.183 H 0.0 **** 0.0
@<TRIPOS>BOND
1 1 2 1
2 1 3 1
3 1 4 1
4 1 5 1
@<TRIPOS>MOLECULE
CH4
5 4
SMALL
USER_CHARGES


@<TRIPOS>ATOM
1 C 37.239 34.875 18.834 C 0.0 **** 0.0
2 H 37.546 34.374 19.752 H 0.0 **** 0.0
3 H 38.08 34.914 18.142 H 0.0 **** 0.0
4 H 36.911 35.889 19.067 H 0.0 **** 0.0
5 H 36.417 34.324 18.377 H 0.0 **** 0.0
@<TRIPOS>BOND
1 1 2 1
2 1 3 1
3 1 4 1
4 1 5 1
@<TRIPOS>MOLECULE
CH4
5 4
SMALL
USER_CHARGES


@<TRIPOS>ATOM
1 C 11.941 87.026 88.434 C 0.0 **** 0.0
2 H 12.963 86.649 88.387 H 0.0 **** 0.0
3 H 11.791 87.767 87.649 H 0.0 **** 0.0
4 H 11.768 87.486 89.407 H 0.0 **** 0.0
5 H 11.243 86.2 88.294 H 0.0 **** 0.0
@<TRIPOS>BOND
1 1 2 1
2 1 3 1
3 1 4 1
4 1 5 1
@<TRIPOS>MOLECULE
CH4
5 4
SMALL
USER_CHARGES


@<TRIPOS>ATOM
1 C 5.504 33.296 84.09 C 0.0 **** 0.0
2 H 6.108 33.835 83.36 H 0.0 **** 0.0
3 H 4.488 33.691 84.084 H 0.0 **** 0.0
4 H 5.937 33.42 85.083 H 0.0 **** 0.0
5 H 5.484 32.237 83.833 H 0.0 **** 0.0
@<TRIPOS>BOND
1 1 2 1
2 1 3 1
3 1 4 1
4 1 5 1
@<TRIPOS>MOLECULE
CH4
5 4
SMALL
USER_CHARGES


@<TRIPOS>ATOM
1 C 20.043 82.437 37.397 C 0.0 **** 0.0
2 H 20.62 83.356 37.298 H 0.0 **** 0.0
3 H 19.765 82.292 38.441 H 0.0 **** 0.0
4 H 20.644 81.592 37.06 H 0.0 **** 0.0
5 H 19.142 82.507 36.787 H 0.0 **** 0.0
@<TRIPOS>BOND
1 1 2 1
2 1 3 1
3 1 4 1
4 1 5 1
@<TRIPOS>MOLECULE
CH4
5 4
SMALL
USER_CHARGES


@<TRIPOS>ATOM
1 C 38.429 60.418 80.252 C 0.0 **** 0.0
2 H 38.094 61.156 79.524 H 0.0 **** 0.0
3 H 38.762 59.52 79.732 H 0.0 **** 0.0
4 H 37.606 60.167 80.92 H 0.0 **** 0.0
5 H 39.255 60.83 80.832 H 0.0 **** 0.0
@<TRIPOS>BOND
1 1 2 1
2 1 3 1
3 1 4 1
4 1 5 1
@<TRIPOS>MOLECULE
CH4
5 4
SMALL
USER_CHARGES


@<TRIPOS>ATOM
1 C 63.589 64.818 73.22 C 0.0 **** 0.0
2 H 63.37 64.689 72.16 H 0.0 **** 0.0
3 H 62.774 65.365 73.695 H 0.0 **** 0.0
4 H 64.517 65.379 73.334 H 0.0 **** 0.0
5 H 63.694 63.841 73.691 H 0.0 **** 0.0
@<TRIPOS>BOND
1 1 2 1
2 1 3 1
3 1 4 1
4 1 5 1
@<TRIPOS>MOLECULE
CH4
5 4
SMALL
USER_CHARGES


@<TRIPOS>ATOM
1 C 64.067 17.685 39.772 C 0.0 **** 0.0
2 H 64.665 18.565 39.534 H 0.0 **** 0.0
3 H 63.023 17.977 39.889 H 0.0 **** 0.0
4 H 64.427 17.242 40.701 H 0.0 **** 0.0
5 H 64.154 16.958 38.965 H 0.0 **** 0.0
@<TRIPOS>BOND
1 1 2 1
2 1 3 1
3 1 4 1
4 1 5 1
@<TRIPOS>MOLECULE
CH4
5 4
SMALL
USER_CHARGES


@<TRIPOS>ATOM
1 C 40.749 57.321 34.329 C 0.0 **** 0.0
2 H 40.208 57.155 33.398 H 0.0 **** 0.0
3 H 40.078 57.763 35.066 H 0.0 **** 0.0
4 H 41.585 57.998 34.148 H 0.0 **** 0.0
5 H 41.127 56.37 34.705 H 0.0 **** 0.0
@<TRIPOS>BOND
1 1 2 1
2 1 3 1
3 1 4 1
4 1 5 1
@<TRIPOS>MOLECULE
CH4
5 4
SMALL
USER_CHARGES


@<TRIPOS>ATOM
1 C 12.073 3.834 87.851 C 0.0 **** 0.0
2 H 12.895 4.339 88.359 H 0.0 **** 0.0
3 H 11.152 4.396 88.004 H 0.0 **** 0.0
4 H 11.958 2.829 88.256 H 0.0 **** 0.0
5 H 12.29 3.773 86.784 H 0.0 **** 0.0
@<TRIPOS>BOND
1 1 5 1
2 1 2 1
3 1 4 1
4 1 3 1
@<TRIPOS>MOLECULE
CH4
5 4
SMALL
USER_CHARGES


@<TRIPOS>ATOM
1 C 18.683 77.188 98.093 C 0.0 **** 0.0
2 H 18.722 76.479 97.266 H 0.0 **** 0.0
3 H 18.372 76.67 99.0 H 0.0 **** 0.0
4 H 17.968 77.978 97.861 H 0.0 **** 0.0
5 H 19.67 77.625 98.243 H 0.0 **** 0.0
@<TRIPOS>BOND
1 1 2 1
2 1 3 1
3 1 4 1
4 1 5 1
@<TRIPOS>MOLECULE
CH4
5 4
SMALL
USER_CHARGES


@<TRIPOS>ATOM
1 C 37.954 37.732 45.231 C 0.0 **** 0.0
2 H 37.807 36.81 45.793 H 0.0 **** 0.0
3 H 37.146 37.851 44.51 H 0.0 **** 0.0
4 H 38.908 37.689 44.705 H 0.0 **** 0.0
5 H 37.956 38.579 45.917 H 0.0 **** 0.0
@<TRIPOS>BOND
1 1 2 1
2 1 3 1
3 1 4 1
4 1 5 1
@<TRIPOS>MOLECULE
CH4
5 4
SMALL
USER_CHARGES


@<TRIPOS>ATOM
1 C 6.217 22.424 29.668 C 0.0 **** 0.0
2 H 6.724 21.686 29.047 H 0.0 **** 0.0
3 H 5.165 22.155 29.766 H 0.0 **** 0.0
4 H 6.3 23.407 29.204 H 0.0 **** 0.0
5 H 6.68 22.448 30.655 H 0.0 **** 0.0
@<TRIPOS>BOND
1 1 2 1
2 1 3 1
3 1 4 1
4 1 5 1
@<TRIPOS>MOLECULE
CH4
5 4
SMALL
USER_CHARGES


@<TRIPOS>ATOM
1 C 23.402 62.145 34.816 C 0.0 **** 0.0
2 H 23.139 62.986 34.174 H 0.0 **** 0.0
3 H 22.643 61.368 34.726 H 0.0 **** 0.0
4 H 23.456 62.483 35.851 H 0.0 **** 0.0
5 H 24.37 61.746 34.514 H 0.0 **** 0.0
@<TRIPOS>BOND
1 1 2 1
2 1 3 1
3 1 4 1
4 1 5 1
@<TRIPOS>MOLECULE
CH4
5 4
SMALL
USER_CHARGES


@<TRIPOS>ATOM
1 C 69.219 80.596 4.075 C 0.0 **** 0.0
2 H 69.159 80.592 5.164 H 0.0 **** 0.0
3 H 70.256 80.453 3.769 H 0.0 **** 0.0
4 H 68.856 81.551 3.695 H 0.0 **** 0.0
5 H 68.607 79.789 3.675 H 0.0 **** 0.0
@<TRIPOS>BOND
1 1 4 1
2 1 2 1
3 1 3 1
4 1 5 1
@<TRIPOS>MOLECULE
CH4
5 4
SMALL
USER_CHARGES


@<TRIPOS>ATOM
1 C 4.91 4.717 27.63 C 0.0 **** 0.0
2 H 4.659 5.424 26.839 H 0.0 **** 0.0
3 H 3.993 4.315 28.061 H 0.0 **** 0.0
4 H 5.484 5.226 28.404 H 0.0 **** 0.0
5 H 5.503 3.903 27.214 H 0.0 **** 0.0
@<TRIPOS>BOND
1 1 2 1
2 1 3 1
3 1 4 1
4 1 5 1
@<TRIPOS>MOLECULE
CH4
5 4
SMALL
USER_CHARGES


@<TRIPOS>ATOM
1 C 29.9 11.204 93.288 C 0.0 **** 0.0
2 H 30.48 11.88 93.915 H 0.0 **** 0.0
3 H 29.151 10.697 93.897 H 0.0 **** 0.0
4 H 30.564 10.467 92.837 H 0.0 **** 0.0
5 H 29.403 11.775 92.502 H 0.0 **** 0.0
@<TRIPOS>BOND
1 1 2 1
2 1 3 1
3 1 4 1
4 1 5 1
@<TRIPOS>MOLECULE
CH4
5 4
SMALL
USER_CHARGES


@<TRIPOS>ATOM
1 C 65.007 27.757 86.379 C 0.0 **** 0.0
2 H 64.622 27.081 85.616 H 0.0 **** 0.0
3 H 64.414 27.655 87.288 H 0.0 **** 0.0
4 H 64.946 28.784 86.018 H 0.0 **** 0.0
5 H 66.047 27.509 86.593 H 0.0 **** 0.0
@<TRIPOS>BOND
1 1 2 1
2 1 3 1
3 1 4 1
4 1 5 1
@<TRIPOS>MOLECULE
CH4
5 4
SMALL
USER_CHARGES


@<TRIPOS>ATOM
1 C 45.366 10.146 7.433 C 0.0 **** 0.0
2 H 46.091 9.769 6.711 H 0.0 **** 0.0
3 H 45.497 9.627 8.383 H 0.0 **** 0.0
4 H 44.357 9.971 7.06 H 0.0 **** 0.0
5 H 45.52 11.215 7.578 H 0.0 **** 0.0
@<TRIPOS>BOND
1 1 2 1
2 1 3 1
3 1 4 1
4 1 5 1
@<TRIPOS>MOLECULE
CH4
5 4
SMALL
USER_CHARGES


@<TRIPOS>ATOM
1 C 39.398 79.526 67.332 C 0.0 **** 0.0
2 H 40.378 79.815 66.953 H 0.0 **** 0.0
3 H 38.792 80.419 67.488 H 0.0 **** 0.0
4 H 39.516 78.996 68.277 H 0.0 **** 0.0
5 H 38.906 78.875 66.609 H 0.0 **** 0.0
@<TRIPOS>BOND
1 1 2 1
2 1 3 1
3 1 4 1
4 1 5 1
@<TRIPOS>MOLECULE
CH4
5 4
SMALL
USER_CHARGES


@<TRIPOS>ATOM
1 C 95.128 95.092 44.652 C 0.0 **** 0.0
2 H 94.989 95.952 45.308 H 0.0 **** 0.0
3 H 94.207 94.903 44.1 H 0.0 **** 0.0
4 H 95.379 94.216 45.251 H 0.0 **** 0.0
5 H 95.937 95.297 43.951 H 0.0 **** 0.0
@<TRIPOS>BOND
1 1 2 1
2 1 3 1
3 1 4 1
4 1 5 1
@<TRIPOS>MOLECULE
CH4
5 4
SMALL
USER_CHARGES


@<TRIPOS>ATOM
1 C 5.104 77.175 8.381 C 0.0 **** 0.0
2 H 4.859 76.771 7.399 H 0.0 **** 0.0
3 H 4.558 76.624 9.147 H 0.0 **** 0.0
4 H 4.823 78.228 8.42 H 0.0 **** 0.0
5 H 6.175 77.078 8.556 H 0.0 **** 0.0
@<TRIPOS>BOND
1 1 2 1
2 1 3 1
3 1 4 1
4 1 5 1
@<TRIPOS>MOLECULE
CH4
5 4
SMALL
USER_CHARGES


@<TRIPOS>ATOM
1 C 27.36 91.097 23.497 C 0.0 **** 0.0
2 H 27.513 91.34 22.446 H 0.0 **** 0.0
3 H 28.31 91.161 24.027 H 0.0 **** 0.0
4 H 26.963 90.085 23.582 H 0.0 **** 0.0
5 H 26.652 91.802 23.933 H 0.0 **** 0.0
@<TRIPOS>BOND
1 1 2 1
2 1 3 1
3 1 4 1
4 1 5 1
@<TRIPOS>MOLECULE
CH4
5 4
SMALL
USER_CHARGES


@<TRIPOS>ATOM
1 C 32.632 50.203 7.205 C 0.0 **** 0.0
2 H 32.346 51.197 6.859 H 0.0 **** 0.0
3 H 31.897 49.846 7.927 H 0.0 **** 0.0
4 H 33.613 50.252 7.678 H 0.0 **** 0.0
5 H 32.671 49.52 6.357 H 0.0 **** 0.0
@<TRIPOS>BOND
1 1 2 1
2 1 3 1
3 1 4 1
4 1 5 1
@<TRIPOS>MOLECULE
CH4
5 4
SMALL
USER_CHARGES


@<TRIPOS>ATOM
1 C 21.03 47.252 44.71 C 0.0 **** 0.0
2 H 21.065 47.187 43.622 H 0.0 **** 0.0
3 H 21.037 46.248 45.135 H 0.0 **** 0.0
4 H 20.119 47.768 45.013 H 0.0 **** 0.0
5 H 21.897 47.806 45.069 H 0.0 **** 0.0
@<TRIPOS>BOND
1 1 2 1
2 1 3 1
3 1 4 1
4 1 5 1
@<TRIPOS>MOLECULE
CH4
5 4
SMALL
USER_CHARGES


@<TRIPOS>ATOM
1 C 51.11 63.289 8.215 C 0.0 **** 0.0
2 H 51.004 62.218 8.391 H 0.0 **** 0.0
3 H 51.844 63.7 8.908 H 0.0 **** 0.0
4 H 50.149 63.779 8.369 H 0.0 **** 0.0
5 H 51.443 63.456 7.19 H 0.0 **** 0.0
@<TRIPOS>BOND
1 1 2 1
2 1 3 1
3 1 4 1
4 1 5 1
@<TRIPOS>MOLECULE
CH4
5 4
SMALL
USER_CHARGES


@<TRIPOS>ATOM
1 C 33.144 30.166 94.33 C 0.0 **** 0.0
2 H 33.071 30.418 93.272 H 0.0 **** 0.0
3 H 32.169 29.841 94.694 H 0.0 **** 0.0
4 H 33.468 31.043 94.891 H 0.0 **** 0.0
5 H 33.868 29.362 94.462 H 0.0 **** 0.0
@<TRIPOS>BOND
1 1 3 1
2 1 4 1
3 1 5 1
4 1 2 1
@<TRIPOS>MOLECULE
CH4
5 4
SMALL
USER_CHARGES


@<TRIPOS>ATOM
1 C 13.447 91.938 18.095 C 0.0 **** 0.0
2 H 12.637 92.119 18.803 H 0.0 **** 0.0
3 H 14.304 92.558 18.358 H 0.0 **** 0.0
4 H 13.112 92.188 17.089 H 0.0 **** 0.0
5 H 13.733 90.887 18.133 H 0.0 **** 0.0
@<TRIPOS>BOND
1 1 2 1
2 1 3 1
3 1 4 1
4 1 5 1
@<TRIPOS>MOLECULE
CH4
5 4
SMALL
USER_CHARGES


@<TRIPOS>ATOM
1 C 79.839 10.165 52.0 C 0.0 **** 0.0
2 H 80.376 9.945 52.922 H 0.0 **** 0.0
3 H 79.438 9.241 51.583 H 0.0 **** 0.0
4 H 80.521 10.622 51.282 H 0.0 **** 0.0
5 H 79.021 10.854 52.212 H 0.0 **** 0.0
@<TRIPOS>BOND
1 1 2 1
2 1 3 1
3 1 4 1
4 1 5 1
@<TRIPOS>MOLECULE
CH4
5 4
SMALL
USER_CHARGES


@<TRIPOS>ATOM
1 C 33.068 16.897 70.801 C 0.0 **** 0.0
2 H 33.304 16.664 71.839 H 0.0 **** 0.0
3 H 32.272 17.641 70.767 H 0.0 **** 0.0
4 H 32.741 15.991 70.29 H 0.0 **** 0.0
5 H 33.956 17.292 70.307 H 0.0 **** 0.0
@<TRIPOS>BOND
1 1 2 1
2 1 3 1
3 1 4 1
4 1 5 1
@<TRIPOS>MOLECULE
CH4
5 4
SMALL
USER_CHARGES


@<TRIPOS>ATOM
1 C 11.102 4.326 40.883 C 0.0 **** 0.0
2 H 11.933 3.8 41.353 H 0.0 **** 0.0
3 H 11.289 4.419 39.813 H 0.0 **** 0.0
4 H 11.005 5.318 41.323 H 0.0 **** 0.0
5 H 10.181 3.766 41.044 H 0.0 **** 0.0
@<TRIPOS>BOND
1 1 2 1
2 1 3 1
3 1 4 1
4 1 5 1
@<TRIPOS>MOLECULE
CH4
5 4
SMALL
USER_CHARGES


@<TRIPOS>ATOM
1 C 24.1 1.819 41.426 C 0.0 **** 0.0
2 H 24.51 2.801 41.189 H 0.0 **** 0.0
3 H 23.209 1.643 40.823 H 0.0 **** 0.0
4 H 23.836 1.782 42.483 H 0.0 **** 0.0
5 H 24.844 1.053 41.209 H 0.0 **** 0.0
@<TRIPOS>BOND
1 1 2 1
2 1 3 1
3 1 4 1
4 1 5 1
@<TRIPOS>MOLECULE
CH4
5 4
SMALL
USER_CHARGES


@<TRIPOS>ATOM
1 C 35.55 53.14 89.801 C 0.0 **** 0.0
2 H 35.802 54.173 90.042 H 0.0 **** 0.0
3 H 36.308 52.727 89.135 H 0.0 **** 0.0
4 H 34.578 53.109 89.31 H 0.0 **** 0.0
5 H 35.513 52.552 90.718 H 0.0 **** 0.0
@<TRIPOS>BOND
1 1 2 1
2 1 3 1
3 1 4 1
4 1 5 1
@<TRIPOS>MOLECULE
CH4
5 4
SMALL
USER_CHARGES


@<TRIPOS>ATOM
1 C 75.764 34.874 48.693 C 0.0 **** 0.0
2 H 74.901 34.602 49.301 H 0.0 **** 0.0
3 H 75.766 35.951 48.526 H 0.0 **** 0.0
4 H 75.71 34.357 47.735 H 0.0 **** 0.0
5 H 76.679 34.584 49.21 H 0.0 **** 0.0
@<TRIPOS>BOND
1 1 2 1
2 1 3 1
3 1 4 1
4 1 5 1
@<TRIPOS>MOLECULE
CH4
5 4
SMALL
USER_CHARGES


@<TRIPOS>ATOM
1 C 72.828 69.592 18.116 C 0.0 **** 0.0
2 H 72.236 69.939 17.27 H 0.0 **** 0.0
3 H 73.608 68.918 17.762 H 0.0 **** 0.0
4 H 72.183 69.065 18.819 H 0.0 **** 0.0
5 H 73.286 70.448 18.614 H 0.0 **** 0.0
@<TRIPOS>BOND
1 1 2 1
2 1 3 1
3 1 4 1
4 1 5 1
@<TRIPOS>MOLECULE
CH4
5 4
SMALL
USER_CHARGES


@<TRIPOS>ATOM
1 C 4.365 90.061 30.684 C 0.0 **** 0.0
2 H 4.243 88.981 30.604 H 0.0 **** 0.0
3 H 4.919 90.429 29.82 H 0.0 **** 0.0
4 H 4.913 90.299 31.596 H 0.0 **** 0.0
5 H 3.384 90.536 30.716 H 0.0 **** 0.0
@<TRIPOS>BOND
1 1 2 1
2 1 3 1
3 1 4 1
4 1 5 1
@<TRIPOS>MOLECULE
CH4
5 4
SMALL
USER_CHARGES


@<TRIPOS>ATOM
1 C 69.898 25.683 15.301 C 0.0 **** 0.0
2 H 68.996 25.27 15.753 H 0.0 **** 0.0
3 H 70.774 25.317 15.838 H 0.0 **** 0.0
4 H 69.866 26.771 15.357 H 0.0 **** 0.0
5 H 69.956 25.374 14.258 H 0.0 **** 0.0
@<TRIPOS>BOND
1 1 2 1
2 1 3 1
3 1 4 1
4 1 5 1
@<TRIPOS>MOLECULE
CH4
5 4
SMALL
USER_CHARGES


@<TRIPOS>ATOM
1 C 42.256 67.852 47.774 C 0.0 **** 0.0
2 H 42.307 67.897 46.686 H 0.0 **** 0.0
3 H 41.89 66.872 48.08 H 0.0 **** 0.0
4 H 41.578 68.624 48.138 H 0.0 **** 0.0
5 H 43.25 68.015 48.191 H 0.0 **** 0.0
@<TRIPOS>BOND
1 1 2 1
2 1 3 1
3 1 4 1
4 1 5 1
@<TRIPOS>MOLECULE
CH4
5 4
SMALL
USER_CHARGES


@<TRIPOS>ATOM
1 C 53.147 52.326 4.848 C 0.0 **** 0.0
2 H 53.121 52.391 3.76 H 0.0 **** 0.0
3 H 52.704 51.382 5.166 H 0.0 **** 0.0
4 H 52.582 53.155 5.274 H 0.0 **** 0.0
5 H 54.181 52.377 5.19 H 0.0 **** 0.0
@<TRIPOS>BOND
1 1 2 1
2 1 3 1
3 1 4 1
4 1 5 1
@<TRIPOS>MOLECULE
CH4
5 4
SMALL
USER_CHARGES


@<TRIPOS>ATOM
1 C 49.768 40.255 13.338 C 0.0 **** 0.0
2 H 48.974 40.51 14.04 H 0.0 **** 0.0
3 H 49.358 40.207 12.329 H 0.0 **** 0.0
4 H 50.193 39.288 13.605 H 0.0 **** 0.0
5 H 50.546 41.018 13.379 H 0.0 **** 0.0
@<TRIPOS>BOND
1 1 2 1
2 1 3 1
3 1 4 1
4 1 5 1
@<TRIPOS>MOLECULE
CH4
5 4
SMALL
USER_CHARGES


@<TRIPOS>ATOM
1 C 15.588 58.791 66.591 C 0.0 **** 0.0
2 H 14.826 58.854 67.369 H 0.0 **** 0.0
3 H 16.153 59.722 66.561 H 0.0 **** 0.0
4 H 15.108 58.625 65.627 H 0.0 **** 0.0
5 H 16.262 57.963 66.809 H 0.0 **** 0.0
@<TRIPOS>BOND
1 1 2 1
2 1 3 1
3 1 4 1
4 1 5 1
@<TRIPOS>MOLECULE
CH4
5 4
SMALL
USER_CHARGES


@<TRIPOS>ATOM
1 C 43.599 70.725 47.565 C 0.0 **** 0.0
2 H 44.132 71.653 47.773 H 0.0 **** 0.0
3 H 44.285 70.004 47.118 H 0.0 **** 0.0
4 H 42.78 70.923 46.873 H 0.0 **** 0.0
5 H 43.2 70.319 48.494 H 0.0 **** 0.0
@<TRIPOS>BOND
1 1 2 1
2 1 3 1
3 1 4 1
4 1 5 1
@<TRIPOS>MOLECULE
CH4
5 4
SMALL
USER_CHARGES


@<TRIPOS>ATOM
1 C 96.561 43.692 83.398 C 0.0 **** 0.0
2 H 95.559 43.441 83.05 H 0.0 **** 0.0
3 H 96.557 43.782 84.484 H 0.0 **** 0.0
4 H 96.873 44.638 82.955 H 0.0 **** 0.0
5 H 97.256 42.905 83.1 H 0.0 **** 0.0
@<TRIPOS>BOND
1 1 2 1
2 1 3 1
3 1 4 1
4 1 5 1
@<TRIPOS>MOLECULE
CH4
5 4
SMALL
USER_CHARGES


@<TRIPOS>ATOM
1 C 50.098 13.993 13.921 C 0.0 **** 0.0
2 H 50.142 13.989 12.832 H 0.0 **** 0.0
3 H 49.364 14.728 14.252 H 0.0 **** 0.0
4 H 51.077 14.25 14.324 H 0.0 **** 0.0
5 H 49.807 13.004 14.276 H 0.0 **** 0.0
@<TRIPOS>BOND
1 1 2 1
2 1 3 1
3 1 4 1
4 1 5 1
@<TRIPOS>MOLECULE
CH4
5 4
SMALL
USER_CHARGES


@<TRIPOS>ATOM
1 C 93.843 75.265 43.366 C 0.0 **** 0.0
2 H 94.709 75.55 43.963 H 0.0 **** 0.0
3 H 94.139 75.165 42.321 H 0.0 **** 0.0
4 H 93.073 76.031 43.454 H 0.0 **** 0.0
5 H 93.451 74.313 43.725 H 0.0 **** 0.0
@<TRIPOS>BOND
1 1 2 1
2 1 3 1
3 1 4 1
4 1 5 1
@<TRIPOS>MOLECULE
CH4
5 4
SMALL
USER_CHARGES


@<TRIPOS>ATOM
1 C 28.662 7.357 33.559 C 0.0 **** 0.0
2 H 28.689 7.339 32.47 H 0.0 **** 0.0
3 H 28.698 6.337 33.94 H 0.0 **** 0.0
4 H 27.742 7.838 33.892 H 0.0 **** 0.0
5 H 29.52 7.916 33.934 H 0.0 **** 0.0
@<TRIPOS>BOND
1 1 2 1
2 1 3 1
3 1 4 1
4 1 5 1
@<TRIPOS>MOLECULE
CH4
5 4
SMALL
USER_CHARGES


@<TRIPOS>ATOM
1 C 54.949 15.865 29.472 C 0.0 **** 0.0
2 H 54.979 16.14 28.418 H 0.0 **** 0.0
3 H 54.684 16.738 30.068 H 0.0 **** 0.0
4 H 55.929 15.499 29.779 H 0.0 **** 0.0
5 H 54.205 15.082 29.622 H 0.0 **** 0.0
@<TRIPOS>BOND
1 1 2 1
2 1 3 1
3 1 4 1
4 1 5 1
@<TRIPOS>MOLECULE
CH4
5 4
SMALL
USER_CHARGES


@<TRIPOS>ATOM
1 C 39.397 49.235 28.394 C 0.0 **** 0.0
2 H 39.389 49.321 27.307 H 0.0 **** 0.0
3 H 39.791 48.259 28.678 H 0.0 **** 0.0
4 H 38.381 49.341 28.774 H 0.0 **** 0.0
5 H 40.026 50.018 28.816 H 0.0 **** 0.0
@<TRIPOS>BOND
1 1 2 1
2 1 3 1
3 1 4 1
4 1 5 1
@<TRIPOS>MOLECULE
CH4
5 4
SMALL
USER_CHARGES


@<TRIPOS>ATOM
1 C 75.617 93.833 27.223 C 0.0 **** 0.0
2 H 76.553 93.575 26.728 H 0.0 **** 0.0
3 H 75.777 94.684 27.884 H 0.0 **** 0.0
4 H 75.268 92.98 27.806 H 0.0 **** 0.0
5 H 74.869 94.09 26.473 H 0.0 **** 0.0
@<TRIPOS>BOND
1 1 2 1
2 1 3 1
3 1 4 1
4 1 5 1
@<TRIPOS>MOLECULE
CH4
5 4
SMALL
USER_CHARGES


@<TRIPOS>ATOM
1 C 44.421 83.743 2.151 C 0.0 **** 0.0
2 H 45.198 83.964 2.882 H 0.0 **** 0.0
3 H 44.081 84.672 1.691 H 0.0 **** 0.0
4 H 43.582 83.256 2.647 H 0.0 **** 0.0
5 H 44.822 83.083 1.382 H 0.0 **** 0.0
@<TRIPOS>BOND
1 1 2 1
2 1 3 1
3 1 4 1
4 1 5 1
@<TRIPOS>MOLECULE
CH4
5 4
SMALL
USER_CHARGES


@<TRIPOS>ATOM
1 C 89.012 78.723 47.978 C 0.0 **** 0.0
2 H 89.485 79.387 47.255 H 0.0 **** 0.0
3 H 89.685 78.566 48.821 H 0.0 **** 0.0
4 H 88.793 77.767 47.504 H 0.0 **** 0.0
5 H 88.085 79.174 48.332 H 0.0 **** 0.0
@<TRIPOS>BOND
1 1 2 1
2 1 3 1
3 1 4 1
4 1 5 1
@<TRIPOS>MOLECULE
CH4
5 4
SMALL
USER_CHARGES


@<TRIPOS>ATOM
1 C 63.633 83.272 67.834 C 0.0 **** 0.0
2 H 63.959 82.244 67.99 H 0.0 **** 0.0
3 H 64.105 83.671 66.936 H 0.0 **** 0.0
4 H 63.918 83.877 68.695 H 0.0 **** 0.0
5 H 62.549 83.295 67.717 H 0.0 **** 0.0
@<TRIPOS>BOND
1 1 2 1
2 1 3 1
3 1 4 1
4 1 5 1
@<TRIPOS>MOLECULE
CH4
5 4
SMALL
USER_CHARGES


@<TRIPOS>ATOM
1 C 13.771 43.938 57.509 C 0.0 **** 0.0
2 H 14.664 44.46 57.854 H 0.0 **** 0.0
3 H 13.067 44.66 57.095 H 0.0 **** 0.0
4 H 13.307 43.419 58.348 H 0.0 **** 0.0
5 H 14.046 43.216 56.741 H 0.0 **** 0.0
@<TRIPOS>BOND
1 1 2 1
2 1 3 1
3 1 4 1
4 1 5 1
@<TRIPOS>MOLECULE
CH4
5 4
SMALL
USER_CHARGES


@<TRIPOS>ATOM
1 C 95.619 28.556 89.493 C 0.0 **** 0.0
2 H 94.854 28.063 88.892 H 0.0 **** 0.0
3 H 96.185 27.807 90.046 H 0.0 **** 0.0
4 H 95.144 29.244 90.193 H 0.0 **** 0.0
5 H 96.292 29.111 88.839 H 0.0 **** 0.0
@<TRIPOS>BOND
1 1 2 1
2 1 3 1
3 1 4 1
4 1 5 1
@<TRIPOS>MOLECULE
CH4
5 4
SMALL
USER_CHARGES


@<TRIPOS>ATOM
1 C 54.75 98.208 27.182 C 0.0 **** 0.0
2 H 54.945 98.327 28.248 H 0.0 **** 0.0
3 H 54.286 97.238 27.004 H 0.0 **** 0.0
4 H 55.69 98.268 26.633 H 0.0 **** 0.0
5 H 54.081 99.0 26.845 H 0.0 **** 0.0
@<TRIPOS>BOND
1 1 2 1
2 1 3 1
3 1 4 1
4 1 5 1
@<TRIPOS>MOLECULE
CH4
5 4
SMALL
USER_CHARGES


@<TRIPOS>ATOM
1 C 22.668 92.12 59.434 C 0.0 **** 0.0
2 H 23.256 91.893 60.323 H 0.0 **** 0.0
3 H 21.641 92.345 59.726 H 0.0 **** 0.0
4 H 22.675 91.261 58.764 H 0.0 **** 0.0
5 H 23.098 92.983 58.925 H 0.0 **** 0.0
@<TRIPOS>BOND
1 1 2 1
2 1 3 1
3 1 4 1
4 1 5 1
@<TRIPOS>MOLECULE
CH4
5 4
SMALL
USER_CHARGES


@<TRIPOS>ATOM
1 C 59.855 56.952 92.133 C 0.0 **** 0.0
2 H 59.864 57.33 93.156 H 0.0 **** 0.0
3 H 60.834 57.106 91.68 H 0.0 **** 0.0
4 H 59.099 57.486 91.557 H 0.0 **** 0.0
5 H 59.621 55.888 92.142 H 0.0 **** 0.0
@<TRIPOS>BOND
1 1 2 1
2 1 3 1
3 1 4 1
4 1 5 1
@<TRIPOS>MOLECULE
CH4
5 4
SMALL
USER_CHARGES


@<TRIPOS>ATOM
1 C 54.463 79.097 5.755 C 0.0 **** 0.0
2 H 54.258 79.16 6.824 H 0.0 **** 0.0
3 H 54.741 78.075 5.498 H 0.0 **** 0.0
4 H 55.281 79.771 5.501 H 0.0 **** 0.0
5 H 53.571 79.383 5.197 H 0.0 **** 0.0
@<TRIPOS>BOND
1 1 2 1
2 1 3 1
3 1 4 1
4 1 5 1
@<TRIPOS>MOLECULE
CH4
5 4
SMALL
USER_CHARGES


@<TRIPOS>ATOM
1 C 93.371 26.88 37.43 C 0.0 **** 0.0
2 H 93.328 26.79 36.344 H 0.0 **** 0.0
3 H 93.794 27.849 37.697 H 0.0 **** 0.0
4 H 93.997 26.085 37.835 H 0.0 **** 0.0
5 H 92.365 26.796 37.841 H 0.0 **** 0.0
@<TRIPOS>BOND
1 1 2 1
2 1 3 1
3 1 4 1
4 1 5 1
@<TRIPOS>MOLECULE
CH4
5 4
SMALL
USER_CHARGES


@<TRIPOS>ATOM
1 C 56.451 22.652 96.142 C 0.0 **** 0.0
2 H 55.85 22.573 95.237 H 0.0 **** 0.0
3 H 56.982 21.714 96.308 H 0.0 **** 0.0
4 H 55.801 22.857 96.993 H 0.0 **** 0.0
5 H 57.171 23.463 96.031 H 0.0 **** 0.0
@<TRIPOS>BOND
1 1 2 1
2 1 3 1
3 1 4 1
4 1 5 1
@<TRIPOS>MOLECULE
CH4
5 4
SMALL
USER_CHARGES


@<TRIPOS>ATOM
1 C 86.756 74.875 76.105 C 0.0 **** 0.0
2 H 87.766 74.679 75.743 H 0.0 **** 0.0
3 H 86.032 74.463 75.402 H 0.0 **** 0.0
4 H 86.605 75.95 76.195 H 0.0 **** 0.0
5 H 86.623 74.406 77.08 H 0.0 **** 0.0
@<TRIPOS>BOND
1 1 2 1
2 1 3 1
3 1 4 1
4 1 5 1
@<TRIPOS>MOLECULE
CH4
5 4
SMALL
USER_CHARGES


@<TRIPOS>ATOM
1 C 71.246 17.323 58.611 C 0.0 **** 0.0
2 H 70.912 16.969 59.587 H 0.0 **** 0.0
3 H 70.519 18.033 58.215 H 0.0 **** 0.0
4 H 71.337 16.478 57.93 H 0.0 **** 0.0
5 H 72.214 17.813 58.715 H 0.0 **** 0.0
@<TRIPOS>BOND
1 1 2 1
2 1 3 1
3 1 4 1
4 1 5 1
@<TRIPOS>MOLECULE
CH4
5 4
SMALL
USER_CHARGES


@<TRIPOS>ATOM
1 C 36.466 95.269 76.723 C 0.0 **** 0.0
2 H 36.463 95.26 75.633 H 0.0 **** 0.0
3 H 36.875 96.216 77.076 H 0.0 **** 0.0
4 H 37.08 94.448 77.092 H 0.0 **** 0.0
5 H 35.446 95.154 77.09 H 0.0 **** 0.0
@<TRIPOS>BOND
1 1 2 1
2 1 3 1
3 1 4 1
4 1 5 1
@<TRIPOS>MOLECULE
CH4
5 4
SMALL
USER_CHARGES


@<TRIPOS>ATOM
1 C 83.645 22.488 18.755 C 0.0 **** 0.0
2 H 83.733 22.58 19.838 H 0.0 **** 0.0
3 H 84.147 23.33 18.277 H 0.0 **** 0.0
4 H 82.591 22.487 18.476 H 0.0 **** 0.0
5 H 84.108 21.557 18.431 H 0.0 **** 0.0
@<TRIPOS>BOND
1 1 2 1
2 1 3 1
3 1 4 1
4 1 5 1
@<TRIPOS>MOLECULE
CH4
5 4
SMALL
USER_CHARGES


@<TRIPOS>ATOM
1 C 1.425 40.402 13.285 C 0.0 **** 0.0
2 H 1.513 39.316 13.278 H 0.0 **** 0.0
3 H 0.845 40.714 14.154 H 0.0 **** 0.0
4 H 0.923 40.731 12.375 H 0.0 **** 0.0
5 H 2.419 40.846 13.333 H 0.0 **** 0.0
@<TRIPOS>BOND
1 1 2 1
2 1 3 1
3 1 4 1
4 1 5 1
@<TRIPOS>MOLECULE
CH4
5 4
SMALL
USER_CHARGES


@<TRIPOS>ATOM
1 C 51.57 15.294 92.606 C 0.0 **** 0.0
2 H 50.545 14.949 92.47 H 0.0 **** 0.0
3 H 51.664 16.311 92.223 H 0.0 **** 0.0
4 H 52.249 14.637 92.063 H 0.0 **** 0.0
5 H 51.821 15.28 93.666 H 0.0 **** 0.0
@<TRIPOS>BOND
1 1 2 1
2 1 3 1
3 1 4 1
4 1 5 1
@<TRIPOS>MOLECULE
CH4
5 4
SMALL
USER_CHARGES


@<TRIPOS>ATOM
1 C 31.184 38.962 58.115 C 0.0 **** 0.0
2 H 31.651 39.744 57.516 H 0.0 **** 0.0
3 H 30.494 38.391 57.492 H 0.0 **** 0.0
4 H 30.637 39.416 58.941 H 0.0 **** 0.0
5 H 31.953 38.298 58.509 H 0.0 **** 0.0
@<TRIPOS>BOND
1 1 2 1
2 1 3 1
3 1 4 1
4 1 5 1
@<TRIPOS>MOLECULE
CH4
5 4
SMALL
USER_CHARGES


@<TRIPOS>ATOM
1 C 48.106 23.545 30.433 C 0.0 **** 0.0
2 H 48.268 23.536 29.355 H 0.0 **** 0.0
3 H 49.053 23.727 30.941 H 0.0 **** 0.0
4 H 47.704 22.581 30.747 H 0.0 **** 0.0
5 H 47.398 24.334 30.688 H 0.0 **** 0.0
@<TRIPOS>BOND
1 1 2 1
2 1 3 1
3 1 4 1
4 1 5 1
@<TRIPOS>MOLECULE
CH4
5 4
SMALL
USER_CHARGES


@<TRIPOS>ATOM
1 C 60.44 9.086 9.887 C 0.0 **** 0.0
2 H 60.632 10.107 10.216 H 0.0 **** 0.0
3 H 60.709 8.391 10.683 H 0.0 **** 0.0
4 H 61.037 8.872 9.0 H 0.0 **** 0.0
5 H 59.382 8.974 9.649 H 0.0 **** 0.0
@<TRIPOS>BOND
1 1 2 1
2 1 3 1
3 1 4 1
4 1 5 1
@<TRIPOS>MOLECULE
CH4
5 4
SMALL
USER_CHARGES


@<TRIPOS>ATOM
1 C 78.006 38.098 49.708 C 0.0 **** 0.0
2 H 77.479 37.453 50.412 H 0.0 **** 0.0
3 H 78.97 38.384 50.13 H 0.0 **** 0.0
4 H 77.412 38.992 49.52 H 0.0 **** 0.0
5 H 78.163 37.562 48.772 H 0.0 **** 0.0
@<TRIPOS>BOND
1 1 2 1
2 1 3 1
3 1 4 1
4 1 5 1
@<TRIPOS>MOLECULE
CH4
5 4
SMALL
USER_CHARGES


@<TRIPOS>ATOM
1 C 54.238 90.041 9.66 C 0.0 **** 0.0
2 H 53.796 89.073 9.425 H 0.0 **** 0.0
3 H 54.109 90.251 10.722 H 0.0 **** 0.0
4 H 53.747 90.817 9.074 H 0.0 **** 0.0
5 H 55.301 90.022 9.421 H 0.0 **** 0.0
@<TRIPOS>BOND
1 1 2 1
2 1 3 1
3 1 4 1
4 1 5 1
@<TRIPOS>MOLECULE
CH4
5 4
SMALL
USER_CHARGES


@<TRIPOS>ATOM
1 C 6.585 79.569 80.305 C 0.0 **** 0.0
2 H 6.637 79.834 81.361 H 0.0 **** 0.0
3 H 5.542 79.461 80.008 H 0.0 **** 0.0
4 H 7.11 78.628 80.14 H 0.0 **** 0.0
5 H 7.053 80.355 79.711 H 0.0 **** 0.0
@<TRIPOS>BOND
1 1 2 1
2 1 3 1
3 1 4 1
4 1 5 1
@<TRIPOS>MOLECULE
CH4
5 4
SMALL
USER_CHARGES


@<TRIPOS>ATOM
1 C 2.233 33.405 1.042 C 0.0 **** 0.0
2 H 2.241 33.418 2.132 H 0.0 **** 0.0
3 H 1.855 32.444 0.694 H 0.0 **** 0.0
4 H 3.247 33.553 0.671 H 0.0 **** 0.0
5 H 1.591 34.205 0.674 H 0.0 **** 0.0
@<TRIPOS>BOND
1 1 2 1
2 1 3 1
3 1 4 1
4 1 5 1
@<TRIPOS>MOLECULE
CH4
5 4
SMALL
USER_CHARGES


@<TRIPOS>ATOM
1 C 46.793 48.967 97.066 C 0.0 **** 0.0
2 H 46.05 48.177 97.182 H 0.0 **** 0.0
3 H 46.579 49.772 97.77 H 0.0 **** 0.0
4 H 46.756 49.354 96.048 H 0.0 **** 0.0
5 H 47.785 48.563 97.266 H 0.0 **** 0.0
@<TRIPOS>BOND
1 1 2 1
2 1 3 1
3 1 4 1
4 1 5 1
@<TRIPOS>MOLECULE
CH4
5 4
SMALL
USER_CHARGES


@<TRIPOS>ATOM
1 C 10.963 97.634 32.265 C 0.0 **** 0.0
2 H 11.015 97.625 31.177 H 0.0 **** 0.0
3 H 11.768 98.253 32.662 H 0.0 **** 0.0
4 H 11.068 96.616 32.642 H 0.0 **** 0.0
5 H 10.002 98.041 32.58 H 0.0 **** 0.0
@<TRIPOS>BOND
1 1 2 1
2 1 3 1
3 1 4 1
4 1 5 1
@<TRIPOS>MOLECULE
CH4
5 4
SMALL
USER_CHARGES


@<TRIPOS>ATOM
1 C 31.209 35.786 33.78 C 0.0 **** 0.0
2 H 30.803 35.436 32.831 H 0.0 **** 0.0
3 H 30.98 36.845 33.903 H 0.0 **** 0.0
4 H 32.289 35.644 33.787 H 0.0 **** 0.0
5 H 30.762 35.22 34.597 H 0.0 **** 0.0
@<TRIPOS>BOND
1 1 2 1
2 1 3 1
3 1 4 1
4 1 5 1
@<TRIPOS>MOLECULE
CH4
5 4
SMALL
USER_CHARGES


@<TRIPOS>ATOM
1 C 33.885 21.131 39.22 C 0.0 **** 0.0
2 H 33.818 21.214 40.304 H 0.0 **** 0.0
3 H 34.556 21.901 38.838 H 0.0 **** 0.0
4 H 32.895 21.261 38.783 H 0.0 **** 0.0
5 H 34.273 20.147 38.954 H 0.0 **** 0.0
@<TRIPOS>BOND
1 1 2 1
2 1 3 1
3 1 4 1
4 1 5 1
@<TRIPOS>MOLECULE
CH4
5 4
SMALL
USER_CHARGES


@<TRIPOS>ATOM
1 C 90.495 73.589 29.854 C 0.0 **** 0.0
2 H 90.491 73.26 28.814 H 0.0 **** 0.0
3 H 89.622 73.182 30.366 H 0.0 **** 0.0
4 H 90.463 74.678 29.891 H 0.0 **** 0.0
5 H 91.402 73.235 30.343 H 0.0 **** 0.0
@<TRIPOS>BOND
1 1 2 1
2 1 3 1
3 1 4 1
4 1 5 1
@<TRIPOS>MOLECULE
CH4
5 4
SMALL
USER_CHARGES


@<TRIPOS>ATOM
1 C 11.933 26.95 12.199 C 0.0 **** 0.0
2 H 10.857 26.778 12.164 H 0.0 **** 0.0
3 H 12.448 26.001 12.352 H 0.0 **** 0.0
4 H 12.165 27.627 13.022 H 0.0 **** 0.0
5 H 12.261 27.395 11.26 H 0.0 **** 0.0
@<TRIPOS>BOND
1 1 2 1
2 1 3 1
3 1 4 1
4 1 5 1
@<TRIPOS>MOLECULE
CH4
5 4
SMALL
USER_CHARGES


@<TRIPOS>ATOM
1 C 83.276 27.673 31.173 C 0.0 **** 0.0
2 H 83.726 28.01 30.239 H 0.0 **** 0.0
3 H 84.057 27.318 31.845 H 0.0 **** 0.0
4 H 82.577 26.862 30.967 H 0.0 **** 0.0
5 H 82.743 28.501 31.639 H 0.0 **** 0.0
@<TRIPOS>BOND
1 1 2 1
2 1 3 1
3 1 4 1
4 1 5 1
@<TRIPOS>MOLECULE
CH4
5 4
SMALL
USER_CHARGES


@<TRIPOS>ATOM
1 C 85.437 41.319 78.826 C 0.0 **** 0.0
2 H 85.238 40.563 78.066 H 0.0 **** 0.0
3 H 86.16 42.039 78.441 H 0.0 **** 0.0
4 H 85.84 40.839 79.718 H 0.0 **** 0.0
5 H 84.51 41.833 79.077 H 0.0 **** 0.0
@<TRIPOS>BOND
1 1 2 1
2 1 3 1
3 1 4 1
4 1 5 1
@<TRIPOS>MOLECULE
CH4
5 4
SMALL
USER_CHARGES


@<TRIPOS>ATOM
1 C 3.263 46.455 11.869 C 0.0 **** 0.0
2 H 3.551 46.276 12.905 H 0.0 **** 0.0
3 H 3.352 45.529 11.301 H 0.0 **** 0.0
4 H 3.917 47.212 11.436 H 0.0 **** 0.0
5 H 2.231 46.805 11.834 H 0.0 **** 0.0
@<TRIPOS>BOND
1 1 2 1
2 1 3 1
3 1 4 1
4 5 1 1
@<TRIPOS>MOLECULE
CH4
5 4
SMALL
USER_CHARGES


@<TRIPOS>ATOM
1 C 10.839 41.393 74.121 C 0.0 **** 0.0
2 H 10.884 41.168 73.055 H 0.0 **** 0.0
3 H 9.82 41.667 74.391 H 0.0 **** 0.0
4 H 11.511 42.222 74.346 H 0.0 **** 0.0
5 H 11.143 40.514 74.69 H 0.0 **** 0.0
@<TRIPOS>BOND
1 1 2 1
2 1 3 1
3 1 4 1
4 1 5 1
@<TRIPOS>MOLECULE
CH4
5 4
SMALL
USER_CHARGES


@<TRIPOS>ATOM
1 C 81.643 9.976 43.955 C 0.0 **** 0.0
2 H 82.522 10.489 43.564 H 0.0 **** 0.0
3 H 80.782 10.642 43.904 H 0.0 **** 0.0
4 H 81.821 9.689 44.991 H 0.0 **** 0.0
5 H 81.449 9.084 43.359 H 0.0 **** 0.0
@<TRIPOS>BOND
1 1 2 1
2 1 3 1
3 1 4 1
4 1 5 1
@<TRIPOS>MOLECULE
CH4
5 4
SMALL
USER_CHARGES


@<TRIPOS>ATOM
1 C 49.183 8.569 51.313 C 0.0 **** 0.0
2 H 48.476 7.742 51.384 H 0.0 **** 0.0
3 H 50.051 8.256 50.733 H 0.0 **** 0.0
4 H 49.5 8.862 52.314 H 0.0 **** 0.0
5 H 48.703 9.415 50.821 H 0.0 **** 0.0
@<TRIPOS>BOND
1 1 2 1
2 1 3 1
3 1 4 1
4 1 5 1
@<TRIPOS>MOLECULE
CH4
5 4
SMALL
USER_CHARGES


@<TRIPOS>ATOM
1 C 64.633 79.644 68.327 C 0.0 **** 0.0
2 H 63.866 79.734 67.557 H 0.0 **** 0.0
3 H 64.448 80.378 69.111 H 0.0 **** 0.0
4 H 65.613 79.821 67.885 H 0.0 **** 0.0
5 H 64.602 78.641 68.753 H 0.0 **** 0.0
@<TRIPOS>BOND
1 1 2 1
2 1 3 1
3 1 4 1
4 1 5 1
@<TRIPOS>MOLECULE
CH4
5 4
SMALL
USER_CHARGES


@<TRIPOS>ATOM
1 C 78.841 24.558 22.985 C 0.0 **** 0.0
2 H 78.682 23.481 23.038 H 0.0 **** 0.0
3 H 78.488 24.929 22.022 H 0.0 **** 0.0
4 H 79.904 24.775 23.091 H 0.0 **** 0.0
5 H 78.288 25.047 23.787 H 0.0 **** 0.0
@<TRIPOS>BOND
1 1 2 1
2 1 3 1
3 1 4 1
4 1 5 1
@<TRIPOS>MOLECULE
CH4
5 4
SMALL
USER_CHARGES


@<TRIPOS>ATOM
1 C 57.315 36.443 36.487 C 0.0 **** 0.0
2 H 58.263 36.291 37.004 H 0.0 **** 0.0
3 H 56.741 35.517 36.503 H 0.0 **** 0.0
4 H 57.507 36.734 35.455 H 0.0 **** 0.0
5 H 56.751 37.229 36.988 H 0.0 **** 0.0
@<TRIPOS>BOND
1 1 2 1
2 1 3 1
3 1 4 1
4 1 5 1
@<TRIPOS>MOLECULE
CH4
5 4
SMALL
USER_CHARGES


@<TRIPOS>ATOM
1 C 50.842 98.164 43.654 C 0.0 **** 0.0
2 H 49.897 97.778 44.036 H 0.0 **** 0.0
3 H 50.706 98.504 42.627 H 0.0 **** 0.0
4 H 51.594 97.376 43.68 H 0.0 **** 0.0
5 H 51.17 99.0 44.273 H 0.0 **** 0.0
@<TRIPOS>BOND
1 1 2 1
2 1 3 1
3 1 4 1
4 1 5 1
@<TRIPOS>MOLECULE
CH4
5 4
SMALL
USER_CHARGES


@<TRIPOS>ATOM
1 C 76.069 82.819 82.671 C 0.0 **** 0.0
2 H 76.353 83.209 83.648 H 0.0 **** 0.0
3 H 74.983 82.833 82.577 H 0.0 **** 0.0
4 H 76.43 81.796 82.569 H 0.0 **** 0.0
5 H 76.51 83.44 81.891 H 0.0 **** 0.0
@<TRIPOS>BOND
1 1 2 1
2 1 3 1
3 1 4 1
4 1 5 1
@<TRIPOS>MOLECULE
CH4
5 4
SMALL
USER_CHARGES


@<TRIPOS>ATOM
1 C 88.054 73.891 46.948 C 0.0 **** 0.0
2 H 87.784 73.584 47.959 H 0.0 **** 0.0
3 H 88.328 73.013 46.363 H 0.0 **** 0.0
4 H 88.9 74.578 46.992 H 0.0 **** 0.0
5 H 87.205 74.39 46.481 H 0.0 **** 0.0
@<TRIPOS>BOND
1 1 2 1
2 1 3 1
3 1 4 1
4 1 5 1
@<TRIPOS>MOLECULE
CH4
5 4
SMALL
USER_CHARGES


@<TRIPOS>ATOM
1 C 32.235 36.15 38.856 C 0.0 **** 0.0
2 H 32.129 36.123 39.94 H 0.0 **** 0.0
3 H 33.129 36.716 38.593 H 0.0 **** 0.0
4 H 31.36 36.628 38.417 H 0.0 **** 0.0
5 H 32.324 35.133 38.474 H 0.0 **** 0.0
@<TRIPOS>BOND
1 1 2 1
2 1 3 1
3 1 4 1
4 1 5 1
@<TRIPOS>MOLECULE
CH4
5 4
SMALL
USER_CHARGES


@<TRIPOS>ATOM
1 C 26.119 26.283 77.806 C 0.0 **** 0.0
2 H 26.401 26.187 78.855 H 0.0 **** 0.0
3 H 26.564 25.469 77.234 H 0.0 **** 0.0
4 H 26.478 27.237 77.42 H 0.0 **** 0.0
5 H 25.033 26.241 77.716 H 0.0 **** 0.0
@<TRIPOS>BOND
1 1 2 1
2 1 3 1
3 1 4 1
4 1 5 1
@<TRIPOS>MOLECULE
CH4
5 4
SMALL
USER_CHARGES


@<TRIPOS>ATOM
1 C 65.168 16.634 31.62 C 0.0 **** 0.0
2 H 64.931 16.807 32.67 H 0.0 **** 0.0
3 H 66.218 16.868 31.441 H 0.0 **** 0.0
4 H 64.542 17.273 30.997 H 0.0 **** 0.0
5 H 64.981 15.589 31.372 H 0.0 **** 0.0
@<TRIPOS>BOND
1 1 5 1
2 1 2 1
3 1 3 1
4 1 4 1
@<TRIPOS>MOLECULE
CH4
5 4
SMALL
USER_CHARGES


@<TRIPOS>ATOM
1 C 36.177 26.832 13.732 C 0.0 **** 0.0
2 H 35.303 27.16 13.17 H 0.0 **** 0.0
3 H 36.709 27.703 14.118 H 0.0 **** 0.0
4 H 36.837 26.264 13.078 H 0.0 **** 0.0
5 H 35.859 26.203 14.563 H 0.0 **** 0.0
@<TRIPOS>BOND
1 1 2 1
2 1 3 1
3 1 4 1
4 1 5 1
@<TRIPOS>MOLECULE
CH4
5 4
SMALL
USER_CHARGES


@<TRIPOS>ATOM
1 C 51.573 61.66 69.863 C 0.0 **** 0.0
2 H 51.076 61.078 70.64 H 0.0 **** 0.0
3 H 50.847 62.312 69.378 H 0.0 **** 0.0
4 H 52.005 60.984 69.125 H 0.0 **** 0.0
5 H 52.363 62.263 70.31 H 0.0 **** 0.0
@<TRIPOS>BOND
1 1 2 1
2 1 3 1
3 1 4 1
4 1 5 1
@<TRIPOS>MOLECULE
CH4
5 4
SMALL
USER_CHARGES


@<TRIPOS>ATOM
1 C 58.759 18.097 56.037 C 0.0 **** 0.0
2 H 58.649 17.96 54.961 H 0.0 **** 0.0
3 H 58.15 17.36 56.561 H 0.0 **** 0.0
4 H 58.432 19.1 56.311 H 0.0 **** 0.0
5 H 59.805 17.967 56.314 H 0.0 **** 0.0
@<TRIPOS>BOND
1 1 2 1
2 1 3 1
3 1 4 1
4 1 5 1
@<TRIPOS>MOLECULE
CH4
5 4
SMALL
USER_CHARGES


@<TRIPOS>ATOM
1 C 83.635 5.183 44.74 C 0.0 **** 0.0
2 H 83.689 6.176 45.184 H 0.0 **** 0.0
3 H 83.176 5.251 43.753 H 0.0 **** 0.0
4 H 83.033 4.533 45.376 H 0.0 **** 0.0
5 H 84.639 4.771 44.647 H 0.0 **** 0.0
@<TRIPOS>BOND
1 1 2 1
2 1 3 1
3 1 4 1
4 1 5 1
@<TRIPOS>MOLECULE
CH4
5 4
SMALL
USER_CHARGES


@<TRIPOS>ATOM
1 C 51.828 20.216 24.704 C 0.0 **** 0.0
2 H 51.958 20.176 25.786 H 0.0 **** 0.0
3 H 52.595 19.61 24.223 H 0.0 **** 0.0
4 H 51.915 21.249 24.367 H 0.0 **** 0.0
5 H 50.842 19.831 24.443 H 0.0 **** 0.0
@<TRIPOS>BOND
1 1 2 1
2 1 3 1
3 1 4 1
4 1 5 1
@<TRIPOS>MOLECULE
CH4
5 4
SMALL
USER_CHARGES


@<TRIPOS>ATOM
1 C 25.101 88.439 92.519 C 0.0 **** 0.0
2 H 25.127 88.645 93.589 H 0.0 **** 0.0
3 H 26.037 88.764 92.063 H 0.0 **** 0.0
4 H 24.269 88.979 92.066 H 0.0 **** 0.0
5 H 24.97 87.369 92.358 H 0.0 **** 0.0
@<TRIPOS>BOND
1 1 2 1
2 1 3 1
3 1 4 1
4 1 5 1
@<TRIPOS>MOLECULE
CH4
5 4
SMALL
USER_CHARGES


@<TRIPOS>ATOM
1 C 52.279 62.549 52.564 C 0.0 **** 0.0
2 H 52.798 62.04 51.752 H 0.0 **** 0.0
3 H 52.088 61.843 53.372 H 0.0 **** 0.0
4 H 51.332 62.946 52.196 H 0.0 **** 0.0
5 H 52.896 63.367 52.934 H 0.0 **** 0.0
@<TRIPOS>BOND
1 1 2 1
2 1 3 1
3 1 4 1
4 1 5 1
@<TRIPOS>MOLECULE
CH4
5 4
SMALL
USER_CHARGES


@<TRIPOS>ATOM
1 C 93.965 83.113 54.394 C 0.0 **** 0.0
2 H 93.922 82.069 54.08 H 0.0 **** 0.0
3 H 94.463 83.703 53.625 H 0.0 **** 0.0
4 H 94.521 83.188 55.328 H 0.0 **** 0.0
5 H 92.953 83.489 54.542 H 0.0 **** 0.0
@<TRIPOS>BOND
1 1 2 1
2 1 3 1
3 1 4 1
4 1 5 1
@<TRIPOS>MOLECULE
CH4
5 4
SMALL
USER_CHARGES


@<TRIPOS>ATOM
1 C 65.87 54.946 17.72 C 0.0 **** 0.0
2 H 66.958 55.008 17.759 H 0.0 **** 0.0
3 H 65.493 54.569 18.671 H 0.0 **** 0.0
4 H 65.574 54.27 16.917 H 0.0 **** 0.0
5 H 65.457 55.937 17.532 H 0.0 **** 0.0
@<TRIPOS>BOND
1 1 2 1
2 1 3 1
3 1 4 1
4 1 5 1
@<TRIPOS>MOLECULE
CH4
5 4
SMALL
USER_CHARGES


@<TRIPOS>ATOM
1 C 39.703 33.975 45.26 C 0.0 **** 0.0
2 H 39.346 34.825 44.679 H 0.0 **** 0.0
3 H 40.751 33.787 45.022 H 0.0 **** 0.0
4 H 39.111 33.093 45.015 H 0.0 **** 0.0
5 H 39.605 34.194 46.323 H 0.0 **** 0.0
@<TRIPOS>BOND
1 1 2 1
2 1 3 1
3 1 4 1
4 1 5 1
@<TRIPOS>MOLECULE
CH4
5 4
SMALL
USER_CHARGES


@<TRIPOS>ATOM
1 C 66.869 50.791 51.867 C 0.0 **** 0.0
2 H 67.34 51.608 52.414 H 0.0 **** 0.0
3 H 67.626 50.057 51.59 H 0.0 **** 0.0
4 H 66.396 51.183 50.966 H 0.0 **** 0.0
5 H 66.116 50.318 52.497 H 0.0 **** 0.0
@<TRIPOS>BOND
1 1 2 1
2 1 3 1
3 1 4 1
4 1 5 1
@<TRIPOS>MOLECULE
CH4
5 4
SMALL
USER_CHARGES


@<TRIPOS>ATOM
1 C 48.5 94.344 6.211 C 0.0 **** 0.0
2 H 47.873 93.472 6.032 H 0.0 **** 0.0
3 H 47.881 95.241 6.224 H 0.0 **** 0.0
4 H 49.243 94.427 5.418 H 0.0 **** 0.0
5 H 49.005 94.237 7.172 H 0.0 **** 0.0
@<TRIPOS>BOND
1 1 2 1
2 1 3 1
3 1 4 1
4 1 5 1
@<TRIPOS>MOLECULE
CH4
5 4
SMALL
USER_CHARGES


@<TRIPOS>ATOM
1 C 7.726 98.103 30.973 C 0.0 **** 0.0
2 H 7.792 97.382 31.788 H 0.0 **** 0.0
3 H 6.778 98.639 31.039 H 0.0 **** 0.0
4 H 7.782 97.578 30.019 H 0.0 **** 0.0
5 H 8.55 98.812 31.047 H 0.0 **** 0.0
@<TRIPOS>BOND
1 1 2 1
2 1 3 1
3 1 4 1
4 1 5 1
@<TRIPOS>MOLECULE
CH4
5 4
SMALL
USER_CHARGES


@<TRIPOS>ATOM
1 C 46.725 25.423 27.335 C 0.0 **** 0.0
2 H 47.66 25.339 27.887 H 0.0 **** 0.0
3 H 46.442 24.443 26.95 H 0.0 **** 0.0
4 H 46.854 26.116 26.504 H 0.0 **** 0.0
5 H 45.943 25.792 27.998 H 0.0 **** 0.0
@<TRIPOS>BOND
1 1 2 1
2 1 3 1
3 1 4 1
4 1 5 1
@<TRIPOS>MOLECULE
CH4
5 4
SMALL
USER_CHARGES


@<TRIPOS>ATOM
1 C 62.793 24.169 81.187 C 0.0 **** 0.0
2 H 62.4 23.613 82.039 H 0.0 **** 0.0
3 H 63.568 23.58 80.697 H 0.0 **** 0.0
4 H 63.215 25.112 81.533 H 0.0 **** 0.0
5 H 61.987 24.369 80.482 H 0.0 **** 0.0
@<TRIPOS>BOND
1 1 2 1
2 1 3 1
3 1 4 1
4 1 5 1
@<TRIPOS>MOLECULE
CH4
5 4
SMALL
USER_CHARGES


@<TRIPOS>ATOM
1 C 37.407 81.57 54.396 C 0.0 **** 0.0
2 H 37.392 81.531 53.306 H 0.0 **** 0.0
3 H 36.401 81.769 54.765 H 0.0 **** 0.0
4 H 38.078 82.365 54.721 H 0.0 **** 0.0
5 H 37.757 80.616 54.788 H 0.0 **** 0.0
@<TRIPOS>BOND
1 1 2 1
2 1 3 1
3 1 4 1
4 1 5 1
@<TRIPOS>MOLECULE
CH4
5 4
SMALL
USER_CHARGES


@<TRIPOS>ATOM
1 C 40.933 9.375 19.672 C 0.0 **** 0.0
2 H 40.879 8.308 19.456 H 0.0 **** 0.0
3 H 41.831 9.583 20.253 H 0.0 **** 0.0
4 H 40.053 9.674 20.242 H 0.0 **** 0.0
5 H 40.967 9.934 18.737 H 0.0 **** 0.0
@<TRIPOS>BOND
1 1 2 1
2 1 3 1
3 1 4 1
4 1 5 1
@<TRIPOS>MOLECULE
CH4
5 4
SMALL
USER_CHARGES


@<TRIPOS>ATOM
1 C 3.367 58.329 56.608 C 0.0 **** 0.0
2 H 3.979 57.905 57.405 H 0.0 **** 0.0
3 H 3.975 58.457 55.713 H 0.0 **** 0.0
4 H 2.977 59.296 56.926 H 0.0 **** 0.0
5 H 2.537 57.656 56.391 H 0.0 **** 0.0
@<TRIPOS>BOND
1 1 2 1
2 1 3 1
3 1 4 1
4 1 5 1
@<TRIPOS>MOLECULE
CH4
5 4
SMALL
USER_CHARGES


@<TRIPOS>ATOM
1 C 67.161 23.923 21.272 C 0.0 **** 0.0
2 H 66.943 24.673 22.033 H 0.0 **** 0.0
3 H 68.028 24.237 20.691 H 0.0 **** 0.0
4 H 66.3 23.815 20.612 H 0.0 **** 0.0
5 H 67.372 22.968 21.754 H 0.0 **** 0.0
@<TRIPOS>BOND
1 1 2 1
2 1 3 1
3 1 4 1
4 1 5 1
@<TRIPOS>MOLECULE
CH4
5 4
SMALL
USER_CHARGES


@<TRIPOS>ATOM
1 C 60.606 90.456 11.325 C 0.0 **** 0.0
2 H 61.369 90.352 12.096 H 0.0 **** 0.0
3 H 60.865 89.832 10.47 H 0.0 **** 0.0
4 H 60.548 91.498 11.01 H 0.0 **** 0.0
5 H 59.641 90.144 11.725 H 0.0 **** 0.0
@<TRIPOS>BOND
1 1 2 1
2 1 3 1
3 1 4 1
4 1 5 1
@<TRIPOS>MOLECULE
CH4
5 4
SMALL
USER_CHARGES


@<TRIPOS>ATOM
1 C 67.19 7.881 16.117 C 0.0 **** 0.0
2 H 67.713 6.942 16.295 H 0.0 **** 0.0
3 H 67.679 8.421 15.305 H 0.0 **** 0.0
4 H 67.213 8.488 17.022 H 0.0 **** 0.0
5 H 66.155 7.675 15.844 H 0.0 **** 0.0
@<TRIPOS>BOND
1 1 2 1
2 1 3 1
3 1 4 1
4 1 5 1
@<TRIPOS>MOLECULE
CH4
5 4
SMALL
USER_CHARGES


@<TRIPOS>ATOM
1 C 22.453 3.627 91.563 C 0.0 **** 0.0
2 H 22.175 3.157 90.619 H 0.0 **** 0.0
3 H 21.616 3.568 92.258 H 0.0 **** 0.0
4 H 22.707 4.672 91.387 H 0.0 **** 0.0
5 H 23.314 3.11 91.986 H 0.0 **** 0.0
@<TRIPOS>BOND
1 1 2 1
2 1 3 1
3 1 4 1
4 1 5 1
@<TRIPOS>MOLECULE
CH4
5 4
SMALL
USER_CHARGES


@<TRIPOS>ATOM
1 C 87.358 2.72 72.687 C 0.0 **** 0.0
2 H 87.834 2.681 71.707 H 0.0 **** 0.0
3 H 88.072 3.089 73.423 H 0.0 **** 0.0
4 H 87.028 1.72 72.97 H 0.0 **** 0.0
5 H 86.498 3.388 72.647 H 0.0 **** 0.0
@<TRIPOS>BOND
1 1 2 1
2 1 3 1
3 1 4 1
4 1 5 1
@<TRIPOS>MOLECULE
CH4
5 4
SMALL
USER_CHARGES


@<TRIPOS>ATOM
1 C 8.675 90.603 14.263 C 0.0 **** 0.0
2 H 7.869 90.96 14.905 H 0.0 **** 0.0
3 H 8.3 89.81 13.616 H 0.0 **** 0.0
4 H 9.486 90.217 14.88 H 0.0 **** 0.0
5 H 9.044 91.428 13.652 H 0.0 **** 0.0
@<TRIPOS>BOND
1 1 2 1
2 1 3 1
3 1 4 1
4 1 5 1
@<TRIPOS>MOLECULE
CH4
5 4
SMALL
USER_CHARGES


@<TRIPOS>ATOM
1 C 44.617 26.564 4.313 C 0.0 **** 0.0
2 H 44.58 26.652 3.227 H 0.0 **** 0.0
3 H 44.491 27.549 4.762 H 0.0 **** 0.0
4 H 45.581 26.149 4.61 H 0.0 **** 0.0
5 H 43.818 25.904 4.651 H 0.0 **** 0.0
@<TRIPOS>BOND
1 1 2 1
2 1 3 1
3 1 4 1
4 1 5 1
@<TRIPOS>MOLECULE
CH4
5 4
SMALL
USER_CHARGES


@<TRIPOS>ATOM
1 C 27.101 43.805 61.156 C 0.0 **** 0.0
2 H 27.035 43.895 62.24 H 0.0 **** 0.0
3 H 26.86 42.784 60.861 H 0.0 **** 0.0
4 H 28.114 44.048 60.832 H 0.0 **** 0.0
5 H 26.396 44.494 60.691 H 0.0 **** 0.0
@<TRIPOS>BOND
1 1 2 1
2 1 3 1
3 1 4 1
4 1 5 1
@<TRIPOS>MOLECULE
CH4
5 4
SMALL
USER_CHARGES


@<TRIPOS>ATOM
1 C 38.586 84.672 89.026 C 0.0 **** 0.0
2 H 38.824 85.461 88.312 H 0.0 **** 0.0
3 H 39.17 83.782 88.791 H 0.0 **** 0.0
4 H 37.524 84.436 88.966 H 0.0 **** 0.0
5 H 38.827 85.009 90.034 H 0.0 **** 0.0
@<TRIPOS>BOND
1 1 2 1
2 1 3 1
3 1 4 1
4 1 5 1
@<TRIPOS>MOLECULE
CH4
5 4
SMALL
USER_CHARGES


@<TRIPOS>ATOM
1 C 54.964 29.099 62.252 C 0.0 **** 0.0
2 H 55.387 29.227 61.255 H 0.0 **** 0.0
3 H 53.877 29.044 62.18 H 0.0 **** 0.0
4 H 55.245 29.946 62.877 H 0.0 **** 0.0
5 H 55.346 28.178 62.693 H 0.0 **** 0.0
@<TRIPOS>BOND
1 1 2 1
2 1 3 1
3 1 4 1
4 1 5 1
@<TRIPOS>MOLECULE
CH4
5 4
SMALL
USER_CHARGES


@<TRIPOS>ATOM
1 C 62.425 3.93 87.881 C 0.0 **** 0.0
2 H 63.319 3.699 87.303 H 0.0 **** 0.0
3 H 61.553 3.499 87.389 H 0.0 **** 0.0
4 H 62.306 5.012 87.95 H 0.0 **** 0.0
5 H 62.522 3.511 88.883 H 0.0 **** 0.0
@<TRIPOS>BOND
1 1 2 1
2 1 3 1
3 1 4 1
4 1 5 1
@<TRIPOS>MOLECULE
CH4
5 4
SMALL
USER_CHARGES


@<TRIPOS>ATOM
1 C 91.091 33.991 89.642 C 0.0 **** 0.0
2 H 90.911 34.059 88.569 H 0.0 **** 0.0
3 H 92.161 33.888 89.825 H 0.0 **** 0.0
4 H 90.568 33.124 90.044 H 0.0 **** 0.0
5 H 90.724 34.895 90.129 H 0.0 **** 0.0
@<TRIPOS>BOND
1 1 2 1
2 1 3 1
3 1 4 1
4 1 5 1
@<TRIPOS>MOLECULE
CH4
5 4
SMALL
USER_CHARGES


@<TRIPOS>ATOM
1 C 79.346 35.355 16.889 C 0.0 **** 0.0
2 H 79.412 35.68 17.927 H 0.0 **** 0.0
3 H 79.359 34.266 16.848 H 0.0 **** 0.0
4 H 80.196 35.75 16.331 H 0.0 **** 0.0
5 H 78.42 35.725 16.45 H 0.0 **** 0.0
@<TRIPOS>BOND
1 1 2 1
2 1 3 1
3 1 4 1
4 1 5 1
@<TRIPOS>MOLECULE
CH4
5 4
SMALL
USER_CHARGES


@<TRIPOS>ATOM
1 C 69.86 7.245 77.618 C 0.0 **** 0.0
2 H 69.893 7.987 76.82 H 0.0 **** 0.0
3 H 69.043 7.481 78.3 H 0.0 **** 0.0
4 H 70.804 7.258 78.164 H 0.0 **** 0.0
5 H 69.702 6.256 77.189 H 0.0 **** 0.0
@<TRIPOS>BOND
1 1 2 1
2 1 3 1
3 1 4 1
4 1 5 1
@<TRIPOS>MOLECULE
CH4
5 4
SMALL
USER_CHARGES


@<TRIPOS>ATOM
1 C 47.551 82.573 5.938 C 0.0 **** 0.0
2 H 46.977 81.704 6.26 H 0.0 **** 0.0
3 H 48.545 82.537 6.385 H 0.0 **** 0.0
4 H 47.042 83.482 6.257 H 0.0 **** 0.0
5 H 47.64 82.567 4.852 H 0.0 **** 0.0
@<TRIPOS>BOND
1 1 5 1
2 1 2 1
3 1 3 1
4 1 4 1
@<TRIPOS>MOLECULE
CH4
5 4
SMALL
USER_CHARGES


@<TRIPOS>ATOM
1 C 63.479 91.858 69.09 C 0.0 **** 0.0
2 H 63.947 92.843 69.099 H 0.0 **** 0.0
3 H 62.633 91.853 69.778 H 0.0 **** 0.0
4 H 64.206 91.109 69.402 H 0.0 **** 0.0
5 H 63.131 91.63 68.083 H 0.0 **** 0.0
@<TRIPOS>BOND
1 1 3 1
2 1 4 1
3 1 5 1
4 1 2 1
@<TRIPOS>MOLECULE
CH4
5 4
SMALL
USER_CHARGES


@<TRIPOS>ATOM
1 C 1.938 69.947 48.491 C 0.0 **** 0.0
2 H 2.43 70.658 49.154 H 0.0 **** 0.0
3 H 2.604 69.7 47.664 H 0.0 **** 0.0
4 H 1.021 70.389 48.099 H 0.0 **** 0.0
5 H 1.695 69.04 49.045 H 0.0 **** 0.0
@<TRIPOS>BOND
1 1 2 1
2 1 3 1
3 1 4 1
4 1 5 1
@<TRIPOS>MOLECULE
CH4
5 4
SMALL
USER_CHARGES


@<TRIPOS>ATOM
1 C 38.594 5.661 13.419 C 0.0 **** 0.0
2 H 38.134 6.326 14.15 H 0.0 **** 0.0
3 H 38.822 4.705 13.892 H 0.0 **** 0.0
4 H 39.515 6.111 13.048 H 0.0 **** 0.0
5 H 37.907 5.501 12.589 H 0.0 **** 0.0
@<TRIPOS>BOND
1 1 2 1
2 1 3 1
3 1 4 1
4 1 5 1
@<TRIPOS>MOLECULE
CH4
5 4
SMALL
USER_CHARGES


@<TRIPOS>ATOM
1 C 96.511 76.555 15.391 C 0.0 **** 0.0
2 H 95.482 76.54 15.749 H 0.0 **** 0.0
3 H 97.189 76.665 16.237 H 0.0 **** 0.0
4 H 96.645 77.393 14.707 H 0.0 **** 0.0
5 H 96.728 75.623 14.869 H 0.0 **** 0.0
@<TRIPOS>BOND
1 1 2 1
2 1 3 1
3 1 4 1
4 1 5 1
@<TRIPOS>MOLECULE
CH4
5 4
SMALL
USER_CHARGES


@<TRIPOS>ATOM
1 C 40.006 42.766 57.905 C 0.0 **** 0.0
2 H 39.09 43.193 58.312 H 0.0 **** 0.0
3 H 39.971 41.68 57.994 H 0.0 **** 0.0
4 H 40.863 43.15 58.459 H 0.0 **** 0.0
5 H 40.1 43.043 56.855 H 0.0 **** 0.0
@<TRIPOS>BOND
1 1 2 1
2 1 3 1
3 1 4 1
4 1 5 1
@<TRIPOS>MOLECULE
CH4
5 4
SMALL
USER_CHARGES


@<TRIPOS>ATOM
1 C 91.813 59.838 54.723 C 0.0 **** 0.0
2 H 92.479 60.629 55.07 H 0.0 **** 0.0
3 H 91.871 58.989 55.406 H 0.0 **** 0.0
4 H 92.114 59.522 53.724 H 0.0 **** 0.0
5 H 90.79 60.212 54.693 H 0.0 **** 0.0
@<TRIPOS>BOND
1 1 2 1
2 1 3 1
3 1 4 1
4 1 5 1
@<TRIPOS>MOLECULE
CH4
5 4
SMALL
USER_CHARGES


@<TRIPOS>ATOM
1 C 86.77 18.599 90.019 C 0.0 **** 0.0
2 H 86.791 18.504 88.933 H 0.0 **** 0.0
3 H 87.745 18.935 90.372 H 0.0 **** 0.0
4 H 86.534 17.633 90.463 H 0.0 **** 0.0
5 H 86.01 19.326 90.304 H 0.0 **** 0.0
@<TRIPOS>BOND
1 1 2 1
2 1 3 1
3 1 4 1
4 1 5 1
@<TRIPOS>MOLECULE
CH4
5 4
SMALL
USER_CHARGES


@<TRIPOS>ATOM
1 C 93.79 39.279 16.889 C 0.0 **** 0.0
2 H 93.574 38.661 17.76 H 0.0 **** 0.0
3 H 94.294 38.677 16.132 H 0.0 **** 0.0
4 H 94.435 40.107 17.183 H 0.0 **** 0.0
5 H 92.859 39.671 16.481 H 0.0 **** 0.0
@<TRIPOS>BOND
1 1 2 1
2 1 3 1
3 1 4 1
4 1 5 1
@<TRIPOS>MOLECULE
CH4
5 4
SMALL
USER_CHARGES


@<TRIPOS>ATOM
1 C 95.352 21.634 38.711 C 0.0 **** 0.0
2 H 96.013 22.437 38.386 H 0.0 **** 0.0
3 H 95.201 20.933 37.89 H 0.0 **** 0.0
4 H 94.392 22.055 39.012 H 0.0 **** 0.0
5 H 95.801 21.114 39.557 H 0.0 **** 0.0
@<TRIPOS>BOND
1 1 5 1
2 1 2 1
3 1 3 1
4 1 4 1
@<TRIPOS>MOLECULE
CH4
5 4
SMALL
USER_CHARGES


@<TRIPOS>ATOM
1 C 45.227 56.42 28.086 C 0.0 **** 0.0
2 H 44.472 57.025 27.583 H 0.0 **** 0.0
3 H 44.966 56.316 29.14 H 0.0 **** 0.0
4 H 46.199 56.905 27.998 H 0.0 **** 0.0
5 H 45.269 55.434 27.624 H 0.0 **** 0.0
@<TRIPOS>BOND
1 1 2 1
2 1 3 1
3 1 4 1
4 1 5 1
@<TRIPOS>MOLECULE
CH4
5 4
SMALL
USER_CHARGES


@<TRIPOS>ATOM
1 C 65.939 17.26 81.35 C 0.0 **** 0.0
2 H 65.289 16.896 82.145 H 0.0 **** 0.0
3 H 66.924 16.806 81.449 H 0.0 **** 0.0
4 H 66.029 18.344 81.423 H 0.0 **** 0.0
5 H 65.511 16.996 80.382 H 0.0 **** 0.0
@<TRIPOS>BOND
1 1 2 1
2 1 3 1
3 1 4 1
4 1 5 1
@<TRIPOS>MOLECULE
CH4
5 4
SMALL
USER_CHARGES


@<TRIPOS>ATOM
1 C 27.365 13.959 11.755 C 0.0 **** 0.0
2 H 26.3 13.998 11.527 H 0.0 **** 0.0
3 H 27.539 14.372 12.749 H 0.0 **** 0.0
4 H 27.917 14.541 11.018 H 0.0 **** 0.0
5 H 27.704 12.923 11.728 H 0.0 **** 0.0
@<TRIPOS>BOND
1 1 2 1
2 1 3 1
3 1 4 1
4 1 5 1
@<TRIPOS>MOLECULE
CH4
5 4
SMALL
USER_CHARGES


@<TRIPOS>ATOM
1 C 79.349 35.144 80.552 C 0.0 **** 0.0
2 H 79.077 35.533 81.533 H 0.0 **** 0.0
3 H 78.924 34.148 80.426 H 0.0 **** 0.0
4 H 80.434 35.09 80.471 H 0.0 **** 0.0
5 H 78.959 35.806 79.779 H 0.0 **** 0.0
@<TRIPOS>BOND
1 1 2 1
2 1 3 1
3 1 4 1
4 1 5 1
@<TRIPOS>MOLECULE
CH4
5 4
SMALL
USER_CHARGES


@<TRIPOS>ATOM
1 C 47.836 40.983 54.441 C 0.0 **** 0.0
2 H 47.651 41.934 54.941 H 0.0 **** 0.0
3 H 47.036 40.788 53.726 H 0.0 **** 0.0
4 H 47.866 40.184 55.181 H 0.0 **** 0.0
5 H 48.79 41.028 53.916 H 0.0 **** 0.0
@<TRIPOS>BOND
1 1 2 1
2 1 3 1
3 1 4 1
4 1 5 1
@<TRIPOS>MOLECULE
CH4
5 4
SMALL
USER_CHARGES


@<TRIPOS>ATOM
1 C 70.497 74.684 25.655 C 0.0 **** 0.0
2 H 70.277 75.475 26.372 H 0.0 **** 0.0
3 H 69.708 73.932 25.691 H 0.0 **** 0.0
4 H 71.452 74.222 25.907 H 0.0 **** 0.0
5 H 70.551 75.107 24.652 H 0.0 **** 0.0
@<TRIPOS>BOND
1 1 2 1
2 1 3 1
3 1 4 1
4 1 5 1
@<TRIPOS>MOLECULE
CH4
5 4
SMALL
USER_CHARGES


@<TRIPOS>ATOM
1 C 36.992 85.113 85.858 C 0.0 **** 0.0
2 H 37.917 84.543 85.775 H 0.0 **** 0.0
3 H 36.936 85.572 86.846 H 0.0 **** 0.0
4 H 36.141 84.447 85.717 H 0.0 **** 0.0
5 H 36.976 85.891 85.095 H 0.0 **** 0.0
@<TRIPOS>BOND
1 1 2 1
2 1 3 1
3 1 4 1
4 1 5 1
@<TRIPOS>MOLECULE
CH4
5 4
SMALL
USER_CHARGES


@<TRIPOS>ATOM
1 C 10.927 91.561 58.132 C 0.0 **** 0.0
2 H 10.25 92.352 57.809 H 0.0 **** 0.0
3 H 11.928 91.971 58.263 H 0.0 **** 0.0
4 H 10.952 90.774 57.379 H 0.0 **** 0.0
5 H 10.577 91.148 59.078 H 0.0 **** 0.0
@<TRIPOS>BOND
1 1 2 1
2 1 3 1
3 1 4 1
4 1 5 1
@<TRIPOS>MOLECULE
CH4
5 4
SMALL
USER_CHARGES


@<TRIPOS>ATOM
1 C 41.028 51.411 8.091 C 0.0 **** 0.0
2 H 41.065 52.409 7.655 H 0.0 **** 0.0
3 H 40.483 50.743 7.424 H 0.0 **** 0.0
4 H 40.521 51.455 9.055 H 0.0 **** 0.0
5 H 42.043 51.038 8.231 H 0.0 **** 0.0
@<TRIPOS>BOND
1 1 2 1
2 1 3 1
3 1 4 1
4 1 5 1
@<TRIPOS>MOLECULE
CH4
5 4
SMALL
USER_CHARGES


@<TRIPOS>ATOM
1 C 95.757 21.349 30.757 C 0.0 **** 0.0
2 H 96.175 22.116 31.409 H 0.0 **** 0.0
3 H 96.107 20.368 31.08 H 0.0 **** 0.0
4 H 96.078 21.53 29.731 H 0.0 **** 0.0
5 H 94.669 21.382 30.809 H 0.0 **** 0.0
@<TRIPOS>BOND
1 1 2 1
2 1 3 1
3 1 4 1
4 1 5 1
@<TRIPOS>MOLECULE
CH4
5 4
SMALL
USER_CHARGES


@<TRIPOS>ATOM
1 C 74.288 56.13 1.021 C 0.0 **** 0.0
2 H 74.701 55.381 1.697 H 0.0 **** 0.0
3 H 73.202 56.146 1.117 H 0.0 **** 0.0
4 H 74.559 55.882 -0.005 H 0.0 **** 0.0
5 H 74.69 57.11 1.277 H 0.0 **** 0.0
@<TRIPOS>BOND
1 1 2 1
2 1 3 1
3 1 4 1
4 1 5 1
@<TRIPOS>MOLECULE
CH4
5 4
SMALL
USER_CHARGES


@<TRIPOS>ATOM
1 C 79.896 45.456 51.864 C 0.0 **** 0.0
2 H 79.936 45.446 50.774 H 0.0 **** 0.0
3 H 80.777 45.965 52.255 H 0.0 **** 0.0
4 H 79.872 44.431 52.236 H 0.0 **** 0.0
5 H 78.998 45.981 52.189 H 0.0 **** 0.0
@<TRIPOS>BOND
1 1 3 1
2 1 2 1
3 1 5 1
4 1 4 1
@<TRIPOS>MOLECULE
CH4
5 4
SMALL
USER_CHARGES


@<TRIPOS>ATOM
1 C 68.374 62.955 35.891 C 0.0 **** 0.0
2 H 67.448 63.235 36.394 H 0.0 **** 0.0
3 H 68.519 61.877 35.973 H 0.0 **** 0.0
4 H 69.211 63.472 36.359 H 0.0 **** 0.0
5 H 68.315 63.235 34.839 H 0.0 **** 0.0
@<TRIPOS>BOND
1 1 2 1
2 1 3 1
3 1 4 1
4 1 5 1
@<TRIPOS>MOLECULE
CH4
5 4
SMALL
USER_CHARGES


@<TRIPOS>ATOM
1 C 72.276 27.308 31.535 C 0.0 **** 0.0
2 H 72.579 28.032 30.779 H 0.0 **** 0.0
3 H 72.875 27.449 32.435 H 0.0 **** 0.0
4 H 72.427 26.299 31.152 H 0.0 **** 0.0
5 H 71.222 27.451 31.773 H 0.0 **** 0.0
@<TRIPOS>BOND
1 1 2 1
2 1 3 1
3 1 4 1
4 1 5 1
@<TRIPOS>MOLECULE
CH4
5 4
SMALL
USER_CHARGES


@<TRIPOS>ATOM
1 C 44.628 42.442 58.194 C 0.0 **** 0.0
2 H 45.002 41.48 58.545 H 0.0 **** 0.0
3 H 43.559 42.364 57.993 H 0.0 **** 0.0
4 H 45.15 42.723 57.28 H 0.0 **** 0.0
5 H 44.8 43.199 58.959 H 0.0 **** 0.0
@<TRIPOS>BOND
1 1 2 1
2 1 3 1
3 1 4 1
4 1 5 1
@<TRIPOS>MOLECULE
CH4
5 4
SMALL
USER_CHARGES


@<TRIPOS>ATOM
1 C 27.648 49.128 25.585 C 0.0 **** 0.0
2 H 28.198 48.216 25.816 H 0.0 **** 0.0
3 H 26.737 49.163 26.182 H 0.0 **** 0.0
4 H 27.39 49.139 24.526 H 0.0 **** 0.0
5 H 28.269 49.994 25.817 H 0.0 **** 0.0
@<TRIPOS>BOND
1 1 2 1
2 1 3 1
3 1 4 1
4 1 5 1
@<TRIPOS>MOLECULE
CH4
5 4
SMALL
USER_CHARGES


@<TRIPOS>ATOM
1 C 82.874 94.52 4.338 C 0.0 **** 0.0
2 H 82.56 93.686 3.71 H 0.0 **** 0.0
3 H 82.75 94.251 5.387 H 0.0 **** 0.0
4 H 82.263 95.394 4.112 H 0.0 **** 0.0
5 H 83.921 94.748 4.142 H 0.0 **** 0.0
@<TRIPOS>BOND
1 1 4 1
2 1 5 1
3 1 2 1
4 1 3 1
@<TRIPOS>MOLECULE
CH4
5 4
SMALL
USER_CHARGES


@<TRIPOS>ATOM
1 C 68.019 77.68 78.465 C 0.0 **** 0.0
2 H 67.878 78.586 79.055 H 0.0 **** 0.0
3 H 68.188 76.834 79.132 H 0.0 **** 0.0
4 H 68.882 77.805 77.81 H 0.0 **** 0.0
5 H 67.129 77.497 77.863 H 0.0 **** 0.0
@<TRIPOS>BOND
1 1 2 1
2 1 3 1
3 1 4 1
4 1 5 1
@<TRIPOS>MOLECULE
CH4
5 4
SMALL
USER_CHARGES


@<TRIPOS>ATOM
1 C 61.901 28.267 38.834 C 0.0 **** 0.0
2 H 62.473 27.6 39.479 H 0.0 **** 0.0
3 H 62.254 28.172 37.807 H 0.0 **** 0.0
4 H 62.03 29.296 39.17 H 0.0 **** 0.0
5 H 60.845 28.0 38.881 H 0.0 **** 0.0
@<TRIPOS>BOND
1 1 2 1
2 1 3 1
3 1 4 1
4 1 5 1
@<TRIPOS>MOLECULE
CH4
5 4
SMALL
USER_CHARGES


@<TRIPOS>ATOM
1 C 24.949 93.938 64.278 C 0.0 **** 0.0
2 H 24.338 94.819 64.475 H 0.0 **** 0.0
3 H 24.449 93.054 64.676 H 0.0 **** 0.0
4 H 25.919 94.055 64.76 H 0.0 **** 0.0
5 H 25.088 93.825 63.203 H 0.0 **** 0.0
@<TRIPOS>BOND
1 1 2 1
2 1 3 1
3 1 4 1
4 1 5 1
@<TRIPOS>MOLECULE
CH4
5 4
SMALL
USER_CHARGES


@<TRIPOS>ATOM
1 C 11.639 14.127 50.72 C 0.0 **** 0.0
2 H 11.207 13.802 51.667 H 0.0 **** 0.0
3 H 10.892 14.684 50.153 H 0.0 **** 0.0
4 H 11.956 13.256 50.148 H 0.0 **** 0.0
5 H 12.499 14.768 50.915 H 0.0 **** 0.0
@<TRIPOS>BOND
1 1 2 1
2 1 3 1
3 1 4 1
4 1 5 1
@<TRIPOS>MOLECULE
CH4
5 4
SMALL
USER_CHARGES


@<TRIPOS>ATOM
1 C 91.886 63.971 12.064 C 0.0 **** 0.0
2 H 92.27 63.125 11.493 H 0.0 **** 0.0
3 H 92.388 64.014 13.031 H 0.0 **** 0.0
4 H 90.813 63.849 12.215 H 0.0 **** 0.0
5 H 92.073 64.894 11.515 H 0.0 **** 0.0
@<TRIPOS>BOND
1 1 2 1
2 1 3 1
3 1 4 1
4 1 5 1
@<TRIPOS>MOLECULE
CH4
5 4
SMALL
USER_CHARGES


@<TRIPOS>ATOM
1 C 94.772 16.62 25.49 C 0.0 **** 0.0
2 H 95.273 16.681 26.457 H 0.0 **** 0.0
3 H 95.197 15.798 24.913 H 0.0 **** 0.0
4 H 94.913 17.555 24.948 H 0.0 **** 0.0
5 H 93.708 16.445 25.643 H 0.0 **** 0.0
@<TRIPOS>BOND
1 1 2 1
2 1 3 1
3 1 4 1
4 1 5 1
@<TRIPOS>MOLECULE
CH4
5 4
SMALL
USER_CHARGES


@<TRIPOS>ATOM
1 C 92.494 62.826 56.572 C 0.0 **** 0.0
2 H 92.493 62.819 55.482 H 0.0 **** 0.0
3 H 91.67 62.213 56.94 H 0.0 **** 0.0
4 H 92.374 63.849 56.929 H 0.0 **** 0.0
5 H 93.439 62.422 56.936 H 0.0 **** 0.0
@<TRIPOS>BOND
1 1 2 1
2 1 3 1
3 1 4 1
4 1 5 1
@<TRIPOS>MOLECULE
CH4
5 4
SMALL
USER_CHARGES


@<TRIPOS>ATOM
1 C 38.562 17.053 28.0 C 0.0 **** 0.0
2 H 38.736 17.194 29.067 H 0.0 **** 0.0
3 H 39.518 16.936 27.489 H 0.0 **** 0.0
4 H 38.039 17.922 27.6 H 0.0 **** 0.0
5 H 37.955 16.161 27.846 H 0.0 **** 0.0
@<TRIPOS>BOND
1 1 3 1
2 1 4 1
3 1 2 1
4 1 5 1
@<TRIPOS>MOLECULE
CH4
5 4
SMALL
USER_CHARGES


@<TRIPOS>ATOM
1 C 55.09 3.604 15.723 C 0.0 **** 0.0
2 H 54.958 2.944 16.58 H 0.0 **** 0.0
3 H 55.492 4.56 16.06 H 0.0 **** 0.0
4 H 54.128 3.765 15.237 H 0.0 **** 0.0
5 H 55.782 3.147 15.016 H 0.0 **** 0.0
@<TRIPOS>BOND
1 1 2 1
2 1 3 1
3 1 4 1
4 1 5 1
@<TRIPOS>MOLECULE
CH4
5 4
SMALL
USER_CHARGES


@<TRIPOS>ATOM
1 C 45.695 17.567 49.734 C 0.0 **** 0.0
2 H 45.675 18.628 49.983 H 0.0 **** 0.0
3 H 46.318 17.037 50.455 H 0.0 **** 0.0
4 H 46.107 17.437 48.733 H 0.0 **** 0.0
5 H 44.682 17.168 49.765 H 0.0 **** 0.0
@<TRIPOS>BOND
1 1 2 1
2 1 3 1
3 1 4 1
4 1 5 1
@<TRIPOS>MOLECULE
CH4
5 4
SMALL
USER_CHARGES


@<TRIPOS>ATOM
1 C 40.246 45.396 60.025 C 0.0 **** 0.0
2 H 39.647 44.513 60.252 H 0.0 **** 0.0
3 H 39.601 46.274 59.998 H 0.0 **** 0.0
4 H 40.728 45.268 59.056 H 0.0 **** 0.0
5 H 41.006 45.526 60.795 H 0.0 **** 0.0
@<TRIPOS>BOND
1 1 2 1
2 1 3 1
3 1 4 1
4 1 5 1
@<TRIPOS>MOLECULE
CH4
5 4
SMALL
USER_CHARGES


@<TRIPOS>ATOM
1 C 86.96 66.877 88.399 C 0.0 **** 0.0
2 H 86.711 67.445 89.295 H 0.0 **** 0.0
3 H 86.201 66.112 88.23 H 0.0 **** 0.0
4 H 87.932 66.401 88.529 H 0.0 **** 0.0
5 H 86.996 67.549 87.541 H 0.0 **** 0.0
@<TRIPOS>BOND
1 1 2 1
2 1 3 1
3 1 4 1
4 1 5 1
@<TRIPOS>MOLECULE
CH4
5 4
SMALL
USER_CHARGES


@<TRIPOS>ATOM
1 C 70.442 58.725 96.425 C 0.0 **** 0.0
2 H 71.341 59.17 96.852 H 0.0 **** 0.0
3 H 69.58 59.346 96.667 H 0.0 **** 0.0
4 H 70.299 57.727 96.839 H 0.0 **** 0.0
5 H 70.55 58.658 95.342 H 0.0 **** 0.0
@<TRIPOS>BOND
1 1 2 1
2 1 3 1
3 1 4 1
4 1 5 1
@<TRIPOS>MOLECULE
CH4
5 4
SMALL
USER_CHARGES


@<TRIPOS>ATOM
1 C 6.658 45.331 19.692 C 0.0 **** 0.0
2 H 6.021 45.251 20.573 H 0.0 **** 0.0
3 H 6.166 45.952 18.943 H 0.0 **** 0.0
4 H 6.835 44.337 19.281 H 0.0 **** 0.0
5 H 7.609 45.784 19.972 H 0.0 **** 0.0
@<TRIPOS>BOND
1 1 2 1
2 1 3 1
3 1 4 1
4 1 5 1
@<TRIPOS>MOLECULE
CH4
5 4
SMALL
USER_CHARGES


@<TRIPOS>ATOM
1 C 48.678 23.916 84.124 C 0.0 **** 0.0
2 H 49.321 23.264 83.533 H 0.0 **** 0.0
3 H 48.198 24.643 83.47 H 0.0 **** 0.0
4 H 49.278 24.437 84.87 H 0.0 **** 0.0
5 H 47.916 23.318 84.624 H 0.0 **** 0.0
@<TRIPOS>BOND
1 1 2 1
2 1 3 1
3 1 4 1
4 1 5 1
@<TRIPOS>MOLECULE
CH4
5 4
SMALL
USER_CHARGES


@<TRIPOS>ATOM
1 C 98.105 40.55 82.666 C 0.0 **** 0.0
2 H 98.279 39.495 82.456 H 0.0 **** 0.0
3 H 97.182 40.66 83.236 H 0.0 **** 0.0
4 H 98.021 41.098 81.728 H 0.0 **** 0.0
5 H 98.939 40.948 83.245 H 0.0 **** 0.0
@<TRIPOS>BOND
1 1 2 1
2 1 3 1
3 1 4 1
4 1 5 1
@<TRIPOS>MOLECULE
CH4
5 4
SMALL
USER_CHARGES


@<TRIPOS>ATOM
1 C 94.65 9.601 14.362 C 0.0 **** 0.0
2 H 94.8 8.654 13.843 H 0.0 **** 0.0
3 H 94.92 10.424 13.7 H 0.0 **** 0.0
4 H 95.277 9.629 15.253 H 0.0 **** 0.0
5 H 93.603 9.695 14.651 H 0.0 **** 0.0
@<TRIPOS>BOND
1 1 2 1
2 1 3 1
3 1 4 1
4 1 5 1
@<TRIPOS>MOLECULE
CH4
5 4
SMALL
USER_CHARGES


@<TRIPOS>ATOM
1 C 82.75 12.367 92.731 C 0.0 **** 0.0
2 H 83.113 11.584 93.396 H 0.0 **** 0.0
3 H 81.731 12.136 92.42 H 0.0 **** 0.0
4 H 83.393 12.425 91.853 H 0.0 **** 0.0
5 H 82.763 13.323 93.254 H 0.0 **** 0.0
@<TRIPOS>BOND
1 1 2 1
2 1 3 1
3 1 4 1
4 1 5 1
@<TRIPOS>MOLECULE
CH4
5 4
SMALL
USER_CHARGES


@<TRIPOS>ATOM
1 C 64.551 29.238 64.7 C 0.0 **** 0.0
2 H 64.846 30.03 65.388 H 0.0 **** 0.0
3 H 63.511 29.38 64.407 H 0.0 **** 0.0
4 H 64.663 28.271 65.189 H 0.0 **** 0.0
5 H 65.186 29.273 63.814 H 0.0 **** 0.0
@<TRIPOS>BOND
1 1 2 1
2 1 3 1
3 1 4 1
4 1 5 1
@<TRIPOS>MOLECULE
CH4
5 4
SMALL
USER_CHARGES


@<TRIPOS>ATOM
1 C 20.712 36.977 36.574 C 0.0 **** 0.0
2 H 20.466 36.161 35.895 H 0.0 **** 0.0
3 H 21.519 37.573 36.148 H 0.0 **** 0.0
4 H 21.028 36.568 37.533 H 0.0 **** 0.0
5 H 19.833 37.606 36.718 H 0.0 **** 0.0
@<TRIPOS>BOND
1 1 2 1
2 1 3 1
3 1 4 1
4 1 5 1
@<TRIPOS>MOLECULE
CH4
5 4
SMALL
USER_CHARGES


@<TRIPOS>ATOM
1 C 65.796 6.226 94.108 C 0.0 **** 0.0
2 H 66.262 6.683 93.236 H 0.0 **** 0.0
3 H 64.713 6.332 94.039 H 0.0 **** 0.0
4 H 66.153 6.721 95.012 H 0.0 **** 0.0
5 H 66.056 5.168 94.147 H 0.0 **** 0.0
@<TRIPOS>BOND
1 1 2 1
2 1 3 1
3 1 4 1
4 1 5 1
@<TRIPOS>MOLECULE
CH4
5 4
SMALL
USER_CHARGES


@<TRIPOS>ATOM
1 C 71.086 50.638 90.199 C 0.0 **** 0.0
2 H 70.312 50.041 90.681 H 0.0 **** 0.0
3 H 71.966 50.679 90.843 H 0.0 **** 0.0
4 H 70.713 51.647 90.028 H 0.0 **** 0.0
5 H 71.355 50.182 89.246 H 0.0 **** 0.0
@<TRIPOS>BOND
1 1 2 1
2 1 3 1
3 1 4 1
4 1 5 1
@<TRIPOS>MOLECULE
CH4
5 4
SMALL
USER_CHARGES


@<TRIPOS>ATOM
1 C 76.239 25.434 51.29 C 0.0 **** 0.0
2 H 77.117 25.086 50.746 H 0.0 **** 0.0
3 H 75.569 24.594 51.474 H 0.0 **** 0.0
4 H 75.721 26.19 50.7 H 0.0 **** 0.0
5 H 76.55 25.866 52.242 H 0.0 **** 0.0
@<TRIPOS>BOND
1 1 2 1
2 1 3 1
3 1 4 1
4 1 5 1
@<TRIPOS>MOLECULE
CH4
5 4
SMALL
USER_CHARGES


@<TRIPOS>ATOM
1 C 37.563 42.364 17.013 C 0.0 **** 0.0
2 H 37.791 41.617 17.773 H 0.0 **** 0.0
3 H 37.972 42.044 16.055 H 0.0 **** 0.0
4 H 38.008 43.318 17.298 H 0.0 **** 0.0
5 H 36.483 42.478 16.928 H 0.0 **** 0.0
@<TRIPOS>BOND
1 1 2 1
2 1 3 1
3 1 4 1
4 1 5 1
@<TRIPOS>MOLECULE
CH4
5 4
SMALL
USER_CHARGES


@<TRIPOS>ATOM
1 C 34.76 96.515 86.728 C 0.0 **** 0.0
2 H 35.777 96.207 86.971 H 0.0 **** 0.0
3 H 34.67 96.652 85.65 H 0.0 **** 0.0
4 H 34.535 97.454 87.234 H 0.0 **** 0.0
5 H 34.06 95.747 87.058 H 0.0 **** 0.0
@<TRIPOS>BOND
1 1 5 1
2 1 3 1
3 1 2 1
4 1 4 1
@<TRIPOS>MOLECULE
CH4
5 4
SMALL
USER_CHARGES


@<TRIPOS>ATOM
1 C 35.485 42.532 54.567 C 0.0 **** 0.0
2 H 35.221 41.703 53.911 H 0.0 **** 0.0
3 H 34.586 42.91 55.055 H 0.0 **** 0.0
4 H 35.942 43.328 53.979 H 0.0 **** 0.0
5 H 36.191 42.187 55.322 H 0.0 **** 0.0
@<TRIPOS>BOND
1 1 2 1
2 1 3 1
3 1 4 1
4 1 5 1
@<TRIPOS>MOLECULE
CH4
5 4
SMALL
USER_CHARGES


@<TRIPOS>ATOM
1 C 4.832 17.544 65.132 C 0.0 **** 0.0
2 H 5.026 17.857 66.157 H 0.0 **** 0.0
3 H 5.599 16.836 64.817 H 0.0 **** 0.0
4 H 4.85 18.415 64.477 H 0.0 **** 0.0
5 H 3.853 17.067 65.076 H 0.0 **** 0.0
@<TRIPOS>BOND
1 1 2 1
2 1 3 1
3 1 4 1
4 1 5 1
@<TRIPOS>MOLECULE
CH4
5 4
SMALL
USER_CHARGES


@<TRIPOS>ATOM
1 C 49.844 20.049 68.439 C 0.0 **** 0.0
2 H 49.847 19.135 69.032 H 0.0 **** 0.0
3 H 50.071 20.9 69.082 H 0.0 **** 0.0
4 H 48.86 20.187 67.988 H 0.0 **** 0.0
5 H 50.596 19.975 67.653 H 0.0 **** 0.0
@<TRIPOS>BOND
1 1 2 1
2 1 3 1
3 1 4 1
4 1 5 1
@<TRIPOS>MOLECULE
CH4
5 4
SMALL
USER_CHARGES


@<TRIPOS>ATOM
1 C 11.178 22.305 26.339 C 0.0 **** 0.0
2 H 10.42 23.084 26.252 H 0.0 **** 0.0
3 H 10.818 21.522 27.007 H 0.0 **** 0.0
4 H 12.094 22.735 26.743 H 0.0 **** 0.0
5 H 11.378 21.881 25.355 H 0.0 **** 0.0
@<TRIPOS>BOND
1 1 2 1
2 1 3 1
3 1 4 1
4 1 5 1
@<TRIPOS>MOLECULE
CH4
5 4
SMALL
USER_CHARGES


@<TRIPOS>ATOM
1 C 11.733 32.94 95.008 C 0.0 **** 0.0
2 H 11.141 32.746 94.114 H 0.0 **** 0.0
3 H 11.84 32.017 95.58 H 0.0 **** 0.0
4 H 11.233 33.691 95.619 H 0.0 **** 0.0
5 H 12.719 33.305 94.719 H 0.0 **** 0.0
@<TRIPOS>BOND
1 1 2 1
2 1 3 1
3 1 4 1
4 1 5 1
@<TRIPOS>MOLECULE
CH4
5 4
SMALL
USER_CHARGES


@<TRIPOS>ATOM
1 C 52.717 85.24 28.815 C 0.0 **** 0.0
2 H 52.137 86.009 29.323 H 0.0 **** 0.0
3 H 53.769 85.525 28.806 H 0.0 **** 0.0
4 H 52.361 85.134 27.79 H 0.0 **** 0.0
5 H 52.601 84.291 29.339 H 0.0 **** 0.0
@<TRIPOS>BOND
1 1 2 1
2 1 3 1
3 1 4 1
4 1 5 1
@<TRIPOS>MOLECULE
CH4
5 4
SMALL
USER_CHARGES


@<TRIPOS>ATOM
1 C 4.115 86.583 2.502 C 0.0 **** 0.0
2 H 4.616 86.688 1.54 H 0.0 **** 0.0
3 H 4.822 86.206 3.24 H 0.0 **** 0.0
4 H 3.284 85.885 2.404 H 0.0 **** 0.0
5 H 3.738 87.555 2.822 H 0.0 **** 0.0
@<TRIPOS>BOND
1 1 2 1
2 1 3 1
3 1 4 1
4 1 5 1
@<TRIPOS>MOLECULE
CH4
5 4
SMALL
USER_CHARGES


@<TRIPOS>ATOM
1 C 31.739 54.612 84.499 C 0.0 **** 0.0
2 H 31.625 54.459 85.573 H 0.0 **** 0.0
3 H 31.959 53.659 84.018 H 0.0 **** 0.0
4 H 32.556 55.309 84.317 H 0.0 **** 0.0
5 H 30.814 55.021 84.091 H 0.0 **** 0.0
@<TRIPOS>BOND
1 1 2 1
2 1 3 1
3 1 4 1
4 1 5 1
@<TRIPOS>MOLECULE
CH4
5 4
SMALL
USER_CHARGES


@<TRIPOS>ATOM
1 C 64.429 51.429 27.69 C 0.0 **** 0.0
2 H 63.728 51.085 26.929 H 0.0 **** 0.0
3 H 63.987 51.294 28.678 H 0.0 **** 0.0
4 H 64.647 52.485 27.531 H 0.0 **** 0.0
5 H 65.351 50.853 27.622 H 0.0 **** 0.0
@<TRIPOS>BOND
1 1 3 1
2 1 2 1
3 1 4 1
4 1 5 1
@<TRIPOS>MOLECULE
CH4
5 4
SMALL
USER_CHARGES


@<TRIPOS>ATOM
1 C 63.232 28.476 50.504 C 0.0 **** 0.0
2 H 64.254 28.11 50.601 H 0.0 **** 0.0
3 H 63.045 28.759 49.468 H 0.0 **** 0.0
4 H 63.094 29.343 51.149 H 0.0 **** 0.0
5 H 62.536 27.69 50.797 H 0.0 **** 0.0
@<TRIPOS>BOND
1 1 2 1
2 1 3 1
3 1 4 1
4 1 5 1
@<TRIPOS>MOLECULE
CH4
5 4
SMALL
USER_CHARGES


@<TRIPOS>ATOM
1 C 61.608 81.65 55.567 C 0.0 **** 0.0
2 H 61.68 82.129 54.591 H 0.0 **** 0.0
3 H 62.591 81.285 55.866 H 0.0 **** 0.0
4 H 60.912 80.813 55.51 H 0.0 **** 0.0
5 H 61.25 82.372 56.3 H 0.0 **** 0.0
@<TRIPOS>BOND
1 1 2 1
2 1 3 1
3 1 4 1
4 1 5 1
@<TRIPOS>MOLECULE
CH4
5 4
SMALL
USER_CHARGES


@<TRIPOS>ATOM
1 C 59.364 82.886 92.892 C 0.0 **** 0.0
2 H 59.324 83.96 92.711 H 0.0 **** 0.0
3 H 60.336 82.502 92.583 H 0.0 **** 0.0
4 H 58.579 82.392 92.319 H 0.0 **** 0.0
5 H 59.216 82.691 93.954 H 0.0 **** 0.0
@<TRIPOS>BOND
1 1 2 1
2 1 3 1
3 1 4 1
4 1 5 1
@<TRIPOS>MOLECULE
CH4
5 4
SMALL
USER_CHARGES


@<TRIPOS>ATOM
1 C 9.618 1.244 43.943 C 0.0 **** 0.0
2 H 10.433 0.523 43.994 H 0.0 **** 0.0
3 H 10.024 2.255 43.987 H 0.0 **** 0.0
4 H 8.941 1.088 44.783 H 0.0 **** 0.0
5 H 9.073 1.111 43.008 H 0.0 **** 0.0
@<TRIPOS>BOND
1 1 2 1
2 1 3 1
3 1 4 1
4 1 5 1
@<TRIPOS>MOLECULE
CH4
5 4
SMALL
USER_CHARGES


@<TRIPOS>ATOM
1 C 44.036 51.629 24.359 C 0.0 **** 0.0
2 H 43.471 51.596 23.428 H 0.0 **** 0.0
3 H 44.011 52.641 24.764 H 0.0 **** 0.0
4 H 45.069 51.339 24.168 H 0.0 **** 0.0
5 H 43.592 50.94 25.078 H 0.0 **** 0.0
@<TRIPOS>BOND
1 1 2 1
2 1 3 1
3 1 4 1
4 1 5 1
@<TRIPOS>MOLECULE
CH4
5 4
SMALL
USER_CHARGES


@<TRIPOS>ATOM
1 C 93.843 35.902 7.21 C 0.0 **** 0.0
2 H 92.778 35.923 7.441 H 0.0 **** 0.0
3 H 94.167 36.896 6.901 H 0.0 **** 0.0
4 H 94.026 35.192 6.404 H 0.0 **** 0.0
5 H 94.4 35.597 8.096 H 0.0 **** 0.0
@<TRIPOS>BOND
1 1 2 1
2 1 3 1
3 1 4 1
4 1 5 1
@<TRIPOS>MOLECULE
CH4
5 4
SMALL
USER_CHARGES


@<TRIPOS>ATOM
1 C 97.294 76.766 58.668 C 0.0 **** 0.0
2 H 97.387 76.736 57.582 H 0.0 **** 0.0
3 H 96.59 76.0 58.993 H 0.0 **** 0.0
4 H 96.932 77.747 58.974 H 0.0 **** 0.0
5 H 98.268 76.58 59.121 H 0.0 **** 0.0
@<TRIPOS>BOND
1 1 3 1
2 1 2 1
3 1 4 1
4 1 5 1
@<TRIPOS>MOLECULE
CH4
5 4
SMALL
USER_CHARGES


@<TRIPOS>ATOM
1 C 59.615 26.535 23.936 C 0.0 **** 0.0
2 H 59.917 27.239 24.711 H 0.0 **** 0.0
3 H 59.434 25.557 24.384 H 0.0 **** 0.0
4 H 60.406 26.453 23.191 H 0.0 **** 0.0
5 H 58.702 26.89 23.458 H 0.0 **** 0.0
@<TRIPOS>BOND
1 1 4 1
2 1 5 1
3 1 2 1
4 1 3 1
@<TRIPOS>MOLECULE
CH4
5 4
SMALL
USER_CHARGES


@<TRIPOS>ATOM
1 C 97.856 79.618 17.425 C 0.0 **** 0.0
2 H 98.314 79.966 18.35 H 0.0 **** 0.0
3 H 98.473 78.834 16.986 H 0.0 **** 0.0
4 H 97.773 80.45 16.725 H 0.0 **** 0.0
5 H 96.862 79.222 17.637 H 0.0 **** 0.0
@<TRIPOS>BOND
1 1 2 1
2 1 3 1
3 1 4 1
4 1 5 1
@<TRIPOS>MOLECULE
CH4
5 4
SMALL
USER_CHARGES


@<TRIPOS>ATOM
1 C 49.319 77.522 32.246 C 0.0 **** 0.0
2 H 49.117 77.223 31.218 H 0.0 **** 0.0
3 H 50.252 78.084 32.284 H 0.0 **** 0.0
4 H 49.404 76.634 32.873 H 0.0 **** 0.0
5 H 48.503 78.147 32.609 H 0.0 **** 0.0
@<TRIPOS>BOND
1 1 2 1
2 1 3 1
3 1 4 1
4 1 5 1
@<TRIPOS>MOLECULE
CH4
5 4
SMALL
USER_CHARGES


@<TRIPOS>ATOM
1 C 39.263 1.203 57.644 C 0.0 **** 0.0
2 H 38.608 1.865 58.211 H 0.0 **** 0.0
3 H 39.785 0.534 58.328 H 0.0 **** 0.0
4 H 39.99 1.799 57.092 H 0.0 **** 0.0
5 H 38.668 0.616 56.944 H 0.0 **** 0.0
@<TRIPOS>BOND
1 1 2 1
2 1 3 1
3 1 4 1
4 1 5 1
@<TRIPOS>MOLECULE
CH4
5 4
SMALL
USER_CHARGES


@<TRIPOS>ATOM
1 C 19.838 91.274 76.6 C 0.0 **** 0.0
2 H 20.325 90.727 75.793 H 0.0 **** 0.0
3 H 19.7 92.314 76.303 H 0.0 **** 0.0
4 H 20.46 91.231 77.494 H 0.0 **** 0.0
5 H 18.868 90.824 76.81 H 0.0 **** 0.0
@<TRIPOS>BOND
1 1 2 1
2 1 3 1
3 1 4 1
4 1 5 1
@<TRIPOS>MOLECULE
CH4
5 4
SMALL
USER_CHARGES


@<TRIPOS>ATOM
1 C 18.548 60.155 81.547 C 0.0 **** 0.0
2 H 18.725 60.145 82.623 H 0.0 **** 0.0
3 H 19.27 60.816 81.067 H 0.0 **** 0.0
4 H 17.538 60.514 81.349 H 0.0 **** 0.0
5 H 18.659 59.146 81.152 H 0.0 **** 0.0
@<TRIPOS>BOND
1 1 2 1
2 1 3 1
3 1 4 1
4 1 5 1
@<TRIPOS>MOLECULE
CH4
5 4
SMALL
USER_CHARGES


@<TRIPOS>ATOM
1 C 88.634 96.579 12.228 C 0.0 **** 0.0
2 H 87.801 96.429 12.916 H 0.0 **** 0.0
3 H 88.249 96.834 11.241 H 0.0 **** 0.0
4 H 89.222 95.663 12.165 H 0.0 **** 0.0
5 H 89.264 97.391 12.593 H 0.0 **** 0.0
@<TRIPOS>BOND
1 1 2 1
2 1 3 1
3 1 4 1
4 1 5 1
@<TRIPOS>MOLECULE
CH4
5 4
SMALL
USER_CHARGES


@<TRIPOS>ATOM
1 C 69.683 73.941 72.273 C 0.0 **** 0.0
2 H 69.604 73.767 71.2 H 0.0 **** 0.0
3 H 69.123 73.173 72.808 H 0.0 **** 0.0
4 H 69.273 74.923 72.512 H 0.0 **** 0.0
5 H 70.73 73.902 72.572 H 0.0 **** 0.0
@<TRIPOS>BOND
1 1 2 1
2 1 3 1
3 1 4 1
4 1 5 1
@<TRIPOS>MOLECULE
CH4
5 4
SMALL
USER_CHARGES


@<TRIPOS>ATOM
1 C 61.725 19.339 57.427 C 0.0 **** 0.0
2 H 61.722 19.475 56.345 H 0.0 **** 0.0
3 H 62.32 20.128 57.89 H 0.0 **** 0.0
4 H 62.157 18.368 57.669 H 0.0 **** 0.0
5 H 60.703 19.387 57.802 H 0.0 **** 0.0
@<TRIPOS>BOND
1 1 2 1
2 1 3 1
3 1 4 1
4 1 5 1
@<TRIPOS>MOLECULE
CH4
5 4
SMALL
USER_CHARGES


@<TRIPOS>ATOM
1 C 66.774 93.398 7.463 C 0.0 **** 0.0
2 H 66.259 94.101 8.118 H 0.0 **** 0.0
3 H 67.715 93.096 7.923 H 0.0 **** 0.0
4 H 66.975 93.876 6.504 H 0.0 **** 0.0
5 H 66.147 92.52 7.307 H 0.0 **** 0.0
@<TRIPOS>BOND
1 1 2 1
2 1 3 1
3 1 4 1
4 1 5 1
@<TRIPOS>MOLECULE
CH4
5 4
SMALL
USER_CHARGES


@<TRIPOS>ATOM
1 C 45.64 86.93 19.72 C 0.0 **** 0.0
2 H 45.461 86.404 20.658 H 0.0 **** 0.0
3 H 46.5 86.489 19.216 H 0.0 **** 0.0
4 H 45.837 87.982 19.925 H 0.0 **** 0.0
5 H 44.761 86.843 19.082 H 0.0 **** 0.0
@<TRIPOS>BOND
1 1 2 1
2 1 3 1
3 1 4 1
4 1 5 1
@<TRIPOS>MOLECULE
CH4
5 4
SMALL
USER_CHARGES


@<TRIPOS>ATOM
1 C 3.051 60.589 86.686 C 0.0 **** 0.0
2 H 3.401 61.522 87.127 H 0.0 **** 0.0
3 H 2.817 60.751 85.633 H 0.0 **** 0.0
4 H 2.156 60.253 87.209 H 0.0 **** 0.0
5 H 3.829 59.831 86.773 H 0.0 **** 0.0
@<TRIPOS>BOND
1 1 2 1
2 1 3 1
3 1 4 1
4 1 5 1
@<TRIPOS>MOLECULE
CH4
5 4
SMALL
USER_CHARGES


@<TRIPOS>ATOM
1 C 56.72 23.146 89.429 C 0.0 **** 0.0
2 H 56.985 22.838 88.417 H 0.0 **** 0.0
3 H 55.796 22.65 89.728 H 0.0 **** 0.0
4 H 56.579 24.226 89.455 H 0.0 **** 0.0
5 H 57.521 22.867 90.114 H 0.0 **** 0.0
@<TRIPOS>BOND
1 1 2 1
2 1 3 1
3 1 4 1
4 1 5 1
@<TRIPOS>MOLECULE
CH4
5 4
SMALL
USER_CHARGES


@<TRIPOS>ATOM
1 C 26.387 12.751 35.415 C 0.0 **** 0.0
2 H 26.67 12.777 34.362 H 0.0 **** 0.0
3 H 27.225 12.382 36.007 H 0.0 **** 0.0
4 H 25.531 12.089 35.545 H 0.0 **** 0.0
5 H 26.123 13.756 35.745 H 0.0 **** 0.0
@<TRIPOS>BOND
1 1 2 1
2 1 3 1
3 1 4 1
4 1 5 1
@<TRIPOS>MOLECULE
CH4
5 4
SMALL
USER_CHARGES


@<TRIPOS>ATOM
1 C 41.257 52.287 51.921 C 0.0 **** 0.0
2 H 40.988 51.785 52.85 H 0.0 **** 0.0
3 H 41.281 51.56 51.109 H 0.0 **** 0.0
4 H 42.24 52.746 52.027 H 0.0 **** 0.0
5 H 40.518 53.057 51.697 H 0.0 **** 0.0
@<TRIPOS>BOND
1 1 2 1
2 1 3 1
3 1 4 1
4 1 5 1
@<TRIPOS>MOLECULE
CH4
5 4
SMALL
USER_CHARGES


@<TRIPOS>ATOM
1 C 91.424 82.17 89.985 C 0.0 **** 0.0
2 H 91.685 81.137 90.216 H 0.0 **** 0.0
3 H 90.564 82.185 89.316 H 0.0 **** 0.0
4 H 92.27 82.658 89.501 H 0.0 **** 0.0
5 H 91.178 82.697 90.906 H 0.0 **** 0.0
@<TRIPOS>BOND
1 1 2 1
2 1 3 1
3 1 4 1
4 1 5 1
@<TRIPOS>MOLECULE
CH4
5 4
SMALL
USER_CHARGES


@<TRIPOS>ATOM
1 C 72.413 6.156 24.54 C 0.0 **** 0.0
2 H 72.094 6.388 23.524 H 0.0 **** 0.0
3 H 71.627 6.437 25.241 H 0.0 **** 0.0
4 H 73.322 6.711 24.77 H 0.0 **** 0.0
5 H 72.609 5.087 24.624 H 0.0 **** 0.0
@<TRIPOS>BOND
1 1 2 1
2 1 3 1
3 1 4 1
4 1 5 1
@<TRIPOS>MOLECULE
CH4
5 4
SMALL
USER_CHARGES


@<TRIPOS>ATOM
1 C 14.762 54.22 76.623 C 0.0 **** 0.0
2 H 13.781 54.693 76.581 H 0.0 **** 0.0
3 H 15.43 54.824 77.236 H 0.0 **** 0.0
4 H 15.168 54.137 75.615 H 0.0 **** 0.0
5 H 14.667 53.226 77.059 H 0.0 **** 0.0
@<TRIPOS>BOND
1 1 2 1
2 1 3 1
3 1 4 1
4 1 5 1
@<TRIPOS>MOLECULE
CH4
5 4
SMALL
USER_CHARGES


@<TRIPOS>ATOM
1 C 21.62 56.112 72.103 C 0.0 **** 0.0
2 H 22.708 56.058 72.134 H 0.0 **** 0.0
3 H 21.229 56.142 73.12 H 0.0 **** 0.0
4 H 21.228 55.236 71.587 H 0.0 **** 0.0
5 H 21.317 57.014 71.57 H 0.0 **** 0.0
@<TRIPOS>BOND
1 1 2 1
2 1 3 1
3 1 4 1
4 1 5 1
@<TRIPOS>MOLECULE
CH4
5 4
SMALL
USER_CHARGES


@<TRIPOS>ATOM
1 C 49.341 66.847 43.459 C 0.0 **** 0.0
2 H 49.092 67.566 42.678 H 0.0 **** 0.0
3 H 49.049 65.847 43.138 H 0.0 **** 0.0
4 H 48.807 67.105 44.374 H 0.0 **** 0.0
5 H 50.414 66.87 43.646 H 0.0 **** 0.0
@<TRIPOS>BOND
1 1 2 1
2 1 3 1
3 1 4 1
4 1 5 1
@<TRIPOS>MOLECULE
CH4
5 4
SMALL
USER_CHARGES


@<TRIPOS>ATOM
1 C 4.798 48.228 21.551 C 0.0 **** 0.0
2 H 4.132 48.518 22.363 H 0.0 **** 0.0
3 H 4.209 48.0 20.662 H 0.0 **** 0.0
4 H 5.367 47.346 21.846 H 0.0 **** 0.0
5 H 5.484 49.047 21.333 H 0.0 **** 0.0
@<TRIPOS>BOND
1 1 2 1
2 1 3 1
3 1 4 1
4 1 5 1
@<TRIPOS>MOLECULE
CH4
5 4
SMALL
USER_CHARGES


@<TRIPOS>ATOM
1 C 77.865 91.582 37.882 C 0.0 **** 0.0
2 H 77.174 91.384 37.063 H 0.0 **** 0.0
3 H 78.132 90.642 38.367 H 0.0 **** 0.0
4 H 77.39 92.243 38.607 H 0.0 **** 0.0
5 H 78.765 92.057 37.491 H 0.0 **** 0.0
@<TRIPOS>BOND
1 1 2 1
2 1 3 1
3 1 4 1
4 1 5 1
@<TRIPOS>MOLECULE
CH4
5 4
SMALL
USER_CHARGES


@<TRIPOS>ATOM
1 C 61.608 46.366 4.903 C 0.0 **** 0.0
2 H 61.939 46.542 5.927 H 0.0 **** 0.0
3 H 61.124 47.263 4.518 H 0.0 **** 0.0
4 H 60.902 45.536 4.887 H 0.0 **** 0.0
5 H 62.469 46.121 4.281 H 0.0 **** 0.0
@<TRIPOS>BOND
1 1 3 1
2 1 4 1
3 1 5 1
4 1 2 1
@<TRIPOS>MOLECULE
CH4
5 4
SMALL
USER_CHARGES


@<TRIPOS>ATOM
1 C 66.93 12.172 67.734 C 0.0 **** 0.0
2 H 65.938 12.615 67.822 H 0.0 **** 0.0
3 H 66.843 11.169 67.315 H 0.0 **** 0.0
4 H 67.391 12.115 68.719 H 0.0 **** 0.0
5 H 67.546 12.787 67.079 H 0.0 **** 0.0
@<TRIPOS>BOND
1 1 2 1
2 1 3 1
3 1 4 1
4 1 5 1
@<TRIPOS>MOLECULE
CH4
5 4
SMALL
USER_CHARGES


@<TRIPOS>ATOM
1 C 85.06 16.96 9.538 C 0.0 **** 0.0
2 H 84.242 16.667 8.879 H 0.0 **** 0.0
3 H 84.758 17.825 10.129 H 0.0 **** 0.0
4 H 85.935 17.216 8.94 H 0.0 **** 0.0
5 H 85.304 16.132 10.204 H 0.0 **** 0.0
@<TRIPOS>BOND
1 1 2 1
2 1 3 1
3 1 4 1
4 1 5 1
@<TRIPOS>MOLECULE
CH4
5 4
SMALL
USER_CHARGES


@<TRIPOS>ATOM
1 C 42.36 7.662 87.775 C 0.0 **** 0.0
2 H 42.069 7.336 86.776 H 0.0 **** 0.0
3 H 41.628 7.309 88.5 H 0.0 **** 0.0
4 H 42.404 8.751 87.803 H 0.0 **** 0.0
5 H 43.341 7.253 88.018 H 0.0 **** 0.0
@<TRIPOS>BOND
1 1 2 1
2 1 3 1
3 1 4 1
4 1 5 1
@<TRIPOS>MOLECULE
CH4
5 4
SMALL
USER_CHARGES


@<TRIPOS>ATOM
1 C 71.484 38.686 95.472 C 0.0 **** 0.0
2 H 71.457 38.712 96.562 H 0.0 **** 0.0
3 H 71.495 37.65 95.134 H 0.0 **** 0.0
4 H 72.381 39.194 95.119 H 0.0 **** 0.0
5 H 70.602 39.189 95.075 H 0.0 **** 0.0
@<TRIPOS>BOND
1 1 2 1
2 1 3 1
3 1 4 1
4 1 5 1
@<TRIPOS>MOLECULE
CH4
5 4
SMALL
USER_CHARGES


@<TRIPOS>ATOM
1 C 4.819 36.652 59.38 C 0.0 **** 0.0
2 H 4.537 36.989 60.378 H 0.0 **** 0.0
3 H 4.064 35.962 59.004 H 0.0 **** 0.0
4 H 5.783 36.145 59.427 H 0.0 **** 0.0
5 H 4.892 37.511 58.714 H 0.0 **** 0.0
@<TRIPOS>BOND
1 1 2 1
2 1 3 1
3 1 4 1
4 1 5 1
@<TRIPOS>MOLECULE
CH4
5 4
SMALL
USER_CHARGES


@<TRIPOS>ATOM
1 C 85.883 31.044 32.453 C 0.0 **** 0.0
2 H 86.94 31.182 32.677 H 0.0 **** 0.0
3 H 85.678 31.389 31.439 H 0.0 **** 0.0
4 H 85.284 31.618 33.16 H 0.0 **** 0.0
5 H 85.629 29.987 32.536 H 0.0 **** 0.0
@<TRIPOS>BOND
1 1 2 1
2 1 3 1
3 1 4 1
4 1 5 1
@<TRIPOS>MOLECULE
CH4
5 4
SMALL
USER_CHARGES


@<TRIPOS>ATOM
1 C 9.426 83.623 75.933 C 0.0 **** 0.0
2 H 9.322 82.607 76.315 H 0.0 **** 0.0
3 H 8.74 84.283 76.464 H 0.0 **** 0.0
4 H 9.192 83.635 74.868 H 0.0 **** 0.0
5 H 10.45 83.964 76.084 H 0.0 **** 0.0
@<TRIPOS>BOND
1 1 2 1
2 1 3 1
3 1 4 1
4 1 5 1
@<TRIPOS>MOLECULE
CH4
5 4
SMALL
USER_CHARGES


@<TRIPOS>ATOM
1 C 65.98 85.43 45.608 C 0.0 **** 0.0
2 H 64.895 85.516 45.55 H 0.0 **** 0.0
3 H 66.261 84.376 45.602 H 0.0 **** 0.0
4 H 66.331 85.894 46.529 H 0.0 **** 0.0
5 H 66.43 85.932 44.753 H 0.0 **** 0.0
@<TRIPOS>BOND
1 1 2 1
2 1 3 1
3 1 4 1
4 1 5 1
@<TRIPOS>MOLECULE
CH4
5 4
SMALL
USER_CHARGES


@<TRIPOS>ATOM
1 C 53.847 42.963 86.1 C 0.0 **** 0.0
2 H 53.916 43.306 85.067 H 0.0 **** 0.0
3 H 52.908 42.429 86.243 H 0.0 **** 0.0
4 H 53.884 43.822 86.77 H 0.0 **** 0.0
5 H 54.682 42.296 86.317 H 0.0 **** 0.0
@<TRIPOS>BOND
1 1 2 1
2 1 3 1
3 1 4 1
4 1 5 1
@<TRIPOS>MOLECULE
CH4
5 4
SMALL
USER_CHARGES


@<TRIPOS>ATOM
1 C 96.588 26.619 48.362 C 0.0 **** 0.0
2 H 96.284 26.355 47.349 H 0.0 **** 0.0
3 H 96.449 27.689 48.516 H 0.0 **** 0.0
4 H 97.638 26.364 48.504 H 0.0 **** 0.0
5 H 95.98 26.066 49.079 H 0.0 **** 0.0
@<TRIPOS>BOND
1 1 2 1
2 1 3 1
3 1 4 1
4 1 5 1
@<TRIPOS>MOLECULE
CH4
5 4
SMALL
USER_CHARGES


@<TRIPOS>ATOM
1 C 76.352 82.713 52.439 C 0.0 **** 0.0
2 H 77.361 83.117 52.515 H 0.0 **** 0.0
3 H 76.223 81.916 53.171 H 0.0 **** 0.0
4 H 76.195 82.315 51.436 H 0.0 **** 0.0
5 H 75.628 83.505 52.632 H 0.0 **** 0.0
@<TRIPOS>BOND
1 1 4 1
2 1 5 1
3 1 2 1
4 1 3 1
@<TRIPOS>MOLECULE
CH4
5 4
SMALL
USER_CHARGES


@<TRIPOS>ATOM
1 C 63.35 54.966 29.234 C 0.0 **** 0.0
2 H 64.179 54.302 28.991 H 0.0 **** 0.0
3 H 63.251 55.724 28.457 H 0.0 **** 0.0
4 H 63.541 55.449 30.192 H 0.0 **** 0.0
5 H 62.428 54.387 29.297 H 0.0 **** 0.0
@<TRIPOS>BOND
1 1 2 1
2 1 3 1
3 1 4 1
4 1 5 1
@<TRIPOS>MOLECULE
CH4
5 4
SMALL
USER_CHARGES


@<TRIPOS>ATOM
1 C 61.395 2.515 35.127 C 0.0 **** 0.0
2 H 61.471 1.664 35.803 H 0.0 **** 0.0
3 H 61.707 2.214 34.127 H 0.0 **** 0.0
4 H 62.04 3.319 35.482 H 0.0 **** 0.0
5 H 60.363 2.864 35.096 H 0.0 **** 0.0
@<TRIPOS>BOND
1 1 2 1
2 1 3 1
3 1 4 1
4 1 5 1
@<TRIPOS>MOLECULE
CH4
5 4
SMALL
USER_CHARGES


@<TRIPOS>ATOM
1 C 80.165 55.233 65.51 C 0.0 **** 0.0
2 H 80.719 54.404 65.069 H 0.0 **** 0.0
3 H 79.573 55.725 64.738 H 0.0 **** 0.0
4 H 80.864 55.948 65.944 H 0.0 **** 0.0
5 H 79.503 54.853 66.289 H 0.0 **** 0.0
@<TRIPOS>BOND
1 1 2 1
2 1 3 1
3 1 4 1
4 1 5 1
@<TRIPOS>MOLECULE
CH4
5 4
SMALL
USER_CHARGES


@<TRIPOS>ATOM
1 C 73.037 47.022 50.137 C 0.0 **** 0.0
2 H 73.109 46.157 49.478 H 0.0 **** 0.0
3 H 74.038 47.388 50.367 H 0.0 **** 0.0
4 H 72.535 46.733 51.061 H 0.0 **** 0.0
5 H 72.466 47.808 49.644 H 0.0 **** 0.0
@<TRIPOS>BOND
1 1 2 1
2 1 3 1
3 1 4 1
4 1 5 1
@<TRIPOS>MOLECULE
CH4
5 4
SMALL
USER_CHARGES


@<TRIPOS>ATOM
1 C 88.172 65.326 17.33 C 0.0 **** 0.0
2 H 87.995 65.177 16.265 H 0.0 **** 0.0
3 H 87.255 65.123 17.883 H 0.0 **** 0.0
4 H 88.483 66.356 17.505 H 0.0 **** 0.0
5 H 88.957 64.648 17.666 H 0.0 **** 0.0
@<TRIPOS>BOND
1 1 2 1
2 1 3 1
3 1 4 1
4 1 5 1
@<TRIPOS>MOLECULE
CH4
5 4
SMALL
USER_CHARGES


@<TRIPOS>ATOM
1 C 87.081 56.787 51.538 C 0.0 **** 0.0
2 H 86.055 56.988 51.846 H 0.0 **** 0.0
3 H 87.472 55.943 52.106 H 0.0 **** 0.0
4 H 87.695 57.667 51.725 H 0.0 **** 0.0
5 H 87.101 56.549 50.474 H 0.0 **** 0.0
@<TRIPOS>BOND
1 1 2 1
2 1 3 1
3 1 4 1
4 1 5 1
@<TRIPOS>MOLECULE
CH4
5 4
SMALL
USER_CHARGES


@<TRIPOS>ATOM
1 C 51.031 81.608 72.598 C 0.0 **** 0.0
2 H 50.978 81.27 73.633 H 0.0 **** 0.0
3 H 50.316 82.416 72.443 H 0.0 **** 0.0
4 H 50.793 80.779 71.932 H 0.0 **** 0.0
5 H 52.038 81.967 72.384 H 0.0 **** 0.0
@<TRIPOS>BOND
1 1 2 1
2 1 3 1
3 1 4 1
4 1 5 1
@<TRIPOS>MOLECULE
CH4
5 4
SMALL
USER_CHARGES


@<TRIPOS>ATOM
1 C 15.326 9.249 52.499 C 0.0 **** 0.0
2 H 14.587 8.783 53.151 H 0.0 **** 0.0
3 H 16.299 9.244 52.992 H 0.0 **** 0.0
4 H 15.029 10.277 52.291 H 0.0 **** 0.0
5 H 15.388 8.692 51.565 H 0.0 **** 0.0
@<TRIPOS>BOND
1 1 2 1
2 1 3 1
3 1 4 1
4 1 5 1
@<TRIPOS>MOLECULE
CH4
5 4
SMALL
USER_CHARGES


@<TRIPOS>ATOM
1 C 13.174 51.546 74.643 C 0.0 **** 0.0
2 H 13.432 51.592 73.585 H 0.0 **** 0.0
3 H 12.421 52.302 74.867 H 0.0 **** 0.0
4 H 14.066 51.733 75.242 H 0.0 **** 0.0
5 H 12.779 50.558 74.878 H 0.0 **** 0.0
@<TRIPOS>BOND
1 1 2 1
2 1 3 1
3 1 4 1
4 1 5 1
@<TRIPOS>MOLECULE
CH4
5 4
SMALL
USER_CHARGES


@<TRIPOS>ATOM
1 C 78.422 50.039 5.186 C 0.0 **** 0.0
2 H 78.638 49.147 4.597 H 0.0 **** 0.0
3 H 79.187 50.793 4.997 H 0.0 **** 0.0
4 H 78.419 49.782 6.246 H 0.0 **** 0.0
5 H 77.446 50.432 4.905 H 0.0 **** 0.0
@<TRIPOS>BOND
1 1 2 1
2 1 3 1
3 1 4 1
4 1 5 1
@<TRIPOS>MOLECULE
CH4
5 4
SMALL
USER_CHARGES


@<TRIPOS>ATOM
1 C 66.531 80.168 96.529 C 0.0 **** 0.0
2 H 66.627 79.981 95.459 H 0.0 **** 0.0
3 H 66.399 79.221 97.053 H 0.0 **** 0.0
4 H 65.667 80.808 96.71 H 0.0 **** 0.0
5 H 67.432 80.662 96.893 H 0.0 **** 0.0
@<TRIPOS>BOND
1 1 2 1
2 1 3 1
3 1 4 1
4 1 5 1
@<TRIPOS>MOLECULE
CH4
5 4
SMALL
USER_CHARGES


@<TRIPOS>ATOM
1 C 73.12 71.393 53.661 C 0.0 **** 0.0
2 H 73.466 70.374 53.831 H 0.0 **** 0.0
3 H 73.977 72.065 53.619 H 0.0 **** 0.0
4 H 72.461 71.694 54.476 H 0.0 **** 0.0
5 H 72.575 71.439 52.718 H 0.0 **** 0.0
@<TRIPOS>BOND
1 1 2 1
2 1 3 1
3 1 4 1
4 1 5 1
@<TRIPOS>MOLECULE
CH4
5 4
SMALL
USER_CHARGES


@<TRIPOS>ATOM
1 C 24.933 91.027 8.947 C 0.0 **** 0.0
2 H 25.017 92.113 8.966 H 0.0 **** 0.0
3 H 24.293 90.698 9.766 H 0.0 **** 0.0
4 H 25.922 90.584 9.058 H 0.0 **** 0.0
5 H 24.498 90.713 7.998 H 0.0 **** 0.0
@<TRIPOS>BOND
1 1 2 1
2 1 3 1
3 1 4 1
4 1 5 1
@<TRIPOS>MOLECULE
CH4
5 4
SMALL
USER_CHARGES


@<TRIPOS>ATOM
1 C 2.22 59.538 13.585 C 0.0 **** 0.0
2 H 1.987 59.192 14.592 H 0.0 **** 0.0
3 H 3.296 59.475 13.42 H 0.0 **** 0.0
4 H 1.893 60.571 13.471 H 0.0 **** 0.0
5 H 1.703 58.911 12.858 H 0.0 **** 0.0
@<TRIPOS>BOND
1 1 2 1
2 1 3 1
3 1 4 1
4 1 5 1
@<TRIPOS>MOLECULE
CH4
5 4
SMALL
USER_CHARGES


@<TRIPOS>ATOM
1 C 72.816 65.599 37.775 C 0.0 **** 0.0
2 H 72.487 65.588 38.814 H 0.0 **** 0.0
3 H 72.523 66.541 37.311 H 0.0 **** 0.0
4 H 72.354 64.77 37.238 H 0.0 **** 0.0
5 H 73.901 65.497 37.736 H 0.0 **** 0.0
@<TRIPOS>BOND
1 1 2 1
2 1 3 1
3 1 4 1
4 1 5 1
@<TRIPOS>MOLECULE
CH4
5 4
SMALL
USER_CHARGES


@<TRIPOS>ATOM
1 C 82.97 77.442 91.865 C 0.0 **** 0.0
2 H 83.017 77.287 90.787 H 0.0 **** 0.0
3 H 83.971 77.361 92.288 H 0.0 **** 0.0
4 H 82.324 76.686 92.312 H 0.0 **** 0.0
5 H 82.567 78.433 92.073 H 0.0 **** 0.0
@<TRIPOS>BOND
1 1 2 1
2 1 3 1
3 1 4 1
4 1 5 1
@<TRIPOS>MOLECULE
CH4
5 4
SMALL
USER_CHARGES


@<TRIPOS>ATOM
1 C 51.725 76.906 50.821 C 0.0 **** 0.0
2 H 50.775 76.613 50.374 H 0.0 **** 0.0
3 H 51.899 76.32 51.723 H 0.0 **** 0.0
4 H 51.695 77.966 51.075 H 0.0 **** 0.0
5 H 52.532 76.727 50.11 H 0.0 **** 0.0
@<TRIPOS>BOND
1 1 2 1
2 1 3 1
3 1 4 1
4 1 5 1
@<TRIPOS>MOLECULE
CH4
5 4
SMALL
USER_CHARGES


@<TRIPOS>ATOM
1 C 79.905 22.231 7.478 C 0.0 **** 0.0
2 H 79.812 23.24 7.076 H 0.0 **** 0.0
3 H 80.941 21.9 7.392 H 0.0 **** 0.0
4 H 79.26 21.556 6.916 H 0.0 **** 0.0
5 H 79.609 22.229 8.527 H 0.0 **** 0.0
@<TRIPOS>BOND
1 1 2 1
2 1 3 1
3 1 4 1
4 1 5 1
@<TRIPOS>MOLECULE
CH4
5 4
SMALL
USER_CHARGES


@<TRIPOS>ATOM
1 C 10.747 61.896 95.644 C 0.0 **** 0.0
2 H 10.005 61.472 96.321 H 0.0 **** 0.0
3 H 11.243 61.092 95.1 H 0.0 **** 0.0
4 H 11.485 62.456 96.219 H 0.0 **** 0.0
5 H 10.254 62.563 94.938 H 0.0 **** 0.0
@<TRIPOS>BOND
1 1 2 1
2 1 3 1
3 1 4 1
4 1 5 1
@<TRIPOS>MOLECULE
CH4
5 4
SMALL
USER_CHARGES


@<TRIPOS>ATOM
1 C 26.892 79.31 33.275 C 0.0 **** 0.0
2 H 26.475 80.146 32.715 H 0.0 **** 0.0
3 H 27.975 79.417 33.337 H 0.0 **** 0.0
4 H 26.647 78.376 32.769 H 0.0 **** 0.0
5 H 26.47 79.3 34.28 H 0.0 **** 0.0
@<TRIPOS>BOND
1 1 2 1
2 1 3 1
3 1 4 1
4 1 5 1
@<TRIPOS>MOLECULE
CH4
5 4
SMALL
USER_CHARGES


@<TRIPOS>ATOM
1 C 13.435 36.18 46.624 C 0.0 **** 0.0
2 H 13.454 35.539 47.505 H 0.0 **** 0.0
3 H 13.447 35.564 45.725 H 0.0 **** 0.0
4 H 14.308 36.832 46.63 H 0.0 **** 0.0
5 H 12.529 36.787 46.637 H 0.0 **** 0.0
@<TRIPOS>BOND
1 1 2 1
2 1 3 1
3 1 4 1
4 1 5 1
@<TRIPOS>MOLECULE
CH4
5 4
SMALL
USER_CHARGES


@<TRIPOS>ATOM
1 C 22.656 15.089 88.163 C 0.0 **** 0.0
2 H 21.595 14.846 88.108 H 0.0 **** 0.0
3 H 23.245 14.197 87.948 H 0.0 **** 0.0
4 H 22.894 15.449 89.164 H 0.0 **** 0.0
5 H 22.889 15.864 87.433 H 0.0 **** 0.0
@<TRIPOS>BOND
1 1 2 1
2 1 3 1
3 1 4 1
4 1 5 1
@<TRIPOS>MOLECULE
CH4
5 4
SMALL
USER_CHARGES


@<TRIPOS>ATOM
1 C 61.945 15.332 18.778 C 0.0 **** 0.0
2 H 61.78 14.342 19.203 H 0.0 **** 0.0
3 H 61.65 15.331 17.729 H 0.0 **** 0.0
4 H 63.001 15.591 18.859 H 0.0 **** 0.0
5 H 61.348 16.064 19.323 H 0.0 **** 0.0
@<TRIPOS>BOND
1 1 2 1
2 1 3 1
3 1 4 1
4 1 5 1
@<TRIPOS>MOLECULE
CH4
5 4
SMALL
USER_CHARGES


@<TRIPOS>ATOM
1 C 44.933 80.215 34.374 C 0.0 **** 0.0
2 H 44.784 80.063 35.443 H 0.0 **** 0.0
3 H 45.432 79.343 33.949 H 0.0 **** 0.0
4 H 45.549 81.1 34.215 H 0.0 **** 0.0
5 H 43.966 80.353 33.889 H 0.0 **** 0.0
@<TRIPOS>BOND
1 1 2 1
2 1 3 1
3 1 4 1
4 1 5 1
@<TRIPOS>MOLECULE
CH4
5 4
SMALL
USER_CHARGES


@<TRIPOS>ATOM
1 C 84.775 9.59 51.666 C 0.0 **** 0.0
2 H 84.898 9.112 50.694 H 0.0 **** 0.0
3 H 83.814 10.104 51.699 H 0.0 **** 0.0
4 H 85.579 10.31 51.82 H 0.0 **** 0.0
5 H 84.81 8.833 52.45 H 0.0 **** 0.0
@<TRIPOS>BOND
1 1 2 1
2 1 3 1
3 1 4 1
4 1 5 1
@<TRIPOS>MOLECULE
CH4
5 4
SMALL
USER_CHARGES


@<TRIPOS>ATOM
1 C 38.887 75.664 50.894 C 0.0 **** 0.0
2 H 39.301 76.325 50.133 H 0.0 **** 0.0
3 H 37.806 75.793 50.939 H 0.0 **** 0.0
4 H 39.323 75.908 51.863 H 0.0 **** 0.0
5 H 39.12 74.629 50.642 H 0.0 **** 0.0
@<TRIPOS>BOND
1 1 2 1
2 1 3 1
3 1 4 1
4 1 5 1
@<TRIPOS>MOLECULE
CH4
5 4
SMALL
USER_CHARGES


@<TRIPOS>ATOM
1 C 94.37 97.444 9.716 C 0.0 **** 0.0
2 H 94.332 97.775 10.753 H 0.0 **** 0.0
3 H 95.07 96.613 9.626 H 0.0 **** 0.0
4 H 94.701 98.268 9.083 H 0.0 **** 0.0
5 H 93.378 97.119 9.401 H 0.0 **** 0.0
@<TRIPOS>BOND
1 1 2 1
2 1 3 1
3 1 4 1
4 1 5 1
@<TRIPOS>MOLECULE
CH4
5 4
SMALL
USER_CHARGES


@<TRIPOS>ATOM
1 C 78.236 68.074 23.077 C 0.0 **** 0.0
2 H 77.708 68.333 23.995 H 0.0 **** 0.0
3 H 77.988 68.797 22.3 H 0.0 **** 0.0
4 H 77.935 67.077 22.755 H 0.0 **** 0.0
5 H 79.31 68.089 23.26 H 0.0 **** 0.0
@<TRIPOS>BOND
1 1 2 1
2 1 3 1
3 1 4 1
4 1 5 1
@<TRIPOS>MOLECULE
CH4
5 4
SMALL
USER_CHARGES


@<TRIPOS>ATOM
1 C 63.808 68.464 58.967 C 0.0 **** 0.0
2 H 63.778 68.946 59.945 H 0.0 **** 0.0
3 H 64.596 67.71 58.959 H 0.0 **** 0.0
4 H 64.012 69.212 58.2 H 0.0 **** 0.0
5 H 62.848 67.99 58.767 H 0.0 **** 0.0
@<TRIPOS>BOND
1 1 2 1
2 1 3 1
3 1 4 1
4 1 5 1
@<TRIPOS>MOLECULE
CH4
5 4
SMALL
USER_CHARGES


@<TRIPOS>ATOM
1 C 40.496 31.774 51.43 C 0.0 **** 0.0
2 H 39.904 32.681 51.55 H 0.0 **** 0.0
3 H 39.861 30.902 51.59 H 0.0 **** 0.0
4 H 41.308 31.772 52.157 H 0.0 **** 0.0
5 H 40.911 31.742 50.423 H 0.0 **** 0.0
@<TRIPOS>BOND
1 1 2 1
2 1 3 1
3 1 4 1
4 1 5 1
@<TRIPOS>MOLECULE
CH4
5 4
SMALL
USER_CHARGES


@<TRIPOS>ATOM
1 C 71.866 8.59 12.938 C 0.0 **** 0.0
2 H 72.951 8.538 13.031 H 0.0 **** 0.0
3 H 71.541 7.949 12.118 H 0.0 **** 0.0
4 H 71.568 9.619 12.735 H 0.0 **** 0.0
5 H 71.405 8.255 13.867 H 0.0 **** 0.0
@<TRIPOS>BOND
1 1 2 1
2 1 3 1
3 1 4 1
4 1 5 1
@<TRIPOS>MOLECULE
CH4
5 4
SMALL
USER_CHARGES


@<TRIPOS>ATOM
1 C 30.247 33.396 12.637 C 0.0 **** 0.0
2 H 30.957 33.5 11.816 H 0.0 **** 0.0
3 H 29.988 34.383 13.02 H 0.0 **** 0.0
4 H 30.699 32.804 13.433 H 0.0 **** 0.0
5 H 29.347 32.897 12.278 H 0.0 **** 0.0
@<TRIPOS>BOND
1 1 2 1
2 1 3 1
3 1 4 1
4 1 5 1
@<TRIPOS>MOLECULE
CH4
5 4
SMALL
USER_CHARGES


@<TRIPOS>ATOM
1 C 76.812 85.586 16.175 C 0.0 **** 0.0
2 H 76.365 85.6 17.169 H 0.0 **** 0.0
3 H 77.559 84.794 16.124 H 0.0 **** 0.0
4 H 77.286 86.547 15.975 H 0.0 **** 0.0
5 H 76.036 85.402 15.431 H 0.0 **** 0.0
@<TRIPOS>BOND
1 1 2 1
2 1 3 1
3 1 4 1
4 1 5 1
@<TRIPOS>MOLECULE
CH4
5 4
SMALL
USER_CHARGES


@<TRIPOS>ATOM
1 C 22.016 32.629 60.207 C 0.0 **** 0.0
2 H 21.205 33.351 60.295 H 0.0 **** 0.0
3 H 22.276 32.502 59.156 H 0.0 **** 0.0
4 H 21.698 31.673 60.622 H 0.0 **** 0.0
5 H 22.886 32.991 60.755 H 0.0 **** 0.0
@<TRIPOS>BOND
1 1 5 1
2 1 2 1
3 1 3 1
4 1 4 1
@<TRIPOS>MOLECULE
CH4
5 4
SMALL
USER_CHARGES


@<TRIPOS>ATOM
1 C 35.892 91.621 19.617 C 0.0 **** 0.0
2 H 36.18 91.682 18.568 H 0.0 **** 0.0
3 H 35.149 90.834 19.745 H 0.0 **** 0.0
4 H 35.47 92.575 19.934 H 0.0 **** 0.0
5 H 36.771 91.394 20.222 H 0.0 **** 0.0
@<TRIPOS>BOND
1 1 2 1
2 1 3 1
3 1 4 1
4 1 5 1
@<TRIPOS>MOLECULE
CH4
5 4
SMALL
USER_CHARGES


@<TRIPOS>ATOM
1 C 42.32 12.565 41.046 C 0.0 **** 0.0
2 H 42.107 13.634 41.083 H 0.0 **** 0.0
3 H 41.513 12.017 41.534 H 0.0 **** 0.0
4 H 43.26 12.364 41.561 H 0.0 **** 0.0
5 H 42.399 12.247 40.007 H 0.0 **** 0.0
@<TRIPOS>BOND
1 1 2 1
2 1 3 1
3 1 4 1
4 1 5 1
@<TRIPOS>MOLECULE
CH4
5 4
SMALL
USER_CHARGES


@<TRIPOS>ATOM
1 C 88.695 4.839 85.903 C 0.0 **** 0.0
2 H 88.22 5.809 85.752 H 0.0 **** 0.0
3 H 89.689 4.984 86.328 H 0.0 **** 0.0
4 H 88.781 4.324 84.946 H 0.0 **** 0.0
5 H 88.091 4.241 86.585 H 0.0 **** 0.0
@<TRIPOS>BOND
1 1 2 1
2 1 3 1
3 1 4 1
4 1 5 1
@<TRIPOS>MOLECULE
CH4
5 4
SMALL
USER_CHARGES


@<TRIPOS>ATOM
1 C 28.54 35.022 36.46 C 0.0 **** 0.0
2 H 27.57 35.273 36.889 H 0.0 **** 0.0
3 H 29.206 34.671 37.249 H 0.0 **** 0.0
4 H 28.969 35.906 35.989 H 0.0 **** 0.0
5 H 28.415 34.237 35.714 H 0.0 **** 0.0
@<TRIPOS>BOND
1 1 2 1
2 1 3 1
3 1 4 1
4 1 5 1
@<TRIPOS>MOLECULE
CH4
5 4
SMALL
USER_CHARGES


@<TRIPOS>ATOM
1 C 91.867 20.331 35.476 C 0.0 **** 0.0
2 H 91.619 20.746 34.499 H 0.0 **** 0.0
3 H 92.794 20.778 35.836 H 0.0 **** 0.0
4 H 91.992 19.252 35.391 H 0.0 **** 0.0
5 H 91.061 20.549 36.178 H 0.0 **** 0.0
@<TRIPOS>BOND
1 1 2 1
2 1 3 1
3 1 4 1
4 1 5 1
@<TRIPOS>MOLECULE
CH4
5 4
SMALL
USER_CHARGES


@<TRIPOS>ATOM
1 C 33.868 55.108 77.613 C 0.0 **** 0.0
2 H 33.421 56.101 77.561 H 0.0 **** 0.0
3 H 34.849 55.175 78.083 H 0.0 **** 0.0
4 H 33.975 54.705 76.605 H 0.0 **** 0.0
5 H 33.227 54.451 78.201 H 0.0 **** 0.0
@<TRIPOS>BOND
1 1 2 1
2 1 3 1
3 1 4 1
4 1 5 1
@<TRIPOS>MOLECULE
CH4
5 4
SMALL
USER_CHARGES


@<TRIPOS>ATOM
1 C 51.896 6.701 51.139 C 0.0 **** 0.0
2 H 51.927 7.016 50.097 H 0.0 **** 0.0
3 H 50.925 6.255 51.356 H 0.0 **** 0.0
4 H 52.051 7.565 51.785 H 0.0 **** 0.0
5 H 52.682 5.967 51.32 H 0.0 **** 0.0
@<TRIPOS>BOND
1 1 2 1
2 1 3 1
3 1 4 1
4 1 5 1
@<TRIPOS>MOLECULE
CH4
5 4
SMALL
USER_CHARGES


@<TRIPOS>ATOM
1 C 40.648 29.353 23.402 C 0.0 **** 0.0
2 H 40.685 29.368 24.491 H 0.0 **** 0.0
3 H 41.188 30.215 23.009 H 0.0 **** 0.0
4 H 39.609 29.394 23.074 H 0.0 **** 0.0
5 H 41.109 28.436 23.036 H 0.0 **** 0.0
@<TRIPOS>BOND
1 1 2 1
2 1 3 1
3 1 4 1
4 1 5 1
@<TRIPOS>MOLECULE
CH4
5 4
SMALL
USER_CHARGES


@<TRIPOS>ATOM
1 C 35.838 65.24 7.792 C 0.0 **** 0.0
2 H 35.956 66.299 8.024 H 0.0 **** 0.0
3 H 36.022 65.079 6.729 H 0.0 **** 0.0
4 H 34.824 64.925 8.038 H 0.0 **** 0.0
5 H 36.551 64.659 8.377 H 0.0 **** 0.0
@<TRIPOS>BOND
1 1 2 1
2 1 3 1
3 1 4 1
4 1 5 1
@<TRIPOS>MOLECULE
CH4
5 4
SMALL
USER_CHARGES


@<TRIPOS>ATOM
1 C 75.977 53.78 58.049 C 0.0 **** 0.0
2 H 75.799 53.685 59.12 H 0.0 **** 0.0
3 H 76.734 54.545 57.874 H 0.0 **** 0.0
4 H 75.05 54.065 57.551 H 0.0 **** 0.0
5 H 76.324 52.826 57.653 H 0.0 **** 0.0
@<TRIPOS>BOND
1 1 2 1
2 1 3 1
3 1 4 1
4 1 5 1
@<TRIPOS>MOLECULE
CH4
5 4
SMALL
USER_CHARGES


@<TRIPOS>ATOM
1 C 57.337 82.961 60.554 C 0.0 **** 0.0
2 H 56.955 83.759 61.191 H 0.0 **** 0.0
3 H 57.522 82.072 61.158 H 0.0 **** 0.0
4 H 58.268 83.284 60.087 H 0.0 **** 0.0
5 H 56.604 82.731 59.782 H 0.0 **** 0.0
@<TRIPOS>BOND
1 1 2 1
2 1 3 1
3 1 4 1
4 1 5 1
@<TRIPOS>MOLECULE
CH4
5 4
SMALL
USER_CHARGES


@<TRIPOS>ATOM
1 C 52.268 10.791 13.15 C 0.0 **** 0.0
2 H 52.741 10.533 14.097 H 0.0 **** 0.0
3 H 53.035 10.955 12.393 H 0.0 **** 0.0
4 H 51.678 11.699 13.273 H 0.0 **** 0.0
5 H 51.616 9.975 12.836 H 0.0 **** 0.0
@<TRIPOS>BOND
1 1 2 1
2 1 3 1
3 1 4 1
4 1 5 1
@<TRIPOS>MOLECULE
CH4
5 4
SMALL
USER_CHARGES


@<TRIPOS>ATOM
1 C 54.677 10.917 46.493 C 0.0 **** 0.0
2 H 54.6 11.978 46.731 H 0.0 **** 0.0
3 H 55.677 10.561 46.74 H 0.0 **** 0.0
4 H 54.491 10.769 45.429 H 0.0 **** 0.0
5 H 53.939 10.361 47.071 H 0.0 **** 0.0
@<TRIPOS>BOND
1 1 2 1
2 1 3 1
3 1 4 1
4 1 5 1
@<TRIPOS>MOLECULE
CH4
5 4
SMALL
USER_CHARGES


@<TRIPOS>ATOM
1 C 75.752 10.731 85.002 C 0.0 **** 0.0
2 H 75.169 11.396 85.639 H 0.0 **** 0.0
3 H 76.807 10.995 85.071 H 0.0 **** 0.0
4 H 75.418 10.831 83.97 H 0.0 **** 0.0
5 H 75.613 9.701 85.331 H 0.0 **** 0.0
@<TRIPOS>BOND
1 1 2 1
2 1 3 1
3 1 4 1
4 1 5 1
@<TRIPOS>MOLECULE
CH4
5 4
SMALL
USER_CHARGES


@<TRIPOS>ATOM
1 C 93.617 55.297 22.159 C 0.0 **** 0.0
2 H 94.027 56.297 22.302 H 0.0 **** 0.0
3 H 93.929 54.913 21.188 H 0.0 **** 0.0
4 H 92.529 55.341 22.201 H 0.0 **** 0.0
5 H 93.985 54.638 22.946 H 0.0 **** 0.0
@<TRIPOS>BOND
1 1 2 1
2 1 3 1
3 1 4 1
4 1 5 1
@<TRIPOS>MOLECULE
CH4
5 4
SMALL
USER_CHARGES


@<TRIPOS>ATOM
1 C 43.051 49.692 52.872 C 0.0 **** 0.0
2 H 43.14 50.314 51.982 H 0.0 **** 0.0
3 H 43.163 50.313 53.761 H 0.0 **** 0.0
4 H 43.83 48.929 52.861 H 0.0 **** 0.0
5 H 42.073 49.212 52.885 H 0.0 **** 0.0
@<TRIPOS>BOND
1 1 2 1
2 1 3 1
3 1 4 1
4 1 5 1
@<TRIPOS>MOLECULE
CH4
5 4
SMALL
USER_CHARGES


@<TRIPOS>ATOM
1 C 75.747 85.671 27.655 C 0.0 **** 0.0
2 H 75.612 85.559 26.579 H 0.0 **** 0.0
3 H 75.93 86.72 27.89 H 0.0 **** 0.0
4 H 76.597 85.072 27.979 H 0.0 **** 0.0
5 H 74.847 85.335 28.17 H 0.0 **** 0.0
@<TRIPOS>BOND
1 1 4 1
2 1 5 1
3 1 2 1
4 1 3 1
@<TRIPOS>MOLECULE
CH4
5 4
SMALL
USER_CHARGES


@<TRIPOS>ATOM
1 C 52.035 16.433 85.253 C 0.0 **** 0.0
2 H 52.685 16.332 84.384 H 0.0 **** 0.0
3 H 51.989 15.482 85.784 H 0.0 **** 0.0
4 H 51.034 16.716 84.928 H 0.0 **** 0.0
5 H 52.433 17.201 85.916 H 0.0 **** 0.0
@<TRIPOS>BOND
1 1 2 1
2 1 3 1
3 1 4 1
4 1 5 1
@<TRIPOS>MOLECULE
CH4
5 4
SMALL
USER_CHARGES


@<TRIPOS>ATOM
1 C 3.202 23.058 54.624 C 0.0 **** 0.0
2 H 3.581 23.158 53.607 H 0.0 **** 0.0
3 H 3.998 23.286 55.333 H 0.0 **** 0.0
4 H 2.855 22.037 54.783 H 0.0 **** 0.0
5 H 2.373 23.75 54.773 H 0.0 **** 0.0
@<TRIPOS>BOND
1 1 2 1
2 1 3 1
3 1 4 1
4 1 5 1
@<TRIPOS>MOLECULE
CH4
5 4
SMALL
USER_CHARGES


@<TRIPOS>ATOM
1 C 68.166 58.226 53.703 C 0.0 **** 0.0
2 H 67.763 58.358 54.707 H 0.0 **** 0.0
3 H 67.695 58.939 53.026 H 0.0 **** 0.0
4 H 67.962 57.211 53.362 H 0.0 **** 0.0
5 H 69.242 58.395 53.719 H 0.0 **** 0.0
@<TRIPOS>BOND
1 1 2 1
2 1 3 1
3 1 4 1
4 1 5 1
@<TRIPOS>MOLECULE
CH4
5 4
SMALL
USER_CHARGES


@<TRIPOS>ATOM
1 C 59.859 81.249 30.478 C 0.0 **** 0.0
2 H 59.633 80.835 29.496 H 0.0 **** 0.0
3 H 59.942 82.334 30.404 H 0.0 **** 0.0
4 H 60.801 80.836 30.838 H 0.0 **** 0.0
5 H 59.06 80.992 31.174 H 0.0 **** 0.0
@<TRIPOS>BOND
1 1 2 1
2 1 3 1
3 1 4 1
4 1 5 1
@<TRIPOS>MOLECULE
CH4
5 4
SMALL
USER_CHARGES


@<TRIPOS>ATOM
1 C 7.074 10.283 38.562 C 0.0 **** 0.0
2 H 6.478 10.483 39.453 H 0.0 **** 0.0
3 H 6.468 9.743 37.834 H 0.0 **** 0.0
4 H 7.94 9.68 38.834 H 0.0 **** 0.0
5 H 7.408 11.226 38.13 H 0.0 **** 0.0
@<TRIPOS>BOND
1 1 2 1
2 1 3 1
3 1 4 1
4 1 5 1
@<TRIPOS>MOLECULE
CH4
5 4
SMALL
USER_CHARGES


@<TRIPOS>ATOM
1 C 18.596 95.934 24.467 C 0.0 **** 0.0
2 H 19.492 95.997 25.086 H 0.0 **** 0.0
3 H 18.304 94.89 24.356 H 0.0 **** 0.0
4 H 18.803 96.361 23.486 H 0.0 **** 0.0
5 H 17.788 96.49 24.942 H 0.0 **** 0.0
@<TRIPOS>BOND
1 1 5 1
2 1 2 1
3 1 3 1
4 1 4 1
@<TRIPOS>MOLECULE
CH4
5 4
SMALL
USER_CHARGES


@<TRIPOS>ATOM
1 C 95.454 64.046 0.955 C 0.0 **** 0.0
2 H 94.527 63.875 0.407 H 0.0 **** 0.0
3 H 96.009 63.11 1.029 H 0.0 **** 0.0
4 H 95.222 64.412 1.955 H 0.0 **** 0.0
5 H 96.056 64.785 0.427 H 0.0 **** 0.0
@<TRIPOS>BOND
1 1 2 1
2 1 3 1
3 1 4 1
4 1 5 1
@<TRIPOS>MOLECULE
CH4
5 4
SMALL
USER_CHARGES


@<TRIPOS>ATOM
1 C 68.606 91.924 33.654 C 0.0 **** 0.0
2 H 69.237 91.183 33.163 H 0.0 **** 0.0
3 H 68.696 91.818 34.735 H 0.0 **** 0.0
4 H 67.568 91.769 33.358 H 0.0 **** 0.0
5 H 68.922 92.924 33.358 H 0.0 **** 0.0
@<TRIPOS>BOND
1 1 2 1
2 1 3 1
3 1 4 1
4 1 5 1
@<TRIPOS>MOLECULE
CH4
5 4
SMALL
USER_CHARGES


@<TRIPOS>ATOM
1 C 66.904 44.439 64.708 C 0.0 **** 0.0
2 H 67.236 43.414 64.873 H 0.0 **** 0.0
3 H 66.007 44.629 65.297 H 0.0 **** 0.0
4 H 66.683 44.584 63.651 H 0.0 **** 0.0
5 H 67.692 45.128 65.013 H 0.0 **** 0.0
@<TRIPOS>BOND
1 1 2 1
2 1 3 1
3 1 4 1
4 1 5 1
@<TRIPOS>MOLECULE
CH4
5 4
SMALL
USER_CHARGES


@<TRIPOS>ATOM
1 C 9.578 75.594 97.98 C 0.0 **** 0.0
2 H 9.852 76.188 97.108 H 0.0 **** 0.0
3 H 9.003 76.21 98.672 H 0.0 **** 0.0
4 H 10.481 75.236 98.474 H 0.0 **** 0.0
5 H 8.975 74.743 97.664 H 0.0 **** 0.0
@<TRIPOS>BOND
1 1 2 1
2 1 3 1
3 1 4 1
4 1 5 1
@<TRIPOS>MOLECULE
CH4
5 4
SMALL
USER_CHARGES


@<TRIPOS>ATOM
1 C 24.967 54.671 89.292 C 0.0 **** 0.0
2 H 26.017 54.907 89.466 H 0.0 **** 0.0
3 H 24.888 53.937 88.49 H 0.0 **** 0.0
4 H 24.433 55.578 89.008 H 0.0 **** 0.0
5 H 24.531 54.263 90.203 H 0.0 **** 0.0
@<TRIPOS>BOND
1 1 2 1
2 1 3 1
3 1 4 1
4 1 5 1
@<TRIPOS>MOLECULE
CH4
5 4
SMALL
USER_CHARGES


@<TRIPOS>ATOM
1 C 18.488 54.36 95.159 C 0.0 **** 0.0
2 H 19.315 54.907 95.613 H 0.0 **** 0.0
3 H 18.046 54.963 94.366 H 0.0 **** 0.0
4 H 17.734 54.147 95.918 H 0.0 **** 0.0
5 H 18.858 53.423 94.742 H 0.0 **** 0.0
@<TRIPOS>BOND
1 1 2 1
2 1 3 1
3 1 4 1
4 1 5 1
@<TRIPOS>MOLECULE
CH4
5 4
SMALL
USER_CHARGES


@<TRIPOS>ATOM
1 C 7.248 56.31 46.969 C 0.0 **** 0.0
2 H 7.157 56.467 45.894 H 0.0 **** 0.0
3 H 8.21 56.689 47.312 H 0.0 **** 0.0
4 H 7.178 55.244 47.187 H 0.0 **** 0.0
5 H 6.444 56.838 47.482 H 0.0 **** 0.0
@<TRIPOS>BOND
1 1 2 1
2 1 3 1
3 1 4 1
4 1 5 1
@<TRIPOS>MOLECULE
CH4
5 4
SMALL
USER_CHARGES


@<TRIPOS>ATOM
1 C 26.195 41.018 65.044 C 0.0 **** 0.0
2 H 25.992 40.973 63.974 H 0.0 **** 0.0
3 H 26.205 40.007 65.454 H 0.0 **** 0.0
4 H 25.417 41.602 65.536 H 0.0 **** 0.0
5 H 27.163 41.488 65.211 H 0.0 **** 0.0
@<TRIPOS>BOND
1 1 2 1
2 1 3 1
3 1 4 1
4 1 5 1
@<TRIPOS>MOLECULE
CH4
5 4
SMALL
USER_CHARGES


@<TRIPOS>ATOM
1 C 15.993 93.906 52.275 C 0.0 **** 0.0
2 H 16.297 92.875 52.454 H 0.0 **** 0.0
3 H 16.641 94.58 52.836 H 0.0 **** 0.0
4 H 14.961 94.042 52.597 H 0.0 **** 0.0
5 H 16.073 94.128 51.21 H 0.0 **** 0.0
@<TRIPOS>BOND
1 1 2 1
2 1 3 1
3 1 4 1
4 1 5 1
@<TRIPOS>MOLECULE
CH4
5 4
SMALL
USER_CHARGES


@<TRIPOS>ATOM
1 C 9.654 34.454 63.914 C 0.0 **** 0.0
2 H 10.336 35.204 64.313 H 0.0 **** 0.0
3 H 9.338 33.786 64.717 H 0.0 **** 0.0
4 H 10.16 33.877 63.14 H 0.0 **** 0.0
5 H 8.781 34.947 63.487 H 0.0 **** 0.0
@<TRIPOS>BOND
1 1 2 1
2 1 3 1
3 1 4 1
4 1 5 1
@<TRIPOS>MOLECULE
CH4
5 4
SMALL
USER_CHARGES


@<TRIPOS>ATOM
1 C 47.625 43.98 5.646 C 0.0 **** 0.0
2 H 48.041 43.363 4.849 H 0.0 **** 0.0
3 H 46.856 43.418 6.176 H 0.0 **** 0.0
4 H 47.186 44.88 5.216 H 0.0 **** 0.0
5 H 48.417 44.258 6.341 H 0.0 **** 0.0
@<TRIPOS>BOND
1 1 3 1
2 1 4 1
3 1 5 1
4 1 2 1
@<TRIPOS>MOLECULE
CH4
5 4
SMALL
USER_CHARGES


@<TRIPOS>ATOM
1 C 17.242 63.438 55.465 C 0.0 **** 0.0
2 H 17.313 62.535 56.071 H 0.0 **** 0.0
3 H 17.038 63.166 54.43 H 0.0 **** 0.0
4 H 18.184 63.985 55.519 H 0.0 **** 0.0
5 H 16.435 64.066 55.842 H 0.0 **** 0.0
@<TRIPOS>BOND
1 1 2 1
2 1 3 1
3 1 4 1
4 1 5 1
@<TRIPOS>MOLECULE
CH4
5 4
SMALL
USER_CHARGES


@<TRIPOS>ATOM
1 C 28.925 17.57 47.638 C 0.0 **** 0.0
2 H 29.082 16.562 48.021 H 0.0 **** 0.0
3 H 29.276 17.625 46.607 H 0.0 **** 0.0
4 H 29.481 18.281 48.249 H 0.0 **** 0.0
5 H 27.863 17.811 47.674 H 0.0 **** 0.0
@<TRIPOS>BOND
1 1 2 1
2 1 3 1
3 1 4 1
4 1 5 1
@<TRIPOS>MOLECULE
CH4
5 4
SMALL
USER_CHARGES


@<TRIPOS>ATOM
1 C 61.026 4.34 4.047 C 0.0 **** 0.0
2 H 60.452 4.596 4.937 H 0.0 **** 0.0
3 H 61.957 3.854 4.341 H 0.0 **** 0.0
4 H 61.251 5.247 3.486 H 0.0 **** 0.0
5 H 60.444 3.662 3.422 H 0.0 **** 0.0
@<TRIPOS>BOND
1 1 2 1
2 1 3 1
3 1 4 1
4 1 5 1
@<TRIPOS>MOLECULE
CH4
5 4
SMALL
USER_CHARGES


@<TRIPOS>ATOM
1 C 17.936 63.151 30.323 C 0.0 **** 0.0
2 H 17.8 63.396 31.377 H 0.0 **** 0.0
3 H 16.965 63.125 29.829 H 0.0 **** 0.0
4 H 18.415 62.176 30.236 H 0.0 **** 0.0
5 H 18.564 63.908 29.852 H 0.0 **** 0.0
@<TRIPOS>BOND
1 1 2 1
2 1 3 1
3 1 4 1
4 1 5 1
@<TRIPOS>MOLECULE
CH4
5 4
SMALL
USER_CHARGES


@<TRIPOS>ATOM
1 C 73.94 64.567 82.339 C 0.0 **** 0.0
2 H 74.334 64.72 83.343 H 0.0 **** 0.0
3 H 72.916 64.199 82.403 H 0.0 **** 0.0
4 H 74.557 63.838 81.814 H 0.0 **** 0.0
5 H 73.953 65.512 81.796 H 0.0 **** 0.0
@<TRIPOS>BOND
1 1 2 1
2 1 3 1
3 1 4 1
4 1 5 1
@<TRIPOS>MOLECULE
CH4
5 4
SMALL
USER_CHARGES


@<TRIPOS>ATOM
1 C 70.17 74.891 38.65 C 0.0 **** 0.0
2 H 69.295 74.59 39.227 H 0.0 **** 0.0
3 H 71.074 74.567 39.167 H 0.0 **** 0.0
4 H 70.18 75.975 38.545 H 0.0 **** 0.0
5 H 70.131 74.43 37.663 H 0.0 **** 0.0
@<TRIPOS>BOND
1 1 2 1
2 1 3 1
3 1 4 1
4 1 5 1
@<TRIPOS>MOLECULE
CH4
5 4
SMALL
USER_CHARGES


@<TRIPOS>ATOM
1 C 14.672 70.233 58.874 C 0.0 **** 0.0
2 H 15.705 70.354 59.2 H 0.0 **** 0.0
3 H 14.075 69.846 59.7 H 0.0 **** 0.0
4 H 14.635 69.534 58.039 H 0.0 **** 0.0
5 H 14.275 71.198 58.559 H 0.0 **** 0.0
@<TRIPOS>BOND
1 1 2 1
2 1 3 1
3 1 4 1
4 1 5 1
@<TRIPOS>MOLECULE
CH4
5 4
SMALL
USER_CHARGES


@<TRIPOS>ATOM
1 C 67.637 33.639 28.966 C 0.0 **** 0.0
2 H 67.208 33.184 29.859 H 0.0 **** 0.0
3 H 66.975 34.425 28.604 H 0.0 **** 0.0
4 H 67.756 32.879 28.194 H 0.0 **** 0.0
5 H 68.611 34.065 29.209 H 0.0 **** 0.0
@<TRIPOS>BOND
1 1 2 1
2 1 3 1
3 1 4 1
4 1 5 1
@<TRIPOS>MOLECULE
CH4
5 4
SMALL
USER_CHARGES


@<TRIPOS>ATOM
1 C 46.329 1.925 63.43 C 0.0 **** 0.0
2 H 46.476 1.709 62.371 H 0.0 **** 0.0
3 H 45.362 1.535 63.749 H 0.0 **** 0.0
4 H 46.358 3.003 63.588 H 0.0 **** 0.0
5 H 47.122 1.452 64.01 H 0.0 **** 0.0
@<TRIPOS>BOND
1 1 2 1
2 1 3 1
3 1 4 1
4 1 5 1
@<TRIPOS>MOLECULE
CH4
5 4
SMALL
USER_CHARGES


@<TRIPOS>ATOM
1 C 33.805 8.581 19.628 C 0.0 **** 0.0
2 H 33.204 8.645 20.535 H 0.0 **** 0.0
3 H 33.309 9.126 18.825 H 0.0 **** 0.0
4 H 33.92 7.536 19.342 H 0.0 **** 0.0
5 H 34.786 9.018 19.812 H 0.0 **** 0.0
@<TRIPOS>BOND
1 1 2 1
2 1 3 1
3 1 4 1
4 1 5 1
@<TRIPOS>MOLECULE
CH4
5 4
SMALL
USER_CHARGES


@<TRIPOS>ATOM
1 C 86.511 87.211 68.175 C 0.0 **** 0.0
2 H 87.047 86.845 69.051 H 0.0 **** 0.0
3 H 86.553 86.463 67.384 H 0.0 **** 0.0
4 H 86.973 88.135 67.827 H 0.0 **** 0.0
5 H 85.471 87.402 68.441 H 0.0 **** 0.0
@<TRIPOS>BOND
1 1 2 1
2 1 3 1
3 1 4 1
4 1 5 1
@<TRIPOS>MOLECULE
CH4
5 4
SMALL
USER_CHARGES


@<TRIPOS>ATOM
1 C 86.406 82.293 56.368 C 0.0 **** 0.0
2 H 86.365 82.385 57.453 H 0.0 **** 0.0
3 H 86.201 81.261 56.083 H 0.0 **** 0.0
4 H 87.398 82.578 56.016 H 0.0 **** 0.0
5 H 85.66 82.949 55.919 H 0.0 **** 0.0
@<TRIPOS>BOND
1 1 2 1
2 1 3 1
3 1 4 1
4 1 5 1
@<TRIPOS>MOLECULE
CH4
5 4
SMALL
USER_CHARGES


@<TRIPOS>ATOM
1 C 83.073 56.022 42.721 C 0.0 **** 0.0
2 H 83.657 55.462 43.452 H 0.0 **** 0.0
3 H 83.059 55.478 41.776 H 0.0 **** 0.0
4 H 83.525 57.002 42.57 H 0.0 **** 0.0
5 H 82.054 56.143 43.086 H 0.0 **** 0.0
@<TRIPOS>BOND
1 1 2 1
2 1 3 1
3 1 4 1
4 1 5 1
@<TRIPOS>MOLECULE
CH4
5 4
SMALL
USER_CHARGES


@<TRIPOS>ATOM
1 C 0.803 50.554 5.814 C 0.0 **** 0.0
2 H 1.471 50.78 6.645 H 0.0 **** 0.0
3 H 1.365 50.065 5.018 H 0.0 **** 0.0
4 H 0.369 51.48 5.436 H 0.0 **** 0.0
5 H 0.007 49.893 6.157 H 0.0 **** 0.0
@<TRIPOS>BOND
1 1 2 1
2 1 3 1
3 1 4 1
4 1 5 1
@<TRIPOS>MOLECULE
CH4
5 4
SMALL
USER_CHARGES


@<TRIPOS>ATOM
1 C 41.99 31.325 27.36 C 0.0 **** 0.0
2 H 42.934 31.61 26.896 H 0.0 **** 0.0
3 H 41.593 32.17 27.923 H 0.0 **** 0.0
4 H 42.156 30.484 28.033 H 0.0 **** 0.0
5 H 41.278 31.036 26.587 H 0.0 **** 0.0
@<TRIPOS>BOND
1 1 2 1
2 1 3 1
3 1 4 1
4 1 5 1
@<TRIPOS>MOLECULE
CH4
5 4
SMALL
USER_CHARGES


@<TRIPOS>ATOM
1 C 4.889 37.715 51.9 C 0.0 **** 0.0
2 H 4.905 37.773 52.988 H 0.0 **** 0.0
3 H 5.818 37.266 51.547 H 0.0 **** 0.0
4 H 4.789 38.718 51.484 H 0.0 **** 0.0
5 H 4.045 37.103 51.581 H 0.0 **** 0.0
@<TRIPOS>BOND
1 1 2 1
2 1 3 1
3 1 4 1
4 1 5 1
@<TRIPOS>MOLECULE
CH4
5 4
SMALL
USER_CHARGES


@<TRIPOS>ATOM
1 C 76.627 80.395 95.497 C 0.0 **** 0.0
2 H 76.491 79.52 94.861 H 0.0 **** 0.0
3 H 77.122 81.183 94.929 H 0.0 **** 0.0
4 H 77.239 80.127 96.358 H 0.0 **** 0.0
5 H 75.654 80.75 95.838 H 0.0 **** 0.0
@<TRIPOS>BOND
1 1 2 1
2 1 3 1
3 1 4 1
4 1 5 1
@<TRIPOS>MOLECULE
CH4
5 4
SMALL
USER_CHARGES


@<TRIPOS>ATOM
1 C 32.924 26.596 48.267 C 0.0 **** 0.0
2 H 33.046 26.609 49.351 H 0.0 **** 0.0
3 H 32.395 27.496 47.952 H 0.0 **** 0.0
4 H 32.35 25.717 47.977 H 0.0 **** 0.0
5 H 33.904 26.565 47.792 H 0.0 **** 0.0
@<TRIPOS>BOND
1 1 2 1
2 1 3 1
3 1 4 1
4 1 5 1
@<TRIPOS>MOLECULE
CH4
5 4
SMALL
USER_CHARGES


@<TRIPOS>ATOM
1 C 84.227 7.662 12.297 C 0.0 **** 0.0
2 H 84.11 7.643 13.38 H 0.0 **** 0.0
3 H 83.585 8.436 11.876 H 0.0 **** 0.0
4 H 83.946 6.693 11.884 H 0.0 **** 0.0
5 H 85.266 7.876 12.048 H 0.0 **** 0.0
@<TRIPOS>BOND
1 1 2 1
2 1 3 1
3 1 4 1
4 1 5 1
@<TRIPOS>MOLECULE
CH4
5 4
SMALL
USER_CHARGES


@<TRIPOS>ATOM
1 C 23.286 68.498 88.67 C 0.0 **** 0.0
2 H 22.955 69.524 88.513 H 0.0 **** 0.0
3 H 23.445 68.327 89.735 H 0.0 **** 0.0
4 H 24.219 68.331 88.132 H 0.0 **** 0.0
5 H 22.525 67.81 88.301 H 0.0 **** 0.0
@<TRIPOS>BOND
1 1 2 1
2 1 3 1
3 1 4 1
4 1 5 1
@<TRIPOS>MOLECULE
CH4
5 4
SMALL
USER_CHARGES


@<TRIPOS>ATOM
1 C 5.945 27.902 49.094 C 0.0 **** 0.0
2 H 5.161 27.216 48.774 H 0.0 **** 0.0
3 H 6.73 27.934 48.337 H 0.0 **** 0.0
4 H 6.365 27.557 50.039 H 0.0 **** 0.0
5 H 5.525 28.899 49.225 H 0.0 **** 0.0
@<TRIPOS>BOND
1 1 2 1
2 1 3 1
3 1 4 1
4 1 5 1
@<TRIPOS>MOLECULE
CH4
5 4
SMALL
USER_CHARGES


@<TRIPOS>ATOM
1 C 95.231 77.055 9.391 C 0.0 **** 0.0
2 H 95.261 78.137 9.518 H 0.0 **** 0.0
3 H 96.224 76.641 9.566 H 0.0 **** 0.0
4 H 94.912 76.818 8.376 H 0.0 **** 0.0
5 H 94.526 76.626 10.103 H 0.0 **** 0.0
@<TRIPOS>BOND
1 1 2 1
2 1 3 1
3 1 4 1
4 1 5 1
@<TRIPOS>MOLECULE
CH4
5 4
SMALL
USER_CHARGES


@<TRIPOS>ATOM
1 C 34.871 10.883 62.246 C 0.0 **** 0.0
2 H 35.147 10.0 62.822 H 0.0 **** 0.0
3 H 33.955 10.681 61.689 H 0.0 **** 0.0
4 H 35.673 11.128 61.551 H 0.0 **** 0.0
5 H 34.707 11.722 62.923 H 0.0 **** 0.0
@<TRIPOS>BOND
1 1 2 1
2 1 3 1
3 1 4 1
4 1 5 1
@<TRIPOS>MOLECULE
CH4
5 4
SMALL
USER_CHARGES


@<TRIPOS>ATOM
1 C 28.436 79.955 39.561 C 0.0 **** 0.0
2 H 28.259 80.552 40.456 H 0.0 **** 0.0
3 H 27.906 80.399 38.718 H 0.0 **** 0.0
4 H 28.076 78.94 39.724 H 0.0 **** 0.0
5 H 29.505 79.932 39.347 H 0.0 **** 0.0
@<TRIPOS>BOND
1 1 2 1
2 1 3 1
3 1 4 1
4 1 5 1
@<TRIPOS>MOLECULE
CH4
5 4
SMALL
USER_CHARGES


@<TRIPOS>ATOM
1 C 43.117 92.834 4.545 C 0.0 **** 0.0
2 H 43.316 92.614 3.496 H 0.0 **** 0.0
3 H 43.969 92.522 5.149 H 0.0 **** 0.0
4 H 42.226 92.295 4.866 H 0.0 **** 0.0
5 H 42.957 93.906 4.667 H 0.0 **** 0.0
@<TRIPOS>BOND
1 1 2 1
2 1 3 1
3 1 4 1
4 1 5 1
@<TRIPOS>MOLECULE
CH4
5 4
SMALL
USER_CHARGES


@<TRIPOS>ATOM
1 C 22.946 65.953 12.649 C 0.0 **** 0.0
2 H 23.035 65.924 11.563 H 0.0 **** 0.0
3 H 23.392 65.054 13.075 H 0.0 **** 0.0
4 H 21.893 66.003 12.926 H 0.0 **** 0.0
5 H 23.464 66.833 13.032 H 0.0 **** 0.0
@<TRIPOS>BOND
1 1 2 1
2 1 3 1
3 1 4 1
4 1 5 1
@<TRIPOS>MOLECULE
CH4
5 4
SMALL
USER_CHARGES


@<TRIPOS>ATOM
1 C 56.144 42.562 93.082 C 0.0 **** 0.0
2 H 56.578 43.543 92.893 H 0.0 **** 0.0
3 H 56.334 41.909 92.23 H 0.0 **** 0.0
4 H 55.068 42.663 93.23 H 0.0 **** 0.0
5 H 56.594 42.133 93.977 H 0.0 **** 0.0
@<TRIPOS>BOND
1 1 2 1
2 1 3 1
3 1 4 1
4 1 5 1
@<TRIPOS>MOLECULE
CH4
5 4
SMALL
USER_CHARGES


@<TRIPOS>ATOM
1 C 49.502 66.401 83.139 C 0.0 **** 0.0
2 H 48.886 67.284 82.969 H 0.0 **** 0.0
3 H 49.098 65.831 83.976 H 0.0 **** 0.0
4 H 50.522 66.709 83.368 H 0.0 **** 0.0
5 H 49.503 65.78 82.243 H 0.0 **** 0.0
@<TRIPOS>BOND
1 1 2 1
2 1 3 1
3 1 4 1
4 1 5 1
@<TRIPOS>MOLECULE
CH4
5 4
SMALL
USER_CHARGES


@<TRIPOS>ATOM
1 C 52.563 90.671 96.023 C 0.0 **** 0.0
2 H 53.647 90.74 96.113 H 0.0 **** 0.0
3 H 52.114 91.625 96.302 H 0.0 **** 0.0
4 H 52.193 89.888 96.685 H 0.0 **** 0.0
5 H 52.299 90.432 94.993 H 0.0 **** 0.0
@<TRIPOS>BOND
1 1 2 1
2 1 3 1
3 1 4 1
4 1 5 1
@<TRIPOS>MOLECULE
CH4
5 4
SMALL
USER_CHARGES


@<TRIPOS>ATOM
1 C 46.529 35.0 2.897 C 0.0 **** 0.0
2 H 45.96 35.748 2.346 H 0.0 **** 0.0
3 H 46.419 35.176 3.967 H 0.0 **** 0.0
4 H 47.582 35.07 2.623 H 0.0 **** 0.0
5 H 46.155 34.006 2.652 H 0.0 **** 0.0
@<TRIPOS>BOND
1 1 2 1
2 1 3 1
3 1 4 1
4 1 5 1
@<TRIPOS>MOLECULE
CH4
5 4
SMALL
USER_CHARGES


@<TRIPOS>ATOM
1 C 51.482 63.653 25.731 C 0.0 **** 0.0
2 H 51.128 63.355 24.744 H 0.0 **** 0.0
3 H 52.013 64.602 25.654 H 0.0 **** 0.0
4 H 52.156 62.889 26.12 H 0.0 **** 0.0
5 H 50.632 63.765 26.403 H 0.0 **** 0.0
@<TRIPOS>BOND
1 1 3 1
2 1 2 1
3 1 4 1
4 1 5 1
@<TRIPOS>MOLECULE
CH4
5 4
SMALL
USER_CHARGES


@<TRIPOS>ATOM
1 C 39.833 46.965 33.869 C 0.0 **** 0.0
2 H 40.1 46.62 32.87 H 0.0 **** 0.0
3 H 39.041 46.333 34.271 H 0.0 **** 0.0
4 H 39.484 47.996 33.816 H 0.0 **** 0.0
5 H 40.707 46.909 34.518 H 0.0 **** 0.0
@<TRIPOS>BOND
1 1 2 1
2 1 3 1
3 1 4 1
4 1 5 1
@<TRIPOS>MOLECULE
CH4
5 4
SMALL
USER_CHARGES


@<TRIPOS>ATOM
1 C 28.279 11.22 56.431 C 0.0 **** 0.0
2 H 28.302 11.515 55.382 H 0.0 **** 0.0
3 H 27.269 11.345 56.821 H 0.0 **** 0.0
4 H 28.969 11.845 56.998 H 0.0 **** 0.0
5 H 28.578 10.176 56.52 H 0.0 **** 0.0
@<TRIPOS>BOND
1 1 2 1
2 1 3 1
3 1 4 1
4 1 5 1
@<TRIPOS>MOLECULE
CH4
5 4
SMALL
USER_CHARGES


@<TRIPOS>ATOM
1 C 44.142 97.589 47.026 C 0.0 **** 0.0
2 H 43.677 98.26 46.303 H 0.0 **** 0.0
3 H 43.94 96.555 46.744 H 0.0 **** 0.0
4 H 43.731 97.782 48.017 H 0.0 **** 0.0
5 H 45.218 97.759 47.039 H 0.0 **** 0.0
@<TRIPOS>BOND
1 1 4 1
2 1 5 1
3 1 2 1
4 1 3 1
@<TRIPOS>MOLECULE
CH4
5 4
SMALL
USER_CHARGES


@<TRIPOS>ATOM
1 C 49.559 27.595 9.396 C 0.0 **** 0.0
2 H 49.743 27.595 8.322 H 0.0 **** 0.0
3 H 49.897 26.65 9.823 H 0.0 **** 0.0
4 H 48.491 27.716 9.581 H 0.0 **** 0.0
5 H 50.103 28.418 9.858 H 0.0 **** 0.0
@<TRIPOS>BOND
1 1 2 1
2 1 3 1
3 1 4 1
4 1 5 1
@<TRIPOS>MOLECULE
CH4
5 4
SMALL
USER_CHARGES


@<TRIPOS>ATOM
1 C 14.299 82.639 7.948 C 0.0 **** 0.0
2 H 14.772 82.02 7.186 H 0.0 **** 0.0
3 H 14.408 82.162 8.922 H 0.0 **** 0.0
4 H 13.24 82.756 7.716 H 0.0 **** 0.0
5 H 14.776 83.619 7.967 H 0.0 **** 0.0
@<TRIPOS>BOND
1 1 2 1
2 1 3 1
3 1 4 1
4 1 5 1
@<TRIPOS>MOLECULE
CH4
5 4
SMALL
USER_CHARGES


@<TRIPOS>ATOM
1 C 51.175 50.395 87.927 C 0.0 **** 0.0
2 H 51.019 50.944 86.997 H 0.0 **** 0.0
3 H 50.877 51.019 88.77 H 0.0 **** 0.0
4 H 52.229 50.133 88.021 H 0.0 **** 0.0
5 H 50.574 49.486 87.917 H 0.0 **** 0.0
@<TRIPOS>BOND
1 1 2 1
2 1 3 1
3 1 4 1
4 1 5 1
@<TRIPOS>MOLECULE
CH4
5 4
SMALL
USER_CHARGES


@<TRIPOS>ATOM
1 C 8.838 51.87 90.286 C 0.0 **** 0.0
2 H 7.887 52.396 90.203 H 0.0 **** 0.0
3 H 9.252 52.025 91.282 H 0.0 **** 0.0
4 H 9.532 52.255 89.539 H 0.0 **** 0.0
5 H 8.679 50.804 90.12 H 0.0 **** 0.0
@<TRIPOS>BOND
1 1 2 1
2 1 3 1
3 1 4 1
4 1 5 1
@<TRIPOS>MOLECULE
CH4
5 4
SMALL
USER_CHARGES


@<TRIPOS>ATOM
1 C 20.574 65.584 54.495 C 0.0 **** 0.0
2 H 20.453 66.585 54.911 H 0.0 **** 0.0
3 H 19.726 65.354 53.85 H 0.0 **** 0.0
4 H 20.622 64.858 55.306 H 0.0 **** 0.0
5 H 21.496 65.542 53.915 H 0.0 **** 0.0
@<TRIPOS>BOND
1 1 2 1
2 1 3 1
3 1 4 1
4 1 5 1
@<TRIPOS>MOLECULE
CH4
5 4
SMALL
USER_CHARGES


@<TRIPOS>ATOM
1 C 16.191 71.565 89.348 C 0.0 **** 0.0
2 H 15.838 72.551 89.651 H 0.0 **** 0.0
3 H 15.341 70.887 89.261 H 0.0 **** 0.0
4 H 16.886 71.183 90.095 H 0.0 **** 0.0
5 H 16.697 71.64 88.386 H 0.0 **** 0.0
@<TRIPOS>BOND
1 1 2 1
2 1 3 1
3 1 4 1
4 1 5 1
@<TRIPOS>MOLECULE
CH4
5 4
SMALL
USER_CHARGES


@<TRIPOS>ATOM
1 C 84.946 18.289 76.854 C 0.0 **** 0.0
2 H 84.988 18.203 77.94 H 0.0 **** 0.0
3 H 85.951 18.191 76.443 H 0.0 **** 0.0
4 H 84.536 19.262 76.583 H 0.0 **** 0.0
5 H 84.31 17.501 76.452 H 0.0 **** 0.0
@<TRIPOS>BOND
1 1 2 1
2 1 3 1
3 1 4 1
4 1 5 1
@<TRIPOS>MOLECULE
CH4
5 4
SMALL
USER_CHARGES


@<TRIPOS>ATOM
1 C 42.135 61.216 20.505 C 0.0 **** 0.0
2 H 41.767 61.681 21.419 H 0.0 **** 0.0
3 H 42.728 60.337 20.758 H 0.0 **** 0.0
4 H 42.756 61.928 19.96 H 0.0 **** 0.0
5 H 41.291 60.919 19.883 H 0.0 **** 0.0
@<TRIPOS>BOND
1 1 2 1
2 1 3 1
3 1 4 1
4 1 5 1
@<TRIPOS>MOLECULE
CH4
5 4
SMALL
USER_CHARGES


@<TRIPOS>ATOM
1 C 9.553 94.342 18.929 C 0.0 **** 0.0
2 H 9.395 94.528 19.991 H 0.0 **** 0.0
3 H 9.301 93.307 18.7 H 0.0 **** 0.0
4 H 10.598 94.526 18.68 H 0.0 **** 0.0
5 H 8.918 95.009 18.345 H 0.0 **** 0.0
@<TRIPOS>BOND
1 1 2 1
2 1 3 1
3 1 4 1
4 1 5 1
@<TRIPOS>MOLECULE
CH4
5 4
SMALL
USER_CHARGES


@<TRIPOS>ATOM
1 C 18.968 12.357 5.16 C 0.0 **** 0.0
2 H 19.604 12.433 4.278 H 0.0 **** 0.0
3 H 18.936 11.321 5.497 H 0.0 **** 0.0
4 H 17.961 12.69 4.91 H 0.0 **** 0.0
5 H 19.372 12.986 5.954 H 0.0 **** 0.0
@<TRIPOS>BOND
1 1 2 1
2 1 3 1
3 1 4 1
4 1 5 1
@<TRIPOS>MOLECULE
CH4
5 4
SMALL
USER_CHARGES


@<TRIPOS>ATOM
1 C 92.668 92.203 55.574 C 0.0 **** 0.0
2 H 92.787 93.255 55.316 H 0.0 **** 0.0
3 H 93.448 91.619 55.086 H 0.0 **** 0.0
4 H 91.69 91.856 55.241 H 0.0 **** 0.0
5 H 92.747 92.084 56.655 H 0.0 **** 0.0
@<TRIPOS>BOND
1 1 2 1
2 1 3 1
3 1 4 1
4 1 5 1
@<TRIPOS>MOLECULE
CH4
5 4
SMALL
USER_CHARGES


@<TRIPOS>ATOM
1 C 51.265 89.228 16.74 C 0.0 **** 0.0
2 H 50.731 89.775 17.517 H 0.0 **** 0.0
3 H 50.583 88.533 16.251 H 0.0 **** 0.0
4 H 52.09 88.674 17.187 H 0.0 **** 0.0
5 H 51.656 89.932 16.005 H 0.0 **** 0.0
@<TRIPOS>BOND
1 1 2 1
2 1 3 1
3 1 4 1
4 1 5 1
@<TRIPOS>MOLECULE
CH4
5 4
SMALL
USER_CHARGES


@<TRIPOS>ATOM
1 C 46.888 40.829 20.06 C 0.0 **** 0.0
2 H 47.211 41.242 19.104 H 0.0 **** 0.0
3 H 46.491 39.826 19.906 H 0.0 **** 0.0
4 H 46.113 41.466 20.487 H 0.0 **** 0.0
5 H 47.738 40.784 20.741 H 0.0 **** 0.0
@<TRIPOS>BOND
1 1 2 1
2 1 3 1
3 1 4 1
4 1 5 1
@<TRIPOS>MOLECULE
CH4
5 4
SMALL
USER_CHARGES


@<TRIPOS>ATOM
1 C 86.661 88.755 92.702 C 0.0 **** 0.0
2 H 86.504 88.391 93.718 H 0.0 **** 0.0
3 H 86.648 87.913 92.009 H 0.0 **** 0.0
4 H 87.624 89.261 92.643 H 0.0 **** 0.0
5 H 85.866 89.453 92.44 H 0.0 **** 0.0
@<TRIPOS>BOND
1 1 2 1
2 1 3 1
3 1 4 1
4 1 5 1
@<TRIPOS>MOLECULE
CH4
5 4
SMALL
USER_CHARGES


@<TRIPOS>ATOM
1 C 10.081 92.492 77.241 C 0.0 **** 0.0
2 H 9.048 92.431 76.899 H 0.0 **** 0.0
3 H 10.11 92.962 78.224 H 0.0 **** 0.0
4 H 10.663 93.085 76.536 H 0.0 **** 0.0
5 H 10.501 91.488 77.306 H 0.0 **** 0.0
@<TRIPOS>BOND
1 1 2 1
2 1 3 1
3 1 4 1
4 1 5 1
@<TRIPOS>MOLECULE
CH4
5 4
SMALL
USER_CHARGES


@<TRIPOS>ATOM
1 C 17.116 46.349 87.806 C 0.0 **** 0.0
2 H 16.086 45.991 87.807 H 0.0 **** 0.0
3 H 17.796 45.498 87.83 H 0.0 **** 0.0
4 H 17.284 46.974 88.684 H 0.0 **** 0.0
5 H 17.296 46.934 86.904 H 0.0 **** 0.0
@<TRIPOS>BOND
1 1 5 1
2 1 2 1
3 1 3 1
4 1 4 1
@<TRIPOS>MOLECULE
CH4
5 4
SMALL
USER_CHARGES


@<TRIPOS>ATOM
1 C 72.123 43.033 51.034 C 0.0 **** 0.0
2 H 71.95 42.955 52.107 H 0.0 **** 0.0
3 H 71.879 42.083 50.557 H 0.0 **** 0.0
4 H 73.171 43.272 50.851 H 0.0 **** 0.0
5 H 71.493 43.82 50.62 H 0.0 **** 0.0
@<TRIPOS>BOND
1 1 2 1
2 1 3 1
3 1 4 1
4 1 5 1
@<TRIPOS>MOLECULE
CH4
5 4
SMALL
USER_CHARGES


@<TRIPOS>ATOM
1 C 59.463 75.301 92.159 C 0.0 **** 0.0
2 H 58.381 75.331 92.285 H 0.0 **** 0.0
3 H 59.938 75.147 93.128 H 0.0 **** 0.0
4 H 59.804 76.245 91.733 H 0.0 **** 0.0
5 H 59.728 74.483 91.489 H 0.0 **** 0.0
@<TRIPOS>BOND
1 1 2 1
2 1 3 1
3 1 4 1
4 1 5 1
@<TRIPOS>MOLECULE
CH4
5 4
SMALL
USER_CHARGES


@<TRIPOS>ATOM
1 C 5.331 89.138 49.173 C 0.0 **** 0.0
2 H 5.394 89.396 48.116 H 0.0 **** 0.0
3 H 5.778 89.934 49.769 H 0.0 **** 0.0
4 H 5.866 88.206 49.351 H 0.0 **** 0.0
5 H 4.285 89.016 49.455 H 0.0 **** 0.0
@<TRIPOS>BOND
1 1 2 1
2 1 3 1
3 1 4 1
4 1 5 1
@<TRIPOS>MOLECULE
CH4
5 4
SMALL
USER_CHARGES


@<TRIPOS>ATOM
1 C 29.218 7.642 42.251 C 0.0 **** 0.0
2 H 29.753 8.392 41.67 H 0.0 **** 0.0
3 H 29.878 6.797 42.448 H 0.0 **** 0.0
4 H 28.348 7.3 41.69 H 0.0 **** 0.0
5 H 28.893 8.078 43.196 H 0.0 **** 0.0
@<TRIPOS>BOND
1 1 2 1
2 1 3 1
3 1 4 1
4 1 5 1
@<TRIPOS>MOLECULE
CH4
5 4
SMALL
USER_CHARGES


@<TRIPOS>ATOM
1 C 48.024 3.271 79.964 C 0.0 **** 0.0
2 H 46.985 3.079 79.695 H 0.0 **** 0.0
3 H 48.661 2.503 79.525 H 0.0 **** 0.0
4 H 48.126 3.253 81.049 H 0.0 **** 0.0
5 H 48.321 4.25 79.588 H 0.0 **** 0.0
@<TRIPOS>BOND
1 1 2 1
2 1 3 1
3 1 4 1
4 1 5 1
@<TRIPOS>MOLECULE
CH4
5 4
SMALL
USER_CHARGES


@<TRIPOS>ATOM
1 C 63.773 86.887 8.041 C 0.0 **** 0.0
2 H 64.363 85.972 8.104 H 0.0 **** 0.0
3 H 62.746 86.677 8.343 H 0.0 **** 0.0
4 H 63.783 87.256 7.016 H 0.0 **** 0.0
5 H 64.2 87.64 8.703 H 0.0 **** 0.0
@<TRIPOS>BOND
1 1 2 1
2 1 3 1
3 1 4 1
4 1 5 1
@<TRIPOS>MOLECULE
CH4
5 4
SMALL
USER_CHARGES


@<TRIPOS>ATOM
1 C 70.086 43.976 2.993 C 0.0 **** 0.0
2 H 70.084 43.975 4.083 H 0.0 **** 0.0
3 H 69.822 42.984 2.628 H 0.0 **** 0.0
4 H 71.079 44.244 2.633 H 0.0 **** 0.0
5 H 69.359 44.703 2.63 H 0.0 **** 0.0
@<TRIPOS>BOND
1 1 2 1
2 1 3 1
3 1 4 1
4 1 5 1
@<TRIPOS>MOLECULE
CH4
5 4
SMALL
USER_CHARGES


@<TRIPOS>ATOM
1 C 14.431 98.099 81.587 C 0.0 **** 0.0
2 H 14.012 97.789 82.545 H 0.0 **** 0.0
3 H 13.922 99.0 81.243 H 0.0 **** 0.0
4 H 14.294 97.302 80.856 H 0.0 **** 0.0
5 H 15.495 98.304 81.706 H 0.0 **** 0.0
@<TRIPOS>BOND
1 1 2 1
2 1 3 1
3 1 4 1
4 1 5 1
@<TRIPOS>MOLECULE
CH4
5 4
SMALL
USER_CHARGES


@<TRIPOS>ATOM
1 C 8.916 52.186 39.313 C 0.0 **** 0.0
2 H 8.432 53.06 39.749 H 0.0 **** 0.0
3 H 9.351 51.579 40.107 H 0.0 **** 0.0
4 H 9.702 52.509 38.63 H 0.0 **** 0.0
5 H 8.179 51.598 38.767 H 0.0 **** 0.0
@<TRIPOS>BOND
1 1 2 1
2 1 3 1
3 1 4 1
4 1 5 1
@<TRIPOS>MOLECULE
CH4
5 4
SMALL
USER_CHARGES


@<TRIPOS>ATOM
1 C 72.277 49.951 83.037 C 0.0 **** 0.0
2 H 72.468 50.737 82.307 H 0.0 **** 0.0
3 H 73.019 49.161 82.923 H 0.0 **** 0.0
4 H 71.28 49.539 82.875 H 0.0 **** 0.0
5 H 72.339 50.366 84.043 H 0.0 **** 0.0
@<TRIPOS>BOND
1 1 2 1
2 1 3 1
3 1 4 1
4 1 5 1
@<TRIPOS>MOLECULE
CH4
5 4
SMALL
USER_CHARGES


@<TRIPOS>ATOM
1 C 59.582 69.622 12.743 C 0.0 **** 0.0
2 H 59.63 69.087 11.794 H 0.0 **** 0.0
3 H 60.551 70.075 12.954 H 0.0 **** 0.0
4 H 59.324 68.925 13.54 H 0.0 **** 0.0
5 H 58.823 70.402 12.682 H 0.0 **** 0.0
@<TRIPOS>BOND
1 1 2 1
2 1 3 1
3 1 4 1
4 1 5 1
@<TRIPOS>MOLECULE
CH4
5 4
SMALL
USER_CHARGES


@<TRIPOS>ATOM
1 C 6.686 69.912 14.361 C 0.0 **** 0.0
2 H 6.829 69.481 15.351 H 0.0 **** 0.0
3 H 5.662 70.274 14.267 H 0.0 **** 0.0
4 H 6.875 69.152 13.603 H 0.0 **** 0.0
5 H 7.379 70.743 14.223 H 0.0 **** 0.0
@<TRIPOS>BOND
1 1 2 1
2 1 3 1
3 1 4 1
4 1 5 1
@<TRIPOS>MOLECULE
CH4
5 4
SMALL
USER_CHARGES


@<TRIPOS>ATOM
1 C 28.044 6.39 18.304 C 0.0 **** 0.0
2 H 27.68 5.447 18.71 H 0.0 **** 0.0
3 H 28.759 6.19 17.506 H 0.0 **** 0.0
4 H 28.532 6.961 19.094 H 0.0 **** 0.0
5 H 27.206 6.963 17.907 H 0.0 **** 0.0
@<TRIPOS>BOND
1 1 2 1
2 1 3 1
3 1 4 1
4 1 5 1
@<TRIPOS>MOLECULE
CH4
5 4
SMALL
USER_CHARGES


@<TRIPOS>ATOM
1 C 47.204 24.953 88.118 C 0.0 **** 0.0
2 H 46.801 24.473 89.01 H 0.0 **** 0.0
3 H 48.19 25.361 88.339 H 0.0 **** 0.0
4 H 46.538 25.758 87.807 H 0.0 **** 0.0
5 H 47.285 24.218 87.316 H 0.0 **** 0.0
@<TRIPOS>BOND
1 1 2 1
2 1 3 1
3 1 4 1
4 1 5 1
@<TRIPOS>MOLECULE
CH4
5 4
SMALL
USER_CHARGES


@<TRIPOS>ATOM
1 C 72.325 55.932 61.105 C 0.0 **** 0.0
2 H 72.513 55.941 62.178 H 0.0 **** 0.0
3 H 72.871 55.107 60.647 H 0.0 **** 0.0
4 H 72.659 56.875 60.671 H 0.0 **** 0.0
5 H 71.258 55.806 60.924 H 0.0 **** 0.0
@<TRIPOS>BOND
1 1 2 1
2 1 3 1
3 1 4 1
4 1 5 1
@<TRIPOS>MOLECULE
CH4
5 4
SMALL
USER_CHARGES


@<TRIPOS>ATOM
1 C 43.288 79.367 39.651 C 0.0 **** 0.0
2 H 43.285 80.27 39.04 H 0.0 **** 0.0
3 H 42.7 78.593 39.157 H 0.0 **** 0.0
4 H 42.853 79.587 40.626 H 0.0 **** 0.0
5 H 44.313 79.02 39.78 H 0.0 **** 0.0
@<TRIPOS>BOND
1 1 2 1
2 1 3 1
3 1 4 1
4 1 5 1
@<TRIPOS>MOLECULE
CH4
5 4
SMALL
USER_CHARGES


@<TRIPOS>ATOM
1 C 19.019 7.074 21.069 C 0.0 **** 0.0
2 H 18.923 7.629 20.136 H 0.0 **** 0.0
3 H 18.409 7.548 21.838 H 0.0 **** 0.0
4 H 20.062 7.07 21.383 H 0.0 **** 0.0
5 H 18.681 6.049 20.917 H 0.0 **** 0.0
@<TRIPOS>BOND
1 1 4 1
2 1 5 1
3 1 2 1
4 1 3 1
@<TRIPOS>MOLECULE
CH4
5 4
SMALL
USER_CHARGES


@<TRIPOS>ATOM
1 C 35.852 83.338 51.389 C 0.0 **** 0.0
2 H 36.606 83.932 51.906 H 0.0 **** 0.0
3 H 36.338 82.523 50.853 H 0.0 **** 0.0
4 H 35.314 83.969 50.683 H 0.0 **** 0.0
5 H 35.152 82.927 52.117 H 0.0 **** 0.0
@<TRIPOS>BOND
1 1 2 1
2 1 3 1
3 1 4 1
4 1 5 1
@<TRIPOS>MOLECULE
CH4
5 4
SMALL
USER_CHARGES


@<TRIPOS>ATOM
1 C 8.661 33.357 35.09 C 0.0 **** 0.0
2 H 8.813 34.288 35.635 H 0.0 **** 0.0
3 H 7.597 33.219 34.896 H 0.0 **** 0.0
4 H 9.033 32.523 35.684 H 0.0 **** 0.0
5 H 9.201 33.398 34.144 H 0.0 **** 0.0
@<TRIPOS>BOND
1 1 2 1
2 1 3 1
3 1 4 1
4 1 5 1
@<TRIPOS>MOLECULE
CH4
5 4
SMALL
USER_CHARGES


@<TRIPOS>ATOM
1 C 35.056 83.822 0.958 C 0.0 **** 0.0
2 H 34.385 83.687 1.806 H 0.0 **** 0.0
3 H 35.697 82.945 0.859 H 0.0 **** 0.0
4 H 35.672 84.706 1.119 H 0.0 **** 0.0
5 H 34.47 83.948 0.048 H 0.0 **** 0.0
@<TRIPOS>BOND
1 1 2 1
2 1 3 1
3 1 4 1
4 1 5 1
@<TRIPOS>MOLECULE
CH4
5 4
SMALL
USER_CHARGES


@<TRIPOS>ATOM
1 C 87.136 42.103 74.825 C 0.0 **** 0.0
2 H 87.908 41.603 75.409 H 0.0 **** 0.0
3 H 87.081 41.654 73.834 H 0.0 **** 0.0
4 H 87.38 43.162 74.732 H 0.0 **** 0.0
5 H 86.174 41.996 75.327 H 0.0 **** 0.0
@<TRIPOS>BOND
1 1 2 1
2 1 3 1
3 1 4 1
4 1 5 1
@<TRIPOS>MOLECULE
CH4
5 4
SMALL
USER_CHARGES


@<TRIPOS>ATOM
1 C 14.14 73.919 22.019 C 0.0 **** 0.0
2 H 14.259 73.945 20.936 H 0.0 **** 0.0
3 H 13.82 72.923 22.325 H 0.0 **** 0.0
4 H 13.391 74.651 22.32 H 0.0 **** 0.0
5 H 15.092 74.157 22.495 H 0.0 **** 0.0
@<TRIPOS>BOND
1 1 2 1
2 1 3 1
3 1 4 1
4 1 5 1
@<TRIPOS>MOLECULE
CH4
5 4
SMALL
USER_CHARGES


@<TRIPOS>ATOM
1 C 18.57 14.948 40.779 C 0.0 **** 0.0
2 H 18.729 14.01 40.247 H 0.0 **** 0.0
3 H 18.298 15.728 40.067 H 0.0 **** 0.0
4 H 19.486 15.231 41.297 H 0.0 **** 0.0
5 H 17.766 14.822 41.504 H 0.0 **** 0.0
@<TRIPOS>BOND
1 1 2 1
2 1 3 1
3 1 4 1
4 1 5 1
@<TRIPOS>MOLECULE
CH4
5 4
SMALL
USER_CHARGES


@<TRIPOS>ATOM
1 C 61.323 82.651 95.705 C 0.0 **** 0.0
2 H 62.188 83.001 96.267 H 0.0 **** 0.0
3 H 61.008 83.425 95.005 H 0.0 **** 0.0
4 H 60.507 82.431 96.394 H 0.0 **** 0.0
5 H 61.588 81.749 95.155 H 0.0 **** 0.0
@<TRIPOS>BOND
1 1 2 1
2 1 3 1
3 1 4 1
4 1 5 1
@<TRIPOS>MOLECULE
CH4
5 4
SMALL
USER_CHARGES


@<TRIPOS>ATOM
1 C 77.638 96.182 12.733 C 0.0 **** 0.0
2 H 77.873 96.731 11.821 H 0.0 **** 0.0
3 H 77.819 96.82 13.598 H 0.0 **** 0.0
4 H 78.27 95.296 12.796 H 0.0 **** 0.0
5 H 76.591 95.88 12.715 H 0.0 **** 0.0
@<TRIPOS>BOND
1 1 2 1
2 1 3 1
3 1 4 1
4 1 5 1
@<TRIPOS>MOLECULE
CH4
5 4
SMALL
USER_CHARGES


@<TRIPOS>ATOM
1 C 87.752 46.988 16.956 C 0.0 **** 0.0
2 H 87.816 47.074 15.872 H 0.0 **** 0.0
3 H 88.367 47.76 17.419 H 0.0 **** 0.0
4 H 88.109 46.005 17.264 H 0.0 **** 0.0
5 H 86.716 47.113 17.27 H 0.0 **** 0.0
@<TRIPOS>BOND
1 1 2 1
2 1 3 1
3 1 4 1
4 1 5 1
@<TRIPOS>MOLECULE
CH4
5 4
SMALL
USER_CHARGES


@<TRIPOS>ATOM
1 C 71.5 61.707 89.612 C 0.0 **** 0.0
2 H 72.232 60.979 89.261 H 0.0 **** 0.0
3 H 70.956 62.114 88.759 H 0.0 **** 0.0
4 H 72.014 62.514 90.134 H 0.0 **** 0.0
5 H 70.801 61.221 90.292 H 0.0 **** 0.0
@<TRIPOS>BOND
1 1 2 1
2 1 3 1
3 1 4 1
4 1 5 1
@<TRIPOS>MOLECULE
CH4
5 4
SMALL
USER_CHARGES


@<TRIPOS>ATOM
1 C 43.963 94.734 82.778 C 0.0 **** 0.0
2 H 43.398 95.424 82.151 H 0.0 **** 0.0
3 H 43.537 93.734 82.693 H 0.0 **** 0.0
4 H 43.914 95.063 83.816 H 0.0 **** 0.0
5 H 45.003 94.716 82.451 H 0.0 **** 0.0
@<TRIPOS>BOND
1 1 2 1
2 1 3 1
3 1 4 1
4 1 5 1
@<TRIPOS>MOLECULE
CH4
5 4
SMALL
USER_CHARGES


@<TRIPOS>ATOM
1 C 61.291 17.804 30.29 C 0.0 **** 0.0
2 H 62.343 17.771 30.572 H 0.0 **** 0.0
3 H 60.888 18.794 30.505 H 0.0 **** 0.0
4 H 60.738 17.056 30.858 H 0.0 **** 0.0
5 H 61.194 17.596 29.224 H 0.0 **** 0.0
@<TRIPOS>BOND
1 1 2 1
2 1 3 1
3 1 4 1
4 1 5 1
@<TRIPOS>MOLECULE
CH4
5 4
SMALL
USER_CHARGES


@<TRIPOS>ATOM
1 C 91.999 96.689 2.483 C 0.0 **** 0.0
2 H 91.969 96.997 3.528 H 0.0 **** 0.0
3 H 91.652 95.659 2.397 H 0.0 **** 0.0
4 H 93.022 96.76 2.112 H 0.0 **** 0.0
5 H 91.353 97.341 1.894 H 0.0 **** 0.0
@<TRIPOS>BOND
1 1 2 1
2 1 3 1
3 1 4 1
4 1 5 1
@<TRIPOS>MOLECULE
CH4
5 4
SMALL
USER_CHARGES


@<TRIPOS>ATOM
1 C 24.963 15.01 81.052 C 0.0 **** 0.0
2 H 25.891 15.218 81.585 H 0.0 **** 0.0
3 H 24.799 15.777 80.295 H 0.0 **** 0.0
4 H 24.132 15.011 81.758 H 0.0 **** 0.0
5 H 25.03 14.034 80.572 H 0.0 **** 0.0
@<TRIPOS>BOND
1 1 2 1
2 1 3 1
3 1 4 1
4 1 5 1
@<TRIPOS>MOLECULE
CH4
5 4
SMALL
USER_CHARGES


@<TRIPOS>ATOM
1 C 30.248 28.369 66.112 C 0.0 **** 0.0
2 H 31.116 28.267 66.763 H 0.0 **** 0.0
3 H 30.427 27.828 65.182 H 0.0 **** 0.0
4 H 30.079 29.423 65.894 H 0.0 **** 0.0
5 H 29.371 27.955 66.61 H 0.0 **** 0.0
@<TRIPOS>BOND
1 1 2 1
2 1 3 1
3 1 4 1
4 1 5 1
@<TRIPOS>MOLECULE
CH4
5 4
SMALL
USER_CHARGES


@<TRIPOS>ATOM
1 C 98.038 48.861 2.37 C 0.0 **** 0.0
2 H 98.21 49.239 1.362 H 0.0 **** 0.0
3 H 97.243 49.438 2.843 H 0.0 **** 0.0
4 H 98.953 48.956 2.954 H 0.0 **** 0.0
5 H 97.746 47.812 2.32 H 0.0 **** 0.0
@<TRIPOS>BOND
1 1 2 1
2 1 3 1
3 1 4 1
4 1 5 1
@<TRIPOS>MOLECULE
CH4
5 4
SMALL
USER_CHARGES


@<TRIPOS>ATOM
1 C 14.295 30.638 65.443 C 0.0 **** 0.0
2 H 14.385 30.345 64.398 H 0.0 **** 0.0
3 H 14.129 31.714 65.506 H 0.0 **** 0.0
4 H 15.212 30.38 65.973 H 0.0 **** 0.0
5 H 13.453 30.114 65.896 H 0.0 **** 0.0
@<TRIPOS>BOND
1 1 3 1
2 1 4 1
3 1 5 1
4 1 2 1
@<TRIPOS>MOLECULE
CH4
5 4
SMALL
USER_CHARGES


@<TRIPOS>ATOM
1 C 18.121 60.602 8.212 C 0.0 **** 0.0
2 H 17.892 59.899 9.013 H 0.0 **** 0.0
3 H 17.198 60.893 7.709 H 0.0 **** 0.0
4 H 18.792 60.129 7.494 H 0.0 **** 0.0
5 H 18.602 61.486 8.631 H 0.0 **** 0.0
@<TRIPOS>BOND
1 1 2 1
2 1 3 1
3 1 4 1
4 1 5 1
@<TRIPOS>MOLECULE
CH4
5 4
SMALL
USER_CHARGES


@<TRIPOS>ATOM
1 C 67.507 15.301 6.402 C 0.0 **** 0.0
2 H 66.719 15.033 5.698 H 0.0 **** 0.0
3 H 68.134 16.079 5.966 H 0.0 **** 0.0
4 H 68.115 14.422 6.617 H 0.0 **** 0.0
5 H 67.059 15.668 7.325 H 0.0 **** 0.0
@<TRIPOS>BOND
1 1 2 1
2 1 3 1
3 1 4 1
4 1 5 1
@<TRIPOS>MOLECULE
CH4
5 4
SMALL
USER_CHARGES


@<TRIPOS>ATOM
1 C 96.864 90.654 46.166 C 0.0 **** 0.0
2 H 96.738 90.66 47.249 H 0.0 **** 0.0
3 H 97.188 89.664 45.844 H 0.0 **** 0.0
4 H 97.615 91.392 45.884 H 0.0 **** 0.0
5 H 95.916 90.899 45.689 H 0.0 **** 0.0
@<TRIPOS>BOND
1 1 2 1
2 1 3 1
3 1 4 1
4 1 5 1
@<TRIPOS>MOLECULE
CH4
5 4
SMALL
USER_CHARGES


@<TRIPOS>ATOM
1 C 81.894 92.648 82.38 C 0.0 **** 0.0
2 H 81.876 92.652 83.47 H 0.0 **** 0.0
3 H 82.237 91.676 82.026 H 0.0 **** 0.0
4 H 82.573 93.424 82.025 H 0.0 **** 0.0
5 H 80.891 92.841 82.0 H 0.0 **** 0.0
@<TRIPOS>BOND
1 1 2 1
2 1 3 1
3 1 4 1
4 1 5 1
@<TRIPOS>MOLECULE
CH4
5 4
SMALL
USER_CHARGES


@<TRIPOS>ATOM
1 C 94.433 75.678 84.063 C 0.0 **** 0.0
2 H 94.65 75.349 83.047 H 0.0 **** 0.0
3 H 94.799 74.935 84.771 H 0.0 **** 0.0
4 H 93.357 75.798 84.184 H 0.0 **** 0.0
5 H 94.928 76.632 84.248 H 0.0 **** 0.0
@<TRIPOS>BOND
1 1 2 1
2 1 3 1
3 1 4 1
4 1 5 1
@<TRIPOS>MOLECULE
CH4
5 4
SMALL
USER_CHARGES


@<TRIPOS>ATOM
1 C 87.314 75.614 88.302 C 0.0 **** 0.0
2 H 86.321 75.476 87.872 H 0.0 **** 0.0
3 H 88.068 75.452 87.532 H 0.0 **** 0.0
4 H 87.461 74.899 89.112 H 0.0 **** 0.0
5 H 87.403 76.628 88.692 H 0.0 **** 0.0
@<TRIPOS>BOND
1 1 2 1
2 1 3 1
3 1 4 1
4 1 5 1
@<TRIPOS>MOLECULE
CH4
5 4
SMALL
USER_CHARGES


@<TRIPOS>ATOM
1 C 34.37 78.254 42.825 C 0.0 **** 0.0
2 H 34.821 78.335 43.814 H 0.0 **** 0.0
3 H 33.29 78.146 42.927 H 0.0 **** 0.0
4 H 34.775 77.383 42.31 H 0.0 **** 0.0
5 H 34.593 79.153 42.25 H 0.0 **** 0.0
@<TRIPOS>BOND
1 1 2 1
2 1 3 1
3 1 4 1
4 1 5 1
@<TRIPOS>MOLECULE
CH4
5 4
SMALL
USER_CHARGES


@<TRIPOS>ATOM
1 C 42.98 4.089 37.284 C 0.0 **** 0.0
2 H 42.727 3.702 38.272 H 0.0 **** 0.0
3 H 43.856 4.733 37.36 H 0.0 **** 0.0
4 H 42.139 4.663 36.894 H 0.0 **** 0.0
5 H 43.196 3.258 36.613 H 0.0 **** 0.0
@<TRIPOS>BOND
1 1 5 1
2 1 2 1
3 1 3 1
4 1 4 1
@<TRIPOS>MOLECULE
CH4
5 4
SMALL
USER_CHARGES


@<TRIPOS>ATOM
1 C 52.877 72.492 97.461 C 0.0 **** 0.0
2 H 52.699 72.224 96.419 H 0.0 **** 0.0
3 H 53.164 71.601 98.02 H 0.0 **** 0.0
4 H 51.966 72.912 97.888 H 0.0 **** 0.0
5 H 53.678 73.229 97.514 H 0.0 **** 0.0
@<TRIPOS>BOND
1 1 3 1
2 1 4 1
3 1 5 1
4 1 2 1
@<TRIPOS>MOLECULE
CH4
5 4
SMALL
USER_CHARGES


@<TRIPOS>ATOM
1 C 93.482 71.544 52.623 C 0.0 **** 0.0
2 H 93.006 72.49 52.365 H 0.0 **** 0.0
3 H 92.724 70.763 52.694 H 0.0 **** 0.0
4 H 93.992 71.643 53.581 H 0.0 **** 0.0
5 H 94.206 71.279 51.852 H 0.0 **** 0.0
@<TRIPOS>BOND
1 1 2 1
2 1 3 1
3 1 4 1
4 1 5 1
@<TRIPOS>MOLECULE
CH4
5 4
SMALL
USER_CHARGES


@<TRIPOS>ATOM
1 C 15.171 32.339 7.096 C 0.0 **** 0.0
2 H 15.527 32.069 6.101 H 0.0 **** 0.0
3 H 16.021 32.612 7.723 H 0.0 **** 0.0
4 H 14.65 31.49 7.538 H 0.0 **** 0.0
5 H 14.489 33.185 7.02 H 0.0 **** 0.0
@<TRIPOS>BOND
1 1 2 1
2 1 3 1
3 1 4 1
4 1 5 1
@<TRIPOS>MOLECULE
CH4
5 4
SMALL
USER_CHARGES


@<TRIPOS>ATOM
1 C 15.189 8.029 73.512 C 0.0 **** 0.0
2 H 14.552 7.27 73.967 H 0.0 **** 0.0
3 H 16.217 7.666 73.477 H 0.0 **** 0.0
4 H 15.146 8.942 74.106 H 0.0 **** 0.0
5 H 14.842 8.236 72.5 H 0.0 **** 0.0
@<TRIPOS>BOND
1 1 2 1
2 1 3 1
3 1 4 1
4 1 5 1
@<TRIPOS>MOLECULE
CH4
5 4
SMALL
USER_CHARGES


@<TRIPOS>ATOM
1 C 36.085 11.138 38.579 C 0.0 **** 0.0
2 H 35.081 10.77 38.792 H 0.0 **** 0.0
3 H 36.559 11.457 39.508 H 0.0 **** 0.0
4 H 36.025 11.983 37.893 H 0.0 **** 0.0
5 H 36.675 10.342 38.125 H 0.0 **** 0.0
@<TRIPOS>BOND
1 1 2 1
2 1 3 1
3 1 4 1
4 1 5 1
@<TRIPOS>MOLECULE
CH4
5 4
SMALL
USER_CHARGES


@<TRIPOS>ATOM
1 C 53.191 20.326 53.436 C 0.0 **** 0.0
2 H 53.729 20.548 54.357 H 0.0 **** 0.0
3 H 53.88 19.904 52.705 H 0.0 **** 0.0
4 H 52.757 21.244 53.039 H 0.0 **** 0.0
5 H 52.396 19.609 53.644 H 0.0 **** 0.0
@<TRIPOS>BOND
1 1 2 1
2 1 3 1
3 1 4 1
4 1 5 1
@<TRIPOS>MOLECULE
CH4
5 4
SMALL
USER_CHARGES


@<TRIPOS>ATOM
1 C 47.088 14.865 35.864 C 0.0 **** 0.0
2 H 47.315 15.186 36.881 H 0.0 **** 0.0
3 H 47.533 13.885 35.685 H 0.0 **** 0.0
4 H 47.497 15.585 35.156 H 0.0 **** 0.0
5 H 46.007 14.802 35.736 H 0.0 **** 0.0
@<TRIPOS>BOND
1 1 2 1
2 1 3 1
3 1 4 1
4 1 5 1
@<TRIPOS>MOLECULE
CH4
5 4
SMALL
USER_CHARGES


@<TRIPOS>ATOM
1 C 4.548 67.773 5.417 C 0.0 **** 0.0
2 H 3.516 67.563 5.698 H 0.0 **** 0.0
3 H 5.101 68.109 6.294 H 0.0 **** 0.0
4 H 4.566 68.551 4.655 H 0.0 **** 0.0
5 H 5.008 66.867 5.023 H 0.0 **** 0.0
@<TRIPOS>BOND
1 1 2 1
2 1 3 1
3 1 4 1
4 1 5 1
@<TRIPOS>MOLECULE
CH4
5 4
SMALL
USER_CHARGES


@<TRIPOS>ATOM
1 C 38.604 36.811 4.728 C 0.0 **** 0.0
2 H 38.459 37.767 4.224 H 0.0 **** 0.0
3 H 39.175 36.143 4.082 H 0.0 **** 0.0
4 H 37.633 36.365 4.945 H 0.0 **** 0.0
5 H 39.148 36.969 5.659 H 0.0 **** 0.0
@<TRIPOS>BOND
1 1 2 1
2 1 3 1
3 1 4 1
4 1 5 1
@<TRIPOS>MOLECULE
CH4
5 4
SMALL
USER_CHARGES


@<TRIPOS>ATOM
1 C 67.775 87.567 53.817 C 0.0 **** 0.0
2 H 67.131 88.443 53.904 H 0.0 **** 0.0
3 H 67.314 86.843 53.146 H 0.0 **** 0.0
4 H 67.911 87.118 54.801 H 0.0 **** 0.0
5 H 68.744 87.868 53.418 H 0.0 **** 0.0
@<TRIPOS>BOND
1 1 2 1
2 1 3 1
3 1 4 1
4 1 5 1
@<TRIPOS>MOLECULE
CH4
5 4
SMALL
USER_CHARGES


@<TRIPOS>ATOM
1 C 77.415 50.729 65.993 C 0.0 **** 0.0
2 H 78.35 50.168 65.999 H 0.0 **** 0.0
3 H 76.581 50.046 66.16 H 0.0 **** 0.0
4 H 77.293 51.222 65.028 H 0.0 **** 0.0
5 H 77.436 51.479 66.784 H 0.0 **** 0.0
@<TRIPOS>BOND
1 1 2 1
2 1 3 1
3 1 4 1
4 1 5 1
@<TRIPOS>MOLECULE
CH4
5 4
SMALL
USER_CHARGES


@<TRIPOS>ATOM
1 C 57.534 31.86 66.358 C 0.0 **** 0.0
2 H 57.482 32.873 65.96 H 0.0 **** 0.0
3 H 58.463 31.39 66.035 H 0.0 **** 0.0
4 H 56.686 31.282 65.991 H 0.0 **** 0.0
5 H 57.505 31.896 67.447 H 0.0 **** 0.0
@<TRIPOS>BOND
1 1 2 1
2 1 3 1
3 1 4 1
4 1 5 1
@<TRIPOS>MOLECULE
CH4
5 4
SMALL
USER_CHARGES


@<TRIPOS>ATOM
1 C 17.292 54.32 31.578 C 0.0 **** 0.0
2 H 16.788 53.893 32.445 H 0.0 **** 0.0
3 H 16.55 54.603 30.83 H 0.0 **** 0.0
4 H 17.972 53.582 31.154 H 0.0 **** 0.0
5 H 17.855 55.201 31.883 H 0.0 **** 0.0
@<TRIPOS>BOND
1 1 2 1
2 1 3 1
3 1 4 1
4 1 5 1
@<TRIPOS>MOLECULE
CH4
5 4
SMALL
USER_CHARGES


@<TRIPOS>ATOM
1 C 74.666 16.155 25.133 C 0.0 **** 0.0
2 H 75.308 16.993 24.862 H 0.0 **** 0.0
3 H 73.763 16.177 24.523 H 0.0 **** 0.0
4 H 74.396 16.23 26.186 H 0.0 **** 0.0
5 H 75.199 15.22 24.961 H 0.0 **** 0.0
@<TRIPOS>BOND
1 1 2 1
2 1 3 1
3 1 4 1
4 1 5 1
@<TRIPOS>MOLECULE
CH4
5 4
SMALL
USER_CHARGES


@<TRIPOS>ATOM
1 C 9.129 42.109 70.983 C 0.0 **** 0.0
2 H 8.167 41.614 70.853 H 0.0 **** 0.0
3 H 9.326 42.752 70.125 H 0.0 **** 0.0
4 H 9.916 41.358 71.063 H 0.0 **** 0.0
5 H 9.108 42.711 71.891 H 0.0 **** 0.0
@<TRIPOS>BOND
1 1 2 1
2 1 3 1
3 1 4 1
4 1 5 1
@<TRIPOS>MOLECULE
CH4
5 4
SMALL
USER_CHARGES


@<TRIPOS>ATOM
1 C 31.464 19.963 94.134 C 0.0 **** 0.0
2 H 32.035 20.505 94.888 H 0.0 **** 0.0
3 H 30.829 20.661 93.588 H 0.0 **** 0.0
4 H 30.844 19.209 94.619 H 0.0 **** 0.0
5 H 32.15 19.478 93.44 H 0.0 **** 0.0
@<TRIPOS>BOND
1 1 2 1
2 1 3 1
3 1 4 1
4 1 5 1
@<TRIPOS>MOLECULE
CH4
5 4
SMALL
USER_CHARGES


@<TRIPOS>ATOM
1 C 14.686 4.127 34.943 C 0.0 **** 0.0
2 H 13.675 4.289 34.571 H 0.0 **** 0.0
3 H 15.056 3.166 34.584 H 0.0 **** 0.0
4 H 14.676 4.128 36.033 H 0.0 **** 0.0
5 H 15.337 4.924 34.585 H 0.0 **** 0.0
@<TRIPOS>BOND
1 1 2 1
2 1 3 1
3 1 4 1
4 1 5 1
@<TRIPOS>MOLECULE
CH4
5 4
SMALL
USER_CHARGES


@<TRIPOS>ATOM
1 C 80.221 19.389 19.836 C 0.0 **** 0.0
2 H 80.696 18.602 19.251 H 0.0 **** 0.0
3 H 79.512 18.944 20.535 H 0.0 **** 0.0
4 H 79.694 20.071 19.168 H 0.0 **** 0.0
5 H 80.981 19.94 20.391 H 0.0 **** 0.0
@<TRIPOS>BOND
1 1 2 1
2 1 3 1
3 1 4 1
4 1 5 1
@<TRIPOS>MOLECULE
CH4
5 4
SMALL
USER_CHARGES


@<TRIPOS>ATOM
1 C 13.209 41.352 22.809 C 0.0 **** 0.0
2 H 13.532 40.329 22.617 H 0.0 **** 0.0
3 H 14.013 42.042 22.552 H 0.0 **** 0.0
4 H 12.959 41.461 23.864 H 0.0 **** 0.0
5 H 12.331 41.575 22.203 H 0.0 **** 0.0
@<TRIPOS>BOND
1 1 2 1
2 1 3 1
3 1 4 1
4 1 5 1
@<TRIPOS>MOLECULE
CH4
5 4
SMALL
USER_CHARGES


@<TRIPOS>ATOM
1 C 26.978 62.247 89.209 C 0.0 **** 0.0
2 H 27.378 63.098 89.762 H 0.0 **** 0.0
3 H 26.366 61.638 89.874 H 0.0 **** 0.0
4 H 27.802 61.648 88.821 H 0.0 **** 0.0
5 H 26.369 62.607 88.38 H 0.0 **** 0.0
@<TRIPOS>BOND
1 1 2 1
2 1 3 1
3 1 4 1
4 1 5 1
@<TRIPOS>MOLECULE
CH4
5 4
SMALL
USER_CHARGES


@<TRIPOS>ATOM
1 C 93.456 80.012 0.818 C 0.0 **** 0.0
2 H 92.526 79.656 0.374 H 0.0 **** 0.0
3 H 93.425 79.859 1.897 H 0.0 **** 0.0
4 H 93.576 81.075 0.605 H 0.0 **** 0.0
5 H 94.295 79.46 0.396 H 0.0 **** 0.0
@<TRIPOS>BOND
1 1 2 1
2 1 3 1
3 1 4 1
4 1 5 1
@<TRIPOS>MOLECULE
CH4
5 4
SMALL
USER_CHARGES


@<TRIPOS>ATOM
1 C 13.149 23.529 72.749 C 0.0 **** 0.0
2 H 13.435 23.393 73.792 H 0.0 **** 0.0
3 H 12.113 23.864 72.697 H 0.0 **** 0.0
4 H 13.252 22.583 72.217 H 0.0 **** 0.0
5 H 13.796 24.276 72.29 H 0.0 **** 0.0
@<TRIPOS>BOND
1 1 2 1
2 1 3 1
3 1 4 1
4 1 5 1
@<TRIPOS>MOLECULE
CH4
5 4
SMALL
USER_CHARGES


@<TRIPOS>ATOM
1 C 9.378 52.102 86.756 C 0.0 **** 0.0
2 H 8.448 52.216 87.313 H 0.0 **** 0.0
3 H 9.311 51.224 86.114 H 0.0 **** 0.0
4 H 10.206 51.979 87.455 H 0.0 **** 0.0
5 H 9.546 52.988 86.145 H 0.0 **** 0.0
@<TRIPOS>BOND
1 1 2 1
2 1 3 1
3 1 4 1
4 1 5 1
@<TRIPOS>MOLECULE
CH4
5 4
SMALL
USER_CHARGES


@<TRIPOS>ATOM
1 C 93.745 86.259 72.901 C 0.0 **** 0.0
2 H 93.367 85.254 73.086 H 0.0 **** 0.0
3 H 92.908 86.941 72.756 H 0.0 **** 0.0
4 H 94.368 86.252 72.006 H 0.0 **** 0.0
5 H 94.339 86.587 73.754 H 0.0 **** 0.0
@<TRIPOS>BOND
1 1 2 1
2 1 3 1
3 1 4 1
4 1 5 1
@<TRIPOS>MOLECULE
CH4
5 4
SMALL
USER_CHARGES


@<TRIPOS>ATOM
1 C 32.267 42.714 35.82 C 0.0 **** 0.0
2 H 31.71 43.397 36.461 H 0.0 **** 0.0
3 H 32.773 41.97 36.436 H 0.0 **** 0.0
4 H 33.006 43.274 35.247 H 0.0 **** 0.0
5 H 31.58 42.215 35.137 H 0.0 **** 0.0
@<TRIPOS>BOND
1 1 2 1
2 1 3 1
3 1 4 1
4 1 5 1
@<TRIPOS>MOLECULE
CH4
5 4
SMALL
USER_CHARGES


@<TRIPOS>ATOM
1 C 13.349 13.231 91.732 C 0.0 **** 0.0
2 H 12.954 14.006 91.075 H 0.0 **** 0.0
3 H 14.437 13.221 91.667 H 0.0 **** 0.0
4 H 12.957 12.261 91.426 H 0.0 **** 0.0
5 H 13.047 13.438 92.759 H 0.0 **** 0.0
@<TRIPOS>BOND
1 1 2 1
2 1 3 1
3 1 4 1
4 1 5 1
@<TRIPOS>MOLECULE
CH4
5 4
SMALL
USER_CHARGES


@<TRIPOS>ATOM
1 C 66.472 25.145 53.964 C 0.0 **** 0.0
2 H 65.537 24.589 53.886 H 0.0 **** 0.0
3 H 66.517 25.892 53.172 H 0.0 **** 0.0
4 H 67.312 24.458 53.865 H 0.0 **** 0.0
5 H 66.519 25.64 54.934 H 0.0 **** 0.0
@<TRIPOS>BOND
1 1 2 1
2 1 3 1
3 1 4 1
4 1 5 1
@<TRIPOS>MOLECULE
CH4
5 4
SMALL
USER_CHARGES


@<TRIPOS>ATOM
1 C 5.24 67.977 79.421 C 0.0 **** 0.0
2 H 4.688 68.655 78.77 H 0.0 **** 0.0
3 H 5.317 66.999 78.945 H 0.0 **** 0.0
4 H 4.715 67.879 80.371 H 0.0 **** 0.0
5 H 6.239 68.375 79.597 H 0.0 **** 0.0
@<TRIPOS>BOND
1 1 2 1
2 1 3 1
3 1 4 1
4 1 5 1
@<TRIPOS>MOLECULE
CH4
5 4
SMALL
USER_CHARGES


@<TRIPOS>ATOM
1 C 61.4 61.594 93.196 C 0.0 **** 0.0
2 H 60.669 61.138 93.863 H 0.0 **** 0.0
3 H 62.128 60.842 92.887 H 0.0 **** 0.0
4 H 61.912 62.403 93.717 H 0.0 **** 0.0
5 H 60.892 61.991 92.317 H 0.0 **** 0.0
@<TRIPOS>BOND
1 1 2 1
2 1 3 1
3 1 4 1
4 1 5 1
@<TRIPOS>MOLECULE
CH4
5 4
SMALL
USER_CHARGES


@<TRIPOS>ATOM
1 C 59.38 97.893 43.752 C 0.0 **** 0.0
2 H 59.417 98.439 42.809 H 0.0 **** 0.0
3 H 60.081 98.339 44.458 H 0.0 **** 0.0
4 H 59.651 96.851 43.58 H 0.0 **** 0.0
5 H 58.371 97.943 44.161 H 0.0 **** 0.0
@<TRIPOS>BOND
1 1 2 1
2 1 3 1
3 1 4 1
4 1 5 1
@<TRIPOS>MOLECULE
CH4
5 4
SMALL
USER_CHARGES


@<TRIPOS>ATOM
1 C 10.535 6.947 93.226 C 0.0 **** 0.0
2 H 10.197 6.134 92.582 H 0.0 **** 0.0
3 H 9.904 7.822 93.067 H 0.0 **** 0.0
4 H 11.569 7.195 92.985 H 0.0 **** 0.0
5 H 10.47 6.635 94.268 H 0.0 **** 0.0
@<TRIPOS>BOND
1 1 2 1
2 1 3 1
3 1 4 1
4 1 5 1
@<TRIPOS>MOLECULE
CH4
5 4
SMALL
USER_CHARGES


@<TRIPOS>ATOM
1 C 55.811 74.768 74.521 C 0.0 **** 0.0
2 H 55.012 74.099 74.203 H 0.0 **** 0.0
3 H 55.595 75.143 75.522 H 0.0 **** 0.0
4 H 55.881 75.606 73.826 H 0.0 **** 0.0
5 H 56.756 74.225 74.531 H 0.0 **** 0.0
@<TRIPOS>BOND
1 1 2 1
2 1 3 1
3 1 4 1
4 1 5 1
@<TRIPOS>MOLECULE
CH4
5 4
SMALL
USER_CHARGES


@<TRIPOS>ATOM
1 C 12.181 53.906 25.594 C 0.0 **** 0.0
2 H 11.805 53.403 26.486 H 0.0 **** 0.0
3 H 13.257 54.052 25.687 H 0.0 **** 0.0
4 H 11.689 54.873 25.489 H 0.0 **** 0.0
5 H 11.971 53.294 24.717 H 0.0 **** 0.0
@<TRIPOS>BOND
1 1 2 1
2 1 3 1
3 1 4 1
4 1 5 1
@<TRIPOS>MOLECULE
CH4
5 4
SMALL
USER_CHARGES


@<TRIPOS>ATOM
1 C 13.21 33.76 4.409 C 0.0 **** 0.0
2 H 12.677 33.368 5.276 H 0.0 **** 0.0
3 H 14.247 33.423 4.438 H 0.0 **** 0.0
4 H 13.18 34.849 4.426 H 0.0 **** 0.0
5 H 12.736 33.397 3.497 H 0.0 **** 0.0
@<TRIPOS>BOND
1 1 2 1
2 1 3 1
3 1 4 1
4 1 5 1
@<TRIPOS>MOLECULE
CH4
5 4
SMALL
USER_CHARGES


@<TRIPOS>ATOM
1 C 96.281 34.433 76.354 C 0.0 **** 0.0
2 H 96.526 34.539 75.298 H 0.0 **** 0.0
3 H 97.067 34.89 76.957 H 0.0 **** 0.0
4 H 96.201 33.375 76.604 H 0.0 **** 0.0
5 H 95.332 34.928 76.559 H 0.0 **** 0.0
@<TRIPOS>BOND
1 1 3 1
2 1 4 1
3 1 5 1
4 1 2 1
@<TRIPOS>MOLECULE
CH4
5 4
SMALL
USER_CHARGES


@<TRIPOS>ATOM
1 C 37.272 73.663 56.514 C 0.0 **** 0.0
2 H 36.956 72.891 55.813 H 0.0 **** 0.0
3 H 36.903 73.422 57.511 H 0.0 **** 0.0
4 H 36.868 74.626 56.2 H 0.0 **** 0.0
5 H 38.36 73.714 56.531 H 0.0 **** 0.0
@<TRIPOS>BOND
1 1 2 1
2 1 3 1
3 1 4 1
4 1 5 1
@<TRIPOS>MOLECULE
CH4
5 4
SMALL
USER_CHARGES


@<TRIPOS>ATOM
1 C 66.214 80.379 25.447 C 0.0 **** 0.0
2 H 66.075 79.892 26.413 H 0.0 **** 0.0
3 H 66.895 81.223 25.561 H 0.0 **** 0.0
4 H 65.252 80.734 25.078 H 0.0 **** 0.0
5 H 66.635 79.665 24.738 H 0.0 **** 0.0
@<TRIPOS>BOND
1 1 2 1
2 1 3 1
3 1 4 1
4 1 5 1
@<TRIPOS>MOLECULE
CH4
5 4
SMALL
USER_CHARGES


@<TRIPOS>ATOM
1 C 28.991 16.387 70.342 C 0.0 **** 0.0
2 H 28.436 16.52 71.271 H 0.0 **** 0.0
3 H 29.905 15.827 70.543 H 0.0 **** 0.0
4 H 29.245 17.363 69.929 H 0.0 **** 0.0
5 H 28.377 15.838 69.628 H 0.0 **** 0.0
@<TRIPOS>BOND
1 1 2 1
2 1 3 1
3 1 4 1
4 1 5 1
@<TRIPOS>MOLECULE
CH4
5 4
SMALL
USER_CHARGES


@<TRIPOS>ATOM
1 C 80.457 29.897 29.77 C 0.0 **** 0.0
2 H 81.21 30.605 29.424 H 0.0 **** 0.0
3 H 79.615 29.894 29.077 H 0.0 **** 0.0
4 H 80.111 30.189 30.761 H 0.0 **** 0.0
5 H 80.893 28.898 29.817 H 0.0 **** 0.0
@<TRIPOS>BOND
1 1 2 1
2 1 3 1
3 1 4 1
4 1 5 1
@<TRIPOS>MOLECULE
CH4
5 4
SMALL
USER_CHARGES


@<TRIPOS>ATOM
1 C 20.434 88.996 71.689 C 0.0 **** 0.0
2 H 21.032 89.573 72.395 H 0.0 **** 0.0
3 H 20.987 88.104 71.39 H 0.0 **** 0.0
4 H 20.222 89.604 70.81 H 0.0 **** 0.0
5 H 19.498 88.701 72.162 H 0.0 **** 0.0
@<TRIPOS>BOND
1 1 2 1
2 1 3 1
3 1 4 1
4 1 5 1
@<TRIPOS>MOLECULE
CH4
5 4
SMALL
USER_CHARGES


@<TRIPOS>ATOM
1 C 56.325 81.151 24.57 C 0.0 **** 0.0
2 H 56.537 80.419 23.791 H 0.0 **** 0.0
3 H 57.261 81.493 25.011 H 0.0 **** 0.0
4 H 55.706 80.692 25.341 H 0.0 **** 0.0
5 H 55.795 82.0 24.137 H 0.0 **** 0.0
@<TRIPOS>BOND
1 1 2 1
2 1 3 1
3 1 4 1
4 1 5 1
@<TRIPOS>MOLECULE
CH4
5 4
SMALL
USER_CHARGES


@<TRIPOS>ATOM
1 C 50.673 66.785 48.207 C 0.0 **** 0.0
2 H 50.427 65.752 47.959 H 0.0 **** 0.0
3 H 50.591 67.402 47.312 H 0.0 **** 0.0
4 H 51.692 66.833 48.591 H 0.0 **** 0.0
5 H 49.981 67.15 48.966 H 0.0 **** 0.0
@<TRIPOS>BOND
1 1 5 1
2 1 2 1
3 1 3 1
4 1 4 1
@<TRIPOS>MOLECULE
CH4
5 4
SMALL
USER_CHARGES


@<TRIPOS>ATOM
1 C 65.908 96.688 51.475 C 0.0 **** 0.0
2 H 65.061 96.74 50.791 H 0.0 **** 0.0
3 H 66.416 97.653 51.498 H 0.0 **** 0.0
4 H 66.603 95.92 51.134 H 0.0 **** 0.0
5 H 65.553 96.44 52.475 H 0.0 **** 0.0
@<TRIPOS>BOND
1 1 2 1
2 1 3 1
3 1 4 1
4 1 5 1
@<TRIPOS>MOLECULE
CH4
5 4
SMALL
USER_CHARGES


@<TRIPOS>ATOM
1 C 89.755 83.229 7.232 C 0.0 **** 0.0
2 H 90.222 83.659 8.118 H 0.0 **** 0.0
3 H 90.227 82.275 7.0 H 0.0 **** 0.0
4 H 89.878 83.91 6.39 H 0.0 **** 0.0
5 H 88.693 83.073 7.42 H 0.0 **** 0.0
@<TRIPOS>BOND
1 1 2 1
2 1 3 1
3 1 4 1
4 1 5 1
@<TRIPOS>MOLECULE
CH4
5 4
SMALL
USER_CHARGES


@<TRIPOS>ATOM
1 C 86.514 52.062 34.171 C 0.0 **** 0.0
2 H 85.691 52.496 34.739 H 0.0 **** 0.0
3 H 87.461 52.42 34.574 H 0.0 **** 0.0
4 H 86.428 52.358 33.125 H 0.0 **** 0.0
5 H 86.474 50.976 34.246 H 0.0 **** 0.0
@<TRIPOS>BOND
1 1 2 1
2 1 3 1
3 1 4 1
4 1 5 1
@<TRIPOS>MOLECULE
CH4
5 4
SMALL
USER_CHARGES


@<TRIPOS>ATOM
1 C 5.769 41.288 77.085 C 0.0 **** 0.0
2 H 6.831 41.108 77.252 H 0.0 **** 0.0
3 H 5.285 41.516 78.035 H 0.0 **** 0.0
4 H 5.314 40.398 76.65 H 0.0 **** 0.0
5 H 5.646 42.129 76.403 H 0.0 **** 0.0
@<TRIPOS>BOND
1 1 2 1
2 1 3 1
3 1 4 1
4 1 5 1
@<TRIPOS>MOLECULE
CH4
5 4
SMALL
USER_CHARGES


@<TRIPOS>ATOM
1 C 6.467 5.279 74.293 C 0.0 **** 0.0
2 H 6.977 6.206 74.031 H 0.0 **** 0.0
3 H 5.735 5.475 75.076 H 0.0 **** 0.0
4 H 7.197 4.552 74.65 H 0.0 **** 0.0
5 H 5.96 4.883 73.413 H 0.0 **** 0.0
@<TRIPOS>BOND
1 1 2 1
2 1 3 1
3 1 4 1
4 1 5 1
@<TRIPOS>MOLECULE
CH4
5 4
SMALL
USER_CHARGES


@<TRIPOS>ATOM
1 C 89.549 43.246 97.08 C 0.0 **** 0.0
2 H 89.08 42.892 97.998 H 0.0 **** 0.0
3 H 89.142 42.699 96.23 H 0.0 **** 0.0
4 H 90.625 43.083 97.136 H 0.0 **** 0.0
5 H 89.349 44.311 96.957 H 0.0 **** 0.0
@<TRIPOS>BOND
1 1 2 1
2 1 3 1
3 1 4 1
4 1 5 1
@<TRIPOS>MOLECULE
CH4
5 4
SMALL
USER_CHARGES


@<TRIPOS>ATOM
1 C 18.794 1.189 52.344 C 0.0 **** 0.0
2 H 18.612 1.837 53.201 H 0.0 **** 0.0
3 H 19.448 1.698 51.636 H 0.0 **** 0.0
4 H 17.847 0.953 51.86 H 0.0 **** 0.0
5 H 19.27 0.268 52.681 H 0.0 **** 0.0
@<TRIPOS>BOND
1 1 2 1
2 1 3 1
3 1 4 1
4 1 5 1
@<TRIPOS>MOLECULE
CH4
5 4
SMALL
USER_CHARGES


@<TRIPOS>ATOM
1 C 28.133 9.843 90.462 C 0.0 **** 0.0
2 H 27.262 9.794 91.115 H 0.0 **** 0.0
3 H 28.403 10.886 90.295 H 0.0 **** 0.0
4 H 27.9 9.37 89.508 H 0.0 **** 0.0
5 H 28.968 9.322 90.931 H 0.0 **** 0.0
@<TRIPOS>BOND
1 1 2 1
2 1 3 1
3 1 4 1
4 1 5 1
@<TRIPOS>MOLECULE
CH4
5 4
SMALL
USER_CHARGES


@<TRIPOS>ATOM
1 C 55.659 40.339 42.576 C 0.0 **** 0.0
2 H 56.227 39.418 42.452 H 0.0 **** 0.0
3 H 56.332 41.145 42.87 H 0.0 **** 0.0
4 H 54.902 40.198 43.347 H 0.0 **** 0.0
5 H 55.174 40.596 41.634 H 0.0 **** 0.0
@<TRIPOS>BOND
1 1 2 1
2 1 3 1
3 1 4 1
4 1 5 1
@<TRIPOS>MOLECULE
CH4
5 4
SMALL
USER_CHARGES


@<TRIPOS>ATOM
1 C 32.787 45.461 19.68 C 0.0 **** 0.0
2 H 32.669 46.01 20.614 H 0.0 **** 0.0
3 H 32.528 46.11 18.843 H 0.0 **** 0.0
4 H 32.13 44.592 19.683 H 0.0 **** 0.0
5 H 33.822 45.134 19.579 H 0.0 **** 0.0
@<TRIPOS>BOND
1 1 2 1
2 1 3 1
3 1 4 1
4 1 5 1
@<TRIPOS>MOLECULE
CH4
5 4
SMALL
USER_CHARGES


@<TRIPOS>ATOM
1 C 42.593 48.523 43.467 C 0.0 **** 0.0
2 H 43.303 48.019 44.123 H 0.0 **** 0.0
3 H 42.7 48.138 42.453 H 0.0 **** 0.0
4 H 42.791 49.595 43.473 H 0.0 **** 0.0
5 H 41.578 48.34 43.821 H 0.0 **** 0.0
@<TRIPOS>BOND
1 1 2 1
2 1 3 1
3 1 4 1
4 1 5 1
@<TRIPOS>MOLECULE
CH4
5 4
SMALL
USER_CHARGES


@<TRIPOS>ATOM
1 C 40.086 34.097 76.744 C 0.0 **** 0.0
2 H 39.931 33.847 75.694 H 0.0 **** 0.0
3 H 41.064 33.736 77.063 H 0.0 **** 0.0
4 H 39.309 33.626 77.347 H 0.0 **** 0.0
5 H 40.038 35.179 76.87 H 0.0 **** 0.0
@<TRIPOS>BOND
1 1 2 1
2 1 3 1
3 1 4 1
4 1 5 1
@<TRIPOS>MOLECULE
CH4
5 4
SMALL
USER_CHARGES


@<TRIPOS>ATOM
1 C 81.153 98.459 36.716 C 0.0 **** 0.0
2 H 81.833 98.899 37.445 H 0.0 **** 0.0
3 H 80.177 98.938 36.796 H 0.0 **** 0.0
4 H 81.051 97.392 36.912 H 0.0 **** 0.0
5 H 81.55 98.608 35.712 H 0.0 **** 0.0
@<TRIPOS>BOND
1 1 2 1
2 1 3 1
3 1 4 1
4 1 5 1
@<TRIPOS>MOLECULE
CH4
5 4
SMALL
USER_CHARGES


@<TRIPOS>ATOM
1 C 94.682 83.211 17.643 C 0.0 **** 0.0
2 H 93.916 83.724 17.062 H 0.0 **** 0.0
3 H 94.768 82.18 17.301 H 0.0 **** 0.0
4 H 94.407 83.224 18.698 H 0.0 **** 0.0
5 H 95.638 83.719 17.511 H 0.0 **** 0.0
@<TRIPOS>BOND
1 1 2 1
2 1 3 1
3 1 4 1
4 1 5 1
@<TRIPOS>MOLECULE
CH4
5 4
SMALL
USER_CHARGES


@<TRIPOS>ATOM
1 C 43.956 24.803 85.728 C 0.0 **** 0.0
2 H 45.04 24.793 85.838 H 0.0 **** 0.0
3 H 43.647 23.967 85.099 H 0.0 **** 0.0
4 H 43.647 25.74 85.265 H 0.0 **** 0.0
5 H 43.49 24.711 86.709 H 0.0 **** 0.0
@<TRIPOS>BOND
1 1 2 1
2 1 3 1
3 1 4 1
4 1 5 1
@<TRIPOS>MOLECULE
CH4
5 4
SMALL
USER_CHARGES


@<TRIPOS>ATOM
1 C 87.679 4.163 48.315 C 0.0 **** 0.0
2 H 87.983 4.247 49.358 H 0.0 **** 0.0
3 H 88.387 4.703 47.685 H 0.0 **** 0.0
4 H 86.684 4.589 48.191 H 0.0 **** 0.0
5 H 87.663 3.112 48.025 H 0.0 **** 0.0
@<TRIPOS>BOND
1 1 2 1
2 1 3 1
3 1 4 1
4 1 5 1
@<TRIPOS>MOLECULE
CH4
5 4
SMALL
USER_CHARGES


@<TRIPOS>ATOM
1 C 53.922 77.004 23.639 C 0.0 **** 0.0
2 H 53.293 77.656 24.245 H 0.0 **** 0.0
3 H 53.305 76.481 22.908 H 0.0 **** 0.0
4 H 54.419 76.278 24.282 H 0.0 **** 0.0
5 H 54.671 77.603 23.12 H 0.0 **** 0.0
@<TRIPOS>BOND
1 1 5 1
2 1 4 1
3 1 2 1
4 1 3 1
@<TRIPOS>MOLECULE
CH4
5 4
SMALL
USER_CHARGES


@<TRIPOS>ATOM
1 C 50.235 70.836 49.213 C 0.0 **** 0.0
2 H 50.938 70.663 48.398 H 0.0 **** 0.0
3 H 50.139 71.907 49.389 H 0.0 **** 0.0
4 H 50.601 70.35 50.117 H 0.0 **** 0.0
5 H 49.262 70.422 48.947 H 0.0 **** 0.0
@<TRIPOS>BOND
1 1 2 1
2 1 3 1
3 1 4 1
4 1 5 1
@<TRIPOS>MOLECULE
CH4
5 4
SMALL
USER_CHARGES


@<TRIPOS>ATOM
1 C 67.618 62.434 92.722 C 0.0 **** 0.0
2 H 67.25 63.309 92.186 H 0.0 **** 0.0
3 H 67.97 61.691 92.005 H 0.0 **** 0.0
4 H 66.812 62.009 93.32 H 0.0 **** 0.0
5 H 68.44 62.727 93.375 H 0.0 **** 0.0
@<TRIPOS>BOND
1 1 2 1
2 1 3 1
3 1 4 1
4 1 5 1
@<TRIPOS>MOLECULE
CH4
5 4
SMALL
USER_CHARGES


@<TRIPOS>ATOM
1 C 87.182 46.391 86.858 C 0.0 **** 0.0
2 H 87.521 45.415 86.51 H 0.0 **** 0.0
3 H 87.219 47.104 86.034 H 0.0 **** 0.0
4 H 87.829 46.734 87.665 H 0.0 **** 0.0
5 H 86.158 46.309 87.223 H 0.0 **** 0.0
@<TRIPOS>BOND
1 1 2 1
2 1 3 1
3 1 4 1
4 1 5 1
@<TRIPOS>MOLECULE
CH4
5 4
SMALL
USER_CHARGES


@<TRIPOS>ATOM
1 C 60.866 74.755 39.218 C 0.0 **** 0.0
2 H 60.882 74.511 40.281 H 0.0 **** 0.0
3 H 59.833 74.843 38.882 H 0.0 **** 0.0
4 H 61.365 73.965 38.657 H 0.0 **** 0.0
5 H 61.383 75.7 39.055 H 0.0 **** 0.0
@<TRIPOS>BOND
1 1 2 1
2 1 3 1
3 1 4 1
4 1 5 1
@<TRIPOS>MOLECULE
CH4
5 4
SMALL
USER_CHARGES


@<TRIPOS>ATOM
1 C 16.855 26.444 84.388 C 0.0 **** 0.0
2 H 16.799 25.474 84.882 H 0.0 **** 0.0
3 H 16.183 27.144 84.886 H 0.0 **** 0.0
4 H 16.561 26.337 83.344 H 0.0 **** 0.0
5 H 17.877 26.82 84.442 H 0.0 **** 0.0
@<TRIPOS>BOND
1 1 2 1
2 1 3 1
3 1 4 1
4 1 5 1
@<TRIPOS>MOLECULE
CH4
5 4
SMALL
USER_CHARGES


@<TRIPOS>ATOM
1 C 61.04 78.81 97.744 C 0.0 **** 0.0
2 H 61.709 79.254 98.481 H 0.0 **** 0.0
3 H 61.444 78.971 96.744 H 0.0 **** 0.0
4 H 60.057 79.276 97.818 H 0.0 **** 0.0
5 H 60.95 77.741 97.932 H 0.0 **** 0.0
@<TRIPOS>BOND
1 1 2 1
2 1 3 1
3 1 4 1
4 1 5 1
@<TRIPOS>MOLECULE
CH4
5 4
SMALL
USER_CHARGES


@<TRIPOS>ATOM
1 C 97.464 45.396 38.067 C 0.0 **** 0.0
2 H 98.064 44.486 38.056 H 0.0 **** 0.0
3 H 97.679 45.983 37.174 H 0.0 **** 0.0
4 H 97.708 45.981 38.954 H 0.0 **** 0.0
5 H 96.407 45.133 38.084 H 0.0 **** 0.0
@<TRIPOS>BOND
1 1 2 1
2 1 3 1
3 1 4 1
4 1 5 1
@<TRIPOS>MOLECULE
CH4
5 4
SMALL
USER_CHARGES


@<TRIPOS>ATOM
1 C 79.348 47.174 26.442 C 0.0 **** 0.0
2 H 78.889 48.1 26.097 H 0.0 **** 0.0
3 H 79.903 47.364 27.361 H 0.0 **** 0.0
4 H 80.028 46.798 25.678 H 0.0 **** 0.0
5 H 78.571 46.434 26.634 H 0.0 **** 0.0
@<TRIPOS>BOND
1 1 2 1
2 1 3 1
3 1 4 1
4 1 5 1
@<TRIPOS>MOLECULE
CH4
5 4
SMALL
USER_CHARGES


@<TRIPOS>ATOM
1 C 58.319 40.71 36.539 C 0.0 **** 0.0
2 H 58.644 41.528 37.183 H 0.0 **** 0.0
3 H 57.519 41.058 35.886 H 0.0 **** 0.0
4 H 57.954 39.887 37.154 H 0.0 **** 0.0
5 H 59.16 40.368 35.936 H 0.0 **** 0.0
@<TRIPOS>BOND
1 1 2 1
2 1 3 1
3 1 4 1
4 1 5 1
@<TRIPOS>MOLECULE
CH4
5 4
SMALL
USER_CHARGES


@<TRIPOS>ATOM
1 C 82.853 55.139 18.515 C 0.0 **** 0.0
2 H 83.928 54.957 18.55 H 0.0 **** 0.0
3 H 82.399 54.813 19.451 H 0.0 **** 0.0
4 H 82.418 54.581 17.686 H 0.0 **** 0.0
5 H 82.67 56.204 18.373 H 0.0 **** 0.0
@<TRIPOS>BOND
1 1 2 1
2 1 3 1
3 1 4 1
4 1 5 1
@<TRIPOS>MOLECULE
CH4
5 4
SMALL
USER_CHARGES


@<TRIPOS>ATOM
1 C 16.642 52.276 37.416 C 0.0 **** 0.0
2 H 15.663 52.743 37.52 H 0.0 **** 0.0
3 H 17.273 52.892 36.775 H 0.0 **** 0.0
4 H 16.527 51.287 36.97 H 0.0 **** 0.0
5 H 17.105 52.18 38.398 H 0.0 **** 0.0
@<TRIPOS>BOND
1 1 2 1
2 1 3 1
3 1 4 1
4 1 5 1
@<TRIPOS>MOLECULE
CH4
5 4
SMALL
USER_CHARGES


@<TRIPOS>ATOM
1 C 12.677 64.208 37.773 C 0.0 **** 0.0
2 H 12.057 64.21 38.669 H 0.0 **** 0.0
3 H 13.467 64.952 37.876 H 0.0 **** 0.0
4 H 12.063 64.449 36.905 H 0.0 **** 0.0
5 H 13.122 63.222 37.641 H 0.0 **** 0.0
@<TRIPOS>BOND
1 1 2 1
2 1 3 1
3 1 4 1
4 1 5 1
@<TRIPOS>MOLECULE
CH4
5 4
SMALL
USER_CHARGES


@<TRIPOS>ATOM
1 C 4.037 87.854 70.151 C 0.0 **** 0.0
2 H 4.05 87.831 71.241 H 0.0 **** 0.0
3 H 3.65 86.908 69.772 H 0.0 **** 0.0
4 H 5.05 88.008 69.779 H 0.0 **** 0.0
5 H 3.398 88.67 69.814 H 0.0 **** 0.0
@<TRIPOS>BOND
1 1 2 1
2 1 3 1
3 1 4 1
4 1 5 1
@<TRIPOS>MOLECULE
CH4
5 4
SMALL
USER_CHARGES


@<TRIPOS>ATOM
1 C 72.697 68.481 47.517 C 0.0 **** 0.0
2 H 73.605 68.458 46.914 H 0.0 **** 0.0
3 H 72.366 67.462 47.714 H 0.0 **** 0.0
4 H 71.917 69.02 46.979 H 0.0 **** 0.0
5 H 72.901 68.986 48.461 H 0.0 **** 0.0
@<TRIPOS>BOND
1 1 2 1
2 1 3 1
3 1 4 1
4 1 5 1
@<TRIPOS>MOLECULE
CH4
5 4
SMALL
USER_CHARGES


@<TRIPOS>ATOM
1 C 17.738 56.524 70.154 C 0.0 **** 0.0
2 H 18.152 55.869 69.388 H 0.0 **** 0.0
3 H 16.772 56.906 69.822 H 0.0 **** 0.0
4 H 18.419 57.358 70.327 H 0.0 **** 0.0
5 H 17.608 55.964 71.08 H 0.0 **** 0.0
@<TRIPOS>BOND
1 1 2 1
2 1 3 1
3 1 4 1
4 1 5 1
@<TRIPOS>MOLECULE
CH4
5 4
SMALL
USER_CHARGES


@<TRIPOS>ATOM
1 C 16.815 25.55 7.243 C 0.0 **** 0.0
2 H 16.525 24.718 6.6 H 0.0 **** 0.0
3 H 17.052 25.173 8.238 H 0.0 **** 0.0
4 H 15.991 26.261 7.309 H 0.0 **** 0.0
5 H 17.69 26.046 6.823 H 0.0 **** 0.0
@<TRIPOS>BOND
1 1 2 1
2 1 3 1
3 1 4 1
4 1 5 1
@<TRIPOS>MOLECULE
CH4
5 4
SMALL
USER_CHARGES


@<TRIPOS>ATOM
1 C 24.511 36.697 81.817 C 0.0 **** 0.0
2 H 24.496 36.887 82.89 H 0.0 **** 0.0
3 H 23.765 37.323 81.327 H 0.0 **** 0.0
4 H 24.284 35.648 81.631 H 0.0 **** 0.0
5 H 25.499 36.931 81.421 H 0.0 **** 0.0
@<TRIPOS>BOND
1 1 3 1
2 1 4 1
3 1 5 1
4 1 2 1
@<TRIPOS>MOLECULE
CH4
5 4
SMALL
USER_CHARGES


@<TRIPOS>ATOM
1 C 21.887 78.356 89.306 C 0.0 **** 0.0
2 H 21.783 77.386 89.792 H 0.0 **** 0.0
3 H 21.046 78.993 89.583 H 0.0 **** 0.0
4 H 21.899 78.22 88.225 H 0.0 **** 0.0
5 H 22.818 78.824 89.624 H 0.0 **** 0.0
@<TRIPOS>BOND
1 1 2 1
2 1 3 1
3 1 4 1
4 1 5 1
@<TRIPOS>MOLECULE
CH4
5 4
SMALL
USER_CHARGES


@<TRIPOS>ATOM
1 C 58.068 11.78 55.257 C 0.0 **** 0.0
2 H 57.523 11.213 54.502 H 0.0 **** 0.0
3 H 58.984 11.251 55.518 H 0.0 **** 0.0
4 H 57.447 11.892 56.146 H 0.0 **** 0.0
5 H 58.317 12.765 54.862 H 0.0 **** 0.0
@<TRIPOS>BOND
1 1 2 1
2 1 3 1
3 1 4 1
4 1 5 1
@<TRIPOS>MOLECULE
CH4
5 4
SMALL
USER_CHARGES


@<TRIPOS>ATOM
1 C 13.301 51.66 10.691 C 0.0 **** 0.0
2 H 12.354 51.362 10.241 H 0.0 **** 0.0
3 H 13.216 51.618 11.777 H 0.0 **** 0.0
4 H 13.543 52.678 10.385 H 0.0 **** 0.0
5 H 14.089 50.983 10.361 H 0.0 **** 0.0
@<TRIPOS>BOND
1 1 2 1
2 1 3 1
3 1 4 1
4 1 5 1
@<TRIPOS>MOLECULE
CH4
5 4
SMALL
USER_CHARGES


@<TRIPOS>ATOM
1 C 85.097 60.297 30.414 C 0.0 **** 0.0
2 H 84.051 59.99 30.437 H 0.0 **** 0.0
3 H 85.59 59.843 29.554 H 0.0 **** 0.0
4 H 85.591 59.974 31.33 H 0.0 **** 0.0
5 H 85.154 61.383 30.333 H 0.0 **** 0.0
@<TRIPOS>BOND
1 1 2 1
2 1 3 1
3 1 4 1
4 1 5 1
@<TRIPOS>MOLECULE
CH4
5 4
SMALL
USER_CHARGES


@<TRIPOS>ATOM
1 C 41.778 12.541 93.865 C 0.0 **** 0.0
2 H 42.718 12.814 94.345 H 0.0 **** 0.0
3 H 41.034 13.314 94.06 H 0.0 **** 0.0
4 H 41.429 11.59 94.265 H 0.0 **** 0.0
5 H 41.933 12.449 92.79 H 0.0 **** 0.0
@<TRIPOS>BOND
1 1 2 1
2 1 3 1
3 1 4 1
4 1 5 1
@<TRIPOS>MOLECULE
CH4
5 4
SMALL
USER_CHARGES


@<TRIPOS>ATOM
1 C 80.728 40.587 3.6 C 0.0 **** 0.0
2 H 81.784 40.414 3.392 H 0.0 **** 0.0
3 H 80.531 40.401 4.656 H 0.0 **** 0.0
4 H 80.123 39.914 2.993 H 0.0 **** 0.0
5 H 80.475 41.62 3.359 H 0.0 **** 0.0
@<TRIPOS>BOND
1 1 2 1
2 1 3 1
3 1 4 1
4 1 5 1
@<TRIPOS>MOLECULE
CH4
5 4
SMALL
USER_CHARGES


@<TRIPOS>ATOM
1 C 14.434 74.287 53.024 C 0.0 **** 0.0
2 H 14.368 74.287 54.112 H 0.0 **** 0.0
3 H 15.195 73.573 52.707 H 0.0 **** 0.0
4 H 14.704 75.284 52.677 H 0.0 **** 0.0
5 H 13.471 74.003 52.602 H 0.0 **** 0.0
@<TRIPOS>BOND
1 1 2 1
2 1 3 1
3 1 4 1
4 1 5 1
@<TRIPOS>MOLECULE
CH4
5 4
SMALL
USER_CHARGES


@<TRIPOS>ATOM
1 C 69.118 6.73 12.853 C 0.0 **** 0.0
2 H 70.068 6.199 12.917 H 0.0 **** 0.0
3 H 68.676 6.802 13.847 H 0.0 **** 0.0
4 H 68.443 6.187 12.192 H 0.0 **** 0.0
5 H 69.288 7.731 12.456 H 0.0 **** 0.0
@<TRIPOS>BOND
1 1 2 1
2 1 3 1
3 1 4 1
4 1 5 1
@<TRIPOS>MOLECULE
CH4
5 4
SMALL
USER_CHARGES


@<TRIPOS>ATOM
1 C 77.938 90.456 27.033 C 0.0 **** 0.0
2 H 78.317 90.226 26.037 H 0.0 **** 0.0
3 H 78.765 90.769 27.672 H 0.0 **** 0.0
4 H 77.467 89.569 27.456 H 0.0 **** 0.0
5 H 77.206 91.26 26.966 H 0.0 **** 0.0
@<TRIPOS>BOND
1 1 2 1
2 1 3 1
3 1 4 1
4 1 5 1
@<TRIPOS>MOLECULE
CH4
5 4
SMALL
USER_CHARGES


@<TRIPOS>ATOM
1 C 96.958 24.669 33.665 C 0.0 **** 0.0
2 H 97.263 24.259 34.628 H 0.0 **** 0.0
3 H 95.88 24.827 33.662 H 0.0 **** 0.0
4 H 97.225 23.97 32.872 H 0.0 **** 0.0
5 H 97.466 25.619 33.498 H 0.0 **** 0.0
@<TRIPOS>BOND
1 1 2 1
2 1 3 1
3 1 4 1
4 1 5 1
@<TRIPOS>MOLECULE
CH4
5 4
SMALL
USER_CHARGES


@<TRIPOS>ATOM
1 C 16.619 49.695 62.671 C 0.0 **** 0.0
2 H 15.895 50.232 62.058 H 0.0 **** 0.0
3 H 17.626 49.905 62.31 H 0.0 **** 0.0
4 H 16.426 48.624 62.606 H 0.0 **** 0.0
5 H 16.529 50.019 63.707 H 0.0 **** 0.0
@<TRIPOS>BOND
1 1 2 1
2 1 3 1
3 1 4 1
4 1 5 1
@<TRIPOS>MOLECULE
CH4
5 4
SMALL
USER_CHARGES


@<TRIPOS>ATOM
1 C 2.537 7.49 1.509 C 0.0 **** 0.0
2 H 2.989 8.161 0.778 H 0.0 **** 0.0
3 H 3.316 6.896 1.986 H 0.0 **** 0.0
4 H 1.831 6.829 1.007 H 0.0 **** 0.0
5 H 2.012 8.076 2.264 H 0.0 **** 0.0
@<TRIPOS>BOND
1 1 4 1
2 1 3 1
3 1 2 1
4 1 5 1
@<TRIPOS>MOLECULE
CH4
5 4
SMALL
USER_CHARGES


@<TRIPOS>ATOM
1 C 95.932 92.048 62.082 C 0.0 **** 0.0
2 H 94.975 92.516 62.314 H 0.0 **** 0.0
3 H 95.934 91.723 61.042 H 0.0 **** 0.0
4 H 96.081 91.186 62.733 H 0.0 **** 0.0
5 H 96.735 92.767 62.241 H 0.0 **** 0.0
@<TRIPOS>BOND
1 1 2 1
2 1 3 1
3 1 4 1
4 1 5 1
@<TRIPOS>MOLECULE
CH4
5 4
SMALL
USER_CHARGES


@<TRIPOS>ATOM
1 C 24.093 82.316 93.526 C 0.0 **** 0.0
2 H 24.052 82.368 92.438 H 0.0 **** 0.0
3 H 25.08 81.971 93.836 H 0.0 **** 0.0
4 H 23.336 81.619 93.885 H 0.0 **** 0.0
5 H 23.905 83.305 93.945 H 0.0 **** 0.0
@<TRIPOS>BOND
1 1 2 1
2 1 3 1
3 1 4 1
4 1 5 1
@<TRIPOS>MOLECULE
CH4
5 4
SMALL
USER_CHARGES


@<TRIPOS>ATOM
1 C 26.89 23.88 74.829 C 0.0 **** 0.0
2 H 26.104 24.563 75.153 H 0.0 **** 0.0
3 H 26.974 23.059 75.541 H 0.0 **** 0.0
4 H 27.838 24.416 74.779 H 0.0 **** 0.0
5 H 26.645 23.484 73.844 H 0.0 **** 0.0
@<TRIPOS>BOND
1 1 2 1
2 1 3 1
3 1 4 1
4 1 5 1
@<TRIPOS>MOLECULE
CH4
5 4
SMALL
USER_CHARGES


@<TRIPOS>ATOM
1 C 84.991 76.557 48.726 C 0.0 **** 0.0
2 H 84.401 76.157 47.901 H 0.0 **** 0.0
3 H 85.118 75.788 49.488 H 0.0 **** 0.0
4 H 84.477 77.415 49.158 H 0.0 **** 0.0
5 H 85.969 76.867 48.356 H 0.0 **** 0.0
@<TRIPOS>BOND
1 1 2 1
2 1 3 1
3 1 4 1
4 1 5 1
@<TRIPOS>MOLECULE
CH4
5 4
SMALL
USER_CHARGES


@<TRIPOS>ATOM
1 C 7.61 18.525 63.325 C 0.0 **** 0.0
2 H 7.744 18.597 64.404 H 0.0 **** 0.0
3 H 6.633 18.093 63.109 H 0.0 **** 0.0
4 H 8.39 17.891 62.903 H 0.0 **** 0.0
5 H 7.673 19.521 62.885 H 0.0 **** 0.0
@<TRIPOS>BOND
1 1 2 1
2 1 3 1
3 1 4 1
4 1 5 1
@<TRIPOS>MOLECULE
CH4
5 4
SMALL
USER_CHARGES


@<TRIPOS>ATOM
1 C 68.867 90.53 53.799 C 0.0 **** 0.0
2 H 67.869 90.718 53.402 H 0.0 **** 0.0
3 H 68.786 89.988 54.741 H 0.0 **** 0.0
4 H 69.376 91.479 53.967 H 0.0 **** 0.0
5 H 69.436 89.935 53.084 H 0.0 **** 0.0
@<TRIPOS>BOND
1 1 2 1
2 1 3 1
3 1 4 1
4 1 5 1
@<TRIPOS>MOLECULE
CH4
5 4
SMALL
USER_CHARGES


@<TRIPOS>ATOM
1 C 93.21 71.701 85.526 C 0.0 **** 0.0
2 H 93.983 71.192 84.951 H 0.0 **** 0.0
3 H 93.659 72.169 86.403 H 0.0 **** 0.0
4 H 92.458 70.979 85.843 H 0.0 **** 0.0
5 H 92.741 72.466 84.906 H 0.0 **** 0.0
@<TRIPOS>BOND
1 1 2 1
2 1 3 1
3 1 4 1
4 1 5 1
@<TRIPOS>MOLECULE
CH4
5 4
SMALL
USER_CHARGES


@<TRIPOS>ATOM
1 C 89.757 9.185 76.7 C 0.0 **** 0.0
2 H 89.734 9.04 77.78 H 0.0 **** 0.0
3 H 89.193 8.387 76.216 H 0.0 **** 0.0
4 H 90.789 9.163 76.352 H 0.0 **** 0.0
5 H 89.31 10.148 76.453 H 0.0 **** 0.0
@<TRIPOS>BOND
1 1 2 1
2 1 3 1
3 1 4 1
4 1 5 1
@<TRIPOS>MOLECULE
CH4
5 4
SMALL
USER_CHARGES


@<TRIPOS>ATOM
1 C 31.329 77.644 40.975 C 0.0 **** 0.0
2 H 31.298 78.393 41.766 H 0.0 **** 0.0
3 H 30.455 77.756 40.334 H 0.0 **** 0.0
4 H 31.329 76.648 41.419 H 0.0 **** 0.0
5 H 32.234 77.778 40.383 H 0.0 **** 0.0
@<TRIPOS>BOND
1 1 2 1
2 1 4 1
3 1 5 1
4 1 3 1
@<TRIPOS>MOLECULE
CH4
5 4
SMALL
USER_CHARGES


@<TRIPOS>ATOM
1 C 82.419 51.838 38.37 C 0.0 **** 0.0
2 H 81.983 51.026 37.788 H 0.0 **** 0.0
3 H 82.629 52.683 37.714 H 0.0 **** 0.0
4 H 83.346 51.497 38.831 H 0.0 **** 0.0
5 H 81.719 52.145 39.146 H 0.0 **** 0.0
@<TRIPOS>BOND
1 1 2 1
2 1 3 1
3 1 4 1
4 1 5 1
@<TRIPOS>MOLECULE
CH4
5 4
SMALL
USER_CHARGES


@<TRIPOS>ATOM
1 C 17.952 1.779 80.018 C 0.0 **** 0.0
2 H 17.901 2.276 79.049 H 0.0 **** 0.0
3 H 18.533 0.861 79.924 H 0.0 **** 0.0
4 H 16.944 1.539 80.356 H 0.0 **** 0.0
5 H 18.43 2.44 80.741 H 0.0 **** 0.0
@<TRIPOS>BOND
1 1 2 1
2 1 3 1
3 1 4 1
4 1 5 1
@<TRIPOS>MOLECULE
CH4
5 4
SMALL
USER_CHARGES


@<TRIPOS>ATOM
1 C 98.152 19.659 1.368 C 0.0 **** 0.0
2 H 98.509 20.479 1.991 H 0.0 **** 0.0
3 H 97.627 18.933 1.989 H 0.0 **** 0.0
4 H 99.0 19.176 0.883 H 0.0 **** 0.0
5 H 97.473 20.048 0.609 H 0.0 **** 0.0
@<TRIPOS>BOND
1 1 2 1
2 1 3 1
3 1 4 1
4 1 5 1
@<TRIPOS>MOLECULE
CH4
5 4
SMALL
USER_CHARGES


@<TRIPOS>ATOM
1 C 46.919 3.083 33.277 C 0.0 **** 0.0
2 H 47.032 3.87 32.532 H 0.0 **** 0.0
3 H 46.903 2.112 32.781 H 0.0 **** 0.0
4 H 45.986 3.229 33.821 H 0.0 **** 0.0
5 H 47.756 3.121 33.975 H 0.0 **** 0.0
@<TRIPOS>BOND
1 1 2 1
2 1 3 1
3 1 4 1
4 1 5 1
@<TRIPOS>MOLECULE
CH4
5 4
SMALL
USER_CHARGES


@<TRIPOS>ATOM
1 C 61.728 54.268 69.311 C 0.0 **** 0.0
2 H 60.949 54.007 68.595 H 0.0 **** 0.0
3 H 62.279 55.136 68.948 H 0.0 **** 0.0
4 H 62.411 53.427 69.428 H 0.0 **** 0.0
5 H 61.272 54.503 70.273 H 0.0 **** 0.0
@<TRIPOS>BOND
1 1 2 1
2 1 3 1
3 1 4 1
4 1 5 1
@<TRIPOS>MOLECULE
CH4
5 4
SMALL
USER_CHARGES


@<TRIPOS>ATOM
1 C 44.304 68.12 94.758 C 0.0 **** 0.0
2 H 44.084 67.344 94.026 H 0.0 **** 0.0
3 H 43.502 68.163 95.495 H 0.0 **** 0.0
4 H 44.387 69.082 94.253 H 0.0 **** 0.0
5 H 45.245 67.891 95.258 H 0.0 **** 0.0
@<TRIPOS>BOND
1 1 2 1
2 1 3 1
3 1 4 1
4 1 5 1
@<TRIPOS>MOLECULE
CH4
5 4
SMALL
USER_CHARGES


@<TRIPOS>ATOM
1 C 54.712 93.002 77.744 C 0.0 **** 0.0
2 H 54.554 92.463 78.678 H 0.0 **** 0.0
3 H 54.431 92.366 76.905 H 0.0 **** 0.0
4 H 55.764 93.275 77.657 H 0.0 **** 0.0
5 H 54.101 93.905 77.737 H 0.0 **** 0.0
@<TRIPOS>BOND
1 1 2 1
2 1 3 1
3 1 4 1
4 1 5 1
@<TRIPOS>MOLECULE
CH4
5 4
SMALL
USER_CHARGES


@<TRIPOS>ATOM
1 C 92.773 82.744 82.455 C 0.0 **** 0.0
2 H 92.504 82.951 83.49 H 0.0 **** 0.0
3 H 93.21 81.748 82.385 H 0.0 **** 0.0
4 H 93.498 83.483 82.114 H 0.0 **** 0.0
5 H 91.881 82.795 81.83 H 0.0 **** 0.0
@<TRIPOS>BOND
1 1 2 1
2 1 3 1
3 1 4 1
4 1 5 1
@<TRIPOS>MOLECULE
CH4
5 4
SMALL
USER_CHARGES


@<TRIPOS>ATOM
1 C 24.676 8.737 14.146 C 0.0 **** 0.0
2 H 25.735 8.979 14.233 H 0.0 **** 0.0
3 H 24.125 9.624 13.834 H 0.0 **** 0.0
4 H 24.301 8.397 15.112 H 0.0 **** 0.0
5 H 24.543 7.948 13.406 H 0.0 **** 0.0
@<TRIPOS>BOND
1 1 2 1
2 1 3 1
3 1 4 1
4 1 5 1
@<TRIPOS>MOLECULE
CH4
5 4
SMALL
USER_CHARGES


@<TRIPOS>ATOM
1 C 7.302 82.208 44.387 C 0.0 **** 0.0
2 H 7.287 82.469 45.445 H 0.0 **** 0.0
3 H 6.298 82.313 43.973 H 0.0 **** 0.0
4 H 7.637 81.177 44.272 H 0.0 **** 0.0
5 H 7.985 82.874 43.859 H 0.0 **** 0.0
@<TRIPOS>BOND
1 1 2 1
2 1 3 1
3 1 4 1
4 1 5 1
@<TRIPOS>MOLECULE
CH4
5 4
SMALL
USER_CHARGES


@<TRIPOS>ATOM
1 C 90.641 66.047 65.292 C 0.0 **** 0.0
2 H 90.65 66.865 66.013 H 0.0 **** 0.0
3 H 89.885 65.317 65.581 H 0.0 **** 0.0
4 H 91.62 65.569 65.272 H 0.0 **** 0.0
5 H 90.408 66.439 64.302 H 0.0 **** 0.0
@<TRIPOS>BOND
1 1 2 1
2 1 3 1
3 1 4 1
4 1 5 1
@<TRIPOS>MOLECULE
CH4
5 4
SMALL
USER_CHARGES


@<TRIPOS>ATOM
1 C 90.844 2.239 32.466 C 0.0 **** 0.0
2 H 90.754 2.71 33.444 H 0.0 **** 0.0
3 H 91.647 1.502 32.49 H 0.0 **** 0.0
4 H 91.068 2.998 31.716 H 0.0 **** 0.0
5 H 89.905 1.745 32.213 H 0.0 **** 0.0
@<TRIPOS>BOND
1 1 2 1
2 1 3 1
3 1 4 1
4 1 5 1
@<TRIPOS>MOLECULE
CH4
5 4
SMALL
USER_CHARGES


@<TRIPOS>ATOM
1 C 29.772 27.75 45.447 C 0.0 **** 0.0
2 H 30.683 27.161 45.344 H 0.0 **** 0.0
3 H 29.108 27.542 44.607 H 0.0 **** 0.0
4 H 30.024 28.81 45.459 H 0.0 **** 0.0
5 H 29.272 27.485 46.379 H 0.0 **** 0.0
@<TRIPOS>BOND
1 1 2 1
2 1 3 1
3 1 4 1
4 1 5 1
@<TRIPOS>MOLECULE
CH4
5 4
SMALL
USER_CHARGES


@<TRIPOS>ATOM
1 C 18.067 80.129 44.804 C 0.0 **** 0.0
2 H 17.634 79.835 45.76 H 0.0 **** 0.0
3 H 17.515 79.651 43.993 H 0.0 **** 0.0
4 H 19.111 79.816 44.766 H 0.0 **** 0.0
5 H 18.008 81.212 44.696 H 0.0 **** 0.0
@<TRIPOS>BOND
1 1 2 1
2 1 3 1
3 1 4 1
4 1 5 1
@<TRIPOS>MOLECULE
CH4
5 4
SMALL
USER_CHARGES


@<TRIPOS>ATOM
1 C 18.169 10.069 37.516 C 0.0 **** 0.0
2 H 18.708 9.282 36.988 H 0.0 **** 0.0
3 H 18.844 10.571 38.209 H 0.0 **** 0.0
4 H 17.338 9.632 38.07 H 0.0 **** 0.0
5 H 17.785 10.792 36.795 H 0.0 **** 0.0
@<TRIPOS>BOND
1 1 2 1
2 1 3 1
3 1 4 1
4 1 5 1
@<TRIPOS>MOLECULE
CH4
5 4
SMALL
USER_CHARGES


@<TRIPOS>ATOM
1 C 38.985 25.876 94.241 C 0.0 **** 0.0
2 H 39.946 25.381 94.381 H 0.0 **** 0.0
3 H 38.428 25.371 93.451 H 0.0 **** 0.0
4 H 39.15 26.916 93.961 H 0.0 **** 0.0
5 H 38.416 25.835 95.17 H 0.0 **** 0.0
@<TRIPOS>BOND
1 1 2 1
2 1 3 1
3 1 4 1
4 1 5 1
@<TRIPOS>MOLECULE
CH4
5 4
SMALL
USER_CHARGES


@<TRIPOS>ATOM
1 C 52.913 43.579 14.223 C 0.0 **** 0.0
2 H 51.955 43.293 13.79 H 0.0 **** 0.0
3 H 53.315 44.436 13.683 H 0.0 **** 0.0
4 H 53.609 42.743 14.147 H 0.0 **** 0.0
5 H 52.774 43.842 15.271 H 0.0 **** 0.0
@<TRIPOS>BOND
1 1 2 1
2 1 3 1
3 1 4 1
4 1 5 1
@<TRIPOS>MOLECULE
CH4
5 4
SMALL
USER_CHARGES


@<TRIPOS>ATOM
1 C 20.963 64.617 43.207 C 0.0 **** 0.0
2 H 20.244 64.529 44.021 H 0.0 **** 0.0
3 H 21.958 64.79 43.619 H 0.0 **** 0.0
4 H 20.685 65.453 42.565 H 0.0 **** 0.0
5 H 20.966 63.696 42.625 H 0.0 **** 0.0
@<TRIPOS>BOND
1 1 2 1
2 1 3 1
3 1 4 1
4 1 5 1
@<TRIPOS>MOLECULE
CH4
5 4
SMALL
USER_CHARGES


@<TRIPOS>ATOM
1 C 93.702 53.64 9.864 C 0.0 **** 0.0
2 H 93.334 52.644 10.11 H 0.0 **** 0.0
3 H 94.083 54.12 10.767 H 0.0 **** 0.0
4 H 92.888 54.237 9.451 H 0.0 **** 0.0
5 H 94.503 53.56 9.129 H 0.0 **** 0.0
@<TRIPOS>BOND
1 1 2 1
2 1 3 1
3 1 4 1
4 1 5 1
@<TRIPOS>MOLECULE
CH4
5 4
SMALL
USER_CHARGES


@<TRIPOS>ATOM
1 C 68.737 43.289 60.862 C 0.0 **** 0.0
2 H 69.057 42.888 61.824 H 0.0 **** 0.0
3 H 67.755 43.752 60.971 H 0.0 **** 0.0
4 H 68.679 42.482 60.132 H 0.0 **** 0.0
5 H 69.455 44.035 60.523 H 0.0 **** 0.0
@<TRIPOS>BOND
1 1 2 1
2 1 3 1
3 1 4 1
4 1 5 1
@<TRIPOS>MOLECULE
CH4
5 4
SMALL
USER_CHARGES


@<TRIPOS>ATOM
1 C 3.436 45.863 56.087 C 0.0 **** 0.0
2 H 3.163 45.589 55.068 H 0.0 **** 0.0
3 H 3.473 46.949 56.174 H 0.0 **** 0.0
4 H 4.414 45.445 56.325 H 0.0 **** 0.0
5 H 2.694 45.468 56.78 H 0.0 **** 0.0
@<TRIPOS>BOND
1 1 3 1
2 1 4 1
3 1 5 1
4 1 2 1
@<TRIPOS>MOLECULE
CH4
5 4
SMALL
USER_CHARGES


@<TRIPOS>ATOM
1 C 98.359 7.692 5.752 C 0.0 **** 0.0
2 H 97.821 8.628 5.896 H 0.0 **** 0.0
3 H 98.978 7.763 4.857 H 0.0 **** 0.0
4 H 97.645 6.876 5.637 H 0.0 **** 0.0
5 H 98.993 7.501 6.618 H 0.0 **** 0.0
@<TRIPOS>BOND
1 1 2 1
2 1 3 1
3 1 4 1
4 1 5 1
@<TRIPOS>MOLECULE
CH4
5 4
SMALL
USER_CHARGES


@<TRIPOS>ATOM
1 C 87.866 94.984 25.407 C 0.0 **** 0.0
2 H 87.072 95.046 26.151 H 0.0 **** 0.0
3 H 88.684 94.378 25.798 H 0.0 **** 0.0
4 H 88.231 95.986 25.182 H 0.0 **** 0.0
5 H 87.477 94.526 24.498 H 0.0 **** 0.0
@<TRIPOS>BOND
1 1 2 1
2 1 3 1
3 1 4 1
4 1 5 1
@<TRIPOS>MOLECULE
CH4
5 4
SMALL
USER_CHARGES


@<TRIPOS>ATOM
1 C 4.206 9.105 20.599 C 0.0 **** 0.0
2 H 3.491 9.48 21.33 H 0.0 **** 0.0
3 H 4.754 8.263 21.025 H 0.0 **** 0.0
4 H 4.906 9.898 20.336 H 0.0 **** 0.0
5 H 3.675 8.778 19.705 H 0.0 **** 0.0
@<TRIPOS>BOND
1 1 2 1
2 1 3 1
3 1 4 1
4 1 5 1
@<TRIPOS>MOLECULE
CH4
5 4
SMALL
USER_CHARGES


@<TRIPOS>ATOM
1 C 50.949 69.74 25.645 C 0.0 **** 0.0
2 H 51.497 69.273 26.464 H 0.0 **** 0.0
3 H 50.181 69.056 25.285 H 0.0 **** 0.0
4 H 51.639 69.973 24.834 H 0.0 **** 0.0
5 H 50.481 70.659 25.999 H 0.0 **** 0.0
@<TRIPOS>BOND
1 1 2 1
2 1 3 1
3 1 4 1
4 1 5 1
@<TRIPOS>MOLECULE
CH4
5 4
SMALL
USER_CHARGES


@<TRIPOS>ATOM
1 C 3.26 60.798 82.09 C 0.0 **** 0.0
2 H 2.774 60.83 81.115 H 0.0 **** 0.0
3 H 2.732 61.455 82.781 H 0.0 **** 0.0
4 H 4.294 61.129 81.991 H 0.0 **** 0.0
5 H 3.241 59.777 82.471 H 0.0 **** 0.0
@<TRIPOS>BOND
1 1 2 1
2 1 3 1
3 1 4 1
4 1 5 1
@<TRIPOS>MOLECULE
CH4
5 4
SMALL
USER_CHARGES


@<TRIPOS>ATOM
1 C 70.318 30.787 30.412 C 0.0 **** 0.0
2 H 71.379 30.935 30.613 H 0.0 **** 0.0
3 H 70.149 29.759 30.09 H 0.0 **** 0.0
4 H 69.998 31.472 29.627 H 0.0 **** 0.0
5 H 69.746 30.982 31.32 H 0.0 **** 0.0
@<TRIPOS>BOND
1 1 2 1
2 1 3 1
3 1 4 1
4 1 5 1
@<TRIPOS>MOLECULE
CH4
5 4
SMALL
USER_CHARGES


@<TRIPOS>ATOM
1 C 20.312 34.037 18.686 C 0.0 **** 0.0
2 H 20.099 33.576 17.721 H 0.0 **** 0.0
3 H 21.299 34.5 18.657 H 0.0 **** 0.0
4 H 20.29 33.275 19.465 H 0.0 **** 0.0
5 H 19.56 34.797 18.899 H 0.0 **** 0.0
@<TRIPOS>BOND
1 1 2 1
2 1 3 1
3 1 4 1
4 1 5 1
@<TRIPOS>MOLECULE
CH4
5 4
SMALL
USER_CHARGES


@<TRIPOS>ATOM
1 C 77.072 8.575 88.418 C 0.0 **** 0.0
2 H 77.213 8.449 89.491 H 0.0 **** 0.0
3 H 76.699 7.644 87.989 H 0.0 **** 0.0
4 H 78.024 8.833 87.954 H 0.0 **** 0.0
5 H 76.351 9.372 88.238 H 0.0 **** 0.0
@<TRIPOS>BOND
1 1 2 1
2 1 3 1
3 1 4 1
4 1 5 1
@<TRIPOS>MOLECULE
CH4
5 4
SMALL
USER_CHARGES


@<TRIPOS>ATOM
1 C 41.354 85.493 17.895 C 0.0 **** 0.0
2 H 41.034 85.727 18.91 H 0.0 **** 0.0
3 H 41.557 86.419 17.356 H 0.0 **** 0.0
4 H 40.565 84.941 17.384 H 0.0 **** 0.0
5 H 42.258 84.886 17.929 H 0.0 **** 0.0
@<TRIPOS>BOND
1 1 2 1
2 1 3 1
3 1 4 1
4 1 5 1
@<TRIPOS>MOLECULE
CH4
5 4
SMALL
USER_CHARGES


@<TRIPOS>ATOM
1 C 7.726 32.445 62.426 C 0.0 **** 0.0
2 H 8.621 32.768 61.894 H 0.0 **** 0.0
3 H 7.843 31.407 62.738 H 0.0 **** 0.0
4 H 6.861 32.533 61.769 H 0.0 **** 0.0
5 H 7.58 33.074 63.305 H 0.0 **** 0.0
@<TRIPOS>BOND
1 1 2 1
2 1 3 1
3 1 4 1
4 1 5 1
@<TRIPOS>MOLECULE
CH4
5 4
SMALL
USER_CHARGES


@<TRIPOS>ATOM
1 C 24.42 59.525 69.598 C 0.0 **** 0.0
2 H 24.431 58.445 69.447 H 0.0 **** 0.0
3 H 25.062 59.78 70.441 H 0.0 **** 0.0
4 H 23.401 59.851 69.804 H 0.0 **** 0.0
5 H 24.785 60.021 68.699 H 0.0 **** 0.0
@<TRIPOS>BOND
1 1 2 1
2 1 3 1
3 1 4 1
4 1 5 1
@<TRIPOS>MOLECULE
CH4
5 4
SMALL
USER_CHARGES


@<TRIPOS>ATOM
1 C 27.113 58.931 59.747 C 0.0 **** 0.0
2 H 27.138 59.137 58.677 H 0.0 **** 0.0
3 H 27.811 58.127 59.979 H 0.0 **** 0.0
4 H 26.105 58.633 60.036 H 0.0 **** 0.0
5 H 27.398 59.829 60.296 H 0.0 **** 0.0
@<TRIPOS>BOND
1 1 2 1
2 1 3 1
3 1 4 1
4 1 5 1
@<TRIPOS>MOLECULE
CH4
5 4
SMALL
USER_CHARGES


@<TRIPOS>ATOM
1 C 34.772 56.39 93.598 C 0.0 **** 0.0
2 H 34.022 56.937 94.169 H 0.0 **** 0.0
3 H 34.719 56.688 92.55 H 0.0 **** 0.0
4 H 34.583 55.32 93.682 H 0.0 **** 0.0
5 H 35.763 56.616 93.991 H 0.0 **** 0.0
@<TRIPOS>BOND
1 1 2 1
2 1 3 1
3 1 4 1
4 1 5 1
@<TRIPOS>MOLECULE
CH4
5 4
SMALL
USER_CHARGES


@<TRIPOS>ATOM
1 C 56.094 8.987 39.569 C 0.0 **** 0.0
2 H 55.994 9.707 38.756 H 0.0 **** 0.0
3 H 55.595 9.373 40.458 H 0.0 **** 0.0
4 H 57.15 8.827 39.785 H 0.0 **** 0.0
5 H 55.635 8.043 39.275 H 0.0 **** 0.0
@<TRIPOS>BOND
1 1 2 1
2 1 3 1
3 1 4 1
4 1 5 1
@<TRIPOS>MOLECULE
CH4
5 4
SMALL
USER_CHARGES


@<TRIPOS>ATOM
1 C 37.533 71.132 76.295 C 0.0 **** 0.0
2 H 38.446 71.713 76.425 H 0.0 **** 0.0
3 H 37.754 70.074 76.431 H 0.0 **** 0.0
4 H 37.139 71.296 75.292 H 0.0 **** 0.0
5 H 36.794 71.447 77.032 H 0.0 **** 0.0
@<TRIPOS>BOND
1 1 2 1
2 1 3 1
3 1 4 1
4 1 5 1
@<TRIPOS>MOLECULE
CH4
5 4
SMALL
USER_CHARGES


@<TRIPOS>ATOM
1 C 95.649 38.695 38.604 C 0.0 **** 0.0
2 H 95.656 38.559 39.685 H 0.0 **** 0.0
3 H 95.713 39.758 38.371 H 0.0 **** 0.0
4 H 94.724 38.289 38.193 H 0.0 **** 0.0
5 H 96.5 38.174 38.167 H 0.0 **** 0.0
@<TRIPOS>BOND
1 1 2 1
2 1 3 1
3 1 4 1
4 1 5 1
@<TRIPOS>MOLECULE
CH4
5 4
SMALL
USER_CHARGES


@<TRIPOS>ATOM
1 C 32.099 22.877 96.389 C 0.0 **** 0.0
2 H 32.095 22.855 97.479 H 0.0 **** 0.0
3 H 33.049 22.487 96.022 H 0.0 **** 0.0
4 H 31.97 23.904 96.046 H 0.0 **** 0.0
5 H 31.282 22.262 96.01 H 0.0 **** 0.0
@<TRIPOS>BOND
1 1 2 1
2 1 3 1
3 1 4 1
4 1 5 1
@<TRIPOS>MOLECULE
CH4
5 4
SMALL
USER_CHARGES


@<TRIPOS>ATOM
1 C 79.544 46.306 89.219 C 0.0 **** 0.0
2 H 79.537 46.284 88.129 H 0.0 **** 0.0
3 H 79.856 47.294 89.56 H 0.0 **** 0.0
4 H 80.24 45.556 89.593 H 0.0 **** 0.0
5 H 78.543 46.092 89.593 H 0.0 **** 0.0
@<TRIPOS>BOND
1 1 2 1
2 1 3 1
3 1 4 1
4 1 5 1
@<TRIPOS>MOLECULE
CH4
5 4
SMALL
USER_CHARGES


@<TRIPOS>ATOM
1 C 5.075 53.784 86.84 C 0.0 **** 0.0
2 H 5.115 53.766 85.751 H 0.0 **** 0.0
3 H 4.754 52.809 87.207 H 0.0 **** 0.0
4 H 4.366 54.546 87.164 H 0.0 **** 0.0
5 H 6.063 54.015 87.236 H 0.0 **** 0.0
@<TRIPOS>BOND
1 1 2 1
2 1 3 1
3 1 4 1
4 1 5 1
@<TRIPOS>MOLECULE
CH4
5 4
SMALL
USER_CHARGES


@<TRIPOS>ATOM
1 C 73.911 94.796 69.069 C 0.0 **** 0.0
2 H 74.965 95.062 69.146 H 0.0 **** 0.0
3 H 73.813 93.854 68.53 H 0.0 **** 0.0
4 H 73.377 95.58 68.532 H 0.0 **** 0.0
5 H 73.489 94.689 70.069 H 0.0 **** 0.0
@<TRIPOS>BOND
1 1 2 1
2 1 3 1
3 1 4 1
4 1 5 1
@<TRIPOS>MOLECULE
CH4
5 4
SMALL
USER_CHARGES


@<TRIPOS>ATOM
1 C 32.362 55.566 51.456 C 0.0 **** 0.0
2 H 33.085 54.8 51.737 H 0.0 **** 0.0
3 H 31.936 56.01 52.356 H 0.0 **** 0.0
4 H 31.567 55.115 50.862 H 0.0 **** 0.0
5 H 32.86 56.338 50.87 H 0.0 **** 0.0
@<TRIPOS>BOND
1 1 2 1
2 1 3 1
3 1 4 1
4 1 5 1
@<TRIPOS>MOLECULE
CH4
5 4
SMALL
USER_CHARGES


@<TRIPOS>ATOM
1 C 77.457 55.644 6.007 C 0.0 **** 0.0
2 H 76.759 55.262 6.752 H 0.0 **** 0.0
3 H 77.033 56.528 5.531 H 0.0 **** 0.0
4 H 77.64 54.877 5.254 H 0.0 **** 0.0
5 H 78.397 55.907 6.491 H 0.0 **** 0.0
@<TRIPOS>BOND
1 1 2 1
2 1 3 1
3 1 4 1
4 1 5 1
@<TRIPOS>MOLECULE
CH4
5 4
SMALL
USER_CHARGES


@<TRIPOS>ATOM
1 C 68.094 86.63 2.268 C 0.0 **** 0.0
2 H 68.337 87.408 1.543 H 0.0 **** 0.0
3 H 68.747 85.771 2.111 H 0.0 **** 0.0
4 H 67.055 86.326 2.138 H 0.0 **** 0.0
5 H 68.237 87.017 3.277 H 0.0 **** 0.0
@<TRIPOS>BOND
1 1 2 1
2 1 3 1
3 1 4 1
4 1 5 1
@<TRIPOS>MOLECULE
CH4
5 4
SMALL
USER_CHARGES


@<TRIPOS>ATOM
1 C 57.621 74.025 77.453 C 0.0 **** 0.0
2 H 56.732 74.108 78.078 H 0.0 **** 0.0
3 H 58.506 74.248 78.05 H 0.0 **** 0.0
4 H 57.552 74.733 76.627 H 0.0 **** 0.0
5 H 57.694 73.012 77.059 H 0.0 **** 0.0
@<TRIPOS>BOND
1 1 2 1
2 1 3 1
3 1 4 1
4 1 5 1
@<TRIPOS>MOLECULE
CH4
5 4
SMALL
USER_CHARGES


@<TRIPOS>ATOM
1 C 40.014 9.255 1.013 C 0.0 **** 0.0
2 H 39.356 9.533 0.189 H 0.0 **** 0.0
3 H 39.413 8.979 1.879 H 0.0 **** 0.0
4 H 40.653 10.101 1.267 H 0.0 **** 0.0
5 H 40.633 8.409 0.714 H 0.0 **** 0.0
@<TRIPOS>BOND
1 1 3 1
2 1 4 1
3 1 5 1
4 1 2 1
@<TRIPOS>MOLECULE
CH4
5 4
SMALL
USER_CHARGES


@<TRIPOS>ATOM
1 C 1.553 79.844 71.111 C 0.0 **** 0.0
2 H 2.108 80.512 70.452 H 0.0 **** 0.0
3 H 0.728 79.393 70.56 H 0.0 **** 0.0
4 H 1.16 80.412 71.955 H 0.0 **** 0.0
5 H 2.217 79.061 71.478 H 0.0 **** 0.0
@<TRIPOS>BOND
1 1 2 1
2 1 3 1
3 1 4 1
4 1 5 1
@<TRIPOS>MOLECULE
CH4
5 4
SMALL
USER_CHARGES


@<TRIPOS>ATOM
1 C 76.88 35.384 27.607 C 0.0 **** 0.0
2 H 77.846 35.096 28.022 H 0.0 **** 0.0
3 H 77.004 35.66 26.559 H 0.0 **** 0.0
4 H 76.485 36.234 28.163 H 0.0 **** 0.0
5 H 76.187 34.546 27.683 H 0.0 **** 0.0
@<TRIPOS>BOND
1 1 2 1
2 1 3 1
3 1 4 1
4 1 5 1
@<TRIPOS>MOLECULE
CH4
5 4
SMALL
USER_CHARGES


@<TRIPOS>ATOM
1 C 31.006 49.668 92.001 C 0.0 **** 0.0
2 H 31.642 50.319 92.601 H 0.0 **** 0.0
3 H 30.047 50.156 91.827 H 0.0 **** 0.0
4 H 30.845 48.729 92.53 H 0.0 **** 0.0
5 H 31.491 49.468 91.045 H 0.0 **** 0.0
@<TRIPOS>BOND
1 1 2 1
2 1 3 1
3 1 4 1
4 1 5 1
@<TRIPOS>MOLECULE
CH4
5 4
SMALL
USER_CHARGES


@<TRIPOS>ATOM
1 C 49.179 72.786 4.318 C 0.0 **** 0.0
2 H 48.664 73.28 3.494 H 0.0 **** 0.0
3 H 49.094 71.705 4.203 H 0.0 **** 0.0
4 H 48.726 73.087 5.263 H 0.0 **** 0.0
5 H 50.231 73.071 4.313 H 0.0 **** 0.0
@<TRIPOS>BOND
1 1 2 1
2 1 3 1
3 1 4 1
4 1 5 1
@<TRIPOS>MOLECULE
CH4
5 4
SMALL
USER_CHARGES


@<TRIPOS>ATOM
1 C 60.93 24.37 15.0 C 0.0 **** 0.0
2 H 60.448 25.104 14.354 H 0.0 **** 0.0
3 H 60.226 24.04 15.763 H 0.0 **** 0.0
4 H 61.799 24.824 15.478 H 0.0 **** 0.0
5 H 61.249 23.515 14.404 H 0.0 **** 0.0
@<TRIPOS>BOND
1 1 2 1
2 1 3 1
3 1 4 1
4 1 5 1
@<TRIPOS>MOLECULE
CH4
5 4
SMALL
USER_CHARGES


@<TRIPOS>ATOM
1 C 56.728 39.624 54.297 C 0.0 **** 0.0
2 H 56.692 39.764 55.377 H 0.0 **** 0.0
3 H 57.395 40.365 53.857 H 0.0 **** 0.0
4 H 55.727 39.743 53.882 H 0.0 **** 0.0
5 H 57.098 38.623 54.073 H 0.0 **** 0.0
@<TRIPOS>BOND
1 1 2 1
2 1 3 1
3 1 4 1
4 1 5 1
@<TRIPOS>MOLECULE
CH4
5 4
SMALL
USER_CHARGES


@<TRIPOS>ATOM
1 C 37.346 54.321 64.411 C 0.0 **** 0.0
2 H 37.161 55.101 65.15 H 0.0 **** 0.0
3 H 36.402 54.018 63.958 H 0.0 **** 0.0
4 H 37.809 53.462 64.897 H 0.0 **** 0.0
5 H 38.013 54.705 63.639 H 0.0 **** 0.0
@<TRIPOS>BOND
1 1 2 1
2 1 3 1
3 1 4 1
4 1 5 1
@<TRIPOS>MOLECULE
CH4
5 4
SMALL
USER_CHARGES


@<TRIPOS>ATOM
1 C 63.423 38.347 83.481 C 0.0 **** 0.0
2 H 64.271 38.218 84.154 H 0.0 **** 0.0
3 H 62.503 38.081 84.002 H 0.0 **** 0.0
4 H 63.548 37.702 82.612 H 0.0 **** 0.0
5 H 63.371 39.387 83.158 H 0.0 **** 0.0
@<TRIPOS>BOND
1 1 2 1
2 1 3 1
3 1 4 1
4 1 5 1
@<TRIPOS>MOLECULE
CH4
5 4
SMALL
USER_CHARGES


@<TRIPOS>ATOM
1 C 95.044 69.996 4.032 C 0.0 **** 0.0
2 H 94.502 69.525 3.213 H 0.0 **** 0.0
3 H 95.007 71.08 3.916 H 0.0 **** 0.0
4 H 96.082 69.664 4.018 H 0.0 **** 0.0
5 H 94.585 69.716 4.98 H 0.0 **** 0.0
@<TRIPOS>BOND
1 1 2 1
2 1 3 1
3 1 4 1
4 1 5 1
@<TRIPOS>MOLECULE
CH4
5 4
SMALL
USER_CHARGES


@<TRIPOS>ATOM
1 C 65.715 1.01 55.237 C 0.0 **** 0.0
2 H 65.121 1.897 55.456 H 0.0 **** 0.0
3 H 66.732 1.307 54.982 H 0.0 **** 0.0
4 H 65.271 0.473 54.399 H 0.0 **** 0.0
5 H 65.735 0.362 56.114 H 0.0 **** 0.0
@<TRIPOS>BOND
1 1 2 1
2 1 3 1
3 1 4 1
4 1 5 1
@<TRIPOS>MOLECULE
CH4
5 4
SMALL
USER_CHARGES


@<TRIPOS>ATOM
1 C 61.23 40.417 91.489 C 0.0 **** 0.0
2 H 60.682 40.553 90.557 H 0.0 **** 0.0
3 H 62.085 41.093 91.51 H 0.0 **** 0.0
4 H 61.58 39.387 91.557 H 0.0 **** 0.0
5 H 60.574 40.635 92.331 H 0.0 **** 0.0
@<TRIPOS>BOND
1 1 2 1
2 1 3 1
3 1 4 1
4 1 5 1
@<TRIPOS>MOLECULE
CH4
5 4
SMALL
USER_CHARGES


@<TRIPOS>ATOM
1 C 60.468 75.128 66.709 C 0.0 **** 0.0
2 H 61.31 75.318 67.375 H 0.0 **** 0.0
3 H 60.231 76.036 66.154 H 0.0 **** 0.0
4 H 59.602 74.824 67.296 H 0.0 **** 0.0
5 H 60.731 74.333 66.01 H 0.0 **** 0.0
@<TRIPOS>BOND
1 1 2 1
2 1 3 1
3 1 4 1
4 1 5 1
@<TRIPOS>MOLECULE
CH4
5 4
SMALL
USER_CHARGES


@<TRIPOS>ATOM
1 C 20.843 73.02 97.219 C 0.0 **** 0.0
2 H 21.821 72.744 96.824 H 0.0 **** 0.0
3 H 20.135 72.212 97.034 H 0.0 **** 0.0
4 H 20.496 73.928 96.725 H 0.0 **** 0.0
5 H 20.921 73.197 98.292 H 0.0 **** 0.0
@<TRIPOS>BOND
1 1 2 1
2 1 3 1
3 1 4 1
4 1 5 1
@<TRIPOS>MOLECULE
CH4
5 4
SMALL
USER_CHARGES


@<TRIPOS>ATOM
1 C 37.095 39.689 41.024 C 0.0 **** 0.0
2 H 36.009 39.657 40.935 H 0.0 **** 0.0
3 H 37.545 39.473 40.055 H 0.0 **** 0.0
4 H 37.422 38.945 41.751 H 0.0 **** 0.0
5 H 37.403 40.681 41.356 H 0.0 **** 0.0
@<TRIPOS>BOND
1 1 2 1
2 1 3 1
3 1 4 1
4 1 5 1
@<TRIPOS>MOLECULE
CH4
5 4
SMALL
USER_CHARGES


@<TRIPOS>ATOM
1 C 49.525 23.298 40.394 C 0.0 **** 0.0
2 H 49.529 23.309 39.304 H 0.0 **** 0.0
3 H 49.971 22.369 40.75 H 0.0 **** 0.0
4 H 48.498 23.369 40.754 H 0.0 **** 0.0
5 H 50.1 24.144 40.768 H 0.0 **** 0.0
@<TRIPOS>BOND
1 1 2 1
2 1 3 1
3 1 4 1
4 1 5 1
@<TRIPOS>MOLECULE
CH4
5 4
SMALL
USER_CHARGES


@<TRIPOS>ATOM
1 C 42.737 80.696 15.357 C 0.0 **** 0.0
2 H 42.696 80.68 14.268 H 0.0 **** 0.0
3 H 41.837 81.172 15.747 H 0.0 **** 0.0
4 H 43.614 81.257 15.679 H 0.0 **** 0.0
5 H 42.801 79.675 15.733 H 0.0 **** 0.0
@<TRIPOS>BOND
1 1 5 1
2 1 2 1
3 1 3 1
4 1 4 1
@<TRIPOS>MOLECULE
CH4
5 4
SMALL
USER_CHARGES


@<TRIPOS>ATOM
1 C 86.36 39.822 30.817 C 0.0 **** 0.0
2 H 86.321 40.073 29.757 H 0.0 **** 0.0
3 H 85.462 40.192 31.311 H 0.0 **** 0.0
4 H 87.239 40.283 31.267 H 0.0 **** 0.0
5 H 86.418 38.739 30.932 H 0.0 **** 0.0
@<TRIPOS>BOND
1 1 3 1
2 1 4 1
3 1 5 1
4 1 2 1
@<TRIPOS>MOLECULE
CH4
5 4
SMALL
USER_CHARGES


@<TRIPOS>ATOM
1 C 64.129 35.581 25.71 C 0.0 **** 0.0
2 H 63.481 36.458 25.743 H 0.0 **** 0.0
3 H 63.601 34.757 25.23 H 0.0 **** 0.0
4 H 64.402 35.295 26.726 H 0.0 **** 0.0
5 H 65.029 35.816 25.144 H 0.0 **** 0.0
@<TRIPOS>BOND
1 1 2 1
2 1 3 1
3 1 4 1
4 1 5 1
@<TRIPOS>MOLECULE
CH4
5 4
SMALL
USER_CHARGES


@<TRIPOS>ATOM
1 C 21.428 55.295 89.808 C 0.0 **** 0.0
2 H 21.412 55.547 90.868 H 0.0 **** 0.0
3 H 22.011 56.04 89.266 H 0.0 **** 0.0
4 H 20.409 55.28 89.423 H 0.0 **** 0.0
5 H 21.881 54.312 89.675 H 0.0 **** 0.0
@<TRIPOS>BOND
1 1 2 1
2 1 3 1
3 1 4 1
4 1 5 1
@<TRIPOS>MOLECULE
CH4
5 4
SMALL
USER_CHARGES


@<TRIPOS>ATOM
1 C 9.747 1.014 18.896 C 0.0 **** 0.0
2 H 9.851 0.887 19.974 H 0.0 **** 0.0
3 H 10.614 0.581 18.395 H 0.0 **** 0.0
4 H 9.684 2.076 18.66 H 0.0 **** 0.0
5 H 8.842 0.511 18.557 H 0.0 **** 0.0
@<TRIPOS>BOND
1 1 2 1
2 1 3 1
3 1 4 1
4 1 5 1
@<TRIPOS>MOLECULE
CH4
5 4
SMALL
USER_CHARGES


@<TRIPOS>ATOM
1 C 96.62 21.357 35.549 C 0.0 **** 0.0
2 H 96.955 21.103 36.555 H 0.0 **** 0.0
3 H 95.869 22.145 35.604 H 0.0 **** 0.0
4 H 96.188 20.475 35.077 H 0.0 **** 0.0
5 H 97.47 21.705 34.961 H 0.0 **** 0.0
@<TRIPOS>BOND
1 1 2 1
2 1 3 1
3 1 4 1
4 1 5 1
@<TRIPOS>MOLECULE
CH4
5 4
SMALL
USER_CHARGES


@<TRIPOS>ATOM
1 C 73.347 47.883 55.203 C 0.0 **** 0.0
2 H 73.536 47.079 55.915 H 0.0 **** 0.0
3 H 72.47 47.639 54.604 H 0.0 **** 0.0
4 H 74.213 48.001 54.551 H 0.0 **** 0.0
5 H 73.171 48.812 55.745 H 0.0 **** 0.0
@<TRIPOS>BOND
1 1 2 1
2 1 3 1
3 1 4 1
4 1 5 1
@<TRIPOS>MOLECULE
CH4
5 4
SMALL
USER_CHARGES


@<TRIPOS>ATOM
1 C 31.635 16.302 52.798 C 0.0 **** 0.0
2 H 31.885 16.5 51.755 H 0.0 **** 0.0
3 H 32.546 16.312 53.397 H 0.0 **** 0.0
4 H 31.158 15.325 52.878 H 0.0 **** 0.0
5 H 30.953 17.071 53.16 H 0.0 **** 0.0
@<TRIPOS>BOND
1 1 2 1
2 1 3 1
3 1 4 1
4 1 5 1
@<TRIPOS>MOLECULE
CH4
5 4
SMALL
USER_CHARGES


@<TRIPOS>ATOM
1 C 19.523 27.552 29.595 C 0.0 **** 0.0
2 H 19.232 28.051 30.52 H 0.0 **** 0.0
3 H 18.992 28.004 28.757 H 0.0 **** 0.0
4 H 19.27 26.494 29.659 H 0.0 **** 0.0
5 H 20.597 27.661 29.446 H 0.0 **** 0.0
@<TRIPOS>BOND
1 1 2 1
2 1 3 1
3 1 4 1
4 1 5 1
@<TRIPOS>MOLECULE
CH4
5 4
SMALL
USER_CHARGES


@<TRIPOS>ATOM
1 C 17.955 51.656 55.56 C 0.0 **** 0.0
2 H 17.204 51.332 56.282 H 0.0 **** 0.0
3 H 18.652 50.839 55.371 H 0.0 **** 0.0
4 H 18.497 52.512 55.96 H 0.0 **** 0.0
5 H 17.464 51.938 54.629 H 0.0 **** 0.0
@<TRIPOS>BOND
1 1 2 1
2 1 3 1
3 1 4 1
4 1 5 1
@<TRIPOS>MOLECULE
CH4
5 4
SMALL
USER_CHARGES


@<TRIPOS>ATOM
1 C 72.251 17.567 37.713 C 0.0 **** 0.0
2 H 72.265 17.597 36.624 H 0.0 **** 0.0
3 H 71.247 17.315 38.057 H 0.0 **** 0.0
4 H 72.535 18.543 38.107 H 0.0 **** 0.0
5 H 72.956 16.814 38.065 H 0.0 **** 0.0
@<TRIPOS>BOND
1 1 2 1
2 1 3 1
3 1 4 1
4 1 5 1
@<TRIPOS>MOLECULE
CH4
5 4
SMALL
USER_CHARGES


@<TRIPOS>ATOM
1 C 3.545 44.404 97.119 C 0.0 **** 0.0
2 H 2.831 44.887 97.786 H 0.0 **** 0.0
3 H 3.372 44.741 96.096 H 0.0 **** 0.0
4 H 3.417 43.323 97.172 H 0.0 **** 0.0
5 H 4.559 44.665 97.421 H 0.0 **** 0.0
@<TRIPOS>BOND
1 1 2 1
2 1 3 1
3 1 4 1
4 1 5 1
@<TRIPOS>MOLECULE
CH4
5 4
SMALL
USER_CHARGES


@<TRIPOS>ATOM
1 C 54.368 11.918 33.651 C 0.0 **** 0.0
2 H 54.627 12.972 33.549 H 0.0 **** 0.0
3 H 54.077 11.713 34.681 H 0.0 **** 0.0
4 H 55.229 11.305 33.387 H 0.0 **** 0.0
5 H 53.537 11.683 32.985 H 0.0 **** 0.0
@<TRIPOS>BOND
1 1 2 1
2 1 3 1
3 1 4 1
4 1 5 1
@<TRIPOS>MOLECULE
CH4
5 4
SMALL
USER_CHARGES


@<TRIPOS>ATOM
1 C 28.552 4.705 96.501 C 0.0 **** 0.0
2 H 29.585 5.014 96.342 H 0.0 **** 0.0
3 H 28.533 3.804 97.114 H 0.0 **** 0.0
4 H 28.081 4.502 95.539 H 0.0 **** 0.0
5 H 28.009 5.502 97.01 H 0.0 **** 0.0
@<TRIPOS>BOND
1 1 2 1
2 1 3 1
3 1 4 1
4 1 5 1
@<TRIPOS>MOLECULE
CH4
5 4
SMALL
USER_CHARGES


@<TRIPOS>ATOM
1 C 1.25 9.458 79.718 C 0.0 **** 0.0
2 H 1.021 9.25 78.672 H 0.0 **** 0.0
3 H 1.188 8.534 80.293 H 0.0 **** 0.0
4 H 0.533 10.18 80.109 H 0.0 **** 0.0
5 H 2.257 9.868 79.794 H 0.0 **** 0.0
@<TRIPOS>BOND
1 1 2 1
2 1 3 1
3 1 4 1
4 1 5 1
@<TRIPOS>MOLECULE
CH4
5 4
SMALL
USER_CHARGES


@<TRIPOS>ATOM
1 C 79.368 43.532 23.022 C 0.0 **** 0.0
2 H 79.395 42.69 22.33 H 0.0 **** 0.0
3 H 80.336 43.627 23.516 H 0.0 **** 0.0
4 H 78.593 43.363 23.769 H 0.0 **** 0.0
5 H 79.149 44.447 22.472 H 0.0 **** 0.0
@<TRIPOS>BOND
1 1 2 1
2 1 3 1
3 1 4 1
4 1 5 1
@<TRIPOS>MOLECULE
CH4
5 4
SMALL
USER_CHARGES


@<TRIPOS>ATOM
1 C 54.35 38.98 57.604 C 0.0 **** 0.0
2 H 54.337 39.966 57.14 H 0.0 **** 0.0
3 H 54.514 38.22 56.838 H 0.0 **** 0.0
4 H 53.396 38.798 58.098 H 0.0 **** 0.0
5 H 55.155 38.935 58.338 H 0.0 **** 0.0
@<TRIPOS>BOND
1 1 2 1
2 1 3 1
3 1 4 1
4 1 5 1
@<TRIPOS>MOLECULE
CH4
5 4
SMALL
USER_CHARGES


@<TRIPOS>ATOM
1 C 89.164 47.52 27.942 C 0.0 **** 0.0
2 H 89.519 47.423 26.916 H 0.0 **** 0.0
3 H 88.112 47.807 27.936 H 0.0 **** 0.0
4 H 89.746 48.284 28.457 H 0.0 **** 0.0
5 H 89.278 46.566 28.457 H 0.0 **** 0.0
@<TRIPOS>BOND
1 1 4 1
2 1 2 1
3 1 3 1
4 1 5 1
@<TRIPOS>MOLECULE
CH4
5 4
SMALL
USER_CHARGES


@<TRIPOS>ATOM
1 C 72.614 75.347 20.052 C 0.0 **** 0.0
2 H 72.829 74.917 19.074 H 0.0 **** 0.0
3 H 73.09 74.745 20.826 H 0.0 **** 0.0
4 H 71.536 75.36 20.213 H 0.0 **** 0.0
5 H 73.0 76.365 20.094 H 0.0 **** 0.0
@<TRIPOS>BOND
1 1 2 1
2 1 3 1
3 1 4 1
4 1 5 1
@<TRIPOS>MOLECULE
CH4
5 4
SMALL
USER_CHARGES


@<TRIPOS>ATOM
1 C 44.021 68.722 16.809 C 0.0 **** 0.0
2 H 43.258 69.497 16.88 H 0.0 **** 0.0
3 H 43.543 67.743 16.765 H 0.0 **** 0.0
4 H 44.67 68.771 17.684 H 0.0 **** 0.0
5 H 44.614 68.878 15.908 H 0.0 **** 0.0
@<TRIPOS>BOND
1 1 2 1
2 1 3 1
3 1 4 1
4 1 5 1
@<TRIPOS>MOLECULE
CH4
5 4
SMALL
USER_CHARGES


@<TRIPOS>ATOM
1 C 29.998 54.095 24.547 C 0.0 **** 0.0
2 H 29.989 54.22 23.465 H 0.0 **** 0.0
3 H 30.455 53.137 24.798 H 0.0 **** 0.0
4 H 28.976 54.119 24.924 H 0.0 **** 0.0
5 H 30.573 54.902 25.002 H 0.0 **** 0.0
@<TRIPOS>BOND
1 1 2 1
2 1 3 1
3 1 4 1
4 1 5 1
@<TRIPOS>MOLECULE
CH4
5 4
SMALL
USER_CHARGES


@<TRIPOS>ATOM
1 C 67.54 22.907 27.823 C 0.0 **** 0.0
2 H 68.161 22.021 27.949 H 0.0 **** 0.0
3 H 68.163 23.746 27.512 H 0.0 **** 0.0
4 H 67.052 23.146 28.768 H 0.0 **** 0.0
5 H 66.783 22.714 27.062 H 0.0 **** 0.0
@<TRIPOS>BOND
1 1 2 1
2 1 3 1
3 1 4 1
4 1 5 1
@<TRIPOS>MOLECULE
CH4
5 4
SMALL
USER_CHARGES


@<TRIPOS>ATOM
1 C 76.021 27.673 45.851 C 0.0 **** 0.0
2 H 75.057 27.174 45.95 H 0.0 **** 0.0
3 H 76.81 27.017 46.221 H 0.0 **** 0.0
4 H 76.013 28.595 46.433 H 0.0 **** 0.0
5 H 76.203 27.906 44.802 H 0.0 **** 0.0
@<TRIPOS>BOND
1 1 2 1
2 1 3 1
3 1 4 1
4 1 5 1
@<TRIPOS>MOLECULE
CH4
5 4
SMALL
USER_CHARGES


@<TRIPOS>ATOM
1 C 3.249 62.467 51.984 C 0.0 **** 0.0
2 H 2.841 63.478 51.992 H 0.0 **** 0.0
3 H 3.136 62.022 52.972 H 0.0 **** 0.0
4 H 4.306 62.504 51.72 H 0.0 **** 0.0
5 H 2.713 61.865 51.25 H 0.0 **** 0.0
@<TRIPOS>BOND
1 1 2 1
2 1 3 1
3 1 4 1
4 1 5 1
@<TRIPOS>MOLECULE
CH4
5 4
SMALL
USER_CHARGES


@<TRIPOS>ATOM
1 C 49.02 20.008 58.433 C 0.0 **** 0.0
2 H 48.356 19.486 57.744 H 0.0 **** 0.0
3 H 49.92 20.321 57.903 H 0.0 **** 0.0
4 H 49.293 19.34 59.25 H 0.0 **** 0.0
5 H 48.511 20.884 58.835 H 0.0 **** 0.0
@<TRIPOS>BOND
1 1 2 1
2 1 3 1
3 1 4 1
4 1 5 1
@<TRIPOS>MOLECULE
CH4
5 4
SMALL
USER_CHARGES


@<TRIPOS>ATOM
1 C 77.066 67.573 37.413 C 0.0 **** 0.0
2 H 76.014 67.656 37.141 H 0.0 **** 0.0
3 H 77.468 66.636 37.028 H 0.0 **** 0.0
4 H 77.162 67.591 38.499 H 0.0 **** 0.0
5 H 77.619 68.409 36.985 H 0.0 **** 0.0
@<TRIPOS>BOND
1 1 2 1
2 1 3 1
3 1 4 1
4 1 5 1
@<TRIPOS>MOLECULE
CH4
5 4
SMALL
USER_CHARGES


@<TRIPOS>ATOM
1 C 8.372 77.468 85.046 C 0.0 **** 0.0
2 H 8.235 77.945 86.017 H 0.0 **** 0.0
3 H 9.425 77.505 84.769 H 0.0 **** 0.0
4 H 7.779 77.992 84.297 H 0.0 **** 0.0
5 H 8.048 76.429 85.104 H 0.0 **** 0.0
@<TRIPOS>BOND
1 1 2 1
2 1 3 1
3 1 4 1
4 1 5 1
@<TRIPOS>MOLECULE
CH4
5 4
SMALL
USER_CHARGES


@<TRIPOS>ATOM
1 C 18.62 30.88 95.133 C 0.0 **** 0.0
2 H 19.135 30.837 94.174 H 0.0 **** 0.0
3 H 17.812 31.61 95.079 H 0.0 **** 0.0
4 H 19.325 31.175 95.911 H 0.0 **** 0.0
5 H 18.209 29.898 95.369 H 0.0 **** 0.0
@<TRIPOS>BOND
1 1 2 1
2 1 3 1
3 1 4 1
4 1 5 1
@<TRIPOS>MOLECULE
CH4
5 4
SMALL
USER_CHARGES


@<TRIPOS>ATOM
1 C 81.725 1.187 57.056 C 0.0 **** 0.0
2 H 82.169 0.569 57.836 H 0.0 **** 0.0
3 H 81.476 2.166 57.465 H 0.0 **** 0.0
4 H 80.82 0.707 56.684 H 0.0 **** 0.0
5 H 82.436 1.305 56.238 H 0.0 **** 0.0
@<TRIPOS>BOND
1 1 2 1
2 1 3 1
3 1 4 1
4 1 5 1
@<TRIPOS>MOLECULE
CH4
5 4
SMALL
USER_CHARGES


@<TRIPOS>ATOM
1 C 87.537 52.893 90.246 C 0.0 **** 0.0
2 H 86.848 53.512 89.672 H 0.0 **** 0.0
3 H 87.03 51.979 90.558 H 0.0 **** 0.0
4 H 87.872 53.442 91.126 H 0.0 **** 0.0
5 H 88.398 52.638 89.628 H 0.0 **** 0.0
@<TRIPOS>BOND
1 1 2 1
2 1 3 1
3 1 4 1
4 1 5 1
@<TRIPOS>MOLECULE
CH4
5 4
SMALL
USER_CHARGES


@<TRIPOS>ATOM
1 C 54.612 69.079 10.335 C 0.0 **** 0.0
2 H 54.653 68.894 9.262 H 0.0 **** 0.0
3 H 55.402 68.516 10.832 H 0.0 **** 0.0
4 H 53.642 68.764 10.721 H 0.0 **** 0.0
5 H 54.749 70.144 10.525 H 0.0 **** 0.0
@<TRIPOS>BOND
1 1 2 1
2 1 3 1
3 1 4 1
4 1 5 1
@<TRIPOS>MOLECULE
CH4
5 4
SMALL
USER_CHARGES


@<TRIPOS>ATOM
1 C 76.274 17.447 96.047 C 0.0 **** 0.0
2 H 76.191 17.719 97.099 H 0.0 **** 0.0
3 H 76.458 16.376 95.962 H 0.0 **** 0.0
4 H 77.101 17.995 95.594 H 0.0 **** 0.0
5 H 75.347 17.7 95.532 H 0.0 **** 0.0
@<TRIPOS>BOND
1 1 2 1
2 1 3 1
3 1 4 1
4 1 5 1
@<TRIPOS>MOLECULE
CH4
5 4
SMALL
USER_CHARGES


@<TRIPOS>ATOM
1 C 60.346 92.718 61.982 C 0.0 **** 0.0
2 H 61.326 92.827 61.518 H 0.0 **** 0.0
3 H 60.468 92.471 63.037 H 0.0 **** 0.0
4 H 59.795 91.92 61.483 H 0.0 **** 0.0
5 H 59.794 93.653 61.889 H 0.0 **** 0.0
@<TRIPOS>BOND
1 1 2 1
2 1 3 1
3 1 4 1
4 1 5 1
@<TRIPOS>MOLECULE
CH4
5 4
SMALL
USER_CHARGES


@<TRIPOS>ATOM
1 C 81.291 11.009 58.161 C 0.0 **** 0.0
2 H 81.323 11.114 57.076 H 0.0 **** 0.0
3 H 82.294 10.802 58.535 H 0.0 **** 0.0
4 H 80.628 10.186 58.426 H 0.0 **** 0.0
5 H 80.92 11.932 58.605 H 0.0 **** 0.0
@<TRIPOS>BOND
1 1 2 1
2 1 3 1
3 1 4 1
4 1 5 1
@<TRIPOS>MOLECULE
CH4
5 4
SMALL
USER_CHARGES


@<TRIPOS>ATOM
1 C 17.593 78.247 64.065 C 0.0 **** 0.0
2 H 17.996 78.176 63.055 H 0.0 **** 0.0
3 H 17.308 77.253 64.413 H 0.0 **** 0.0
4 H 16.718 78.896 64.063 H 0.0 **** 0.0
5 H 18.351 78.661 64.73 H 0.0 **** 0.0
@<TRIPOS>BOND
1 1 2 1
2 1 3 1
3 1 4 1
4 1 5 1
@<TRIPOS>MOLECULE
CH4
5 4
SMALL
USER_CHARGES


@<TRIPOS>ATOM
1 C 68.03 88.01 35.888 C 0.0 **** 0.0
2 H 68.729 87.283 36.302 H 0.0 **** 0.0
3 H 68.564 88.928 35.642 H 0.0 **** 0.0
4 H 67.254 88.227 36.623 H 0.0 **** 0.0
5 H 67.573 87.602 34.987 H 0.0 **** 0.0
@<TRIPOS>BOND
1 1 2 1
2 1 3 1
3 1 4 1
4 1 5 1
@<TRIPOS>MOLECULE
CH4
5 4
SMALL
USER_CHARGES


@<TRIPOS>ATOM
1 C 50.691 83.047 45.851 C 0.0 **** 0.0
2 H 50.44 82.778 44.825 H 0.0 **** 0.0
3 H 50.151 82.396 46.539 H 0.0 **** 0.0
4 H 50.408 84.084 46.034 H 0.0 **** 0.0
5 H 51.763 82.931 46.006 H 0.0 **** 0.0
@<TRIPOS>BOND
1 1 2 1
2 1 3 1
3 1 4 1
4 1 5 1
@<TRIPOS>MOLECULE
CH4
5 4
SMALL
USER_CHARGES


@<TRIPOS>ATOM
1 C 4.767 18.914 54.999 C 0.0 **** 0.0
2 H 5.586 19.453 55.475 H 0.0 **** 0.0
3 H 4.001 18.69 55.741 H 0.0 **** 0.0
4 H 5.144 17.984 54.572 H 0.0 **** 0.0
5 H 4.339 19.529 54.208 H 0.0 **** 0.0
@<TRIPOS>BOND
1 1 3 1
2 1 2 1
3 1 4 1
4 1 5 1
@<TRIPOS>MOLECULE
CH4
5 4
SMALL
USER_CHARGES


@<TRIPOS>ATOM
1 C 63.879 66.976 61.877 C 0.0 **** 0.0
2 H 64.548 67.837 61.87 H 0.0 **** 0.0
3 H 62.87 67.299 61.621 H 0.0 **** 0.0
4 H 63.876 66.528 62.871 H 0.0 **** 0.0
5 H 64.223 66.243 61.148 H 0.0 **** 0.0
@<TRIPOS>BOND
1 1 2 1
2 1 3 1
3 1 4 1
4 1 5 1
@<TRIPOS>MOLECULE
CH4
5 4
SMALL
USER_CHARGES


@<TRIPOS>ATOM
1 C 65.182 85.397 49.458 C 0.0 **** 0.0
2 H 65.232 84.465 48.895 H 0.0 **** 0.0
3 H 64.172 85.804 49.398 H 0.0 **** 0.0
4 H 65.888 86.113 49.038 H 0.0 **** 0.0
5 H 65.435 85.206 50.5 H 0.0 **** 0.0
@<TRIPOS>BOND
1 1 2 1
2 1 3 1
3 1 4 1
4 1 5 1
@<TRIPOS>MOLECULE
CH4
5 4
SMALL
USER_CHARGES


@<TRIPOS>ATOM
1 C 67.384 67.982 50.825 C 0.0 **** 0.0
2 H 66.59 68.36 50.181 H 0.0 **** 0.0
3 H 68.343 68.373 50.486 H 0.0 **** 0.0
4 H 67.399 66.893 50.781 H 0.0 **** 0.0
5 H 67.202 68.301 51.851 H 0.0 **** 0.0
@<TRIPOS>BOND
1 1 2 1
2 1 3 1
3 1 5 1
4 1 4 1
@<TRIPOS>MOLECULE
CH4
5 4
SMALL
USER_CHARGES


@<TRIPOS>ATOM
1 C 94.264 21.335 86.223 C 0.0 **** 0.0
2 H 94.974 20.987 85.472 H 0.0 **** 0.0
3 H 93.977 22.363 86.003 H 0.0 **** 0.0
4 H 94.726 21.289 87.208 H 0.0 **** 0.0
5 H 93.378 20.699 86.207 H 0.0 **** 0.0
@<TRIPOS>BOND
1 1 2 1
2 1 3 1
3 1 4 1
4 1 5 1
@<TRIPOS>MOLECULE
CH4
5 4
SMALL
USER_CHARGES


@<TRIPOS>ATOM
1 C 47.711 4.574 38.473 C 0.0 **** 0.0
2 H 48.663 5.075 38.3 H 0.0 **** 0.0
3 H 47.868 3.495 38.495 H 0.0 **** 0.0
4 H 47.017 4.825 37.671 H 0.0 **** 0.0
5 H 47.298 4.901 39.427 H 0.0 **** 0.0
@<TRIPOS>BOND
1 1 5 1
2 1 2 1
3 1 3 1
4 1 4 1
@<TRIPOS>MOLECULE
CH4
5 4
SMALL
USER_CHARGES


@<TRIPOS>ATOM
1 C 38.891 3.751 32.73 C 0.0 **** 0.0
2 H 39.464 3.195 33.472 H 0.0 **** 0.0
3 H 37.971 4.12 33.184 H 0.0 **** 0.0
4 H 38.647 3.096 31.894 H 0.0 **** 0.0
5 H 39.483 4.594 32.371 H 0.0 **** 0.0
@<TRIPOS>BOND
1 1 3 1
2 1 4 1
3 1 5 1
4 1 2 1
@<TRIPOS>MOLECULE
CH4
5 4
SMALL
USER_CHARGES


@<TRIPOS>ATOM
1 C 65.356 43.345 38.82 C 0.0 **** 0.0
2 H 65.431 43.039 39.864 H 0.0 **** 0.0
3 H 65.1 42.481 38.207 H 0.0 **** 0.0
4 H 66.311 43.754 38.492 H 0.0 **** 0.0
5 H 64.581 44.105 38.72 H 0.0 **** 0.0
@<TRIPOS>BOND
1 1 2 1
2 1 3 1
3 1 4 1
4 1 5 1
@<TRIPOS>MOLECULE
CH4
5 4
SMALL
USER_CHARGES


@<TRIPOS>ATOM
1 C 86.391 74.931 36.625 C 0.0 **** 0.0
2 H 86.595 75.458 37.557 H 0.0 **** 0.0
3 H 85.562 74.239 36.774 H 0.0 **** 0.0
4 H 87.278 74.377 36.319 H 0.0 **** 0.0
5 H 86.127 75.652 35.851 H 0.0 **** 0.0
@<TRIPOS>BOND
1 1 2 1
2 1 3 1
3 1 4 1
4 1 5 1
@<TRIPOS>MOLECULE
CH4
5 4
SMALL
USER_CHARGES


@<TRIPOS>ATOM
1 C 68.366 65.326 42.12 C 0.0 **** 0.0
2 H 67.362 65.032 42.427 H 0.0 **** 0.0
3 H 69.056 64.501 42.298 H 0.0 **** 0.0
4 H 68.681 66.196 42.696 H 0.0 **** 0.0
5 H 68.362 65.575 41.059 H 0.0 **** 0.0
@<TRIPOS>BOND
1 1 2 1
2 1 3 1
3 1 4 1
4 1 5 1
@<TRIPOS>MOLECULE
CH4
5 4
SMALL
USER_CHARGES


@<TRIPOS>ATOM
1 C 48.414 46.532 24.188 C 0.0 **** 0.0
2 H 48.877 46.118 25.083 H 0.0 **** 0.0
3 H 47.667 45.835 23.809 H 0.0 **** 0.0
4 H 49.178 46.695 23.427 H 0.0 **** 0.0
5 H 47.936 47.481 24.432 H 0.0 **** 0.0
@<TRIPOS>BOND
1 1 2 1
2 1 3 1
3 1 4 1
4 1 5 1
@<TRIPOS>MOLECULE
CH4
5 4
SMALL
USER_CHARGES


@<TRIPOS>ATOM
1 C 63.227 91.871 19.996 C 0.0 **** 0.0
2 H 63.226 91.781 21.083 H 0.0 **** 0.0
3 H 63.811 91.057 19.565 H 0.0 **** 0.0
4 H 63.669 92.826 19.712 H 0.0 **** 0.0
5 H 62.203 91.819 19.627 H 0.0 **** 0.0
@<TRIPOS>BOND
1 1 2 1
2 1 3 1
3 1 4 1
4 1 5 1
@<TRIPOS>MOLECULE
CH4
5 4
SMALL
USER_CHARGES


@<TRIPOS>ATOM
1 C 29.758 15.609 35.267 C 0.0 **** 0.0
2 H 29.727 15.624 36.356 H 0.0 **** 0.0
3 H 28.803 15.956 34.872 H 0.0 **** 0.0
4 H 29.947 14.593 34.922 H 0.0 **** 0.0
5 H 30.556 16.265 34.918 H 0.0 **** 0.0
@<TRIPOS>BOND
1 1 2 1
2 1 3 1
3 1 4 1
4 1 5 1
@<TRIPOS>MOLECULE
CH4
5 4
SMALL
USER_CHARGES


@<TRIPOS>ATOM
1 C 94.098 9.862 33.591 C 0.0 **** 0.0
2 H 93.594 10.098 32.653 H 0.0 **** 0.0
3 H 93.426 10.067 34.425 H 0.0 **** 0.0
4 H 94.994 10.475 33.686 H 0.0 **** 0.0
5 H 94.376 8.808 33.598 H 0.0 **** 0.0
@<TRIPOS>BOND
1 1 2 1
2 1 3 1
3 1 4 1
4 1 5 1
@<TRIPOS>MOLECULE
CH4
5 4
SMALL
USER_CHARGES


@<TRIPOS>ATOM
1 C 27.481 83.131 24.561 C 0.0 **** 0.0
2 H 27.633 82.727 23.56 H 0.0 **** 0.0
3 H 27.761 82.382 25.302 H 0.0 **** 0.0
4 H 26.431 83.396 24.69 H 0.0 **** 0.0
5 H 28.098 84.02 24.691 H 0.0 **** 0.0
@<TRIPOS>BOND
1 1 5 1
2 1 2 1
3 1 3 1
4 1 4 1
@<TRIPOS>MOLECULE
CH4
5 4
SMALL
USER_CHARGES


@<TRIPOS>ATOM
1 C 37.138 9.379 86.714 C 0.0 **** 0.0
2 H 36.353 9.733 86.046 H 0.0 **** 0.0
3 H 37.247 8.3 86.608 H 0.0 **** 0.0
4 H 36.873 9.618 87.744 H 0.0 **** 0.0
5 H 38.079 9.867 86.459 H 0.0 **** 0.0
@<TRIPOS>BOND
1 1 2 1
2 1 3 1
3 1 4 1
4 1 5 1
@<TRIPOS>MOLECULE
CH4
5 4
SMALL
USER_CHARGES


@<TRIPOS>ATOM
1 C 51.729 33.385 45.875 C 0.0 **** 0.0
2 H 51.616 34.422 46.193 H 0.0 **** 0.0
3 H 52.638 33.284 45.283 H 0.0 **** 0.0
4 H 50.868 33.095 45.273 H 0.0 **** 0.0
5 H 51.792 32.742 46.752 H 0.0 **** 0.0
@<TRIPOS>BOND
1 1 2 1
2 1 3 1
3 1 4 1
4 1 5 1
@<TRIPOS>MOLECULE
CH4
5 4
SMALL
USER_CHARGES


@<TRIPOS>ATOM
1 C 35.144 75.182 59.071 C 0.0 **** 0.0
2 H 35.943 75.923 59.09 H 0.0 **** 0.0
3 H 35.064 74.76 58.069 H 0.0 **** 0.0
4 H 34.201 75.657 59.342 H 0.0 **** 0.0
5 H 35.368 74.388 59.783 H 0.0 **** 0.0
@<TRIPOS>BOND
1 1 2 1
2 1 3 1
3 1 4 1
4 1 5 1
@<TRIPOS>MOLECULE
CH4
5 4
SMALL
USER_CHARGES


@<TRIPOS>ATOM
1 C 1.03 52.112 43.591 C 0.0 **** 0.0
2 H 1.456 52.271 44.582 H 0.0 **** 0.0
3 H 1.618 51.364 43.059 H 0.0 **** 0.0
4 H 1.046 53.05 43.035 H 0.0 **** 0.0
5 H 0.001 51.765 43.689 H 0.0 **** 0.0
@<TRIPOS>BOND
1 1 2 1
2 1 3 1
3 1 4 1
4 1 5 1
@<TRIPOS>MOLECULE
CH4
5 4
SMALL
USER_CHARGES


@<TRIPOS>ATOM
1 C 71.996 14.1 76.561 C 0.0 **** 0.0
2 H 72.845 14.257 77.227 H 0.0 **** 0.0
3 H 71.377 14.997 76.544 H 0.0 **** 0.0
4 H 71.404 13.257 76.92 H 0.0 **** 0.0
5 H 72.358 13.888 75.555 H 0.0 **** 0.0
@<TRIPOS>BOND
1 1 2 1
2 1 3 1
3 1 4 1
4 1 5 1
@<TRIPOS>MOLECULE
CH4
5 4
SMALL
USER_CHARGES


@<TRIPOS>ATOM
1 C 56.781 48.964 35.519 C 0.0 **** 0.0
2 H 56.471 48.75 36.542 H 0.0 **** 0.0
3 H 57.772 49.419 35.528 H 0.0 **** 0.0
4 H 56.07 49.651 35.06 H 0.0 **** 0.0
5 H 56.811 48.037 34.947 H 0.0 **** 0.0
@<TRIPOS>BOND
1 1 2 1
2 1 3 1
3 1 4 1
4 1 5 1
@<TRIPOS>MOLECULE
CH4
5 4
SMALL
USER_CHARGES


@<TRIPOS>ATOM
1 C 53.357 54.325 83.299 C 0.0 **** 0.0
2 H 53.52 54.626 84.334 H 0.0 **** 0.0
3 H 54.127 54.767 82.666 H 0.0 **** 0.0
4 H 52.376 54.667 82.972 H 0.0 **** 0.0
5 H 53.406 53.238 83.225 H 0.0 **** 0.0
@<TRIPOS>BOND
1 1 2 1
2 1 3 1
3 1 4 1
4 1 5 1
@<TRIPOS>MOLECULE
CH4
5 4
SMALL
USER_CHARGES


@<TRIPOS>ATOM
1 C 84.83 59.668 23.509 C 0.0 **** 0.0
2 H 84.113 59.569 24.324 H 0.0 **** 0.0
3 H 85.549 58.85 23.557 H 0.0 **** 0.0
4 H 85.354 60.619 23.601 H 0.0 **** 0.0
5 H 84.303 59.634 22.555 H 0.0 **** 0.0
@<TRIPOS>BOND
1 1 2 1
2 1 3 1
3 1 4 1
4 1 5 1
@<TRIPOS>MOLECULE
CH4
5 4
SMALL
USER_CHARGES


@<TRIPOS>ATOM
1 C 78.822 67.622 78.009 C 0.0 **** 0.0
2 H 79.246 66.801 78.588 H 0.0 **** 0.0
3 H 79.617 68.127 77.46 H 0.0 **** 0.0
4 H 78.339 68.33 78.683 H 0.0 **** 0.0
5 H 78.087 67.23 77.307 H 0.0 **** 0.0
@<TRIPOS>BOND
1 1 2 1
2 1 3 1
3 1 4 1
4 1 5 1
@<TRIPOS>MOLECULE
CH4
5 4
SMALL
USER_CHARGES


@<TRIPOS>ATOM
1 C 86.283 23.647 64.057 C 0.0 **** 0.0
2 H 85.691 24.233 64.759 H 0.0 **** 0.0
3 H 87.163 24.218 63.759 H 0.0 **** 0.0
4 H 85.682 23.419 63.177 H 0.0 **** 0.0
5 H 86.597 22.718 64.533 H 0.0 **** 0.0
@<TRIPOS>BOND
1 1 2 1
2 1 3 1
3 1 4 1
4 1 5 1
@<TRIPOS>MOLECULE
CH4
5 4
SMALL
USER_CHARGES


@<TRIPOS>ATOM
1 C 29.809 54.547 31.584 C 0.0 **** 0.0
2 H 30.601 55.264 31.37 H 0.0 **** 0.0
3 H 29.897 54.206 32.616 H 0.0 **** 0.0
4 H 29.899 53.695 30.911 H 0.0 **** 0.0
5 H 28.839 55.023 31.439 H 0.0 **** 0.0
@<TRIPOS>BOND
1 1 2 1
2 1 3 1
3 1 4 1
4 1 5 1
@<TRIPOS>MOLECULE
CH4
5 4
SMALL
USER_CHARGES


@<TRIPOS>ATOM
1 C 20.933 74.22 72.938 C 0.0 **** 0.0
2 H 20.06 74.872 72.959 H 0.0 **** 0.0
3 H 21.128 73.907 71.912 H 0.0 **** 0.0
4 H 20.745 73.342 73.556 H 0.0 **** 0.0
5 H 21.798 74.758 73.324 H 0.0 **** 0.0
@<TRIPOS>BOND
1 1 2 1
2 1 3 1
3 1 4 1
4 1 5 1
@<TRIPOS>MOLECULE
CH4
5 4
SMALL
USER_CHARGES


@<TRIPOS>ATOM
1 C 26.49 27.017 97.426 C 0.0 **** 0.0
2 H 26.144 26.103 96.943 H 0.0 **** 0.0
3 H 26.987 26.766 98.363 H 0.0 **** 0.0
4 H 25.638 27.665 97.629 H 0.0 **** 0.0
5 H 27.19 27.532 96.769 H 0.0 **** 0.0
@<TRIPOS>BOND
1 1 2 1
2 1 3 1
3 1 4 1
4 1 5 1
@<TRIPOS>MOLECULE
CH4
5 4
SMALL
USER_CHARGES


@<TRIPOS>ATOM
1 C 23.112 26.48 58.94 C 0.0 **** 0.0
2 H 23.742 25.918 58.251 H 0.0 **** 0.0
3 H 22.236 25.885 59.2 H 0.0 **** 0.0
4 H 22.793 27.408 58.465 H 0.0 **** 0.0
5 H 23.677 26.71 59.843 H 0.0 **** 0.0
@<TRIPOS>BOND
1 1 2 1
2 1 3 1
3 1 4 1
4 1 5 1
@<TRIPOS>MOLECULE
CH4
5 4
SMALL
USER_CHARGES


@<TRIPOS>ATOM
1 C 22.118 67.324 9.12 C 0.0 **** 0.0
2 H 22.281 67.502 10.183 H 0.0 **** 0.0
3 H 21.378 66.534 8.993 H 0.0 **** 0.0
4 H 23.057 67.021 8.655 H 0.0 **** 0.0
5 H 21.759 68.239 8.649 H 0.0 **** 0.0
@<TRIPOS>BOND
1 1 2 1
2 1 3 1
3 1 4 1
4 1 5 1
@<TRIPOS>MOLECULE
CH4
5 4
SMALL
USER_CHARGES


@<TRIPOS>ATOM
1 C 24.336 62.763 70.952 C 0.0 **** 0.0
2 H 24.694 63.134 71.912 H 0.0 **** 0.0
3 H 24.286 63.586 70.239 H 0.0 **** 0.0
4 H 23.344 62.33 71.077 H 0.0 **** 0.0
5 H 25.02 62.0 70.579 H 0.0 **** 0.0
@<TRIPOS>BOND
1 1 2 1
2 1 3 1
3 1 4 1
4 1 5 1
@<TRIPOS>MOLECULE
CH4
5 4
SMALL
USER_CHARGES


@<TRIPOS>ATOM
1 C 39.908 54.589 72.16 C 0.0 **** 0.0
2 H 38.864 54.384 72.398 H 0.0 **** 0.0
3 H 40.552 54.037 72.846 H 0.0 **** 0.0
4 H 40.1 55.657 72.259 H 0.0 **** 0.0
5 H 40.114 54.276 71.136 H 0.0 **** 0.0
@<TRIPOS>BOND
1 1 2 1
2 1 3 1
3 1 4 1
4 1 5 1
@<TRIPOS>MOLECULE
CH4
5 4
SMALL
USER_CHARGES


@<TRIPOS>ATOM
1 C 43.335 77.855 4.379 C 0.0 **** 0.0
2 H 42.984 77.654 5.392 H 0.0 **** 0.0
3 H 42.889 77.137 3.691 H 0.0 **** 0.0
4 H 44.42 77.764 4.347 H 0.0 **** 0.0
5 H 43.046 78.865 4.089 H 0.0 **** 0.0
@<TRIPOS>BOND
1 1 2 1
2 1 3 1
3 1 4 1
4 1 5 1
@<TRIPOS>MOLECULE
CH4
5 4
SMALL
USER_CHARGES


@<TRIPOS>ATOM
1 C 1.431 74.073 45.912 C 0.0 **** 0.0
2 H 1.324 74.093 44.828 H 0.0 **** 0.0
3 H 2.247 73.403 46.184 H 0.0 **** 0.0
4 H 0.504 73.72 46.363 H 0.0 **** 0.0
5 H 1.651 75.078 46.273 H 0.0 **** 0.0
@<TRIPOS>BOND
1 1 2 1
2 1 3 1
3 1 4 1
4 1 5 1
@<TRIPOS>MOLECULE
CH4
5 4
SMALL
USER_CHARGES


@<TRIPOS>ATOM
1 C 33.161 97.873 54.977 C 0.0 **** 0.0
2 H 33.17 97.864 56.067 H 0.0 **** 0.0
3 H 33.854 97.119 54.602 H 0.0 **** 0.0
4 H 33.465 98.856 54.619 H 0.0 **** 0.0
5 H 32.155 97.651 54.62 H 0.0 **** 0.0
@<TRIPOS>BOND
1 1 2 1
2 1 3 1
3 1 4 1
4 1 5 1
@<TRIPOS>MOLECULE
CH4
5 4
SMALL
USER_CHARGES


@<TRIPOS>ATOM
1 C 75.735 84.757 49.012 C 0.0 **** 0.0
2 H 76.808 84.588 49.101 H 0.0 **** 0.0
3 H 75.254 83.851 48.642 H 0.0 **** 0.0
4 H 75.552 85.576 48.316 H 0.0 **** 0.0
5 H 75.326 85.012 49.99 H 0.0 **** 0.0
@<TRIPOS>BOND
1 1 2 1
2 1 3 1
3 1 4 1
4 1 5 1
@<TRIPOS>MOLECULE
CH4
5 4
SMALL
USER_CHARGES


@<TRIPOS>ATOM
1 C 61.13 14.474 47.522 C 0.0 **** 0.0
2 H 60.157 14.285 47.069 H 0.0 **** 0.0
3 H 61.898 14.463 46.748 H 0.0 **** 0.0
4 H 61.344 13.701 48.259 H 0.0 **** 0.0
5 H 61.12 15.449 48.01 H 0.0 **** 0.0
@<TRIPOS>BOND
1 1 2 1
2 1 3 1
3 1 4 1
4 1 5 1
@<TRIPOS>MOLECULE
CH4
5 4
SMALL
USER_CHARGES


@<TRIPOS>ATOM
1 C 15.572 90.563 58.511 C 0.0 **** 0.0
2 H 16.537 91.055 58.388 H 0.0 **** 0.0
3 H 15.699 89.485 58.409 H 0.0 **** 0.0
4 H 14.882 90.922 57.748 H 0.0 **** 0.0
5 H 15.172 90.79 59.499 H 0.0 **** 0.0
@<TRIPOS>BOND
1 1 2 1
2 1 3 1
3 1 4 1
4 1 5 1
@<TRIPOS>MOLECULE
CH4
5 4
SMALL
USER_CHARGES


@<TRIPOS>ATOM
1 C 87.13 77.692 53.753 C 0.0 **** 0.0
2 H 87.548 76.695 53.89 H 0.0 **** 0.0
3 H 86.379 77.879 54.521 H 0.0 **** 0.0
4 H 86.668 77.759 52.768 H 0.0 **** 0.0
5 H 87.924 78.433 53.833 H 0.0 **** 0.0
@<TRIPOS>BOND
1 1 2 1
2 1 3 1
3 1 4 1
4 1 5 1
@<TRIPOS>MOLECULE
CH4
5 4
SMALL
USER_CHARGES


@<TRIPOS>ATOM
1 C 84.175 60.045 87.798 C 0.0 **** 0.0
2 H 84.381 60.265 86.75 H 0.0 **** 0.0
3 H 85.057 59.598 88.256 H 0.0 **** 0.0
4 H 83.338 59.349 87.864 H 0.0 **** 0.0
5 H 83.922 60.968 88.32 H 0.0 **** 0.0
@<TRIPOS>BOND
1 1 2 1
2 1 3 1
3 1 4 1
4 1 5 1
@<TRIPOS>MOLECULE
CH4
5 4
SMALL
USER_CHARGES


@<TRIPOS>ATOM
1 C 23.12 81.173 23.321 C 0.0 **** 0.0
2 H 22.158 81.179 22.807 H 0.0 **** 0.0
3 H 23.913 80.963 22.603 H 0.0 **** 0.0
4 H 23.115 80.403 24.092 H 0.0 **** 0.0
5 H 23.292 82.147 23.779 H 0.0 **** 0.0
@<TRIPOS>BOND
1 1 2 1
2 1 3 1
3 1 4 1
4 1 5 1
@<TRIPOS>MOLECULE
CH4
5 4
SMALL
USER_CHARGES


@<TRIPOS>ATOM
1 C 32.289 94.389 65.389 C 0.0 **** 0.0
2 H 32.347 94.391 66.477 H 0.0 **** 0.0
3 H 31.449 95.006 65.069 H 0.0 **** 0.0
4 H 32.147 93.368 65.034 H 0.0 **** 0.0
5 H 33.214 94.792 64.975 H 0.0 **** 0.0
@<TRIPOS>BOND
1 1 2 1
2 1 3 1
3 1 4 1
4 1 5 1
@<TRIPOS>MOLECULE
CH4
5 4
SMALL
USER_CHARGES


@<TRIPOS>ATOM
1 C 75.48 83.916 96.269 C 0.0 **** 0.0
2 H 75.077 82.905 96.202 H 0.0 **** 0.0
3 H 74.911 84.485 97.005 H 0.0 **** 0.0
4 H 75.404 84.401 95.296 H 0.0 **** 0.0
5 H 76.526 83.871 96.572 H 0.0 **** 0.0
@<TRIPOS>BOND
1 1 2 1
2 1 3 1
3 1 4 1
4 1 5 1
@<TRIPOS>MOLECULE
CH4
5 4
SMALL
USER_CHARGES


@<TRIPOS>ATOM
1 C 33.523 16.822 41.459 C 0.0 **** 0.0
2 H 33.505 16.775 40.37 H 0.0 **** 0.0
3 H 34.172 16.036 41.846 H 0.0 **** 0.0
4 H 32.513 16.682 41.845 H 0.0 **** 0.0
5 H 33.901 17.794 41.775 H 0.0 **** 0.0
@<TRIPOS>BOND
1 1 2 1
2 1 3 1
3 1 4 1
4 1 5 1
@<TRIPOS>MOLECULE
CH4
5 4
SMALL
USER_CHARGES


@<TRIPOS>ATOM
1 C 34.606 82.863 63.61 C 0.0 **** 0.0
2 H 35.006 82.634 64.598 H 0.0 **** 0.0
3 H 33.744 83.522 63.711 H 0.0 **** 0.0
4 H 34.302 81.939 63.119 H 0.0 **** 0.0
5 H 35.373 83.356 63.013 H 0.0 **** 0.0
@<TRIPOS>BOND
1 1 2 1
2 1 3 1
3 1 4 1
4 1 5 1
@<TRIPOS>MOLECULE
CH4
5 4
SMALL
USER_CHARGES


@<TRIPOS>ATOM
1 C 54.524 40.458 79.892 C 0.0 **** 0.0
2 H 54.868 40.0 80.82 H 0.0 **** 0.0
3 H 54.337 41.519 80.059 H 0.0 **** 0.0
4 H 53.604 39.972 79.567 H 0.0 **** 0.0
5 H 55.288 40.339 79.124 H 0.0 **** 0.0
@<TRIPOS>BOND
1 1 2 1
2 1 3 1
3 1 4 1
4 1 5 1
@<TRIPOS>MOLECULE
CH4
5 4
SMALL
USER_CHARGES


@<TRIPOS>ATOM
1 C 21.633 64.957 20.661 C 0.0 **** 0.0
2 H 21.905 65.363 21.635 H 0.0 **** 0.0
3 H 22.444 65.135 19.955 H 0.0 **** 0.0
4 H 20.726 65.445 20.304 H 0.0 **** 0.0
5 H 21.457 63.885 20.75 H 0.0 **** 0.0
@<TRIPOS>BOND
1 1 2 1
2 1 3 1
3 1 4 1
4 1 5 1
@<TRIPOS>MOLECULE
CH4
5 4
SMALL
USER_CHARGES


@<TRIPOS>ATOM
1 C 57.919 72.347 10.407 C 0.0 **** 0.0
2 H 58.047 72.415 11.487 H 0.0 **** 0.0
3 H 57.056 72.942 10.106 H 0.0 **** 0.0
4 H 57.76 71.307 10.125 H 0.0 **** 0.0
5 H 58.813 72.726 9.911 H 0.0 **** 0.0
@<TRIPOS>BOND
1 1 2 1
2 1 3 1
3 1 4 1
4 1 5 1
@<TRIPOS>MOLECULE
CH4
5 4
SMALL
USER_CHARGES


@<TRIPOS>ATOM
1 C 7.364 47.459 89.923 C 0.0 **** 0.0
2 H 7.831 47.401 90.906 H 0.0 **** 0.0
3 H 6.515 48.142 89.964 H 0.0 **** 0.0
4 H 7.021 46.469 89.625 H 0.0 **** 0.0
5 H 8.09 47.825 89.198 H 0.0 **** 0.0
@<TRIPOS>BOND
1 1 2 1
2 1 3 1
3 1 4 1
4 1 5 1
@<TRIPOS>MOLECULE
CH4
5 4
SMALL
USER_CHARGES


@<TRIPOS>ATOM
1 C 97.581 68.516 29.468 C 0.0 **** 0.0
2 H 96.86 68.49 28.651 H 0.0 **** 0.0
3 H 98.536 68.892 29.098 H 0.0 **** 0.0
4 H 97.715 67.51 29.865 H 0.0 **** 0.0
5 H 97.213 69.173 30.256 H 0.0 **** 0.0
@<TRIPOS>BOND
1 1 2 1
2 1 3 1
3 1 4 1
4 1 5 1
@<TRIPOS>MOLECULE
CH4
5 4
SMALL
USER_CHARGES


@<TRIPOS>ATOM
1 C 21.497 8.992 79.954 C 0.0 **** 0.0
2 H 20.481 8.621 80.088 H 0.0 **** 0.0
3 H 21.834 9.469 80.875 H 0.0 **** 0.0
4 H 21.514 9.718 79.141 H 0.0 **** 0.0
5 H 22.159 8.16 79.713 H 0.0 **** 0.0
@<TRIPOS>BOND
1 1 2 1
2 1 3 1
3 1 4 1
4 1 5 1
@<TRIPOS>MOLECULE
CH4
5 4
SMALL
USER_CHARGES


@<TRIPOS>ATOM
1 C 19.055 51.619 92.015 C 0.0 **** 0.0
2 H 19.455 52.202 92.845 H 0.0 **** 0.0
3 H 17.976 51.515 92.131 H 0.0 **** 0.0
4 H 19.517 50.632 92.008 H 0.0 **** 0.0
5 H 19.272 52.128 91.076 H 0.0 **** 0.0
@<TRIPOS>BOND
1 1 2 1
2 1 3 1
3 1 4 1
4 1 5 1
@<TRIPOS>MOLECULE
CH4
5 4
SMALL
USER_CHARGES


@<TRIPOS>ATOM
1 C 68.717 42.442 45.217 C 0.0 **** 0.0
2 H 68.313 43.355 45.654 H 0.0 **** 0.0
3 H 68.377 41.582 45.796 H 0.0 **** 0.0
4 H 69.806 42.483 45.231 H 0.0 **** 0.0
5 H 68.37 42.347 44.188 H 0.0 **** 0.0
@<TRIPOS>BOND
1 1 2 1
2 1 3 1
3 1 4 1
4 1 5 1
@<TRIPOS>MOLECULE
CH4
5 4
SMALL
USER_CHARGES


@<TRIPOS>ATOM
1 C 6.438 72.063 64.907 C 0.0 **** 0.0
2 H 6.02 72.197 65.905 H 0.0 **** 0.0
3 H 7.037 72.936 64.644 H 0.0 **** 0.0
4 H 5.628 71.948 64.187 H 0.0 **** 0.0
5 H 7.066 71.173 64.893 H 0.0 **** 0.0
@<TRIPOS>BOND
1 1 2 1
2 1 3 1
3 1 4 1
4 1 5 1
@<TRIPOS>MOLECULE
CH4
5 4
SMALL
USER_CHARGES


@<TRIPOS>ATOM
1 C 44.967 50.446 15.066 C 0.0 **** 0.0
2 H 44.414 49.78 15.728 H 0.0 **** 0.0
3 H 45.888 50.763 15.557 H 0.0 **** 0.0
4 H 44.357 51.319 14.837 H 0.0 **** 0.0
5 H 45.21 49.92 14.143 H 0.0 **** 0.0
@<TRIPOS>BOND
1 1 2 1
2 1 3 1
3 1 4 1
4 1 5 1
@<TRIPOS>MOLECULE
CH4
5 4
SMALL
USER_CHARGES


@<TRIPOS>ATOM
1 C 14.823 90.034 26.08 C 0.0 **** 0.0
2 H 15.271 89.583 25.195 H 0.0 **** 0.0
3 H 14.721 89.279 26.86 H 0.0 **** 0.0
4 H 13.839 90.43 25.827 H 0.0 **** 0.0
5 H 15.46 90.843 26.438 H 0.0 **** 0.0
@<TRIPOS>BOND
1 1 4 1
2 1 2 1
3 1 3 1
4 1 5 1
@<TRIPOS>MOLECULE
CH4
5 4
SMALL
USER_CHARGES


@<TRIPOS>ATOM
1 C 2.527 91.173 83.394 C 0.0 **** 0.0
2 H 2.936 91.425 84.372 H 0.0 **** 0.0
3 H 3.189 91.551 82.615 H 0.0 **** 0.0
4 H 1.542 91.626 83.285 H 0.0 **** 0.0
5 H 2.44 90.09 83.305 H 0.0 **** 0.0
@<TRIPOS>BOND
1 1 5 1
2 1 2 1
3 1 3 1
4 1 4 1
@<TRIPOS>MOLECULE
CH4
5 4
SMALL
USER_CHARGES


@<TRIPOS>ATOM
1 C 12.212 28.812 29.508 C 0.0 **** 0.0
2 H 11.673 28.437 30.378 H 0.0 **** 0.0
3 H 11.736 29.726 29.152 H 0.0 **** 0.0
4 H 12.195 28.061 28.718 H 0.0 **** 0.0
5 H 13.245 29.024 29.785 H 0.0 **** 0.0
@<TRIPOS>BOND
1 1 2 1
2 1 3 1
3 1 4 1
4 1 5 1
@<TRIPOS>MOLECULE
CH4
5 4
SMALL
USER_CHARGES


@<TRIPOS>ATOM
1 C 18.18 67.107 63.339 C 0.0 **** 0.0
2 H 17.894 67.077 62.288 H 0.0 **** 0.0
3 H 19.082 67.708 63.453 H 0.0 **** 0.0
4 H 18.371 66.094 63.692 H 0.0 **** 0.0
5 H 17.372 67.549 63.922 H 0.0 **** 0.0
@<TRIPOS>BOND
1 1 2 1
2 1 3 1
3 1 4 1
4 1 5 1
@<TRIPOS>MOLECULE
CH4
5 4
SMALL
USER_CHARGES


@<TRIPOS>ATOM
1 C 14.229 7.18 39.461 C 0.0 **** 0.0
2 H 13.373 6.771 39.996 H 0.0 **** 0.0
3 H 13.894 7.617 38.52 H 0.0 **** 0.0
4 H 14.945 6.383 39.257 H 0.0 **** 0.0
5 H 14.705 7.949 40.07 H 0.0 **** 0.0
@<TRIPOS>BOND
1 1 2 1
2 1 3 1
3 1 4 1
4 1 5 1
@<TRIPOS>MOLECULE
CH4
5 4
SMALL
USER_CHARGES


@<TRIPOS>ATOM
1 C 56.81 7.348 9.986 C 0.0 **** 0.0
2 H 55.84 7.288 10.481 H 0.0 **** 0.0
3 H 57.206 6.343 9.841 H 0.0 **** 0.0
4 H 57.498 7.925 10.604 H 0.0 **** 0.0
5 H 56.693 7.836 9.019 H 0.0 **** 0.0
@<TRIPOS>BOND
1 1 2 1
2 1 3 1
3 1 4 1
4 1 5 1
@<TRIPOS>MOLECULE
CH4
5 4
SMALL
USER_CHARGES


@<TRIPOS>ATOM
1 C 26.486 76.011 92.445 C 0.0 **** 0.0
2 H 26.224 77.051 92.25 H 0.0 **** 0.0
3 H 26.279 75.774 93.489 H 0.0 **** 0.0
4 H 27.546 75.86 92.241 H 0.0 **** 0.0
5 H 25.894 75.361 91.801 H 0.0 **** 0.0
@<TRIPOS>BOND
1 1 2 1
2 1 3 1
3 1 4 1
4 1 5 1
@<TRIPOS>MOLECULE
CH4
5 4
SMALL
USER_CHARGES


@<TRIPOS>ATOM
1 C 23.027 42.323 39.894 C 0.0 **** 0.0
2 H 23.35 41.808 40.798 H 0.0 **** 0.0
3 H 23.262 41.71 39.023 H 0.0 **** 0.0
4 H 23.544 43.279 39.816 H 0.0 **** 0.0
5 H 21.951 42.494 39.939 H 0.0 **** 0.0
@<TRIPOS>BOND
1 1 2 1
2 1 3 1
3 1 4 1
4 1 5 1
@<TRIPOS>MOLECULE
CH4
5 4
SMALL
USER_CHARGES


@<TRIPOS>ATOM
1 C 18.994 81.136 83.428 C 0.0 **** 0.0
2 H 18.05 80.955 82.916 H 0.0 **** 0.0
3 H 19.113 82.205 83.604 H 0.0 **** 0.0
4 H 19.817 80.776 82.811 H 0.0 **** 0.0
5 H 18.997 80.608 84.382 H 0.0 **** 0.0
@<TRIPOS>BOND
1 1 2 1
2 1 3 1
3 1 4 1
4 1 5 1
@<TRIPOS>MOLECULE
CH4
5 4
SMALL
USER_CHARGES


@<TRIPOS>ATOM
1 C 65.494 95.306 62.529 C 0.0 **** 0.0
2 H 66.119 94.471 62.21 H 0.0 **** 0.0
3 H 64.459 95.113 62.245 H 0.0 **** 0.0
4 H 65.838 96.221 62.049 H 0.0 **** 0.0
5 H 65.559 95.416 63.611 H 0.0 **** 0.0
@<TRIPOS>BOND
1 1 5 1
2 1 2 1
3 1 3 1
4 1 4 1
@<TRIPOS>MOLECULE
CH4
5 4
SMALL
USER_CHARGES


@<TRIPOS>ATOM
1 C 97.631 17.037 82.842 C 0.0 **** 0.0
2 H 97.648 17.005 83.931 H 0.0 **** 0.0
3 H 98.163 17.925 82.497 H 0.0 **** 0.0
4 H 96.598 17.074 82.495 H 0.0 **** 0.0
5 H 98.116 16.146 82.444 H 0.0 **** 0.0
@<TRIPOS>BOND
1 1 2 1
2 1 3 1
3 1 4 1
4 1 5 1
@<TRIPOS>MOLECULE
CH4
5 4
SMALL
USER_CHARGES


@<TRIPOS>ATOM
1 C 74.954 69.963 6.259 C 0.0 **** 0.0
2 H 74.603 69.262 5.501 H 0.0 **** 0.0
3 H 75.607 69.443 6.959 H 0.0 **** 0.0
4 H 74.1 70.375 6.796 H 0.0 **** 0.0
5 H 75.505 70.771 5.778 H 0.0 **** 0.0
@<TRIPOS>BOND
1 1 2 1
2 1 3 1
3 1 4 1
4 1 5 1
@<TRIPOS>MOLECULE
CH4
5 4
SMALL
USER_CHARGES


@<TRIPOS>ATOM
1 C 34.445 1.708 82.753 C 0.0 **** 0.0
2 H 34.589 2.53 83.455 H 0.0 **** 0.0
3 H 34.954 1.936 81.817 H 0.0 **** 0.0
4 H 33.38 1.574 82.565 H 0.0 **** 0.0
5 H 34.856 0.793 83.178 H 0.0 **** 0.0
@<TRIPOS>BOND
1 1 2 1
2 1 3 1
3 1 4 1
4 1 5 1
@<TRIPOS>MOLECULE
CH4
5 4
SMALL
USER_CHARGES


@<TRIPOS>ATOM
1 C 83.499 46.553 85.674 C 0.0 **** 0.0
2 H 83.236 46.474 84.619 H 0.0 **** 0.0
3 H 82.592 46.666 86.267 H 0.0 **** 0.0
4 H 84.142 47.421 85.823 H 0.0 **** 0.0
5 H 84.028 45.652 85.985 H 0.0 **** 0.0
@<TRIPOS>BOND
1 1 2 1
2 1 3 1
3 1 4 1
4 1 5 1
@<TRIPOS>MOLECULE
CH4
5 4
SMALL
USER_CHARGES


@<TRIPOS>ATOM
1 C 38.252 95.736 67.831 C 0.0 **** 0.0
2 H 39.074 95.919 68.522 H 0.0 **** 0.0
3 H 38.18 94.667 67.627 H 0.0 **** 0.0
4 H 38.433 96.272 66.9 H 0.0 **** 0.0
5 H 37.32 96.084 68.276 H 0.0 **** 0.0
@<TRIPOS>BOND
1 1 2 1
2 1 3 1
3 1 4 1
4 1 5 1
@<TRIPOS>MOLECULE
CH4
5 4
SMALL
USER_CHARGES


@<TRIPOS>ATOM
1 C 3.055 15.823 54.558 C 0.0 **** 0.0
2 H 4.085 15.743 54.212 H 0.0 **** 0.0
3 H 2.535 16.587 53.979 H 0.0 **** 0.0
4 H 3.046 16.098 55.612 H 0.0 **** 0.0
5 H 2.553 14.864 54.428 H 0.0 **** 0.0
@<TRIPOS>BOND
1 1 2 1
2 1 3 1
3 1 4 1
4 1 5 1
@<TRIPOS>MOLECULE
CH4
5 4
SMALL
USER_CHARGES


@<TRIPOS>ATOM
1 C 75.724 52.571 54.988 C 0.0 **** 0.0
2 H 76.706 52.891 55.336 H 0.0 **** 0.0
3 H 75.289 53.351 54.362 H 0.0 **** 0.0
4 H 75.076 52.391 55.846 H 0.0 **** 0.0
5 H 75.825 51.653 54.409 H 0.0 **** 0.0
@<TRIPOS>BOND
1 1 2 1
2 1 3 1
3 1 4 1
4 1 5 1
@<TRIPOS>MOLECULE
CH4
5 4
SMALL
USER_CHARGES


@<TRIPOS>ATOM
1 C 7.709 59.73 47.631 C 0.0 **** 0.0
2 H 8.165 59.352 46.717 H 0.0 **** 0.0
3 H 8.339 59.477 48.484 H 0.0 **** 0.0
4 H 6.725 59.279 47.759 H 0.0 **** 0.0
5 H 7.606 60.814 47.564 H 0.0 **** 0.0
@<TRIPOS>BOND
1 1 2 1
2 1 3 1
3 1 4 1
4 1 5 1
@<TRIPOS>MOLECULE
CH4
5 4
SMALL
USER_CHARGES


@<TRIPOS>ATOM
1 C 44.943 66.761 13.886 C 0.0 **** 0.0
2 H 44.754 66.463 14.917 H 0.0 **** 0.0
3 H 44.052 67.236 13.476 H 0.0 **** 0.0
4 H 45.192 65.881 13.293 H 0.0 **** 0.0
5 H 45.776 67.464 13.858 H 0.0 **** 0.0
@<TRIPOS>BOND
1 1 2 1
2 1 3 1
3 1 4 1
4 1 5 1
@<TRIPOS>MOLECULE
CH4
5 4
SMALL
USER_CHARGES


@<TRIPOS>ATOM
1 C 87.149 84.34 71.745 C 0.0 **** 0.0
2 H 87.732 84.704 72.591 H 0.0 **** 0.0
3 H 86.192 84.861 71.714 H 0.0 **** 0.0
4 H 86.977 83.27 71.856 H 0.0 **** 0.0
5 H 87.695 84.526 70.82 H 0.0 **** 0.0
@<TRIPOS>BOND
1 1 2 1
2 1 3 1
3 1 4 1
4 1 5 1
@<TRIPOS>MOLECULE
CH4
5 4
SMALL
USER_CHARGES


@<TRIPOS>ATOM
1 C 20.153 77.93 51.896 C 0.0 **** 0.0
2 H 19.454 77.33 51.314 H 0.0 **** 0.0
3 H 20.968 77.297 52.248 H 0.0 **** 0.0
4 H 19.635 78.364 52.751 H 0.0 **** 0.0
5 H 20.555 78.727 51.272 H 0.0 **** 0.0
@<TRIPOS>BOND
1 1 2 1
2 1 3 1
3 1 4 1
4 1 5 1
@<TRIPOS>MOLECULE
CH4
5 4
SMALL
USER_CHARGES


@<TRIPOS>ATOM
1 C 8.7 22.971 49.565 C 0.0 **** 0.0
2 H 9.309 23.873 49.639 H 0.0 **** 0.0
3 H 8.314 22.712 50.551 H 0.0 **** 0.0
4 H 9.311 22.152 49.186 H 0.0 **** 0.0
5 H 7.868 23.15 48.884 H 0.0 **** 0.0
@<TRIPOS>BOND
1 1 2 1
2 1 3 1
3 1 4 1
4 1 5 1
@<TRIPOS>MOLECULE
CH4
5 4
SMALL
USER_CHARGES


@<TRIPOS>ATOM
1 C 86.169 87.386 74.02 C 0.0 **** 0.0
2 H 85.302 87.888 73.592 H 0.0 **** 0.0
3 H 87.049 87.599 73.412 H 0.0 **** 0.0
4 H 85.993 86.311 74.04 H 0.0 **** 0.0
5 H 86.333 87.746 75.036 H 0.0 **** 0.0
@<TRIPOS>BOND
1 1 2 1
2 1 3 1
3 1 4 1
4 1 5 1
@<TRIPOS>MOLECULE
CH4
5 4
SMALL
USER_CHARGES


@<TRIPOS>ATOM
1 C 9.425 53.165 13.393 C 0.0 **** 0.0
2 H 9.633 52.268 13.975 H 0.0 **** 0.0
3 H 8.444 53.076 12.925 H 0.0 **** 0.0
4 H 10.186 53.282 12.621 H 0.0 **** 0.0
5 H 9.437 54.035 14.049 H 0.0 **** 0.0
@<TRIPOS>BOND
1 1 2 1
2 1 3 1
3 1 4 1
4 1 5 1
@<TRIPOS>MOLECULE
CH4
5 4
SMALL
USER_CHARGES


@<TRIPOS>ATOM
1 C 29.035 20.963 30.19 C 0.0 **** 0.0
2 H 29.446 20.204 29.524 H 0.0 **** 0.0
3 H 28.308 21.567 29.646 H 0.0 **** 0.0
4 H 29.839 21.602 30.553 H 0.0 **** 0.0
5 H 28.546 20.478 31.034 H 0.0 **** 0.0
@<TRIPOS>BOND
1 1 2 1
2 1 3 1
3 1 4 1
4 1 5 1
@<TRIPOS>MOLECULE
CH4
5 4
SMALL
USER_CHARGES


@<TRIPOS>ATOM
1 C 4.676 81.251 92.249 C 0.0 **** 0.0
2 H 4.567 81.846 91.342 H 0.0 **** 0.0
3 H 4.211 80.276 92.102 H 0.0 **** 0.0
4 H 4.191 81.764 93.08 H 0.0 **** 0.0
5 H 5.735 81.12 92.471 H 0.0 **** 0.0
@<TRIPOS>BOND
1 1 2 1
2 1 3 1
3 1 4 1
4 1 5 1
@<TRIPOS>MOLECULE
CH4
5 4
SMALL
USER_CHARGES


@<TRIPOS>ATOM
1 C 50.755 11.809 20.034 C 0.0 **** 0.0
2 H 50.817 11.447 21.06 H 0.0 **** 0.0
3 H 51.377 11.185 19.391 H 0.0 **** 0.0
4 H 51.106 12.84 19.991 H 0.0 **** 0.0
5 H 49.72 11.763 19.695 H 0.0 **** 0.0
@<TRIPOS>BOND
1 1 3 1
2 1 4 1
3 1 2 1
4 1 5 1
@<TRIPOS>MOLECULE
CH4
5 4
SMALL
USER_CHARGES


@<TRIPOS>ATOM
1 C 51.666 48.391 65.116 C 0.0 **** 0.0
2 H 51.543 47.855 64.174 H 0.0 **** 0.0
3 H 50.775 48.256 65.729 H 0.0 **** 0.0
4 H 51.812 49.452 64.913 H 0.0 **** 0.0
5 H 52.535 47.999 65.645 H 0.0 **** 0.0
@<TRIPOS>BOND
1 1 2 1
2 1 3 1
3 1 4 1
4 1 5 1
@<TRIPOS>MOLECULE
CH4
5 4
SMALL
USER_CHARGES


@<TRIPOS>ATOM
1 C 23.376 53.132 22.569 C 0.0 **** 0.0
2 H 22.829 52.346 23.09 H 0.0 **** 0.0
3 H 23.815 53.813 23.299 H 0.0 **** 0.0
4 H 22.692 53.682 21.923 H 0.0 **** 0.0
5 H 24.166 52.686 21.966 H 0.0 **** 0.0
@<TRIPOS>BOND
1 1 2 1
2 1 3 1
3 1 4 1
4 1 5 1
@<TRIPOS>MOLECULE
CH4
5 4
SMALL
USER_CHARGES


@<TRIPOS>ATOM
1 C 60.835 6.751 79.751 C 0.0 **** 0.0
2 H 59.753 6.778 79.626 H 0.0 **** 0.0
3 H 61.096 7.124 80.741 H 0.0 **** 0.0
4 H 61.304 7.376 78.991 H 0.0 **** 0.0
5 H 61.187 5.725 79.645 H 0.0 **** 0.0
@<TRIPOS>BOND
1 1 2 1
2 1 3 1
3 1 4 1
4 1 5 1
@<TRIPOS>MOLECULE
CH4
5 4
SMALL
USER_CHARGES


@<TRIPOS>ATOM
1 C 64.224 87.285 52.109 C 0.0 **** 0.0
2 H 65.291 87.214 52.318 H 0.0 **** 0.0
3 H 64.03 88.17 51.502 H 0.0 **** 0.0
4 H 63.674 87.36 53.047 H 0.0 **** 0.0
5 H 63.9 86.395 51.569 H 0.0 **** 0.0
@<TRIPOS>BOND
1 1 2 1
2 1 3 1
3 1 4 1
4 1 5 1
@<TRIPOS>MOLECULE
CH4
5 4
SMALL
USER_CHARGES


@<TRIPOS>ATOM
1 C 92.106 41.346 56.365 C 0.0 **** 0.0
2 H 92.109 41.342 55.275 H 0.0 **** 0.0
3 H 91.077 41.373 56.725 H 0.0 **** 0.0
4 H 92.641 42.224 56.726 H 0.0 **** 0.0
5 H 92.596 40.445 56.733 H 0.0 **** 0.0
@<TRIPOS>BOND
1 1 2 1
2 1 3 1
3 1 4 1
4 1 5 1
@<TRIPOS>MOLECULE
CH4
5 4
SMALL
USER_CHARGES


@<TRIPOS>ATOM
1 C 36.589 93.41 49.853 C 0.0 **** 0.0
2 H 35.737 93.005 49.308 H 0.0 **** 0.0
3 H 36.238 93.908 50.757 H 0.0 **** 0.0
4 H 37.115 94.127 49.223 H 0.0 **** 0.0
5 H 37.266 92.599 50.124 H 0.0 **** 0.0
@<TRIPOS>BOND
1 1 2 1
2 1 3 1
3 1 4 1
4 1 5 1
@<TRIPOS>MOLECULE
CH4
5 4
SMALL
USER_CHARGES


@<TRIPOS>ATOM
1 C 62.59 35.156 33.685 C 0.0 **** 0.0
2 H 63.028 36.146 33.81 H 0.0 **** 0.0
3 H 63.06 34.461 34.381 H 0.0 **** 0.0
4 H 62.752 34.813 32.663 H 0.0 **** 0.0
5 H 61.52 35.204 33.887 H 0.0 **** 0.0
@<TRIPOS>BOND
1 1 2 1
2 1 3 1
3 1 4 1
4 1 5 1
@<TRIPOS>MOLECULE
CH4
5 4
SMALL
USER_CHARGES


@<TRIPOS>ATOM
1 C 90.621 94.982 33.09 C 0.0 **** 0.0
2 H 90.563 95.005 32.001 H 0.0 **** 0.0
3 H 90.401 95.974 33.486 H 0.0 **** 0.0
4 H 91.624 94.684 33.393 H 0.0 **** 0.0
5 H 89.896 94.266 33.477 H 0.0 **** 0.0
@<TRIPOS>BOND
1 1 2 1
2 1 3 1
3 1 4 1
4 1 5 1
@<TRIPOS>MOLECULE
CH4
5 4
SMALL
USER_CHARGES


@<TRIPOS>ATOM
1 C 88.142 31.654 6.091 C 0.0 **** 0.0
2 H 88.382 31.859 5.048 H 0.0 **** 0.0
3 H 88.133 32.589 6.652 H 0.0 **** 0.0
4 H 88.892 30.985 6.512 H 0.0 **** 0.0
5 H 87.161 31.183 6.152 H 0.0 **** 0.0
@<TRIPOS>BOND
1 1 2 1
2 1 3 1
3 1 4 1
4 1 5 1
@<TRIPOS>MOLECULE
CH4
5 4
SMALL
USER_CHARGES


@<TRIPOS>ATOM
1 C 33.845 40.839 51.521 C 0.0 **** 0.0
2 H 34.588 40.429 52.205 H 0.0 **** 0.0
3 H 33.659 41.884 51.77 H 0.0 **** 0.0
4 H 32.917 40.273 51.612 H 0.0 **** 0.0
5 H 34.215 40.769 50.498 H 0.0 **** 0.0
@<TRIPOS>BOND
1 1 2 1
2 1 3 1
3 1 4 1
4 1 5 1
@<TRIPOS>MOLECULE
CH4
5 4
SMALL
USER_CHARGES


@<TRIPOS>ATOM
1 C 52.256 17.509 36.755 C 0.0 **** 0.0
2 H 52.31 16.56 37.288 H 0.0 **** 0.0
3 H 52.803 18.27 37.311 H 0.0 **** 0.0
4 H 51.213 17.81 36.655 H 0.0 **** 0.0
5 H 52.697 17.394 35.764 H 0.0 **** 0.0
@<TRIPOS>BOND
1 1 2 1
2 1 3 1
3 1 4 1
4 1 5 1
@<TRIPOS>MOLECULE
CH4
5 4
SMALL
USER_CHARGES


@<TRIPOS>ATOM
1 C 70.228 24.29 23.303 C 0.0 **** 0.0
2 H 70.999 24.041 24.032 H 0.0 **** 0.0
3 H 69.259 23.949 23.668 H 0.0 **** 0.0
4 H 70.452 23.801 22.355 H 0.0 **** 0.0
5 H 70.202 25.37 23.157 H 0.0 **** 0.0
@<TRIPOS>BOND
1 1 2 1
2 1 3 1
3 1 4 1
4 1 5 1
@<TRIPOS>MOLECULE
CH4
5 4
SMALL
USER_CHARGES


@<TRIPOS>ATOM
1 C 44.99 77.215 28.813 C 0.0 **** 0.0
2 H 44.985 77.96 28.017 H 0.0 **** 0.0
3 H 45.994 77.137 29.231 H 0.0 **** 0.0
4 H 44.689 76.249 28.407 H 0.0 **** 0.0
5 H 44.292 77.514 29.595 H 0.0 **** 0.0
@<TRIPOS>BOND
1 1 2 1
2 1 3 1
3 1 4 1
4 1 5 1
@<TRIPOS>MOLECULE
CH4
5 4
SMALL
USER_CHARGES


@<TRIPOS>ATOM
1 C 24.567 67.37 3.418 C 0.0 **** 0.0
2 H 24.933 68.358 3.698 H 0.0 **** 0.0
3 H 23.979 66.955 4.237 H 0.0 **** 0.0
4 H 25.413 66.716 3.208 H 0.0 **** 0.0
5 H 23.943 67.454 2.528 H 0.0 **** 0.0
@<TRIPOS>BOND
1 1 2 1
2 1 3 1
3 1 4 1
4 1 5 1
@<TRIPOS>MOLECULE
CH4
5 4
SMALL
USER_CHARGES


@<TRIPOS>ATOM
1 C 46.083 86.793 12.408 C 0.0 **** 0.0
2 H 45.171 86.684 12.996 H 0.0 **** 0.0
3 H 45.945 86.325 11.434 H 0.0 **** 0.0
4 H 46.91 86.312 12.93 H 0.0 **** 0.0
5 H 46.304 87.852 12.275 H 0.0 **** 0.0
@<TRIPOS>BOND
1 1 2 1
2 1 3 1
3 1 4 1
4 1 5 1
@<TRIPOS>MOLECULE
CH4
5 4
SMALL
USER_CHARGES


@<TRIPOS>ATOM
1 C 42.991 44.749 18.898 C 0.0 **** 0.0
2 H 43.206 44.754 19.967 H 0.0 **** 0.0
3 H 41.913 44.701 18.745 H 0.0 **** 0.0
4 H 43.463 43.881 18.438 H 0.0 **** 0.0
5 H 43.383 45.659 18.445 H 0.0 **** 0.0
@<TRIPOS>BOND
1 1 2 1
2 1 3 1
3 1 4 1
4 1 5 1
@<TRIPOS>MOLECULE
CH4
5 4
SMALL
USER_CHARGES


@<TRIPOS>ATOM
1 C 19.563 57.422 12.172 C 0.0 **** 0.0
2 H 18.988 57.142 13.055 H 0.0 **** 0.0
3 H 20.522 57.837 12.481 H 0.0 **** 0.0
4 H 19.011 58.167 11.6 H 0.0 **** 0.0
5 H 19.73 56.539 11.554 H 0.0 **** 0.0
@<TRIPOS>BOND
1 1 5 1
2 1 2 1
3 1 3 1
4 1 4 1
@<TRIPOS>MOLECULE
CH4
5 4
SMALL
USER_CHARGES


@<TRIPOS>ATOM
1 C 95.557 39.605 51.824 C 0.0 **** 0.0
2 H 95.65 39.363 50.766 H 0.0 **** 0.0
3 H 95.062 40.57 51.934 H 0.0 **** 0.0
4 H 96.549 39.652 52.274 H 0.0 **** 0.0
5 H 94.968 38.835 52.322 H 0.0 **** 0.0
@<TRIPOS>BOND
1 1 2 1
2 1 3 1
3 1 4 1
4 1 5 1
@<TRIPOS>MOLECULE
CH4
5 4
SMALL
USER_CHARGES


@<TRIPOS>ATOM
1 C 16.584 31.989 68.696 C 0.0 **** 0.0
2 H 16.383 33.005 68.356 H 0.0 **** 0.0
3 H 17.31 32.015 69.509 H 0.0 **** 0.0
4 H 16.985 31.403 67.869 H 0.0 **** 0.0
5 H 15.659 31.534 69.049 H 0.0 **** 0.0
@<TRIPOS>BOND
1 1 2 1
2 1 3 1
3 1 4 1
4 1 5 1
@<TRIPOS>MOLECULE
CH4
5 4
SMALL
USER_CHARGES


@<TRIPOS>ATOM
1 C 25.455 43.271 13.887 C 0.0 **** 0.0
2 H 25.435 43.378 14.972 H 0.0 **** 0.0
3 H 26.481 43.109 13.557 H 0.0 **** 0.0
4 H 25.062 44.177 13.425 H 0.0 **** 0.0
5 H 24.84 42.419 13.595 H 0.0 **** 0.0
@<TRIPOS>BOND
1 1 2 1
2 1 3 1
3 1 4 1
4 1 5 1
@<TRIPOS>MOLECULE
CH4
5 4
SMALL
USER_CHARGES


@<TRIPOS>ATOM
1 C 22.272 7.081 48.838 C 0.0 **** 0.0
2 H 22.774 6.864 49.781 H 0.0 **** 0.0
3 H 22.959 6.895 48.011 H 0.0 **** 0.0
4 H 21.96 8.125 48.824 H 0.0 **** 0.0
5 H 21.398 6.438 48.736 H 0.0 **** 0.0
@<TRIPOS>BOND
1 1 2 1
2 1 3 1
3 1 4 1
4 1 5 1
@<TRIPOS>MOLECULE
CH4
5 4
SMALL
USER_CHARGES


@<TRIPOS>ATOM
1 C 92.825 95.503 67.901 C 0.0 **** 0.0
2 H 92.823 95.628 68.984 H 0.0 **** 0.0
3 H 93.399 94.614 67.639 H 0.0 **** 0.0
4 H 93.276 96.379 67.436 H 0.0 **** 0.0
5 H 91.8 95.391 67.547 H 0.0 **** 0.0
@<TRIPOS>BOND
1 1 2 1
2 1 3 1
3 1 4 1
4 1 5 1
@<TRIPOS>MOLECULE
CH4
5 4
SMALL
USER_CHARGES


@<TRIPOS>ATOM
1 C 85.722 86.691 14.232 C 0.0 **** 0.0
2 H 85.578 85.891 14.957 H 0.0 **** 0.0
3 H 84.821 86.799 13.627 H 0.0 **** 0.0
4 H 86.567 86.45 13.587 H 0.0 **** 0.0
5 H 85.921 87.626 14.757 H 0.0 **** 0.0
@<TRIPOS>BOND
1 1 2 1
2 1 3 1
3 1 4 1
4 1 5 1
@<TRIPOS>MOLECULE
CH4
5 4
SMALL
USER_CHARGES


@<TRIPOS>ATOM
1 C 56.681 87.789 73.607 C 0.0 **** 0.0
2 H 57.292 88.316 72.875 H 0.0 **** 0.0
3 H 56.897 86.721 73.559 H 0.0 **** 0.0
4 H 55.626 87.957 73.387 H 0.0 **** 0.0
5 H 56.908 88.162 74.606 H 0.0 **** 0.0
@<TRIPOS>BOND
1 1 2 1
2 1 3 1
3 1 4 1
4 1 5 1
@<TRIPOS>MOLECULE
CH4
5 4
SMALL
USER_CHARGES


@<TRIPOS>ATOM
1 C 33.291 68.631 2.555 C 0.0 **** 0.0
2 H 33.943 69.478 2.341 H 0.0 **** 0.0
3 H 33.896 67.735 2.7 H 0.0 **** 0.0
4 H 32.608 68.478 1.72 H 0.0 **** 0.0
5 H 32.719 68.833 3.461 H 0.0 **** 0.0
@<TRIPOS>BOND
1 1 2 1
2 1 3 1
3 1 4 1
4 1 5 1
@<TRIPOS>MOLECULE
CH4
5 4
SMALL
USER_CHARGES


@<TRIPOS>ATOM
1 C 10.638 39.151 82.735 C 0.0 **** 0.0
2 H 10.273 38.123 82.724 H 0.0 **** 0.0
3 H 11.726 39.149 82.804 H 0.0 **** 0.0
4 H 10.22 39.675 83.595 H 0.0 **** 0.0
5 H 10.332 39.654 81.818 H 0.0 **** 0.0
@<TRIPOS>BOND
1 1 2 1
2 1 3 1
3 1 4 1
4 1 5 1
@<TRIPOS>MOLECULE
CH4
5 4
SMALL
USER_CHARGES


@<TRIPOS>ATOM
1 C 29.607 23.803 27.606 C 0.0 **** 0.0
2 H 30.46 23.86 28.283 H 0.0 **** 0.0
3 H 28.693 23.667 28.183 H 0.0 **** 0.0
4 H 29.738 22.96 26.927 H 0.0 **** 0.0
5 H 29.539 24.726 27.03 H 0.0 **** 0.0
@<TRIPOS>BOND
1 1 2 1
2 1 3 1
3 1 4 1
4 1 5 1
@<TRIPOS>MOLECULE
CH4
5 4
SMALL
USER_CHARGES


@<TRIPOS>ATOM
1 C 26.598 26.018 45.078 C 0.0 **** 0.0
2 H 26.983 25.961 44.06 H 0.0 **** 0.0
3 H 25.67 26.59 45.083 H 0.0 **** 0.0
4 H 27.332 26.51 45.717 H 0.0 **** 0.0
5 H 26.408 25.012 45.452 H 0.0 **** 0.0
@<TRIPOS>BOND
1 1 2 1
2 1 3 1
3 1 4 1
4 1 5 1
@<TRIPOS>MOLECULE
CH4
5 4
SMALL
USER_CHARGES


@<TRIPOS>ATOM
1 C 92.822 91.68 31.435 C 0.0 **** 0.0
2 H 93.024 91.687 30.364 H 0.0 **** 0.0
3 H 93.26 90.787 31.881 H 0.0 **** 0.0
4 H 91.744 91.679 31.6 H 0.0 **** 0.0
5 H 93.258 92.568 31.893 H 0.0 **** 0.0
@<TRIPOS>BOND
1 1 2 1
2 1 3 1
3 1 4 1
4 1 5 1
@<TRIPOS>MOLECULE
CH4
5 4
SMALL
USER_CHARGES


@<TRIPOS>ATOM
1 C 80.932 82.264 6.471 C 0.0 **** 0.0
2 H 81.295 82.305 7.497 H 0.0 **** 0.0
3 H 79.926 82.682 6.424 H 0.0 **** 0.0
4 H 80.91 81.227 6.135 H 0.0 **** 0.0
5 H 81.596 82.84 5.827 H 0.0 **** 0.0
@<TRIPOS>BOND
1 1 2 1
2 1 3 1
3 1 4 1
4 1 5 1
@<TRIPOS>MOLECULE
CH4
5 4
SMALL
USER_CHARGES


@<TRIPOS>ATOM
1 C 67.806 37.319 31.122 C 0.0 **** 0.0
2 H 66.961 37.907 30.763 H 0.0 **** 0.0
3 H 68.736 37.821 30.855 H 0.0 **** 0.0
4 H 67.782 36.33 30.663 H 0.0 **** 0.0
5 H 67.744 37.219 32.205 H 0.0 **** 0.0
@<TRIPOS>BOND
1 1 2 1
2 1 3 1
3 1 4 1
4 1 5 1
@<TRIPOS>MOLECULE
CH4
5 4
SMALL
USER_CHARGES


@<TRIPOS>ATOM
1 C 53.206 4.944 65.274 C 0.0 **** 0.0
2 H 52.999 5.062 64.211 H 0.0 **** 0.0
3 H 52.267 4.874 65.822 H 0.0 **** 0.0
4 H 53.773 5.804 65.631 H 0.0 **** 0.0
5 H 53.787 4.035 65.431 H 0.0 **** 0.0
@<TRIPOS>BOND
1 1 2 1
2 1 3 1
3 1 4 1
4 1 5 1
@<TRIPOS>MOLECULE
CH4
5 4
SMALL
USER_CHARGES


@<TRIPOS>ATOM
1 C 19.641 53.422 62.271 C 0.0 **** 0.0
2 H 20.042 52.975 63.181 H 0.0 **** 0.0
3 H 19.971 52.844 61.407 H 0.0 **** 0.0
4 H 20.001 54.447 62.182 H 0.0 **** 0.0
5 H 18.552 53.421 62.315 H 0.0 **** 0.0
@<TRIPOS>BOND
1 1 2 1
2 1 3 1
3 1 4 1
4 1 5 1
@<TRIPOS>MOLECULE
CH4
5 4
SMALL
USER_CHARGES


@<TRIPOS>ATOM
1 C 52.067 91.916 11.263 C 0.0 **** 0.0
2 H 52.449 91.534 12.21 H 0.0 **** 0.0
3 H 51.355 92.719 11.457 H 0.0 **** 0.0
4 H 51.569 91.111 10.722 H 0.0 **** 0.0
5 H 52.894 92.299 10.666 H 0.0 **** 0.0
@<TRIPOS>BOND
1 1 4 1
2 1 5 1
3 1 2 1
4 1 3 1
@<TRIPOS>MOLECULE
CH4
5 4
SMALL
USER_CHARGES


@<TRIPOS>ATOM
1 C 38.506 36.711 14.187 C 0.0 **** 0.0
2 H 38.732 35.99 14.972 H 0.0 **** 0.0
3 H 39.422 36.964 13.652 H 0.0 **** 0.0
4 H 38.084 37.612 14.632 H 0.0 **** 0.0
5 H 37.787 36.278 13.492 H 0.0 **** 0.0
@<TRIPOS>BOND
1 1 2 1
2 1 3 1
3 1 4 1
4 1 5 1
@<TRIPOS>MOLECULE
CH4
5 4
SMALL
USER_CHARGES


@<TRIPOS>ATOM
1 C 91.317 44.027 31.973 C 0.0 **** 0.0
2 H 91.342 43.59 32.971 H 0.0 **** 0.0
3 H 90.327 43.885 31.538 H 0.0 **** 0.0
4 H 92.063 43.54 31.345 H 0.0 **** 0.0
5 H 91.536 45.093 32.038 H 0.0 **** 0.0
@<TRIPOS>BOND
1 1 2 1
2 1 3 1
3 1 4 1
4 1 5 1
@<TRIPOS>MOLECULE
CH4
5 4
SMALL
USER_CHARGES


@<TRIPOS>ATOM
1 C 87.152 14.886 81.144 C 0.0 **** 0.0
2 H 87.35 14.552 82.163 H 0.0 **** 0.0
3 H 86.084 15.062 81.021 H 0.0 **** 0.0
4 H 87.478 14.118 80.442 H 0.0 **** 0.0
5 H 87.698 15.809 80.952 H 0.0 **** 0.0
@<TRIPOS>BOND
1 1 2 1
2 1 3 1
3 1 4 1
4 1 5 1
@<TRIPOS>MOLECULE
CH4
5 4
SMALL
USER_CHARGES


@<TRIPOS>ATOM
1 C 51.32 68.073 66.45 C 0.0 **** 0.0
2 H 51.313 68.194 67.533 H 0.0 **** 0.0
3 H 50.484 68.623 66.017 H 0.0 **** 0.0
4 H 51.227 67.016 66.202 H 0.0 **** 0.0
5 H 52.257 68.46 66.047 H 0.0 **** 0.0
@<TRIPOS>BOND
1 1 2 1
2 1 3 1
3 1 4 1
4 1 5 1
@<TRIPOS>MOLECULE
CH4
5 4
SMALL
USER_CHARGES


@<TRIPOS>ATOM
1 C 27.505 60.794 12.154 C 0.0 **** 0.0
2 H 26.941 61.616 12.594 H 0.0 **** 0.0
3 H 28.57 60.951 12.326 H 0.0 **** 0.0
4 H 27.312 60.754 11.082 H 0.0 **** 0.0
5 H 27.197 59.855 12.614 H 0.0 **** 0.0
@<TRIPOS>BOND
1 1 2 1
2 1 3 1
3 1 4 1
4 1 5 1
@<TRIPOS>MOLECULE
CH4
5 4
SMALL
USER_CHARGES


@<TRIPOS>ATOM
1 C 52.764 54.425 10.388 C 0.0 **** 0.0
2 H 52.537 54.34 11.451 H 0.0 **** 0.0
3 H 51.835 54.494 9.822 H 0.0 **** 0.0
4 H 53.323 53.547 10.065 H 0.0 **** 0.0
5 H 53.363 55.32 10.216 H 0.0 **** 0.0
@<TRIPOS>BOND
1 1 2 1
2 1 3 1
3 1 4 1
4 1 5 1
@<TRIPOS>MOLECULE
CH4
5 4
SMALL
USER_CHARGES


@<TRIPOS>ATOM
1 C 51.113 27.933 5.284 C 0.0 **** 0.0
2 H 52.036 27.799 4.72 H 0.0 **** 0.0
3 H 50.571 26.988 5.323 H 0.0 **** 0.0
4 H 50.496 28.687 4.795 H 0.0 **** 0.0
5 H 51.351 28.258 6.297 H 0.0 **** 0.0
@<TRIPOS>BOND
1 1 2 1
2 1 3 1
3 1 4 1
4 1 5 1
@<TRIPOS>MOLECULE
CH4
5 4
SMALL
USER_CHARGES


@<TRIPOS>ATOM
1 C 8.917 40.924 55.148 C 0.0 **** 0.0
2 H 9.373 40.143 55.756 H 0.0 **** 0.0
3 H 8.657 41.772 55.782 H 0.0 **** 0.0
4 H 8.016 40.534 54.674 H 0.0 **** 0.0
5 H 9.621 41.245 54.381 H 0.0 **** 0.0
@<TRIPOS>BOND
1 1 2 1
2 1 3 1
3 1 4 1
4 1 5 1
@<TRIPOS>MOLECULE
CH4
5 4
SMALL
USER_CHARGES


@<TRIPOS>ATOM
1 C 24.379 92.244 2.207 C 0.0 **** 0.0
2 H 24.45 91.427 1.489 H 0.0 **** 0.0
3 H 23.586 92.927 1.902 H 0.0 **** 0.0
4 H 25.327 92.78 2.243 H 0.0 **** 0.0
5 H 24.152 91.841 3.195 H 0.0 **** 0.0
@<TRIPOS>BOND
1 1 2 1
2 1 3 1
3 1 4 1
4 1 5 1
@<TRIPOS>MOLECULE
CH4
5 4
SMALL
USER_CHARGES


@<TRIPOS>ATOM
1 C 3.231 3.508 25.457 C 0.0 **** 0.0
2 H 3.344 4.571 25.245 H 0.0 **** 0.0
3 H 2.794 3.379 26.448 H 0.0 **** 0.0
4 H 4.209 3.026 25.426 H 0.0 **** 0.0
5 H 2.58 3.055 24.71 H 0.0 **** 0.0
@<TRIPOS>BOND
1 1 2 1
2 1 3 1
3 1 4 1
4 1 5 1
@<TRIPOS>MOLECULE
CH4
5 4
SMALL
USER_CHARGES


@<TRIPOS>ATOM
1 C 62.147 41.074 75.168 C 0.0 **** 0.0
2 H 62.431 40.902 74.13 H 0.0 **** 0.0
3 H 61.79 42.097 75.282 H 0.0 **** 0.0
4 H 63.013 40.917 75.812 H 0.0 **** 0.0
5 H 61.356 40.379 75.448 H 0.0 **** 0.0
@<TRIPOS>BOND
1 1 2 1
2 1 3 1
3 1 4 1
4 1 5 1
@<TRIPOS>MOLECULE
CH4
5 4
SMALL
USER_CHARGES


@<TRIPOS>ATOM
1 C 71.473 62.311 31.36 C 0.0 **** 0.0
2 H 72.49 62.625 31.595 H 0.0 **** 0.0
3 H 71.22 62.628 30.348 H 0.0 **** 0.0
4 H 70.78 62.766 32.068 H 0.0 **** 0.0
5 H 71.403 61.225 31.429 H 0.0 **** 0.0
@<TRIPOS>BOND
1 1 2 1
2 1 3 1
3 1 4 1
4 1 5 1
@<TRIPOS>MOLECULE
CH4
5 4
SMALL
USER_CHARGES


@<TRIPOS>ATOM
1 C 98.202 7.595 39.97 C 0.0 **** 0.0
2 H 98.512 7.946 40.955 H 0.0 **** 0.0
3 H 97.303 6.985 40.069 H 0.0 **** 0.0
4 H 99.0 6.998 39.53 H 0.0 **** 0.0
5 H 97.991 8.451 39.329 H 0.0 **** 0.0
@<TRIPOS>BOND
1 1 2 1
2 1 3 1
3 1 4 1
4 1 5 1
@<TRIPOS>MOLECULE
CH4
5 4
SMALL
USER_CHARGES


@<TRIPOS>ATOM
1 C 5.706 49.543 74.976 C 0.0 **** 0.0
2 H 6.013 49.564 73.93 H 0.0 **** 0.0
3 H 5.754 48.519 75.347 H 0.0 **** 0.0
4 H 4.685 49.913 75.062 H 0.0 **** 0.0
5 H 6.373 50.174 75.563 H 0.0 **** 0.0
@<TRIPOS>BOND
1 1 2 1
2 1 3 1
3 1 4 1
4 1 5 1
@<TRIPOS>MOLECULE
CH4
5 4
SMALL
USER_CHARGES


@<TRIPOS>ATOM
1 C 63.351 60.721 39.618 C 0.0 **** 0.0
2 H 62.28 60.596 39.778 H 0.0 **** 0.0
3 H 63.837 59.745 39.641 H 0.0 **** 0.0
4 H 63.764 61.352 40.404 H 0.0 **** 0.0
5 H 63.521 61.189 38.649 H 0.0 **** 0.0
@<TRIPOS>BOND
1 1 2 1
2 1 3 1
3 1 4 1
4 1 5 1
@<TRIPOS>MOLECULE
CH4
5 4
SMALL
USER_CHARGES


@<TRIPOS>ATOM
1 C 52.874 16.761 69.371 C 0.0 **** 0.0
2 H 53.501 17.047 68.527 H 0.0 **** 0.0
3 H 51.878 16.502 69.013 H 0.0 **** 0.0
4 H 52.803 17.595 70.07 H 0.0 **** 0.0
5 H 53.314 15.901 69.875 H 0.0 **** 0.0
@<TRIPOS>BOND
1 1 2 1
2 1 3 1
3 1 4 1
4 1 5 1
@<TRIPOS>MOLECULE
CH4
5 4
SMALL
USER_CHARGES


@<TRIPOS>ATOM
1 C 69.556 72.712 78.533 C 0.0 **** 0.0
2 H 69.109 71.958 79.181 H 0.0 **** 0.0
3 H 69.737 73.622 79.105 H 0.0 **** 0.0
4 H 68.877 72.929 77.708 H 0.0 **** 0.0
5 H 70.499 72.337 78.137 H 0.0 **** 0.0
@<TRIPOS>BOND
1 1 2 1
2 1 3 1
3 1 4 1
4 1 5 1
@<TRIPOS>MOLECULE
CH4
5 4
SMALL
USER_CHARGES


@<TRIPOS>ATOM
1 C 16.238 69.937 25.858 C 0.0 **** 0.0
2 H 16.339 69.875 24.775 H 0.0 **** 0.0
3 H 15.568 69.151 26.206 H 0.0 **** 0.0
4 H 15.828 70.911 26.129 H 0.0 **** 0.0
5 H 17.216 69.813 26.323 H 0.0 **** 0.0
@<TRIPOS>BOND
1 1 2 1
2 1 3 1
3 1 4 1
4 1 5 1
@<TRIPOS>MOLECULE
CH4
5 4
SMALL
USER_CHARGES


@<TRIPOS>ATOM
1 C 77.883 53.796 1.501 C 0.0 **** 0.0
2 H 77.776 53.685 2.58 H 0.0 **** 0.0
3 H 78.112 54.836 1.264 H 0.0 **** 0.0
4 H 76.952 53.509 1.012 H 0.0 **** 0.0
5 H 78.691 53.156 1.147 H 0.0 **** 0.0
@<TRIPOS>BOND
1 1 2 1
2 1 3 1
3 1 4 1
4 1 5 1
@<TRIPOS>MOLECULE
CH4
5 4
SMALL
USER_CHARGES


@<TRIPOS>ATOM
1 C 8.886 48.271 36.94 C 0.0 **** 0.0
2 H 9.28 48.62 37.894 H 0.0 **** 0.0
3 H 9.166 47.228 36.79 H 0.0 **** 0.0
4 H 9.299 48.878 36.133 H 0.0 **** 0.0
5 H 7.8 48.36 36.941 H 0.0 **** 0.0
@<TRIPOS>BOND
1 1 2 1
2 1 3 1
3 1 4 1
4 1 5 1
@<TRIPOS>MOLECULE
CH4
5 4
SMALL
USER_CHARGES


@<TRIPOS>ATOM
1 C 70.771 5.116 41.46 C 0.0 **** 0.0
2 H 70.209 5.273 42.38 H 0.0 **** 0.0
3 H 70.103 4.742 40.684 H 0.0 **** 0.0
4 H 71.564 4.39 41.638 H 0.0 **** 0.0
5 H 71.21 6.06 41.137 H 0.0 **** 0.0
@<TRIPOS>BOND
1 1 2 1
2 1 3 1
3 1 4 1
4 1 5 1
@<TRIPOS>MOLECULE
CH4
5 4
SMALL
USER_CHARGES


@<TRIPOS>ATOM
1 C 43.567 95.265 56.45 C 0.0 **** 0.0
2 H 42.755 95.887 56.827 H 0.0 **** 0.0
3 H 43.662 94.374 57.071 H 0.0 **** 0.0
4 H 44.5 95.829 56.479 H 0.0 **** 0.0
5 H 43.353 94.972 55.422 H 0.0 **** 0.0
@<TRIPOS>BOND
1 1 2 1
2 1 3 1
3 1 4 1
4 1 5 1
@<TRIPOS>MOLECULE
CH4
5 4
SMALL
USER_CHARGES


@<TRIPOS>ATOM
1 C 95.857 8.021 31.244 C 0.0 **** 0.0
2 H 94.965 8.505 30.846 H 0.0 **** 0.0
3 H 95.625 6.987 31.502 H 0.0 **** 0.0
4 H 96.19 8.552 32.136 H 0.0 **** 0.0
5 H 96.646 8.04 30.493 H 0.0 **** 0.0
@<TRIPOS>BOND
1 1 2 1
2 1 3 1
3 1 4 1
4 1 5 1
@<TRIPOS>MOLECULE
CH4
5 4
SMALL
USER_CHARGES


@<TRIPOS>ATOM
1 C 38.794 69.55 91.377 C 0.0 **** 0.0
2 H 38.518 68.497 91.322 H 0.0 **** 0.0
3 H 39.562 69.764 90.634 H 0.0 **** 0.0
4 H 39.178 69.773 92.373 H 0.0 **** 0.0
5 H 37.916 70.166 91.181 H 0.0 **** 0.0
@<TRIPOS>BOND
1 1 2 1
2 1 3 1
3 1 4 1
4 1 5 1
@<TRIPOS>MOLECULE
CH4
5 4
SMALL
USER_CHARGES


@<TRIPOS>ATOM
1 C 71.111 56.717 17.816 C 0.0 **** 0.0
2 H 71.094 56.432 16.764 H 0.0 **** 0.0
3 H 71.589 57.692 17.92 H 0.0 **** 0.0
4 H 71.672 55.975 18.384 H 0.0 **** 0.0
5 H 70.091 56.77 18.195 H 0.0 **** 0.0
@<TRIPOS>BOND
1 1 2 1
2 1 3 1
3 1 4 1
4 1 5 1
@<TRIPOS>MOLECULE
CH4
5 4
SMALL
USER_CHARGES


@<TRIPOS>ATOM
1 C 88.084 97.093 28.413 C 0.0 **** 0.0
2 H 87.255 96.388 28.354 H 0.0 **** 0.0
3 H 87.989 97.834 27.62 H 0.0 **** 0.0
4 H 89.026 96.556 28.297 H 0.0 **** 0.0
5 H 88.068 97.592 29.382 H 0.0 **** 0.0
@<TRIPOS>BOND
1 1 2 1
2 1 3 1
3 1 4 1
4 1 5 1
@<TRIPOS>MOLECULE
CH4
5 4
SMALL
USER_CHARGES


@<TRIPOS>ATOM
1 C 49.057 16.126 42.226 C 0.0 **** 0.0
2 H 49.631 16.764 42.899 H 0.0 **** 0.0
3 H 49.463 15.114 42.253 H 0.0 **** 0.0
4 H 49.122 16.517 41.211 H 0.0 **** 0.0
5 H 48.015 16.108 42.544 H 0.0 **** 0.0
@<TRIPOS>BOND
1 1 2 1
2 1 3 1
3 1 4 1
4 1 5 1
@<TRIPOS>MOLECULE
CH4
5 4
SMALL
USER_CHARGES


@<TRIPOS>ATOM
1 C 71.266 4.594 72.38 C 0.0 **** 0.0
2 H 71.522 5.589 72.744 H 0.0 **** 0.0
3 H 70.212 4.396 72.575 H 0.0 **** 0.0
4 H 71.877 3.851 72.895 H 0.0 **** 0.0
5 H 71.454 4.539 71.308 H 0.0 **** 0.0
@<TRIPOS>BOND
1 1 2 1
2 1 3 1
3 1 4 1
4 1 5 1
@<TRIPOS>MOLECULE
CH4
5 4
SMALL
USER_CHARGES


@<TRIPOS>ATOM
1 C 61.006 36.26 30.257 C 0.0 **** 0.0
2 H 61.141 35.984 31.303 H 0.0 **** 0.0
3 H 60.024 35.928 29.918 H 0.0 **** 0.0
4 H 61.779 35.786 29.654 H 0.0 **** 0.0
5 H 61.078 37.343 30.155 H 0.0 **** 0.0
@<TRIPOS>BOND
1 1 2 1
2 1 3 1
3 1 4 1
4 1 5 1
@<TRIPOS>MOLECULE
CH4
5 4
SMALL
USER_CHARGES


@<TRIPOS>ATOM
1 C 54.902 81.94 50.091 C 0.0 **** 0.0
2 H 54.784 82.166 49.032 H 0.0 **** 0.0
3 H 55.37 80.962 50.204 H 0.0 **** 0.0
4 H 53.924 81.933 50.572 H 0.0 **** 0.0
5 H 55.53 82.7 50.557 H 0.0 **** 0.0
@<TRIPOS>BOND
1 1 2 1
2 1 3 1
3 1 4 1
4 1 5 1
@<TRIPOS>MOLECULE
CH4
5 4
SMALL
USER_CHARGES


@<TRIPOS>ATOM
1 C 59.625 13.737 9.336 C 0.0 **** 0.0
2 H 59.173 14.624 8.893 H 0.0 **** 0.0
3 H 60.636 13.613 8.949 H 0.0 **** 0.0
4 H 59.028 12.86 9.084 H 0.0 **** 0.0
5 H 59.662 13.851 10.42 H 0.0 **** 0.0
@<TRIPOS>BOND
1 1 2 1
2 1 3 1
3 1 4 1
4 1 5 1
@<TRIPOS>MOLECULE
CH4
5 4
SMALL
USER_CHARGES


@<TRIPOS>ATOM
1 C 32.778 58.047 28.24 C 0.0 **** 0.0
2 H 32.965 57.694 29.254 H 0.0 **** 0.0
3 H 31.863 58.64 28.225 H 0.0 **** 0.0
4 H 32.668 57.192 27.573 H 0.0 **** 0.0
5 H 33.615 58.661 27.909 H 0.0 **** 0.0
@<TRIPOS>BOND
1 1 2 1
2 1 3 1
3 1 4 1
4 1 5 1
@<TRIPOS>MOLECULE
CH4
5 4
SMALL
USER_CHARGES


@<TRIPOS>ATOM
1 C 50.972 93.436 35.135 C 0.0 **** 0.0
2 H 51.077 93.45 36.22 H 0.0 **** 0.0
3 H 51.025 94.456 34.753 H 0.0 **** 0.0
4 H 50.011 92.998 34.869 H 0.0 **** 0.0
5 H 51.776 92.842 34.701 H 0.0 **** 0.0
@<TRIPOS>BOND
1 1 2 1
2 1 3 1
3 1 4 1
4 1 5 1
@<TRIPOS>MOLECULE
CH4
5 4
SMALL
USER_CHARGES


@<TRIPOS>ATOM
1 C 90.05 31.235 31.768 C 0.0 **** 0.0
2 H 90.11 30.572 32.632 H 0.0 **** 0.0
3 H 89.446 32.107 32.022 H 0.0 **** 0.0
4 H 89.591 30.704 30.935 H 0.0 **** 0.0
5 H 91.053 31.556 31.487 H 0.0 **** 0.0
@<TRIPOS>BOND
1 1 2 1
2 1 3 1
3 1 4 1
4 1 5 1
@<TRIPOS>MOLECULE
CH4
5 4
SMALL
USER_CHARGES


@<TRIPOS>ATOM
1 C 59.847 6.904 7.319 C 0.0 **** 0.0
2 H 59.128 7.532 6.792 H 0.0 **** 0.0
3 H 59.495 6.721 8.334 H 0.0 **** 0.0
4 H 60.812 7.41 7.355 H 0.0 **** 0.0
5 H 59.954 5.955 6.794 H 0.0 **** 0.0
@<TRIPOS>BOND
1 1 2 1
2 1 3 1
3 1 4 1
4 1 5 1
@<TRIPOS>MOLECULE
CH4
5 4
SMALL
USER_CHARGES


@<TRIPOS>ATOM
1 C 14.855 31.356 38.486 C 0.0 **** 0.0
2 H 14.726 32.411 38.727 H 0.0 **** 0.0
3 H 14.163 30.761 39.083 H 0.0 **** 0.0
4 H 15.878 31.055 38.709 H 0.0 **** 0.0
5 H 14.652 31.197 37.427 H 0.0 **** 0.0
@<TRIPOS>BOND
1 1 2 1
2 1 3 1
3 1 4 1
4 1 5 1
@<TRIPOS>MOLECULE
CH4
5 4
SMALL
USER_CHARGES


@<TRIPOS>ATOM
1 C 53.666 41.042 3.235 C 0.0 **** 0.0
2 H 54.208 41.872 2.783 H 0.0 **** 0.0
3 H 52.598 41.263 3.237 H 0.0 **** 0.0
4 H 54.009 40.9 4.26 H 0.0 **** 0.0
5 H 53.848 40.133 2.661 H 0.0 **** 0.0
@<TRIPOS>BOND
1 1 2 1
2 1 4 1
3 1 3 1
4 1 5 1
@<TRIPOS>MOLECULE
CH4
5 4
SMALL
USER_CHARGES


@<TRIPOS>ATOM
1 C 3.051 40.165 92.757 C 0.0 **** 0.0
2 H 2.833 39.174 92.358 H 0.0 **** 0.0
3 H 3.85 40.091 93.495 H 0.0 **** 0.0
4 H 2.156 40.571 93.228 H 0.0 **** 0.0
5 H 3.365 40.821 91.946 H 0.0 **** 0.0
@<TRIPOS>BOND
1 1 2 1
2 1 3 1
3 1 4 1
4 1 5 1
@<TRIPOS>MOLECULE
CH4
5 4
SMALL
USER_CHARGES


@<TRIPOS>ATOM
1 C 90.897 86.864 16.89 C 0.0 **** 0.0
2 H 91.439 86.771 17.831 H 0.0 **** 0.0
3 H 89.83 86.732 17.07 H 0.0 **** 0.0
4 H 91.245 86.101 16.193 H 0.0 **** 0.0
5 H 91.075 87.852 16.464 H 0.0 **** 0.0
@<TRIPOS>BOND
1 1 2 1
2 1 3 1
3 1 4 1
4 1 5 1
@<TRIPOS>MOLECULE
CH4
5 4
SMALL
USER_CHARGES


@<TRIPOS>ATOM
1 C 47.264 84.088 50.124 C 0.0 **** 0.0
2 H 46.476 84.42 50.801 H 0.0 **** 0.0
3 H 47.402 83.012 50.228 H 0.0 **** 0.0
4 H 48.194 84.6 50.37 H 0.0 **** 0.0
5 H 46.982 84.321 49.097 H 0.0 **** 0.0
@<TRIPOS>BOND
1 1 2 1
2 1 3 1
3 1 4 1
4 1 5 1
@<TRIPOS>MOLECULE
CH4
5 4
SMALL
USER_CHARGES


@<TRIPOS>ATOM
1 C 75.038 87.307 30.896 C 0.0 **** 0.0
2 H 74.61 87.03 29.933 H 0.0 **** 0.0
3 H 74.237 87.432 31.626 H 0.0 **** 0.0
4 H 75.586 88.244 30.795 H 0.0 **** 0.0
5 H 75.716 86.523 31.231 H 0.0 **** 0.0
@<TRIPOS>BOND
1 1 2 1
2 1 3 1
3 1 4 1
4 1 5 1
@<TRIPOS>MOLECULE
CH4
5 4
SMALL
USER_CHARGES


@<TRIPOS>ATOM
1 C 32.672 61.391 72.401 C 0.0 **** 0.0
2 H 32.271 60.432 72.073 H 0.0 **** 0.0
3 H 31.85 62.059 72.657 H 0.0 **** 0.0
4 H 33.262 61.831 71.597 H 0.0 **** 0.0
5 H 33.305 61.24 73.275 H 0.0 **** 0.0
@<TRIPOS>BOND
1 1 2 1
2 1 3 1
3 1 4 1
4 1 5 1
@<TRIPOS>MOLECULE
CH4
5 4
SMALL
USER_CHARGES


@<TRIPOS>ATOM
1 C 49.227 25.589 21.461 C 0.0 **** 0.0
2 H 49.213 25.601 20.371 H 0.0 **** 0.0
3 H 50.202 25.924 21.815 H 0.0 **** 0.0
4 H 49.04 24.575 21.815 H 0.0 **** 0.0
5 H 48.453 26.256 21.841 H 0.0 **** 0.0
@<TRIPOS>BOND
1 1 2 1
2 1 3 1
3 1 4 1
4 1 5 1
@<TRIPOS>MOLECULE
CH4
5 4
SMALL
USER_CHARGES


@<TRIPOS>ATOM
1 C 98.199 54.612 71.395 C 0.0 **** 0.0
2 H 98.694 53.663 71.186 H 0.0 **** 0.0
3 H 97.48 54.827 70.604 H 0.0 **** 0.0
4 H 98.942 55.408 71.438 H 0.0 **** 0.0
5 H 97.679 54.547 72.351 H 0.0 **** 0.0
@<TRIPOS>BOND
1 1 2 1
2 1 3 1
3 1 5 1
4 1 4 1
@<TRIPOS>MOLECULE
CH4
5 4
SMALL
USER_CHARGES


@<TRIPOS>ATOM
1 C 77.422 25.431 34.152 C 0.0 **** 0.0
2 H 77.202 25.757 35.169 H 0.0 **** 0.0
3 H 76.821 24.553 33.914 H 0.0 **** 0.0
4 H 78.48 25.181 34.072 H 0.0 **** 0.0
5 H 77.185 26.234 33.454 H 0.0 **** 0.0
@<TRIPOS>BOND
1 1 2 1
2 1 3 1
3 1 4 1
4 1 5 1
@<TRIPOS>MOLECULE
CH4
5 4
SMALL
USER_CHARGES


@<TRIPOS>ATOM
1 C 0.888 88.113 87.435 C 0.0 **** 0.0
2 H 0.228 87.299 87.136 H 0.0 **** 0.0
3 H 0.836 88.912 86.694 H 0.0 **** 0.0
4 H 1.911 87.746 87.502 H 0.0 **** 0.0
5 H 0.574 88.497 88.405 H 0.0 **** 0.0
@<TRIPOS>BOND
1 1 2 1
2 1 3 1
3 1 4 1
4 1 5 1
@<TRIPOS>MOLECULE
CH4
5 4
SMALL
USER_CHARGES


@<TRIPOS>ATOM
1 C 64.11 14.157 51.462 C 0.0 **** 0.0
2 H 64.891 13.741 52.099 H 0.0 **** 0.0
3 H 64.487 14.256 50.444 H 0.0 **** 0.0
4 H 63.819 15.138 51.839 H 0.0 **** 0.0
5 H 63.245 13.494 51.468 H 0.0 **** 0.0
@<TRIPOS>BOND
1 1 2 1
2 1 3 1
3 1 4 1
4 1 5 1
@<TRIPOS>MOLECULE
CH4
5 4
SMALL
USER_CHARGES


@<TRIPOS>ATOM
1 C 78.447 57.867 2.659 C 0.0 **** 0.0
2 H 78.367 57.839 3.745 H 0.0 **** 0.0
3 H 78.572 56.853 2.278 H 0.0 **** 0.0
4 H 79.308 58.472 2.374 H 0.0 **** 0.0
5 H 77.541 58.304 2.239 H 0.0 **** 0.0
@<TRIPOS>BOND
1 1 2 1
2 1 3 1
3 1 4 1
4 1 5 1
@<TRIPOS>MOLECULE
CH4
5 4
SMALL
USER_CHARGES


@<TRIPOS>ATOM
1 C 13.862 21.302 4.261 C 0.0 **** 0.0
2 H 13.537 22.335 4.381 H 0.0 **** 0.0
3 H 13.787 20.784 5.218 H 0.0 **** 0.0
4 H 14.897 21.285 3.919 H 0.0 **** 0.0
5 H 13.229 20.804 3.527 H 0.0 **** 0.0
@<TRIPOS>BOND
1 1 2 1
2 1 3 1
3 1 4 1
4 1 5 1
@<TRIPOS>MOLECULE
CH4
5 4
SMALL
USER_CHARGES


@<TRIPOS>ATOM
1 C 93.795 21.591 22.085 C 0.0 **** 0.0
2 H 92.955 21.538 21.392 H 0.0 **** 0.0
3 H 93.677 22.46 22.733 H 0.0 **** 0.0
4 H 94.724 21.68 21.523 H 0.0 **** 0.0
5 H 93.822 20.686 22.692 H 0.0 **** 0.0
@<TRIPOS>BOND
1 1 2 1
2 1 3 1
3 1 4 1
4 1 5 1
@<TRIPOS>MOLECULE
CH4
5 4
SMALL
USER_CHARGES


@<TRIPOS>ATOM
1 C 96.237 43.087 20.854 C 0.0 **** 0.0
2 H 95.615 43.485 21.655 H 0.0 **** 0.0
3 H 95.665 43.066 19.926 H 0.0 **** 0.0
4 H 96.554 42.076 21.108 H 0.0 **** 0.0
5 H 97.114 43.721 20.726 H 0.0 **** 0.0
@<TRIPOS>BOND
1 1 2 1
2 1 3 1
3 1 4 1
4 1 5 1
@<TRIPOS>MOLECULE
CH4
5 4
SMALL
USER_CHARGES


@<TRIPOS>ATOM
1 C 61.043 91.705 90.627 C 0.0 **** 0.0
2 H 60.937 91.506 91.693 H 0.0 **** 0.0
3 H 61.141 92.778 90.465 H 0.0 **** 0.0
4 H 60.162 91.337 90.099 H 0.0 **** 0.0
5 H 61.931 91.197 90.249 H 0.0 **** 0.0
@<TRIPOS>BOND
1 1 2 1
2 1 3 1
3 1 4 1
4 1 5 1
@<TRIPOS>MOLECULE
CH4
5 4
SMALL
USER_CHARGES


@<TRIPOS>ATOM
1 C 5.083 63.407 79.133 C 0.0 **** 0.0
2 H 5.213 63.701 78.092 H 0.0 **** 0.0
3 H 4.898 64.294 79.74 H 0.0 **** 0.0
4 H 5.986 62.908 79.485 H 0.0 **** 0.0
5 H 4.236 62.726 79.216 H 0.0 **** 0.0
@<TRIPOS>BOND
1 1 2 1
2 1 3 1
3 1 4 1
4 1 5 1
@<TRIPOS>MOLECULE
CH4
5 4
SMALL
USER_CHARGES


@<TRIPOS>ATOM
1 C 63.487 13.926 82.88 C 0.0 **** 0.0
2 H 62.917 13.003 82.988 H 0.0 **** 0.0
3 H 63.694 14.104 81.825 H 0.0 **** 0.0
4 H 64.427 13.838 83.425 H 0.0 **** 0.0
5 H 62.91 14.758 83.283 H 0.0 **** 0.0
@<TRIPOS>BOND
1 1 2 1
2 1 3 1
3 1 4 1
4 1 5 1
@<TRIPOS>MOLECULE
CH4
5 4
SMALL
USER_CHARGES


@<TRIPOS>ATOM
1 C 68.052 93.631 66.764 C 0.0 **** 0.0
2 H 67.203 94.313 66.815 H 0.0 **** 0.0
3 H 68.218 93.335 65.728 H 0.0 **** 0.0
4 H 67.843 92.746 67.366 H 0.0 **** 0.0
5 H 68.942 94.129 67.148 H 0.0 **** 0.0
@<TRIPOS>BOND
1 1 2 1
2 1 3 1
3 1 4 1
4 1 5 1
@<TRIPOS>MOLECULE
CH4
5 4
SMALL
USER_CHARGES


@<TRIPOS>ATOM
1 C 31.761 13.846 66.311 C 0.0 **** 0.0
2 H 30.959 13.448 65.69 H 0.0 **** 0.0
3 H 32.419 14.465 65.701 H 0.0 **** 0.0
4 H 32.331 13.022 66.74 H 0.0 **** 0.0
5 H 31.335 14.449 67.112 H 0.0 **** 0.0
@<TRIPOS>BOND
1 1 2 1
2 1 3 1
3 1 4 1
4 1 5 1
@<TRIPOS>MOLECULE
CH4
5 4
SMALL
USER_CHARGES


@<TRIPOS>ATOM
1 C 1.65 10.985 90.475 C 0.0 **** 0.0
2 H 1.743 11.348 89.452 H 0.0 **** 0.0
3 H 0.622 10.673 90.658 H 0.0 **** 0.0
4 H 1.917 11.783 91.169 H 0.0 **** 0.0
5 H 2.319 10.137 90.622 H 0.0 **** 0.0
@<TRIPOS>BOND
1 1 2 1
2 1 3 1
3 1 4 1
4 1 5 1
@<TRIPOS>MOLECULE
CH4
5 4
SMALL
USER_CHARGES


@<TRIPOS>ATOM
1 C 52.208 57.092 92.6 C 0.0 **** 0.0
2 H 51.668 57.276 91.671 H 0.0 **** 0.0
3 H 53.269 57.289 92.448 H 0.0 **** 0.0
4 H 52.07 56.053 92.9 H 0.0 **** 0.0
5 H 51.823 57.75 93.38 H 0.0 **** 0.0
@<TRIPOS>BOND
1 1 2 1
2 1 3 1
3 1 4 1
4 1 5 1
@<TRIPOS>MOLECULE
CH4
5 4
SMALL
USER_CHARGES


@<TRIPOS>ATOM
1 C 18.698 20.832 16.399 C 0.0 **** 0.0
2 H 17.921 21.076 15.673 H 0.0 **** 0.0
3 H 19.671 20.847 15.907 H 0.0 **** 0.0
4 H 18.512 19.84 16.81 H 0.0 **** 0.0
5 H 18.685 21.567 17.204 H 0.0 **** 0.0
@<TRIPOS>BOND
1 1 2 1
2 1 3 1
3 1 4 1
4 1 5 1
@<TRIPOS>MOLECULE
CH4
5 4
SMALL
USER_CHARGES


@<TRIPOS>ATOM
1 C 4.021 76.561 80.552 C 0.0 **** 0.0
2 H 4.585 77.414 80.174 H 0.0 **** 0.0
3 H 2.954 76.767 80.471 H 0.0 **** 0.0
4 H 4.281 76.389 81.596 H 0.0 **** 0.0
5 H 4.266 75.676 79.965 H 0.0 **** 0.0
@<TRIPOS>BOND
1 1 2 1
2 1 3 1
3 1 4 1
4 1 5 1
@<TRIPOS>MOLECULE
CH4
5 4
SMALL
USER_CHARGES


@<TRIPOS>ATOM
1 C 3.236 18.47 47.717 C 0.0 **** 0.0
2 H 3.885 18.287 46.861 H 0.0 **** 0.0
3 H 3.841 18.762 48.576 H 0.0 **** 0.0
4 H 2.683 17.561 47.954 H 0.0 **** 0.0
5 H 2.535 19.269 47.477 H 0.0 **** 0.0
@<TRIPOS>BOND
1 1 2 1
2 1 3 1
3 1 4 1
4 1 5 1
@<TRIPOS>MOLECULE
CH4
5 4
SMALL
USER_CHARGES


@<TRIPOS>ATOM
1 C 70.371 26.344 61.558 C 0.0 **** 0.0
2 H 71.015 26.65 60.733 H 0.0 **** 0.0
3 H 69.382 26.783 61.429 H 0.0 **** 0.0
4 H 70.801 26.686 62.5 H 0.0 **** 0.0
5 H 70.289 25.257 61.57 H 0.0 **** 0.0
@<TRIPOS>BOND
1 1 2 1
2 1 3 1
3 1 4 1
4 1 5 1
@<TRIPOS>MOLECULE
CH4
5 4
SMALL
USER_CHARGES


@<TRIPOS>ATOM
1 C 34.512 32.155 5.212 C 0.0 **** 0.0
2 H 34.282 31.839 4.194 H 0.0 **** 0.0
3 H 33.643 31.992 5.848 H 0.0 **** 0.0
4 H 34.77 33.214 5.213 H 0.0 **** 0.0
5 H 35.354 31.575 5.59 H 0.0 **** 0.0
@<TRIPOS>BOND
1 1 2 1
2 1 3 1
3 1 4 1
4 1 5 1
@<TRIPOS>MOLECULE
CH4
5 4
SMALL
USER_CHARGES


@<TRIPOS>ATOM
1 C 98.289 89.37 32.465 C 0.0 **** 0.0
2 H 98.008 89.399 33.518 H 0.0 **** 0.0
3 H 98.746 90.319 32.185 H 0.0 **** 0.0
4 H 97.4 89.202 31.857 H 0.0 **** 0.0
5 H 99.0 88.561 32.3 H 0.0 **** 0.0
@<TRIPOS>BOND
1 1 2 1
2 1 3 1
3 1 4 1
4 1 5 1
@<TRIPOS>MOLECULE
CH4
5 4
SMALL
USER_CHARGES


@<TRIPOS>ATOM
1 C 47.713 57.8 7.164 C 0.0 **** 0.0
2 H 47.474 57.137 7.995 H 0.0 **** 0.0
3 H 46.79 58.129 6.685 H 0.0 **** 0.0
4 H 48.328 57.266 6.439 H 0.0 **** 0.0
5 H 48.259 58.666 7.536 H 0.0 **** 0.0
@<TRIPOS>BOND
1 1 2 1
2 1 3 1
3 1 4 1
4 1 5 1
@<TRIPOS>MOLECULE
CH4
5 4
SMALL
USER_CHARGES


@<TRIPOS>ATOM
1 C 54.887 66.814 49.488 C 0.0 **** 0.0
2 H 53.857 66.698 49.15 H 0.0 **** 0.0
3 H 54.901 66.938 50.571 H 0.0 **** 0.0
4 H 55.327 67.692 49.015 H 0.0 **** 0.0
5 H 55.461 65.929 49.215 H 0.0 **** 0.0
@<TRIPOS>BOND
1 1 2 1
2 1 3 1
3 1 4 1
4 1 5 1
@<TRIPOS>MOLECULE
CH4
5 4
SMALL
USER_CHARGES


@<TRIPOS>ATOM
1 C 68.928 87.237 46.14 C 0.0 **** 0.0
2 H 68.326 88.145 46.125 H 0.0 **** 0.0
3 H 68.362 86.419 45.694 H 0.0 **** 0.0
4 H 69.181 86.985 47.17 H 0.0 **** 0.0
5 H 69.843 87.398 45.57 H 0.0 **** 0.0
@<TRIPOS>BOND
1 1 5 1
2 1 2 1
3 1 3 1
4 1 4 1
@<TRIPOS>MOLECULE
CH4
5 4
SMALL
USER_CHARGES


@<TRIPOS>ATOM
1 C 49.126 38.941 19.317 C 0.0 **** 0.0
2 H 48.598 38.213 19.933 H 0.0 **** 0.0
3 H 48.424 39.409 18.626 H 0.0 **** 0.0
4 H 49.912 38.439 18.753 H 0.0 **** 0.0
5 H 49.569 39.704 19.957 H 0.0 **** 0.0
@<TRIPOS>BOND
1 1 2 1
2 1 3 1
3 1 4 1
4 1 5 1
@<TRIPOS>MOLECULE
CH4
5 4
SMALL
USER_CHARGES


@<TRIPOS>ATOM
1 C 79.802 54.269 37.723 C 0.0 **** 0.0
2 H 79.755 54.222 38.811 H 0.0 **** 0.0
3 H 80.138 53.308 37.332 H 0.0 **** 0.0
4 H 80.503 55.048 37.424 H 0.0 **** 0.0
5 H 78.813 54.498 37.327 H 0.0 **** 0.0
@<TRIPOS>BOND
1 1 2 1
2 1 3 1
3 1 4 1
4 1 5 1
@<TRIPOS>MOLECULE
CH4
5 4
SMALL
USER_CHARGES


@<TRIPOS>ATOM
1 C 42.251 19.651 86.998 C 0.0 **** 0.0
2 H 42.33 18.76 86.376 H 0.0 **** 0.0
3 H 43.248 20.041 87.202 H 0.0 **** 0.0
4 H 41.76 19.396 87.938 H 0.0 **** 0.0
5 H 41.664 20.407 86.476 H 0.0 **** 0.0
@<TRIPOS>BOND
1 1 2 1
2 1 3 1
3 1 4 1
4 1 5 1
@<TRIPOS>MOLECULE
CH4
5 4
SMALL
USER_CHARGES


@<TRIPOS>ATOM
1 C 96.216 32.216 22.238 C 0.0 **** 0.0
2 H 96.756 32.868 21.551 H 0.0 **** 0.0
3 H 96.795 31.307 22.406 H 0.0 **** 0.0
4 H 95.248 31.958 21.81 H 0.0 **** 0.0
5 H 96.068 32.733 23.187 H 0.0 **** 0.0
@<TRIPOS>BOND
1 1 2 1
2 1 3 1
3 1 4 1
4 1 5 1
@<TRIPOS>MOLECULE
CH4
5 4
SMALL
USER_CHARGES


@<TRIPOS>ATOM
1 C 7.554 58.139 97.336 C 0.0 **** 0.0
2 H 8.563 58.451 97.606 H 0.0 **** 0.0
3 H 7.526 57.877 96.278 H 0.0 **** 0.0
4 H 6.858 58.955 97.528 H 0.0 **** 0.0
5 H 7.271 57.271 97.933 H 0.0 **** 0.0
@<TRIPOS>BOND
1 1 2 1
2 1 3 1
3 1 4 1
4 1 5 1
@<TRIPOS>MOLECULE
CH4
5 4
SMALL
USER_CHARGES


@<TRIPOS>ATOM
1 C 34.476 30.353 75.976 C 0.0 **** 0.0
2 H 34.46 30.732 76.998 H 0.0 **** 0.0
3 H 34.176 29.305 75.973 H 0.0 **** 0.0
4 H 35.483 30.445 75.57 H 0.0 **** 0.0
5 H 33.783 30.932 75.365 H 0.0 **** 0.0
@<TRIPOS>BOND
1 1 2 1
2 1 3 1
3 1 4 1
4 1 5 1
@<TRIPOS>MOLECULE
CH4
5 4
SMALL
USER_CHARGES


@<TRIPOS>ATOM
1 C 70.517 14.714 85.705 C 0.0 **** 0.0
2 H 70.31 15.441 86.491 H 0.0 **** 0.0
3 H 69.577 14.324 85.315 H 0.0 **** 0.0
4 H 71.109 13.896 86.115 H 0.0 **** 0.0
5 H 71.072 15.197 84.901 H 0.0 **** 0.0
@<TRIPOS>BOND
1 1 2 1
2 1 3 1
3 1 4 1
4 1 5 1
@<TRIPOS>MOLECULE
CH4
5 4
SMALL
USER_CHARGES


@<TRIPOS>ATOM
1 C 19.682 40.719 48.55 C 0.0 **** 0.0
2 H 20.1 40.031 47.815 H 0.0 **** 0.0
3 H 19.857 41.746 48.227 H 0.0 **** 0.0
4 H 20.162 40.555 49.514 H 0.0 **** 0.0
5 H 18.61 40.544 48.642 H 0.0 **** 0.0
@<TRIPOS>BOND
1 1 2 1
2 1 3 1
3 1 4 1
4 1 5 1
@<TRIPOS>MOLECULE
CH4
5 4
SMALL
USER_CHARGES


@<TRIPOS>ATOM
1 C 49.757 96.608 56.463 C 0.0 **** 0.0
2 H 50.427 96.483 55.612 H 0.0 **** 0.0
3 H 50.328 96.535 57.388 H 0.0 **** 0.0
4 H 48.996 95.828 56.443 H 0.0 **** 0.0
5 H 49.277 97.585 56.407 H 0.0 **** 0.0
@<TRIPOS>BOND
1 1 2 1
2 1 3 1
3 1 4 1
4 1 5 1
@<TRIPOS>MOLECULE
CH4
5 4
SMALL
USER_CHARGES


@<TRIPOS>ATOM
1 C 5.136 32.528 95.609 C 0.0 **** 0.0
2 H 4.065 32.336 95.677 H 0.0 **** 0.0
3 H 5.398 33.358 96.265 H 0.0 **** 0.0
4 H 5.395 32.78 94.581 H 0.0 **** 0.0
5 H 5.684 31.636 95.914 H 0.0 **** 0.0
@<TRIPOS>BOND
1 1 2 1
2 1 3 1
3 1 4 1
4 1 5 1
@<TRIPOS>MOLECULE
CH4
5 4
SMALL
USER_CHARGES


@<TRIPOS>ATOM
1 C 15.882 83.369 69.139 C 0.0 **** 0.0
2 H 15.938 83.563 70.21 H 0.0 **** 0.0
3 H 16.251 82.364 68.932 H 0.0 **** 0.0
4 H 16.494 84.097 68.607 H 0.0 **** 0.0
5 H 14.847 83.452 68.808 H 0.0 **** 0.0
@<TRIPOS>BOND
1 1 2 1
2 1 3 1
3 1 4 1
4 1 5 1
@<TRIPOS>MOLECULE
CH4
5 4
SMALL
USER_CHARGES


@<TRIPOS>ATOM
1 C 95.618 5.122 26.635 C 0.0 **** 0.0
2 H 95.611 5.103 25.545 H 0.0 **** 0.0
3 H 96.534 4.657 27.0 H 0.0 **** 0.0
4 H 94.756 4.574 27.014 H 0.0 **** 0.0
5 H 95.573 6.155 26.98 H 0.0 **** 0.0
@<TRIPOS>BOND
1 1 2 1
2 1 3 1
3 1 4 1
4 1 5 1
@<TRIPOS>MOLECULE
CH4
5 4
SMALL
USER_CHARGES


@<TRIPOS>ATOM
1 C 66.663 25.506 24.958 C 0.0 **** 0.0
2 H 66.03 24.646 25.178 H 0.0 **** 0.0
3 H 66.069 26.277 24.467 H 0.0 **** 0.0
4 H 67.476 25.199 24.3 H 0.0 **** 0.0
5 H 67.076 25.9 25.886 H 0.0 **** 0.0
@<TRIPOS>BOND
1 1 2 1
2 1 3 1
3 1 4 1
4 1 5 1
@<TRIPOS>MOLECULE
CH4
5 4
SMALL
USER_CHARGES


@<TRIPOS>ATOM
1 C 48.761 78.005 89.797 C 0.0 **** 0.0
2 H 48.714 77.921 88.711 H 0.0 **** 0.0
3 H 48.635 77.018 90.243 H 0.0 **** 0.0
4 H 47.966 78.664 90.144 H 0.0 **** 0.0
5 H 49.727 78.415 90.088 H 0.0 **** 0.0
@<TRIPOS>BOND
1 1 2 1
2 1 3 1
3 1 4 1
4 1 5 1
@<TRIPOS>MOLECULE
CH4
5 4
SMALL
USER_CHARGES


@<TRIPOS>ATOM
1 C 66.796 15.356 17.455 C 0.0 **** 0.0
2 H 66.544 14.532 18.122 H 0.0 **** 0.0
3 H 66.27 16.256 17.774 H 0.0 **** 0.0
4 H 66.5 15.103 16.437 H 0.0 **** 0.0
5 H 67.872 15.533 17.487 H 0.0 **** 0.0
@<TRIPOS>BOND
1 1 2 1
2 1 3 1
3 1 4 1
4 1 5 1
@<TRIPOS>MOLECULE
CH4
5 4
SMALL
USER_CHARGES


@<TRIPOS>ATOM
1 C 89.479 15.73 29.729 C 0.0 **** 0.0
2 H 88.419 15.518 29.586 H 0.0 **** 0.0
3 H 89.849 16.316 28.888 H 0.0 **** 0.0
4 H 90.031 14.792 29.79 H 0.0 **** 0.0
5 H 89.615 16.292 30.653 H 0.0 **** 0.0
@<TRIPOS>BOND
1 1 2 1
2 1 3 1
3 1 4 1
4 1 5 1
@<TRIPOS>MOLECULE
CH4
5 4
SMALL
USER_CHARGES


@<TRIPOS>ATOM
1 C 13.859 21.021 36.324 C 0.0 **** 0.0
2 H 13.517 21.817 36.985 H 0.0 **** 0.0
3 H 14.659 20.463 36.811 H 0.0 **** 0.0
4 H 14.231 21.454 35.396 H 0.0 **** 0.0
5 H 13.029 20.349 36.105 H 0.0 **** 0.0
@<TRIPOS>BOND
1 1 4 1
2 1 5 1
3 1 2 1
4 1 3 1
@<TRIPOS>MOLECULE
CH4
5 4
SMALL
USER_CHARGES


@<TRIPOS>ATOM
1 C 27.386 93.084 32.684 C 0.0 **** 0.0
2 H 26.992 93.767 31.931 H 0.0 **** 0.0
3 H 27.763 92.185 32.197 H 0.0 **** 0.0
4 H 26.592 92.815 33.381 H 0.0 **** 0.0
5 H 28.196 93.571 33.227 H 0.0 **** 0.0
@<TRIPOS>BOND
1 1 2 1
2 1 3 1
3 1 4 1
4 1 5 1
@<TRIPOS>MOLECULE
CH4
5 4
SMALL
USER_CHARGES


@<TRIPOS>ATOM
1 C 68.122 3.093 17.501 C 0.0 **** 0.0
2 H 68.053 2.351 16.706 H 0.0 **** 0.0
3 H 68.793 2.729 18.28 H 0.0 **** 0.0
4 H 67.132 3.263 17.925 H 0.0 **** 0.0
5 H 68.509 4.027 17.094 H 0.0 **** 0.0
@<TRIPOS>BOND
1 1 2 1
2 1 3 1
3 1 4 1
4 1 5 1
@<TRIPOS>MOLECULE
CH4
5 4
SMALL
USER_CHARGES


@<TRIPOS>ATOM
1 C 87.259 92.068 12.654 C 0.0 **** 0.0
2 H 86.907 91.417 13.454 H 0.0 **** 0.0
3 H 86.438 92.697 12.31 H 0.0 **** 0.0
4 H 87.624 91.461 11.826 H 0.0 **** 0.0
5 H 88.067 92.698 13.028 H 0.0 **** 0.0
@<TRIPOS>BOND
1 1 2 1
2 1 3 1
3 1 4 1
4 1 5 1
@<TRIPOS>MOLECULE
CH4
5 4
SMALL
USER_CHARGES


@<TRIPOS>ATOM
1 C 73.265 76.557 45.107 C 0.0 **** 0.0
2 H 74.116 77.237 45.151 H 0.0 **** 0.0
3 H 72.403 77.082 44.695 H 0.0 **** 0.0
4 H 73.03 76.203 46.111 H 0.0 **** 0.0
5 H 73.512 75.708 44.47 H 0.0 **** 0.0
@<TRIPOS>BOND
1 1 2 1
2 1 3 1
3 1 4 1
4 1 5 1
@<TRIPOS>MOLECULE
CH4
5 4
SMALL
USER_CHARGES


@<TRIPOS>ATOM
1 C 87.452 72.491 26.91 C 0.0 **** 0.0
2 H 87.05 72.648 27.911 H 0.0 **** 0.0
3 H 88.276 73.183 26.737 H 0.0 **** 0.0
4 H 86.669 72.665 26.172 H 0.0 **** 0.0
5 H 87.813 71.466 26.821 H 0.0 **** 0.0
@<TRIPOS>BOND
1 1 2 1
2 1 3 1
3 1 4 1
4 1 5 1
@<TRIPOS>MOLECULE
CH4
5 4
SMALL
USER_CHARGES


@<TRIPOS>ATOM
1 C 35.678 32.305 87.352 C 0.0 **** 0.0
2 H 35.541 32.376 88.431 H 0.0 **** 0.0
3 H 35.004 31.549 86.949 H 0.0 **** 0.0
4 H 36.709 32.027 87.135 H 0.0 **** 0.0
5 H 35.457 33.27 86.895 H 0.0 **** 0.0
@<TRIPOS>BOND
1 1 2 1
2 1 3 1
3 1 4 1
4 1 5 1
@<TRIPOS>MOLECULE
CH4
5 4
SMALL
USER_CHARGES


@<TRIPOS>ATOM
1 C 3.276 54.028 49.218 C 0.0 **** 0.0
2 H 3.388 53.709 50.254 H 0.0 **** 0.0
3 H 2.439 54.722 49.14 H 0.0 **** 0.0
4 H 3.087 53.158 48.589 H 0.0 **** 0.0
5 H 4.19 54.522 48.889 H 0.0 **** 0.0
@<TRIPOS>BOND
1 1 2 1
2 1 3 1
3 1 4 1
4 1 5 1
@<TRIPOS>MOLECULE
CH4
5 4
SMALL
USER_CHARGES


@<TRIPOS>ATOM
1 C 49.731 7.919 47.691 C 0.0 **** 0.0
2 H 49.212 8.872 47.583 H 0.0 **** 0.0
3 H 49.568 7.529 48.696 H 0.0 **** 0.0
4 H 50.798 8.066 47.526 H 0.0 **** 0.0
5 H 49.344 7.21 46.958 H 0.0 **** 0.0
@<TRIPOS>BOND
1 1 2 1
2 1 3 1
3 1 4 1
4 1 5 1
@<TRIPOS>MOLECULE
CH4
5 4
SMALL
USER_CHARGES


@<TRIPOS>ATOM
1 C 32.95 52.602 53.264 C 0.0 **** 0.0
2 H 32.354 53.49 53.473 H 0.0 **** 0.0
3 H 34.002 52.879 53.192 H 0.0 **** 0.0
4 H 32.625 52.161 52.321 H 0.0 **** 0.0
5 H 32.819 51.878 54.068 H 0.0 **** 0.0
@<TRIPOS>BOND
1 1 2 1
2 1 3 1
3 1 4 1
4 1 5 1
@<TRIPOS>MOLECULE
CH4
5 4
SMALL
USER_CHARGES


@<TRIPOS>ATOM
1 C 32.61 32.468 91.293 C 0.0 **** 0.0
2 H 32.132 32.14 92.216 H 0.0 **** 0.0
3 H 32.439 31.726 90.513 H 0.0 **** 0.0
4 H 33.682 32.581 91.459 H 0.0 **** 0.0
5 H 32.187 33.424 90.985 H 0.0 **** 0.0
@<TRIPOS>BOND
1 1 2 1
2 1 3 1
3 1 4 1
4 1 5 1
@<TRIPOS>MOLECULE
CH4
5 4
SMALL
USER_CHARGES


@<TRIPOS>ATOM
1 C 60.135 34.432 45.446 C 0.0 **** 0.0
2 H 60.203 34.875 46.439 H 0.0 **** 0.0
3 H 61.087 33.963 45.192 H 0.0 **** 0.0
4 H 59.907 35.209 44.716 H 0.0 **** 0.0
5 H 59.346 33.68 45.436 H 0.0 **** 0.0
@<TRIPOS>BOND
1 1 2 1
2 1 3 1
3 1 4 1
4 1 5 1
@<TRIPOS>MOLECULE
CH4
5 4
SMALL
USER_CHARGES


@<TRIPOS>ATOM
1 C 8.382 84.197 58.339 C 0.0 **** 0.0
2 H 9.284 84.78 58.15 H 0.0 **** 0.0
3 H 7.655 84.814 58.868 H 0.0 **** 0.0
4 H 8.632 83.328 58.947 H 0.0 **** 0.0
5 H 7.957 83.868 57.391 H 0.0 **** 0.0
@<TRIPOS>BOND
1 1 2 1
2 1 3 1
3 1 4 1
4 1 5 1
@<TRIPOS>MOLECULE
CH4
5 4
SMALL
USER_CHARGES


@<TRIPOS>ATOM
1 C 58.863 8.805 71.46 C 0.0 **** 0.0
2 H 58.959 9.87 71.247 H 0.0 **** 0.0
3 H 59.479 8.551 72.324 H 0.0 **** 0.0
4 H 59.195 8.231 70.595 H 0.0 **** 0.0
5 H 57.821 8.57 71.674 H 0.0 **** 0.0
@<TRIPOS>BOND
1 1 2 1
2 1 3 1
3 1 4 1
4 1 5 1
@<TRIPOS>MOLECULE
CH4
5 4
SMALL
USER_CHARGES


@<TRIPOS>ATOM
1 C 45.149 94.886 26.678 C 0.0 **** 0.0
2 H 44.519 94.754 25.799 H 0.0 **** 0.0
3 H 45.246 93.935 27.202 H 0.0 **** 0.0
4 H 44.697 95.623 27.342 H 0.0 **** 0.0
5 H 46.136 95.232 26.369 H 0.0 **** 0.0
@<TRIPOS>BOND
1 1 2 1
2 1 3 1
3 1 4 1
4 1 5 1
@<TRIPOS>MOLECULE
CH4
5 4
SMALL
USER_CHARGES


@<TRIPOS>ATOM
1 C 93.691 48.803 73.408 C 0.0 **** 0.0
2 H 93.664 48.171 74.295 H 0.0 **** 0.0
3 H 94.678 49.257 73.316 H 0.0 **** 0.0
4 H 92.938 49.586 73.497 H 0.0 **** 0.0
5 H 93.485 48.199 72.525 H 0.0 **** 0.0
@<TRIPOS>BOND
1 1 2 1
2 1 3 1
3 1 4 1
4 1 5 1
@<TRIPOS>MOLECULE
CH4
5 4
SMALL
USER_CHARGES


@<TRIPOS>ATOM
1 C 1.65 37.552 94.943 C 0.0 **** 0.0
2 H 1.751 37.142 93.938 H 0.0 **** 0.0
3 H 2.621 37.905 95.291 H 0.0 **** 0.0
4 H 1.283 36.777 95.616 H 0.0 **** 0.0
5 H 0.945 38.383 94.927 H 0.0 **** 0.0
@<TRIPOS>BOND
1 1 2 1
2 1 3 1
3 1 4 1
4 1 5 1
@<TRIPOS>MOLECULE
CH4
5 4
SMALL
USER_CHARGES


@<TRIPOS>ATOM
1 C 7.967 40.874 40.727 C 0.0 **** 0.0
2 H 8.06 41.275 41.736 H 0.0 **** 0.0
3 H 7.152 41.38 40.209 H 0.0 **** 0.0
4 H 7.758 39.806 40.778 H 0.0 **** 0.0
5 H 8.898 41.036 40.184 H 0.0 **** 0.0
@<TRIPOS>BOND
1 1 3 1
2 1 4 1
3 1 5 1
4 1 2 1
@<TRIPOS>MOLECULE
CH4
5 4
SMALL
USER_CHARGES


@<TRIPOS>ATOM
1 C 17.618 41.552 9.993 C 0.0 **** 0.0
2 H 17.569 42.049 10.961 H 0.0 **** 0.0
3 H 16.615 41.474 9.573 H 0.0 **** 0.0
4 H 18.038 40.554 10.119 H 0.0 **** 0.0
5 H 18.251 42.13 9.319 H 0.0 **** 0.0
@<TRIPOS>BOND
1 1 2 1
2 1 3 1
3 1 4 1
4 1 5 1
@<TRIPOS>MOLECULE
CH4
5 4
SMALL
USER_CHARGES


@<TRIPOS>ATOM
1 C 5.278 37.316 84.801 C 0.0 **** 0.0
2 H 4.896 37.167 83.791 H 0.0 **** 0.0
3 H 5.033 38.324 85.137 H 0.0 **** 0.0
4 H 6.36 37.186 84.802 H 0.0 **** 0.0
5 H 4.823 36.588 85.472 H 0.0 **** 0.0
@<TRIPOS>BOND
1 1 2 1
2 1 3 1
3 1 4 1
4 1 5 1
@<TRIPOS>MOLECULE
CH4
5 4
SMALL
USER_CHARGES


@<TRIPOS>ATOM
1 C 54.471 27.548 6.733 C 0.0 **** 0.0
2 H 54.003 27.784 5.777 H 0.0 **** 0.0
3 H 53.701 27.289 7.46 H 0.0 **** 0.0
4 H 55.029 28.415 7.088 H 0.0 **** 0.0
5 H 55.151 26.706 6.606 H 0.0 **** 0.0
@<TRIPOS>BOND
1 1 2 1
2 1 3 1
3 1 4 1
4 1 5 1
@<TRIPOS>MOLECULE
CH4
5 4
SMALL
USER_CHARGES


@<TRIPOS>ATOM
1 C 90.072 48.765 61.134 C 0.0 **** 0.0
2 H 90.233 49.025 62.18 H 0.0 **** 0.0
3 H 90.349 47.723 60.972 H 0.0 **** 0.0
4 H 90.685 49.407 60.502 H 0.0 **** 0.0
5 H 89.02 48.905 60.883 H 0.0 **** 0.0
@<TRIPOS>BOND
1 1 2 1
2 1 3 1
3 1 4 1
4 1 5 1
@<TRIPOS>MOLECULE
CH4
5 4
SMALL
USER_CHARGES


@<TRIPOS>ATOM
1 C 12.111 30.236 4.988 C 0.0 **** 0.0
2 H 11.859 31.296 4.998 H 0.0 **** 0.0
3 H 13.09 30.099 4.528 H 0.0 **** 0.0
4 H 11.361 29.69 4.415 H 0.0 **** 0.0
5 H 12.133 29.858 6.01 H 0.0 **** 0.0
@<TRIPOS>BOND
1 1 2 1
2 1 3 1
3 1 4 1
4 1 5 1
@<TRIPOS>MOLECULE
CH4
5 4
SMALL
USER_CHARGES


@<TRIPOS>ATOM
1 C 86.995 18.55 20.8 C 0.0 **** 0.0
2 H 86.428 18.758 21.707 H 0.0 **** 0.0
3 H 86.325 18.565 19.94 H 0.0 **** 0.0
4 H 87.462 17.568 20.88 H 0.0 **** 0.0
5 H 87.767 19.31 20.673 H 0.0 **** 0.0
@<TRIPOS>BOND
1 1 2 1
2 1 3 1
3 1 4 1
4 1 5 1
@<TRIPOS>MOLECULE
CH4
5 4
SMALL
USER_CHARGES


@<TRIPOS>ATOM
1 C 37.813 64.764 97.49 C 0.0 **** 0.0
2 H 38.011 63.749 97.146 H 0.0 **** 0.0
3 H 38.652 65.408 97.226 H 0.0 **** 0.0
4 H 37.682 64.762 98.572 H 0.0 **** 0.0
5 H 36.905 65.137 97.016 H 0.0 **** 0.0
@<TRIPOS>BOND
1 1 2 1
2 1 3 1
3 1 4 1
4 1 5 1
@<TRIPOS>MOLECULE
CH4
5 4
SMALL
USER_CHARGES


@<TRIPOS>ATOM
1 C 93.119 86.992 39.885 C 0.0 **** 0.0
2 H 92.047 87.005 39.688 H 0.0 **** 0.0
3 H 93.572 86.142 39.374 H 0.0 **** 0.0
4 H 93.29 86.905 40.958 H 0.0 **** 0.0
5 H 93.566 87.916 39.519 H 0.0 **** 0.0
@<TRIPOS>BOND
1 1 2 1
2 1 3 1
3 1 4 1
4 1 5 1
@<TRIPOS>MOLECULE
CH4
5 4
SMALL
USER_CHARGES


@<TRIPOS>ATOM
1 C 28.779 44.105 14.645 C 0.0 **** 0.0
2 H 28.672 44.199 15.726 H 0.0 **** 0.0
3 H 27.959 44.628 14.152 H 0.0 **** 0.0
4 H 28.758 43.051 14.368 H 0.0 **** 0.0
5 H 29.728 44.543 14.336 H 0.0 **** 0.0
@<TRIPOS>BOND
1 1 2 1
2 1 3 1
3 1 4 1
4 1 5 1
@<TRIPOS>MOLECULE
CH4
5 4
SMALL
USER_CHARGES


@<TRIPOS>ATOM
1 C 68.966 28.419 13.217 C 0.0 **** 0.0
2 H 68.747 28.722 12.193 H 0.0 **** 0.0
3 H 69.28 27.375 13.227 H 0.0 **** 0.0
4 H 68.072 28.536 13.83 H 0.0 **** 0.0
5 H 69.765 29.043 13.617 H 0.0 **** 0.0
@<TRIPOS>BOND
1 1 2 1
2 1 3 1
3 1 4 1
4 1 5 1
@<TRIPOS>MOLECULE
CH4
5 4
SMALL
USER_CHARGES


@<TRIPOS>ATOM
1 C 43.209 30.282 82.06 C 0.0 **** 0.0
2 H 43.415 30.288 83.13 H 0.0 **** 0.0
3 H 42.158 30.046 81.894 H 0.0 **** 0.0
4 H 43.831 29.53 81.575 H 0.0 **** 0.0
5 H 43.432 31.263 81.642 H 0.0 **** 0.0
@<TRIPOS>BOND
1 1 2 1
2 1 3 1
3 1 4 1
4 1 5 1
@<TRIPOS>MOLECULE
CH4
5 4
SMALL
USER_CHARGES


@<TRIPOS>ATOM
1 C 65.692 35.46 18.422 C 0.0 **** 0.0
2 H 65.677 35.554 19.508 H 0.0 **** 0.0
3 H 66.499 36.07 18.016 H 0.0 **** 0.0
4 H 64.739 35.8 18.015 H 0.0 **** 0.0
5 H 65.852 34.417 18.15 H 0.0 **** 0.0
@<TRIPOS>BOND
1 1 2 1
2 1 3 1
3 1 4 1
4 1 5 1
@<TRIPOS>MOLECULE
CH4
5 4
SMALL
USER_CHARGES


@<TRIPOS>ATOM
1 C 14.655 11.982 5.63 C 0.0 **** 0.0
2 H 13.657 12.351 5.394 H 0.0 **** 0.0
3 H 15.232 12.776 6.105 H 0.0 **** 0.0
4 H 15.153 11.669 4.713 H 0.0 **** 0.0
5 H 14.577 11.133 6.31 H 0.0 **** 0.0
@<TRIPOS>BOND
1 1 2 1
2 1 3 1
3 1 4 1
4 1 5 1
@<TRIPOS>MOLECULE
CH4
5 4
SMALL
USER_CHARGES


@<TRIPOS>ATOM
1 C 72.489 40.38 69.201 C 0.0 **** 0.0
2 H 73.48 40.576 68.789 H 0.0 **** 0.0
3 H 72.079 39.478 68.747 H 0.0 **** 0.0
4 H 71.834 41.225 68.986 H 0.0 **** 0.0
5 H 72.565 40.244 70.279 H 0.0 **** 0.0
@<TRIPOS>BOND
1 1 2 1
2 1 3 1
3 1 4 1
4 1 5 1
@<TRIPOS>MOLECULE
CH4
5 4
SMALL
USER_CHARGES


@<TRIPOS>ATOM
1 C 79.558 24.038 77.817 C 0.0 **** 0.0
2 H 78.611 23.599 78.131 H 0.0 **** 0.0
3 H 79.365 24.883 77.155 H 0.0 **** 0.0
4 H 80.148 23.29 77.288 H 0.0 **** 0.0
5 H 80.107 24.381 78.693 H 0.0 **** 0.0
@<TRIPOS>BOND
1 1 2 1
2 1 3 1
3 1 4 1
4 1 5 1
@<TRIPOS>MOLECULE
CH4
5 4
SMALL
USER_CHARGES


@<TRIPOS>ATOM
1 C 93.658 85.831 11.992 C 0.0 **** 0.0
2 H 93.339 84.878 11.571 H 0.0 **** 0.0
3 H 94.515 86.207 11.431 H 0.0 **** 0.0
4 H 93.939 85.691 13.036 H 0.0 **** 0.0
5 H 92.84 86.548 11.929 H 0.0 **** 0.0
@<TRIPOS>BOND
1 1 2 1
2 1 3 1
3 1 4 1
4 1 5 1
@<TRIPOS>MOLECULE
CH4
5 4
SMALL
USER_CHARGES


@<TRIPOS>ATOM
1 C 88.331 61.746 63.996 C 0.0 **** 0.0
2 H 87.769 61.503 64.898 H 0.0 **** 0.0
3 H 88.397 62.829 63.891 H 0.0 **** 0.0
4 H 87.823 61.327 63.128 H 0.0 **** 0.0
5 H 89.334 61.326 64.069 H 0.0 **** 0.0
@<TRIPOS>BOND
1 1 2 1
2 1 3 1
3 1 4 1
4 1 5 1
@<TRIPOS>MOLECULE
CH4
5 4
SMALL
USER_CHARGES


@<TRIPOS>ATOM
1 C 82.488 31.391 32.441 C 0.0 **** 0.0
2 H 82.961 32.264 31.99 H 0.0 **** 0.0
3 H 81.703 31.716 33.124 H 0.0 **** 0.0
4 H 83.233 30.817 32.99 H 0.0 **** 0.0
5 H 82.054 30.769 31.658 H 0.0 **** 0.0
@<TRIPOS>BOND
1 1 2 1
2 1 3 1
3 1 4 1
4 1 5 1
@<TRIPOS>MOLECULE
CH4
5 4
SMALL
USER_CHARGES


@<TRIPOS>ATOM
1 C 30.173 64.442 79.978 C 0.0 **** 0.0
2 H 29.588 63.706 80.529 H 0.0 **** 0.0
3 H 30.352 65.311 80.61 H 0.0 **** 0.0
4 H 29.625 64.747 79.086 H 0.0 **** 0.0
5 H 31.127 64.002 79.685 H 0.0 **** 0.0
@<TRIPOS>BOND
1 1 2 1
2 1 3 1
3 1 4 1
4 1 5 1
@<TRIPOS>MOLECULE
CH4
5 4
SMALL
USER_CHARGES


@<TRIPOS>ATOM
1 C 55.232 2.849 29.978 C 0.0 **** 0.0
2 H 54.817 3.81 29.673 H 0.0 **** 0.0
3 H 54.427 2.198 30.32 H 0.0 **** 0.0
4 H 55.945 3.003 30.788 H 0.0 **** 0.0
5 H 55.739 2.387 29.131 H 0.0 **** 0.0
@<TRIPOS>BOND
1 1 2 1
2 1 3 1
3 1 4 1
4 1 5 1
@<TRIPOS>MOLECULE
CH4
5 4
SMALL
USER_CHARGES


@<TRIPOS>ATOM
1 C 27.68 81.957 54.032 C 0.0 **** 0.0
2 H 27.808 81.585 53.015 H 0.0 **** 0.0
3 H 26.991 81.307 54.572 H 0.0 **** 0.0
4 H 27.277 82.969 54.0 H 0.0 **** 0.0
5 H 28.644 81.966 54.539 H 0.0 **** 0.0
@<TRIPOS>BOND
1 1 2 1
2 1 3 1
3 1 4 1
4 1 5 1
@<TRIPOS>MOLECULE
CH4
5 4
SMALL
USER_CHARGES


@<TRIPOS>ATOM
1 C 28.824 88.897 74.297 C 0.0 **** 0.0
2 H 29.47 89.187 75.126 H 0.0 **** 0.0
3 H 29.359 89.031 73.356 H 0.0 **** 0.0
4 H 27.93 89.52 74.299 H 0.0 **** 0.0
5 H 28.54 87.851 74.408 H 0.0 **** 0.0
@<TRIPOS>BOND
1 1 2 1
2 1 3 1
3 1 4 1
4 1 5 1
@<TRIPOS>MOLECULE
CH4
5 4
SMALL
USER_CHARGES


@<TRIPOS>ATOM
1 C 55.213 77.48 64.066 C 0.0 **** 0.0
2 H 54.557 78.278 64.416 H 0.0 **** 0.0
3 H 55.848 77.147 64.887 H 0.0 **** 0.0
4 H 55.835 77.852 63.252 H 0.0 **** 0.0
5 H 54.61 76.645 63.711 H 0.0 **** 0.0
@<TRIPOS>BOND
1 1 2 1
2 1 3 1
3 1 4 1
4 1 5 1
@<TRIPOS>MOLECULE
CH4
5 4
SMALL
USER_CHARGES


@<TRIPOS>ATOM
1 C 39.148 62.48 62.723 C 0.0 **** 0.0
2 H 38.655 61.514 62.83 H 0.0 **** 0.0
3 H 40.197 62.385 63.004 H 0.0 **** 0.0
4 H 38.662 63.209 63.373 H 0.0 **** 0.0
5 H 39.077 62.812 61.688 H 0.0 **** 0.0
@<TRIPOS>BOND
1 1 2 1
2 1 3 1
3 1 4 1
4 1 5 1
@<TRIPOS>MOLECULE
CH4
5 4
SMALL
USER_CHARGES


@<TRIPOS>ATOM
1 C 97.508 62.918 89.002 C 0.0 **** 0.0
2 H 97.903 61.93 89.236 H 0.0 **** 0.0
3 H 97.386 63.014 87.923 H 0.0 **** 0.0
4 H 98.2 63.68 89.359 H 0.0 **** 0.0
5 H 96.542 63.047 89.49 H 0.0 **** 0.0
@<TRIPOS>BOND
1 1 4 1
2 1 5 1
3 1 3 1
4 1 2 1
@<TRIPOS>MOLECULE
CH4
5 4
SMALL
USER_CHARGES


@<TRIPOS>ATOM
1 C 31.253 36.126 59.092 C 0.0 **** 0.0
2 H 31.717 36.108 58.106 H 0.0 **** 0.0
3 H 30.927 35.121 59.359 H 0.0 **** 0.0
4 H 30.393 36.796 59.077 H 0.0 **** 0.0
5 H 31.977 36.481 59.827 H 0.0 **** 0.0
@<TRIPOS>BOND
1 1 2 1
2 1 3 1
3 1 4 1
4 1 5 1
@<TRIPOS>MOLECULE
CH4
5 4
SMALL
USER_CHARGES


@<TRIPOS>ATOM
1 C 80.88 16.83 49.872 C 0.0 **** 0.0
2 H 81.014 17.013 50.938 H 0.0 **** 0.0
3 H 81.248 15.833 49.626 H 0.0 **** 0.0
4 H 81.437 17.574 49.302 H 0.0 **** 0.0
5 H 79.821 16.898 49.621 H 0.0 **** 0.0
@<TRIPOS>BOND
1 1 2 1
2 1 3 1
3 1 4 1
4 1 5 1
@<TRIPOS>MOLECULE
CH4
5 4
SMALL
USER_CHARGES


@<TRIPOS>ATOM
1 C 27.606 62.495 55.758 C 0.0 **** 0.0
2 H 27.596 62.782 54.706 H 0.0 **** 0.0
3 H 28.174 61.572 55.877 H 0.0 **** 0.0
4 H 26.584 62.34 56.101 H 0.0 **** 0.0
5 H 28.071 63.287 56.346 H 0.0 **** 0.0
@<TRIPOS>BOND
1 1 2 1
2 1 3 1
3 1 4 1
4 1 5 1
@<TRIPOS>MOLECULE
CH4
5 4
SMALL
USER_CHARGES


@<TRIPOS>ATOM
1 C 94.416 10.379 18.725 C 0.0 **** 0.0
2 H 95.015 11.269 18.529 H 0.0 **** 0.0
3 H 93.949 10.465 19.706 H 0.0 **** 0.0
4 H 95.058 9.498 18.704 H 0.0 **** 0.0
5 H 93.644 10.286 17.962 H 0.0 **** 0.0
@<TRIPOS>BOND
1 1 2 1
2 1 3 1
3 1 4 1
4 1 5 1
@<TRIPOS>MOLECULE
CH4
5 4
SMALL
USER_CHARGES


@<TRIPOS>ATOM
1 C 27.505 1.795 3.843 C 0.0 **** 0.0
2 H 26.647 2.364 4.2 H 0.0 **** 0.0
3 H 28.139 1.525 4.688 H 0.0 **** 0.0
4 H 28.076 2.402 3.139 H 0.0 **** 0.0
5 H 27.159 0.89 3.344 H 0.0 **** 0.0
@<TRIPOS>BOND
1 1 2 1
2 1 3 1
3 1 4 1
4 1 5 1
@<TRIPOS>MOLECULE
CH4
5 4
SMALL
USER_CHARGES


@<TRIPOS>ATOM
1 C 70.969 8.428 88.459 C 0.0 **** 0.0
2 H 69.892 8.262 88.437 H 0.0 **** 0.0
3 H 71.406 8.092 87.518 H 0.0 **** 0.0
4 H 71.406 7.866 89.284 H 0.0 **** 0.0
5 H 71.17 9.49 88.595 H 0.0 **** 0.0
@<TRIPOS>BOND
1 1 2 1
2 1 3 1
3 1 4 1
4 1 5 1
@<TRIPOS>MOLECULE
CH4
5 4
SMALL
USER_CHARGES


@<TRIPOS>ATOM
1 C 3.489 26.384 25.722 C 0.0 **** 0.0
2 H 4.351 26.788 25.191 H 0.0 **** 0.0
3 H 2.767 27.182 25.902 H 0.0 **** 0.0
4 H 3.813 25.964 26.674 H 0.0 **** 0.0
5 H 3.024 25.604 25.119 H 0.0 **** 0.0
@<TRIPOS>BOND
1 1 2 1
2 1 3 1
3 1 4 1
4 1 5 1
@<TRIPOS>MOLECULE
CH4
5 4
SMALL
USER_CHARGES


@<TRIPOS>ATOM
1 C 28.065 83.613 50.054 C 0.0 **** 0.0
2 H 27.038 83.657 49.693 H 0.0 **** 0.0
3 H 28.356 84.59 50.442 H 0.0 **** 0.0
4 H 28.727 83.335 49.234 H 0.0 **** 0.0
5 H 28.139 82.87 50.848 H 0.0 **** 0.0
@<TRIPOS>BOND
1 1 2 1
2 1 3 1
3 1 4 1
4 1 5 1
@<TRIPOS>MOLECULE
CH4
5 4
SMALL
USER_CHARGES


@<TRIPOS>ATOM
1 C 60.417 51.472 14.266 C 0.0 **** 0.0
2 H 60.107 52.517 14.26 H 0.0 **** 0.0
3 H 59.737 50.895 14.894 H 0.0 **** 0.0
4 H 61.43 51.395 14.662 H 0.0 **** 0.0
5 H 60.393 51.08 13.25 H 0.0 **** 0.0
@<TRIPOS>BOND
1 1 2 1
2 1 3 1
3 1 4 1
4 1 5 1
@<TRIPOS>MOLECULE
CH4
5 4
SMALL
USER_CHARGES


@<TRIPOS>ATOM
1 C 63.602 20.781 74.777 C 0.0 **** 0.0
2 H 63.536 20.914 75.857 H 0.0 **** 0.0
3 H 64.303 19.976 74.553 H 0.0 **** 0.0
4 H 63.952 21.706 74.318 H 0.0 **** 0.0
5 H 62.619 20.528 74.381 H 0.0 **** 0.0
@<TRIPOS>BOND
1 1 2 1
2 1 3 1
3 1 4 1
4 1 5 1
@<TRIPOS>MOLECULE
CH4
5 4
SMALL
USER_CHARGES


@<TRIPOS>ATOM
1 C 65.052 52.592 87.685 C 0.0 **** 0.0
2 H 64.986 52.638 88.772 H 0.0 **** 0.0
3 H 64.165 52.099 87.288 H 0.0 **** 0.0
4 H 65.941 52.03 87.399 H 0.0 **** 0.0
5 H 65.117 53.603 87.283 H 0.0 **** 0.0
@<TRIPOS>BOND
1 1 2 1
2 1 3 1
3 1 4 1
4 1 5 1
@<TRIPOS>MOLECULE
CH4
5 4
SMALL
USER_CHARGES


@<TRIPOS>ATOM
1 C 42.603 33.789 97.253 C 0.0 **** 0.0
2 H 41.863 33.254 96.658 H 0.0 **** 0.0
3 H 43.499 33.953 96.655 H 0.0 **** 0.0
4 H 42.855 33.199 98.134 H 0.0 **** 0.0
5 H 42.192 34.75 97.564 H 0.0 **** 0.0
@<TRIPOS>BOND
1 1 2 1
2 1 3 1
3 1 4 1
4 1 5 1
@<TRIPOS>MOLECULE
CH4
5 4
SMALL
USER_CHARGES


@<TRIPOS>ATOM
1 C 33.778 80.797 45.315 C 0.0 **** 0.0
2 H 33.022 81.572 45.191 H 0.0 **** 0.0
3 H 33.385 79.845 44.957 H 0.0 **** 0.0
4 H 34.039 80.709 46.369 H 0.0 **** 0.0
5 H 34.667 81.061 44.742 H 0.0 **** 0.0
@<TRIPOS>BOND
1 1 2 1
2 1 3 1
3 1 4 1
4 1 5 1
@<TRIPOS>MOLECULE
CH4
5 4
SMALL
USER_CHARGES


@<TRIPOS>ATOM
1 C 35.737 24.766 49.677 C 0.0 **** 0.0
2 H 35.8 25.182 48.672 H 0.0 **** 0.0
3 H 34.743 24.95 50.085 H 0.0 **** 0.0
4 H 36.485 25.24 50.314 H 0.0 **** 0.0
5 H 35.921 23.692 49.638 H 0.0 **** 0.0
@<TRIPOS>BOND
1 1 2 1
2 1 3 1
3 1 4 1
4 1 5 1
@<TRIPOS>MOLECULE
CH4
5 4
SMALL
USER_CHARGES


@<TRIPOS>ATOM
1 C 73.156 7.499 3.201 C 0.0 **** 0.0
2 H 73.728 6.679 3.636 H 0.0 **** 0.0
3 H 72.426 7.098 2.497 H 0.0 **** 0.0
4 H 73.832 8.176 2.679 H 0.0 **** 0.0
5 H 72.639 8.041 3.993 H 0.0 **** 0.0
@<TRIPOS>BOND
1 1 2 1
2 1 3 1
3 1 4 1
4 1 5 1
@<TRIPOS>MOLECULE
CH4
5 4
SMALL
USER_CHARGES


@<TRIPOS>ATOM
1 C 89.239 32.715 14.798 C 0.0 **** 0.0
2 H 89.381 32.824 15.873 H 0.0 **** 0.0
3 H 88.284 32.226 14.605 H 0.0 **** 0.0
4 H 90.047 32.112 14.384 H 0.0 **** 0.0
5 H 89.245 33.7 14.33 H 0.0 **** 0.0
@<TRIPOS>BOND
1 1 2 1
2 1 3 1
3 1 4 1
4 1 5 1
@<TRIPOS>MOLECULE
CH4
5 4
SMALL
USER_CHARGES


@<TRIPOS>ATOM
1 C 19.641 25.861 56.917 C 0.0 **** 0.0
2 H 19.135 25.359 56.092 H 0.0 **** 0.0
3 H 18.942 26.532 57.417 H 0.0 **** 0.0
4 H 20.483 26.435 56.531 H 0.0 **** 0.0
5 H 20.002 25.117 57.628 H 0.0 **** 0.0
@<TRIPOS>BOND
1 1 2 1
2 1 3 1
3 1 4 1
4 1 5 1
@<TRIPOS>MOLECULE
CH4
5 4
SMALL
USER_CHARGES


@<TRIPOS>ATOM
1 C 71.4 4.437 56.516 C 0.0 **** 0.0
2 H 71.561 4.616 55.453 H 0.0 **** 0.0
3 H 70.92 3.468 56.652 H 0.0 **** 0.0
4 H 70.76 5.22 56.923 H 0.0 **** 0.0
5 H 72.359 4.444 57.035 H 0.0 **** 0.0
@<TRIPOS>BOND
1 1 2 1
2 1 3 1
3 1 4 1
4 1 5 1
@<TRIPOS>MOLECULE
CH4
5 4
SMALL
USER_CHARGES


@<TRIPOS>ATOM
1 C 77.689 24.716 18.193 C 0.0 **** 0.0
2 H 78.768 24.838 18.289 H 0.0 **** 0.0
3 H 77.472 24.051 17.356 H 0.0 **** 0.0
4 H 77.229 25.687 18.015 H 0.0 **** 0.0
5 H 77.289 24.286 19.111 H 0.0 **** 0.0
@<TRIPOS>BOND
1 1 2 1
2 1 3 1
3 1 4 1
4 1 5 1
@<TRIPOS>MOLECULE
CH4
5 4
SMALL
USER_CHARGES


@<TRIPOS>ATOM
1 C 88.407 33.013 51.247 C 0.0 **** 0.0
2 H 88.615 33.093 50.18 H 0.0 **** 0.0
3 H 87.832 33.88 51.571 H 0.0 **** 0.0
4 H 89.347 32.973 51.798 H 0.0 **** 0.0
5 H 87.835 32.105 51.438 H 0.0 **** 0.0
@<TRIPOS>BOND
1 1 2 1
2 1 3 1
3 1 4 1
4 1 5 1
@<TRIPOS>MOLECULE
CH4
5 4
SMALL
USER_CHARGES


@<TRIPOS>ATOM
1 C 34.113 69.072 76.552 C 0.0 **** 0.0
2 H 33.99 68.225 77.229 H 0.0 **** 0.0
3 H 33.718 69.972 77.023 H 0.0 **** 0.0
4 H 33.571 68.877 75.626 H 0.0 **** 0.0
5 H 35.171 69.21 76.333 H 0.0 **** 0.0
@<TRIPOS>BOND
1 1 2 1
2 1 3 1
3 1 4 1
4 1 5 1
@<TRIPOS>MOLECULE
CH4
5 4
SMALL
USER_CHARGES


@<TRIPOS>ATOM
1 C 60.373 37.814 39.366 C 0.0 **** 0.0
2 H 61.328 37.372 39.651 H 0.0 **** 0.0
3 H 59.635 37.616 40.143 H 0.0 **** 0.0
4 H 60.038 37.378 38.425 H 0.0 **** 0.0
5 H 60.494 38.891 39.245 H 0.0 **** 0.0
@<TRIPOS>BOND
1 1 2 1
2 1 3 1
3 1 4 1
4 1 5 1
@<TRIPOS>MOLECULE
CH4
5 4
SMALL
USER_CHARGES


@<TRIPOS>ATOM
1 C 21.807 27.396 79.154 C 0.0 **** 0.0
2 H 22.624 27.389 79.875 H 0.0 **** 0.0
3 H 21.558 28.427 78.898 H 0.0 **** 0.0
4 H 20.934 26.908 79.588 H 0.0 **** 0.0
5 H 22.112 26.862 78.254 H 0.0 **** 0.0
@<TRIPOS>BOND
1 1 2 1
2 1 3 1
3 1 4 1
4 1 5 1
@<TRIPOS>MOLECULE
CH4
5 4
SMALL
USER_CHARGES


@<TRIPOS>ATOM
1 C 58.412 81.403 11.262 C 0.0 **** 0.0
2 H 58.988 80.859 10.514 H 0.0 **** 0.0
3 H 57.385 81.037 11.267 H 0.0 **** 0.0
4 H 58.417 82.466 11.021 H 0.0 **** 0.0
5 H 58.857 81.251 12.245 H 0.0 **** 0.0
@<TRIPOS>BOND
1 1 2 1
2 1 3 1
3 1 4 1
4 1 5 1
@<TRIPOS>MOLECULE
CH4
5 4
SMALL
USER_CHARGES


@<TRIPOS>ATOM
1 C 28.341 56.634 80.398 C 0.0 **** 0.0
2 H 28.312 56.562 79.311 H 0.0 **** 0.0
3 H 27.388 56.3 80.81 H 0.0 **** 0.0
4 H 28.521 57.669 80.689 H 0.0 **** 0.0
5 H 29.144 56.004 80.782 H 0.0 **** 0.0
@<TRIPOS>BOND
1 1 5 1
2 1 2 1
3 1 3 1
4 1 4 1
@<TRIPOS>MOLECULE
CH4
5 4
SMALL
USER_CHARGES


@<TRIPOS>ATOM
1 C 87.567 56.502 64.582 C 0.0 **** 0.0
2 H 87.617 56.833 65.619 H 0.0 **** 0.0
3 H 88.338 57.009 64.001 H 0.0 **** 0.0
4 H 86.586 56.741 64.171 H 0.0 **** 0.0
5 H 87.727 55.425 64.536 H 0.0 **** 0.0
@<TRIPOS>BOND
1 1 2 1
2 1 3 1
3 1 4 1
4 1 5 1
@<TRIPOS>MOLECULE
CH4
5 4
SMALL
USER_CHARGES


@<TRIPOS>ATOM
1 C 20.053 51.728 47.441 C 0.0 **** 0.0
2 H 18.994 51.536 47.27 H 0.0 **** 0.0
3 H 20.172 52.325 48.345 H 0.0 **** 0.0
4 H 20.465 52.271 46.59 H 0.0 **** 0.0
5 H 20.579 50.781 47.558 H 0.0 **** 0.0
@<TRIPOS>BOND
1 1 2 1
2 1 3 1
3 1 4 1
4 1 5 1
@<TRIPOS>MOLECULE
CH4
5 4
SMALL
USER_CHARGES


@<TRIPOS>ATOM
1 C 68.402 11.736 15.312 C 0.0 **** 0.0
2 H 68.183 11.644 14.248 H 0.0 **** 0.0
3 H 67.606 11.265 15.888 H 0.0 **** 0.0
4 H 68.47 12.79 15.579 H 0.0 **** 0.0
5 H 69.35 11.243 15.531 H 0.0 **** 0.0
@<TRIPOS>BOND
1 1 2 1
2 1 3 1
3 1 4 1
4 1 5 1
@<TRIPOS>MOLECULE
CH4
5 4
SMALL
USER_CHARGES


@<TRIPOS>ATOM
1 C 66.273 96.106 42.94 C 0.0 **** 0.0
2 H 66.268 96.478 43.964 H 0.0 **** 0.0
3 H 65.46 95.392 42.809 H 0.0 **** 0.0
4 H 67.225 95.615 42.737 H 0.0 **** 0.0
5 H 66.14 96.94 42.25 H 0.0 **** 0.0
@<TRIPOS>BOND
1 1 2 1
2 1 3 1
3 1 4 1
4 1 5 1
@<TRIPOS>MOLECULE
CH4
5 4
SMALL
USER_CHARGES


@<TRIPOS>ATOM
1 C 73.067 63.296 2.333 C 0.0 **** 0.0
2 H 72.801 64.238 2.813 H 0.0 **** 0.0
3 H 74.123 63.313 2.06 H 0.0 **** 0.0
4 H 72.462 63.162 1.436 H 0.0 **** 0.0
5 H 72.882 62.472 3.022 H 0.0 **** 0.0
@<TRIPOS>BOND
1 1 2 1
2 1 3 1
3 1 4 1
4 1 5 1
@<TRIPOS>MOLECULE
CH4
5 4
SMALL
USER_CHARGES


@<TRIPOS>ATOM
1 C 64.394 37.4 38.16 C 0.0 **** 0.0
2 H 64.368 36.581 38.879 H 0.0 **** 0.0
3 H 64.923 38.248 38.594 H 0.0 **** 0.0
4 H 63.375 37.696 37.909 H 0.0 **** 0.0
5 H 64.91 37.073 37.257 H 0.0 **** 0.0
@<TRIPOS>BOND
1 1 2 1
2 1 3 1
3 1 4 1
4 1 5 1
@<TRIPOS>MOLECULE
CH4
5 4
SMALL
USER_CHARGES


@<TRIPOS>ATOM
1 C 85.077 14.545 90.691 C 0.0 **** 0.0
2 H 85.051 13.994 89.751 H 0.0 **** 0.0
3 H 85.65 15.463 90.557 H 0.0 **** 0.0
4 H 85.548 13.931 91.459 H 0.0 **** 0.0
5 H 84.06 14.792 90.995 H 0.0 **** 0.0
@<TRIPOS>BOND
1 1 2 1
2 1 3 1
3 1 4 1
4 1 5 1
@<TRIPOS>MOLECULE
CH4
5 4
SMALL
USER_CHARGES


@<TRIPOS>ATOM
1 C 33.412 37.72 55.129 C 0.0 **** 0.0
2 H 34.177 37.593 55.895 H 0.0 **** 0.0
3 H 33.398 38.759 54.798 H 0.0 **** 0.0
4 H 32.438 37.457 55.543 H 0.0 **** 0.0
5 H 33.634 37.071 54.282 H 0.0 **** 0.0
@<TRIPOS>BOND
1 1 2 1
2 1 3 1
3 1 4 1
4 1 5 1
@<TRIPOS>MOLECULE
CH4
5 4
SMALL
USER_CHARGES


@<TRIPOS>ATOM
1 C 73.671 4.943 12.816 C 0.0 **** 0.0
2 H 73.927 4.952 11.757 H 0.0 **** 0.0
3 H 74.038 4.022 13.27 H 0.0 **** 0.0
4 H 72.588 4.997 12.928 H 0.0 **** 0.0
5 H 74.131 5.8 13.308 H 0.0 **** 0.0
@<TRIPOS>BOND
1 1 2 1
2 1 3 1
3 1 4 1
4 1 5 1
@<TRIPOS>MOLECULE
CH4
5 4
SMALL
USER_CHARGES


@<TRIPOS>ATOM
1 C 49.312 14.613 83.704 C 0.0 **** 0.0
2 H 49.528 14.488 82.643 H 0.0 **** 0.0
3 H 48.622 13.834 84.029 H 0.0 **** 0.0
4 H 48.86 15.591 83.87 H 0.0 **** 0.0
5 H 50.238 14.54 84.274 H 0.0 **** 0.0
@<TRIPOS>BOND
1 1 2 1
2 1 3 1
3 1 4 1
4 1 5 1
@<TRIPOS>MOLECULE
CH4
5 4
SMALL
USER_CHARGES


@<TRIPOS>ATOM
1 C 51.279 16.824 33.313 C 0.0 **** 0.0
2 H 50.777 17.243 34.185 H 0.0 **** 0.0
3 H 52.228 17.336 33.159 H 0.0 **** 0.0
4 H 50.648 16.954 32.434 H 0.0 **** 0.0
5 H 51.461 15.761 33.475 H 0.0 **** 0.0
@<TRIPOS>BOND
1 1 2 1
2 1 3 1
3 1 4 1
4 1 5 1
@<TRIPOS>MOLECULE
CH4
5 4
SMALL
USER_CHARGES


@<TRIPOS>ATOM
1 C 13.502 67.667 90.241 C 0.0 **** 0.0
2 H 13.875 68.582 89.781 H 0.0 **** 0.0
3 H 12.422 67.609 90.109 H 0.0 **** 0.0
4 H 13.739 67.674 91.306 H 0.0 **** 0.0
5 H 13.974 66.805 89.77 H 0.0 **** 0.0
@<TRIPOS>BOND
1 1 2 1
2 1 3 1
3 1 4 1
4 1 5 1
@<TRIPOS>MOLECULE
CH4
5 4
SMALL
USER_CHARGES


@<TRIPOS>ATOM
1 C 61.79 54.995 62.021 C 0.0 **** 0.0
2 H 61.022 54.682 61.314 H 0.0 **** 0.0
3 H 61.588 56.015 62.348 H 0.0 **** 0.0
4 H 62.766 54.955 61.537 H 0.0 **** 0.0
5 H 61.784 54.328 62.883 H 0.0 **** 0.0
@<TRIPOS>BOND
1 1 2 1
2 1 3 1
3 1 4 1
4 1 5 1
@<TRIPOS>MOLECULE
CH4
5 4
SMALL
USER_CHARGES


@<TRIPOS>ATOM
1 C 45.547 60.445 8.15 C 0.0 **** 0.0
2 H 45.273 60.476 9.205 H 0.0 **** 0.0
3 H 46.504 59.936 8.038 H 0.0 **** 0.0
4 H 45.629 61.463 7.767 H 0.0 **** 0.0
5 H 44.78 59.908 7.591 H 0.0 **** 0.0
@<TRIPOS>BOND
1 1 2 1
2 1 3 1
3 1 4 1
4 1 5 1
@<TRIPOS>MOLECULE
CH4
5 4
SMALL
USER_CHARGES


@<TRIPOS>ATOM
1 C 58.188 40.774 26.271 C 0.0 **** 0.0
2 H 57.795 40.433 27.229 H 0.0 **** 0.0
3 H 58.11 39.971 25.539 H 0.0 **** 0.0
4 H 59.234 41.059 26.389 H 0.0 **** 0.0
5 H 57.614 41.635 25.929 H 0.0 **** 0.0
@<TRIPOS>BOND
1 1 2 1
2 1 3 1
3 1 4 1
4 1 5 1
@<TRIPOS>MOLECULE
CH4
5 4
SMALL
USER_CHARGES


@<TRIPOS>ATOM
1 C 87.372 44.018 10.961 C 0.0 **** 0.0
2 H 86.376 44.379 11.215 H 0.0 **** 0.0
3 H 87.292 43.22 10.222 H 0.0 **** 0.0
4 H 87.86 43.636 11.857 H 0.0 **** 0.0
5 H 87.961 44.837 10.548 H 0.0 **** 0.0
@<TRIPOS>BOND
1 1 2 1
2 1 3 1
3 1 4 1
4 1 5 1
@<TRIPOS>MOLECULE
CH4
5 4
SMALL
USER_CHARGES


@<TRIPOS>ATOM
1 C 77.365 10.026 39.621 C 0.0 **** 0.0
2 H 77.338 9.83 40.693 H 0.0 **** 0.0
3 H 77.876 10.972 39.438 H 0.0 **** 0.0
4 H 76.347 10.082 39.236 H 0.0 **** 0.0
5 H 77.9 9.22 39.119 H 0.0 **** 0.0
@<TRIPOS>BOND
1 1 4 1
2 1 5 1
3 1 2 1
4 1 3 1
@<TRIPOS>MOLECULE
CH4
5 4
SMALL
USER_CHARGES


@<TRIPOS>ATOM
1 C 16.108 33.626 35.75 C 0.0 **** 0.0
2 H 16.487 33.055 34.902 H 0.0 **** 0.0
3 H 15.435 34.405 35.391 H 0.0 **** 0.0
4 H 16.942 34.082 36.282 H 0.0 **** 0.0
5 H 15.567 32.96 36.423 H 0.0 **** 0.0
@<TRIPOS>BOND
1 1 2 1
2 1 3 1
3 1 4 1
4 1 5 1
@<TRIPOS>MOLECULE
CH4
5 4
SMALL
USER_CHARGES


@<TRIPOS>ATOM
1 C 72.196 13.63 9.162 C 0.0 **** 0.0
2 H 72.571 13.853 10.161 H 0.0 **** 0.0
3 H 72.705 14.261 8.433 H 0.0 **** 0.0
4 H 71.124 13.823 9.125 H 0.0 **** 0.0
5 H 72.384 12.582 8.929 H 0.0 **** 0.0
@<TRIPOS>BOND
1 1 2 1
2 1 3 1
3 1 4 1
4 1 5 1
@<TRIPOS>MOLECULE
CH4
5 4
SMALL
USER_CHARGES


@<TRIPOS>ATOM
1 C 75.768 57.453 52.846 C 0.0 **** 0.0
2 H 76.626 57.8 53.422 H 0.0 **** 0.0
3 H 75.306 58.299 52.338 H 0.0 **** 0.0
4 H 75.044 56.991 53.517 H 0.0 **** 0.0
5 H 76.098 56.722 52.109 H 0.0 **** 0.0
@<TRIPOS>BOND
1 1 2 1
2 1 3 1
3 1 4 1
4 1 5 1
@<TRIPOS>MOLECULE
CH4
5 4
SMALL
USER_CHARGES


@<TRIPOS>ATOM
1 C 50.35 13.02 23.718 C 0.0 **** 0.0
2 H 50.283 12.955 22.632 H 0.0 **** 0.0
3 H 49.443 12.608 24.163 H 0.0 **** 0.0
4 H 50.458 14.063 24.013 H 0.0 **** 0.0
5 H 51.214 12.453 24.063 H 0.0 **** 0.0
@<TRIPOS>BOND
1 1 2 1
2 1 3 1
3 1 4 1
4 1 5 1
@<TRIPOS>MOLECULE
CH4
5 4
SMALL
USER_CHARGES


@<TRIPOS>ATOM
1 C 98.089 68.488 52.269 C 0.0 **** 0.0
2 H 98.822 69.089 52.806 H 0.0 **** 0.0
3 H 98.265 68.573 51.197 H 0.0 **** 0.0
4 H 97.086 68.845 52.503 H 0.0 **** 0.0
5 H 98.183 67.445 52.571 H 0.0 **** 0.0
@<TRIPOS>BOND
1 1 2 1
2 1 3 1
3 1 4 1
4 1 5 1
@<TRIPOS>MOLECULE
CH4
5 4
SMALL
USER_CHARGES


@<TRIPOS>ATOM
1 C 67.475 20.212 62.314 C 0.0 **** 0.0
2 H 66.666 20.813 62.73 H 0.0 **** 0.0
3 H 68.351 20.284 62.96 H 0.0 **** 0.0
4 H 67.725 20.579 61.319 H 0.0 **** 0.0
5 H 67.157 19.171 62.248 H 0.0 **** 0.0
@<TRIPOS>BOND
1 1 2 1
2 1 3 1
3 1 4 1
4 1 5 1
@<TRIPOS>MOLECULE
CH4
5 4
SMALL
USER_CHARGES


@<TRIPOS>ATOM
1 C 81.472 21.605 68.765 C 0.0 **** 0.0
2 H 81.679 21.597 67.695 H 0.0 **** 0.0
3 H 81.138 20.616 69.078 H 0.0 **** 0.0
4 H 80.693 22.337 68.978 H 0.0 **** 0.0
5 H 82.379 21.872 69.307 H 0.0 **** 0.0
@<TRIPOS>BOND
1 1 2 1
2 1 3 1
3 1 4 1
4 1 5 1
@<TRIPOS>MOLECULE
CH4
5 4
SMALL
USER_CHARGES


@<TRIPOS>ATOM
1 C 49.641 80.934 67.919 C 0.0 **** 0.0
2 H 48.895 80.424 68.528 H 0.0 **** 0.0
3 H 49.248 81.899 67.598 H 0.0 **** 0.0
4 H 49.873 80.327 67.044 H 0.0 **** 0.0
5 H 50.546 81.087 68.507 H 0.0 **** 0.0
@<TRIPOS>BOND
1 1 2 1
2 1 3 1
3 1 4 1
4 1 5 1
@<TRIPOS>MOLECULE
CH4
5 4
SMALL
USER_CHARGES


@<TRIPOS>ATOM
1 C 39.558 7.851 79.36 C 0.0 **** 0.0
2 H 40.122 8.759 79.147 H 0.0 **** 0.0
3 H 39.561 7.207 78.481 H 0.0 **** 0.0
4 H 38.532 8.113 79.616 H 0.0 **** 0.0
5 H 40.019 7.326 80.197 H 0.0 **** 0.0
@<TRIPOS>BOND
1 1 2 1
2 1 3 1
3 1 4 1
4 1 5 1
@<TRIPOS>MOLECULE
CH4
5 4
SMALL
USER_CHARGES


@<TRIPOS>ATOM
1 C 52.244 45.582 44.635 C 0.0 **** 0.0
2 H 52.364 44.781 43.906 H 0.0 **** 0.0
3 H 51.215 45.595 44.995 H 0.0 **** 0.0
4 H 52.479 46.538 44.167 H 0.0 **** 0.0
5 H 52.92 45.413 45.474 H 0.0 **** 0.0
@<TRIPOS>BOND
1 1 2 1
2 1 3 1
3 1 4 1
4 1 5 1
@<TRIPOS>MOLECULE
CH4
5 4
SMALL
USER_CHARGES


@<TRIPOS>ATOM
1 C 60.67 36.794 27.149 C 0.0 **** 0.0
2 H 60.987 35.804 27.477 H 0.0 **** 0.0
3 H 60.216 37.326 27.985 H 0.0 **** 0.0
4 H 59.943 36.694 26.343 H 0.0 **** 0.0
5 H 61.536 37.352 26.791 H 0.0 **** 0.0
@<TRIPOS>BOND
1 1 2 1
2 1 3 1
3 1 4 1
4 1 5 1
@<TRIPOS>MOLECULE
CH4
5 4
SMALL
USER_CHARGES


@<TRIPOS>ATOM
1 C 34.011 69.988 28.634 C 0.0 **** 0.0
2 H 34.43 69.09 28.178 H 0.0 **** 0.0
3 H 34.493 70.165 29.595 H 0.0 **** 0.0
4 H 32.94 69.853 28.783 H 0.0 **** 0.0
5 H 34.182 70.841 27.978 H 0.0 **** 0.0
@<TRIPOS>BOND
1 1 2 1
2 1 3 1
3 1 4 1
4 1 5 1
@<TRIPOS>MOLECULE
CH4
5 4
SMALL
USER_CHARGES


@<TRIPOS>ATOM
1 C 32.245 23.331 40.589 C 0.0 **** 0.0
2 H 33.165 23.561 41.126 H 0.0 **** 0.0
3 H 31.5 24.099 40.799 H 0.0 **** 0.0
4 H 31.868 22.361 40.913 H 0.0 **** 0.0
5 H 32.446 23.304 39.518 H 0.0 **** 0.0
@<TRIPOS>BOND
1 1 2 1
2 1 3 1
3 1 4 1
4 1 5 1
@<TRIPOS>MOLECULE
CH4
5 4
SMALL
USER_CHARGES


@<TRIPOS>ATOM
1 C 5.163 66.839 2.408 C 0.0 **** 0.0
2 H 4.184 66.434 2.665 H 0.0 **** 0.0
3 H 5.347 66.693 1.343 H 0.0 **** 0.0
4 H 5.932 66.325 2.984 H 0.0 **** 0.0
5 H 5.187 67.904 2.638 H 0.0 **** 0.0
@<TRIPOS>BOND
1 1 2 1
2 1 3 1
3 1 4 1
4 1 5 1
@<TRIPOS>MOLECULE
CH4
5 4
SMALL
USER_CHARGES


@<TRIPOS>ATOM
1 C 6.209 77.809 14.801 C 0.0 **** 0.0
2 H 7.209 78.15 14.533 H 0.0 **** 0.0
3 H 5.467 78.445 14.317 H 0.0 **** 0.0
4 H 6.085 77.863 15.882 H 0.0 **** 0.0
5 H 6.076 76.779 14.471 H 0.0 **** 0.0
@<TRIPOS>BOND
1 1 2 1
2 1 3 1
3 1 4 1
4 1 5 1
@<TRIPOS>MOLECULE
CH4
5 4
SMALL
USER_CHARGES


@<TRIPOS>ATOM
1 C 71.183 89.668 16.494 C 0.0 **** 0.0
2 H 71.53 90.424 17.199 H 0.0 **** 0.0
3 H 70.093 89.683 16.453 H 0.0 **** 0.0
4 H 71.521 88.685 16.821 H 0.0 **** 0.0
5 H 71.587 89.881 15.505 H 0.0 **** 0.0
@<TRIPOS>BOND
1 1 2 1
2 1 3 1
3 1 4 1
4 1 5 1
@<TRIPOS>MOLECULE
CH4
5 4
SMALL
USER_CHARGES


@<TRIPOS>ATOM
1 C 69.76 27.406 73.138 C 0.0 **** 0.0
2 H 70.487 26.666 72.801 H 0.0 **** 0.0
3 H 68.812 27.243 72.625 H 0.0 **** 0.0
4 H 70.129 28.406 72.912 H 0.0 **** 0.0
5 H 69.613 27.307 74.213 H 0.0 **** 0.0
@<TRIPOS>BOND
1 1 3 1
2 1 4 1
3 1 5 1
4 1 2 1
@<TRIPOS>MOLECULE
CH4
5 4
SMALL
USER_CHARGES


@<TRIPOS>ATOM
1 C 29.207 50.929 16.904 C 0.0 **** 0.0
2 H 29.241 51.129 15.833 H 0.0 **** 0.0
3 H 30.216 50.737 17.269 H 0.0 **** 0.0
4 H 28.581 50.057 17.09 H 0.0 **** 0.0
5 H 28.791 51.793 17.421 H 0.0 **** 0.0
@<TRIPOS>BOND
1 1 2 1
2 1 3 1
3 1 4 1
4 1 5 1
@<TRIPOS>MOLECULE
CH4
5 4
SMALL
USER_CHARGES


@<TRIPOS>ATOM
1 C 54.942 98.376 95.96 C 0.0 **** 0.0
2 H 54.564 98.002 95.009 H 0.0 **** 0.0
3 H 54.173 98.977 96.446 H 0.0 **** 0.0
4 H 55.826 98.989 95.784 H 0.0 **** 0.0
5 H 55.205 97.535 96.602 H 0.0 **** 0.0
@<TRIPOS>BOND
1 1 2 1
2 1 3 1
3 1 4 1
4 1 5 1
@<TRIPOS>MOLECULE
CH4
5 4
SMALL
USER_CHARGES


@<TRIPOS>ATOM
1 C 84.282 71.2 82.737 C 0.0 **** 0.0
2 H 84.695 70.586 81.936 H 0.0 **** 0.0
3 H 85.096 71.659 83.298 H 0.0 **** 0.0
4 H 83.687 70.575 83.403 H 0.0 **** 0.0
5 H 83.65 71.978 82.309 H 0.0 **** 0.0
@<TRIPOS>BOND
1 1 2 1
2 1 3 1
3 1 4 1
4 1 5 1
@<TRIPOS>MOLECULE
CH4
5 4
SMALL
USER_CHARGES


@<TRIPOS>ATOM
1 C 55.874 74.45 51.479 C 0.0 **** 0.0
2 H 56.196 74.291 50.45 H 0.0 **** 0.0
3 H 54.79 74.564 51.506 H 0.0 **** 0.0
4 H 56.344 75.352 51.871 H 0.0 **** 0.0
5 H 56.165 73.594 52.088 H 0.0 **** 0.0
@<TRIPOS>BOND
1 1 2 1
2 1 3 1
3 1 4 1
4 1 5 1
@<TRIPOS>MOLECULE
CH4
5 4
SMALL
USER_CHARGES


@<TRIPOS>ATOM
1 C 81.791 37.449 79.273 C 0.0 **** 0.0
2 H 81.641 38.515 79.449 H 0.0 **** 0.0
3 H 81.036 37.088 78.575 H 0.0 **** 0.0
4 H 81.704 36.91 80.216 H 0.0 **** 0.0
5 H 82.783 37.287 78.852 H 0.0 **** 0.0
@<TRIPOS>BOND
1 1 2 1
2 1 3 1
3 1 4 1
4 1 5 1
@<TRIPOS>MOLECULE
CH4
5 4
SMALL
USER_CHARGES


@<TRIPOS>ATOM
1 C 57.778 82.457 48.32 C 0.0 **** 0.0
2 H 58.793 82.094 48.477 H 0.0 **** 0.0
3 H 57.07 81.77 48.786 H 0.0 **** 0.0
4 H 57.575 82.519 47.251 H 0.0 **** 0.0
5 H 57.673 83.446 48.768 H 0.0 **** 0.0
@<TRIPOS>BOND
1 1 2 1
2 1 3 1
3 1 4 1
4 1 5 1
@<TRIPOS>MOLECULE
CH4
5 4
SMALL
USER_CHARGES


@<TRIPOS>ATOM
1 C 77.544 8.642 8.289 C 0.0 **** 0.0
2 H 76.741 9.365 8.43 H 0.0 **** 0.0
3 H 78.507 9.14 8.407 H 0.0 **** 0.0
4 H 77.476 8.214 7.289 H 0.0 **** 0.0
5 H 77.452 7.848 9.031 H 0.0 **** 0.0
@<TRIPOS>BOND
1 1 2 1
2 1 3 1
3 1 4 1
4 1 5 1
@<TRIPOS>MOLECULE
CH4
5 4
SMALL
USER_CHARGES


@<TRIPOS>ATOM
1 C 59.244 44.974 37.704 C 0.0 **** 0.0
2 H 59.235 45.436 38.691 H 0.0 **** 0.0
3 H 58.454 45.409 37.092 H 0.0 **** 0.0
4 H 59.078 43.901 37.804 H 0.0 **** 0.0
5 H 60.21 45.15 37.23 H 0.0 **** 0.0
@<TRIPOS>BOND
1 1 2 1
2 1 3 1
3 1 4 1
4 1 5 1
@<TRIPOS>MOLECULE
CH4
5 4
SMALL
USER_CHARGES


@<TRIPOS>ATOM
1 C 77.375 74.841 16.232 C 0.0 **** 0.0
2 H 77.392 74.836 15.142 H 0.0 **** 0.0
3 H 76.471 74.343 16.583 H 0.0 **** 0.0
4 H 77.387 75.87 16.591 H 0.0 **** 0.0
5 H 78.251 74.313 16.611 H 0.0 **** 0.0
@<TRIPOS>BOND
1 1 2 1
2 1 3 1
3 1 4 1
4 1 5 1
@<TRIPOS>MOLECULE
CH4
5 4
SMALL
USER_CHARGES


@<TRIPOS>ATOM
1 C 5.203 65.286 22.821 C 0.0 **** 0.0
2 H 6.241 64.984 22.686 H 0.0 **** 0.0
3 H 5.152 66.368 22.94 H 0.0 **** 0.0
4 H 4.797 64.803 23.71 H 0.0 **** 0.0
5 H 4.622 64.988 21.948 H 0.0 **** 0.0
@<TRIPOS>BOND
1 1 2 1
2 1 3 1
3 1 4 1
4 1 5 1
@<TRIPOS>MOLECULE
CH4
5 4
SMALL
USER_CHARGES


@<TRIPOS>ATOM
1 C 66.406 9.898 11.429 C 0.0 **** 0.0
2 H 66.224 9.423 10.465 H 0.0 **** 0.0
3 H 66.763 9.152 12.139 H 0.0 **** 0.0
4 H 65.479 10.337 11.799 H 0.0 **** 0.0
5 H 67.157 10.679 11.313 H 0.0 **** 0.0
@<TRIPOS>BOND
1 1 2 1
2 1 3 1
3 1 4 1
4 1 5 1
@<TRIPOS>MOLECULE
CH4
5 4
SMALL
USER_CHARGES


@<TRIPOS>ATOM
1 C 46.209 55.519 23.145 C 0.0 **** 0.0
2 H 46.025 55.311 22.09 H 0.0 **** 0.0
3 H 46.519 56.557 23.261 H 0.0 **** 0.0
4 H 46.995 54.86 23.513 H 0.0 **** 0.0
5 H 45.295 55.346 23.713 H 0.0 **** 0.0
@<TRIPOS>BOND
1 1 2 1
2 1 3 1
3 1 4 1
4 1 5 1
@<TRIPOS>MOLECULE
CH4
5 4
SMALL
USER_CHARGES


@<TRIPOS>ATOM
1 C 3.241 27.143 29.173 C 0.0 **** 0.0
2 H 2.45 27.266 28.433 H 0.0 **** 0.0
3 H 3.996 27.917 29.03 H 0.0 **** 0.0
4 H 3.699 26.161 29.056 H 0.0 **** 0.0
5 H 2.817 27.229 30.174 H 0.0 **** 0.0
@<TRIPOS>BOND
1 1 2 1
2 1 3 1
3 1 4 1
4 1 5 1
@<TRIPOS>MOLECULE
CH4
5 4
SMALL
USER_CHARGES


@<TRIPOS>ATOM
1 C 24.762 30.294 89.4 C 0.0 **** 0.0
2 H 24.484 29.448 88.772 H 0.0 **** 0.0
3 H 23.899 30.948 89.53 H 0.0 **** 0.0
4 H 25.57 30.85 88.925 H 0.0 **** 0.0
5 H 25.093 29.931 90.373 H 0.0 **** 0.0
@<TRIPOS>BOND
1 1 2 1
2 1 3 1
3 1 4 1
4 1 5 1
@<TRIPOS>MOLECULE
CH4
5 4
SMALL
USER_CHARGES


@<TRIPOS>ATOM
1 C 97.629 65.335 10.69 C 0.0 **** 0.0
2 H 97.349 65.756 11.655 H 0.0 **** 0.0
3 H 97.699 66.135 9.952 H 0.0 **** 0.0
4 H 96.875 64.615 10.374 H 0.0 **** 0.0
5 H 98.594 64.836 10.778 H 0.0 **** 0.0
@<TRIPOS>BOND
1 1 2 1
2 1 3 1
3 1 4 1
4 1 5 1
@<TRIPOS>MOLECULE
CH4
5 4
SMALL
USER_CHARGES


@<TRIPOS>ATOM
1 C 24.915 49.429 43.662 C 0.0 **** 0.0
2 H 25.148 48.482 43.174 H 0.0 **** 0.0
3 H 24.943 50.233 42.926 H 0.0 **** 0.0
4 H 25.649 49.624 44.443 H 0.0 **** 0.0
5 H 23.92 49.374 44.103 H 0.0 **** 0.0
@<TRIPOS>BOND
1 1 2 1
2 1 3 1
3 1 4 1
4 1 5 1
@<TRIPOS>MOLECULE
CH4
5 4
SMALL
USER_CHARGES


@<TRIPOS>ATOM
1 C 15.821 29.227 82.465 C 0.0 **** 0.0
2 H 16.818 29.163 82.03 H 0.0 **** 0.0
3 H 15.108 29.522 81.696 H 0.0 **** 0.0
4 H 15.821 29.968 83.265 H 0.0 **** 0.0
5 H 15.538 28.255 82.87 H 0.0 **** 0.0
@<TRIPOS>BOND
1 1 2 1
2 1 3 1
3 1 4 1
4 1 5 1
@<TRIPOS>MOLECULE
CH4
5 4
SMALL
USER_CHARGES


@<TRIPOS>ATOM
1 C 87.979 41.308 53.742 C 0.0 **** 0.0
2 H 88.084 41.11 54.809 H 0.0 **** 0.0
3 H 88.21 42.354 53.542 H 0.0 **** 0.0
4 H 86.955 41.096 53.433 H 0.0 **** 0.0
5 H 88.666 40.67 53.186 H 0.0 **** 0.0
@<TRIPOS>BOND
1 1 2 1
2 1 3 1
3 1 4 1
4 1 5 1
@<TRIPOS>MOLECULE
CH4
5 4
SMALL
USER_CHARGES


@<TRIPOS>ATOM
1 C 44.149 1.811 14.71 C 0.0 **** 0.0
2 H 44.489 2.091 15.707 H 0.0 **** 0.0
3 H 44.493 2.551 13.987 H 0.0 **** 0.0
4 H 43.06 1.767 14.697 H 0.0 **** 0.0
5 H 44.555 0.833 14.45 H 0.0 **** 0.0
@<TRIPOS>BOND
1 1 2 1
2 1 3 1
3 1 4 1
4 1 5 1
@<TRIPOS>MOLECULE
CH4
5 4
SMALL
USER_CHARGES


@<TRIPOS>ATOM
1 C 88.622 89.822 1.03 C 0.0 **** 0.0
2 H 89.606 89.354 1.036 H 0.0 **** 0.0
3 H 88.324 90.028 0.001 H 0.0 **** 0.0
4 H 88.66 90.756 1.591 H 0.0 **** 0.0
5 H 87.897 89.151 1.491 H 0.0 **** 0.0
@<TRIPOS>BOND
1 1 2 1
2 1 3 1
3 1 4 1
4 1 5 1
@<TRIPOS>MOLECULE
CH4
5 4
SMALL
USER_CHARGES


@<TRIPOS>ATOM
1 C 27.434 3.518 7.577 C 0.0 **** 0.0
2 H 27.482 2.729 6.826 H 0.0 **** 0.0
3 H 28.443 3.857 7.811 H 0.0 **** 0.0
4 H 26.962 3.131 8.48 H 0.0 **** 0.0
5 H 26.85 4.352 7.191 H 0.0 **** 0.0
@<TRIPOS>BOND
1 1 2 1
2 1 4 1
3 1 5 1
4 1 3 1
@<TRIPOS>MOLECULE
CH4
5 4
SMALL
USER_CHARGES


@<TRIPOS>ATOM
1 C 4.11 39.997 46.622 C 0.0 **** 0.0
2 H 4.211 39.027 47.108 H 0.0 **** 0.0
3 H 4.169 39.869 45.541 H 0.0 **** 0.0
4 H 4.912 40.655 46.955 H 0.0 **** 0.0
5 H 3.147 40.436 46.884 H 0.0 **** 0.0
@<TRIPOS>BOND
1 1 2 1
2 1 3 1
3 1 4 1
4 1 5 1
@<TRIPOS>MOLECULE
CH4
5 4
SMALL
USER_CHARGES


@<TRIPOS>ATOM
1 C 72.534 41.509 0.906 C 0.0 **** 0.0
2 H 72.6 40.907 -0.0 H 0.0 **** 0.0
3 H 73.492 41.998 1.088 H 0.0 **** 0.0
4 H 72.288 40.867 1.752 H 0.0 **** 0.0
5 H 71.758 42.264 0.785 H 0.0 **** 0.0
@<TRIPOS>BOND
1 1 2 1
2 1 3 1
3 1 4 1
4 1 5 1
@<TRIPOS>MOLECULE
CH4
5 4
SMALL
USER_CHARGES


@<TRIPOS>ATOM
1 C 37.931 76.417 73.679 C 0.0 **** 0.0
2 H 37.775 76.263 72.611 H 0.0 **** 0.0
3 H 38.975 76.219 73.925 H 0.0 **** 0.0
4 H 37.29 75.738 74.241 H 0.0 **** 0.0
5 H 37.685 77.446 73.937 H 0.0 **** 0.0
@<TRIPOS>BOND
1 1 2 1
2 1 3 1
3 1 4 1
4 1 5 1
@<TRIPOS>MOLECULE
CH4
5 4
SMALL
USER_CHARGES


@<TRIPOS>ATOM
1 C 8.059 82.198 24.261 C 0.0 **** 0.0
2 H 9.12 82.125 24.023 H 0.0 **** 0.0
3 H 7.923 82.873 25.106 H 0.0 **** 0.0
4 H 7.677 81.211 24.519 H 0.0 **** 0.0
5 H 7.519 82.583 23.397 H 0.0 **** 0.0
@<TRIPOS>BOND
1 1 2 1
2 1 3 1
3 1 4 1
4 1 5 1
@<TRIPOS>MOLECULE
CH4
5 4
SMALL
USER_CHARGES


@<TRIPOS>ATOM
1 C 71.093 87.423 51.093 C 0.0 **** 0.0
2 H 71.309 86.793 50.23 H 0.0 **** 0.0
3 H 70.033 87.35 51.34 H 0.0 **** 0.0
4 H 71.342 88.458 50.859 H 0.0 **** 0.0
5 H 71.688 87.09 51.944 H 0.0 **** 0.0
@<TRIPOS>BOND
1 1 2 1
2 1 3 1
3 1 4 1
4 1 5 1
@<TRIPOS>MOLECULE
CH4
5 4
SMALL
USER_CHARGES


@<TRIPOS>ATOM
1 C 51.144 50.805 18.948 C 0.0 **** 0.0
2 H 51.811 50.558 19.774 H 0.0 **** 0.0
3 H 51.677 50.69 18.004 H 0.0 **** 0.0
4 H 50.806 51.836 19.051 H 0.0 **** 0.0
5 H 50.283 50.137 18.964 H 0.0 **** 0.0
@<TRIPOS>BOND
1 1 2 1
2 1 3 1
3 1 4 1
4 1 5 1
@<TRIPOS>MOLECULE
CH4
5 4
SMALL
USER_CHARGES


@<TRIPOS>ATOM
1 C 59.502 11.319 45.228 C 0.0 **** 0.0
2 H 59.656 11.463 44.159 H 0.0 **** 0.0
3 H 59.193 12.261 45.681 H 0.0 **** 0.0
4 H 60.432 10.982 45.687 H 0.0 **** 0.0
5 H 58.727 10.568 45.385 H 0.0 **** 0.0
@<TRIPOS>BOND
1 1 2 1
2 1 3 1
3 1 4 1
4 1 5 1
@<TRIPOS>MOLECULE
CH4
5 4
SMALL
USER_CHARGES


@<TRIPOS>ATOM
1 C 39.386 52.035 18.74 C 0.0 **** 0.0
2 H 39.397 51.876 19.819 H 0.0 **** 0.0
3 H 38.407 51.763 18.344 H 0.0 **** 0.0
4 H 40.152 51.416 18.274 H 0.0 **** 0.0
5 H 39.586 53.085 18.526 H 0.0 **** 0.0
@<TRIPOS>BOND
1 1 2 1
2 1 3 1
3 1 4 1
4 1 5 1
@<TRIPOS>MOLECULE
CH4
5 4
SMALL
USER_CHARGES


@<TRIPOS>ATOM
1 C 93.819 20.374 92.637 C 0.0 **** 0.0
2 H 93.333 20.615 93.582 H 0.0 **** 0.0
3 H 94.153 19.336 92.655 H 0.0 **** 0.0
4 H 94.678 21.03 92.492 H 0.0 **** 0.0
5 H 93.112 20.515 91.819 H 0.0 **** 0.0
@<TRIPOS>BOND
1 1 2 1
2 1 3 1
3 1 4 1
4 1 5 1
@<TRIPOS>MOLECULE
CH4
5 4
SMALL
USER_CHARGES


@<TRIPOS>ATOM
1 C 81.304 48.261 5.107 C 0.0 **** 0.0
2 H 82.154 47.717 5.519 H 0.0 **** 0.0
3 H 80.576 47.552 4.714 H 0.0 **** 0.0
4 H 81.646 48.915 4.305 H 0.0 **** 0.0
5 H 80.842 48.859 5.892 H 0.0 **** 0.0
@<TRIPOS>BOND
1 1 2 1
2 1 3 1
3 1 4 1
4 1 5 1
@<TRIPOS>MOLECULE
CH4
5 4
SMALL
USER_CHARGES


@<TRIPOS>ATOM
1 C 85.479 31.338 50.171 C 0.0 **** 0.0
2 H 85.885 30.768 51.007 H 0.0 **** 0.0
3 H 84.523 31.774 50.461 H 0.0 **** 0.0
4 H 85.333 30.677 49.317 H 0.0 **** 0.0
5 H 86.175 32.132 49.901 H 0.0 **** 0.0
@<TRIPOS>BOND
1 1 2 1
2 1 3 1
3 1 4 1
4 1 5 1
@<TRIPOS>MOLECULE
CH4
5 4
SMALL
USER_CHARGES


@<TRIPOS>ATOM
1 C 60.923 48.412 39.156 C 0.0 **** 0.0
2 H 60.379 49.06 38.468 H 0.0 **** 0.0
3 H 61.3 47.544 38.615 H 0.0 **** 0.0
4 H 60.254 48.084 39.951 H 0.0 **** 0.0
5 H 61.759 48.962 39.588 H 0.0 **** 0.0
@<TRIPOS>BOND
1 1 2 1
2 1 3 1
3 1 4 1
4 1 5 1
@<TRIPOS>MOLECULE
CH4
5 4
SMALL
USER_CHARGES


@<TRIPOS>ATOM
1 C 43.362 58.993 86.21 C 0.0 **** 0.0
2 H 42.502 59.198 86.848 H 0.0 **** 0.0
3 H 43.298 57.973 85.83 H 0.0 **** 0.0
4 H 44.279 59.108 86.789 H 0.0 **** 0.0
5 H 43.369 59.693 85.375 H 0.0 **** 0.0
@<TRIPOS>BOND
1 1 2 1
2 1 3 1
3 1 4 1
4 1 5 1
@<TRIPOS>MOLECULE
CH4
5 4
SMALL
USER_CHARGES


@<TRIPOS>ATOM
1 C 0.902 19.455 7.556 C 0.0 **** 0.0
2 H 0.796 19.999 6.617 H 0.0 **** 0.0
3 H 1.777 19.824 8.092 H 0.0 **** 0.0
4 H 1.025 18.393 7.347 H 0.0 **** 0.0
5 H 0.011 19.605 8.165 H 0.0 **** 0.0
@<TRIPOS>BOND
1 1 2 1
2 1 3 1
3 1 4 1
4 1 5 1
@<TRIPOS>MOLECULE
CH4
5 4
SMALL
USER_CHARGES


@<TRIPOS>ATOM
1 C 78.077 91.778 70.658 C 0.0 **** 0.0
2 H 77.781 91.161 69.81 H 0.0 **** 0.0
3 H 78.92 91.312 71.169 H 0.0 **** 0.0
4 H 77.239 91.872 71.349 H 0.0 **** 0.0
5 H 78.368 92.767 70.304 H 0.0 **** 0.0
@<TRIPOS>BOND
1 1 2 1
2 1 3 1
3 1 4 1
4 1 5 1
@<TRIPOS>MOLECULE
CH4
5 4
SMALL
USER_CHARGES


@<TRIPOS>ATOM
1 C 94.764 45.588 18.391 C 0.0 **** 0.0
2 H 94.26 46.541 18.553 H 0.0 **** 0.0
3 H 95.814 45.768 18.16 H 0.0 **** 0.0
4 H 94.293 45.065 17.559 H 0.0 **** 0.0
5 H 94.689 44.98 19.292 H 0.0 **** 0.0
@<TRIPOS>BOND
1 1 2 1
2 1 3 1
3 1 4 1
4 1 5 1
@<TRIPOS>MOLECULE
CH4
5 4
SMALL
USER_CHARGES


@<TRIPOS>ATOM
1 C 63.893 55.336 44.644 C 0.0 **** 0.0
2 H 63.183 55.692 45.39 H 0.0 **** 0.0
3 H 64.117 56.142 43.944 H 0.0 **** 0.0
4 H 63.461 54.494 44.103 H 0.0 **** 0.0
5 H 64.811 55.018 45.138 H 0.0 **** 0.0
@<TRIPOS>BOND
1 1 2 1
2 1 3 1
3 1 4 1
4 1 5 1
@<TRIPOS>MOLECULE
CH4
5 4
SMALL
USER_CHARGES


@<TRIPOS>ATOM
1 C 26.306 67.549 78.165 C 0.0 **** 0.0
2 H 27.013 68.186 77.633 H 0.0 **** 0.0
3 H 25.312 67.996 78.124 H 0.0 **** 0.0
4 H 26.618 67.449 79.204 H 0.0 **** 0.0
5 H 26.281 66.565 77.697 H 0.0 **** 0.0
@<TRIPOS>BOND
1 1 2 1
2 1 3 1
3 1 4 1
4 1 5 1
@<TRIPOS>MOLECULE
CH4
5 4
SMALL
USER_CHARGES


@<TRIPOS>ATOM
1 C 88.137 39.128 81.127 C 0.0 **** 0.0
2 H 87.48 39.06 81.993 H 0.0 **** 0.0
3 H 87.539 39.28 80.228 H 0.0 **** 0.0
4 H 88.71 38.206 81.031 H 0.0 **** 0.0
5 H 88.82 39.968 81.255 H 0.0 **** 0.0
@<TRIPOS>BOND
1 1 2 1
2 1 3 1
3 1 4 1
4 1 5 1
@<TRIPOS>MOLECULE
CH4
5 4
SMALL
USER_CHARGES


@<TRIPOS>ATOM
1 C 2.416 98.381 82.268 C 0.0 **** 0.0
2 H 2.412 98.437 81.179 H 0.0 **** 0.0
3 H 2.271 97.346 82.578 H 0.0 **** 0.0
4 H 1.61 98.997 82.666 H 0.0 **** 0.0
5 H 3.371 98.744 82.647 H 0.0 **** 0.0
@<TRIPOS>BOND
1 1 2 1
2 1 3 1
3 1 4 1
4 1 5 1
@<TRIPOS>MOLECULE
CH4
5 4
SMALL
USER_CHARGES


@<TRIPOS>ATOM
1 C 34.967 94.343 7.833 C 0.0 **** 0.0
2 H 36.048 94.362 7.701 H 0.0 **** 0.0
3 H 34.503 95.046 7.141 H 0.0 **** 0.0
4 H 34.721 94.626 8.857 H 0.0 **** 0.0
5 H 34.594 93.338 7.635 H 0.0 **** 0.0
@<TRIPOS>BOND
1 1 2 1
2 1 3 1
3 1 4 1
4 1 5 1
@<TRIPOS>MOLECULE
CH4
5 4
SMALL
USER_CHARGES


@<TRIPOS>ATOM
1 C 54.977 79.524 93.893 C 0.0 **** 0.0
2 H 54.065 79.045 94.248 H 0.0 **** 0.0
3 H 55.842 79.027 94.333 H 0.0 **** 0.0
4 H 54.973 80.574 94.185 H 0.0 **** 0.0
5 H 55.028 79.448 92.807 H 0.0 **** 0.0
@<TRIPOS>BOND
1 1 2 1
2 1 3 1
3 1 4 1
4 1 5 1
@<TRIPOS>MOLECULE
CH4
5 4
SMALL
USER_CHARGES


@<TRIPOS>ATOM
1 C 71.984 32.627 62.598 C 0.0 **** 0.0
2 H 72.693 32.359 63.381 H 0.0 **** 0.0
3 H 71.371 31.76 62.351 H 0.0 **** 0.0
4 H 72.528 32.952 61.711 H 0.0 **** 0.0
5 H 71.345 33.437 62.949 H 0.0 **** 0.0
@<TRIPOS>BOND
1 1 2 1
2 1 3 1
3 1 4 1
4 1 5 1
@<TRIPOS>MOLECULE
CH4
5 4
SMALL
USER_CHARGES


@<TRIPOS>ATOM
1 C 8.483 78.028 71.878 C 0.0 **** 0.0
2 H 9.57 78.08 71.815 H 0.0 **** 0.0
3 H 8.168 78.25 72.899 H 0.0 **** 0.0
4 H 8.15 77.027 71.604 H 0.0 **** 0.0
5 H 8.044 78.757 71.196 H 0.0 **** 0.0
@<TRIPOS>BOND
1 1 2 1
2 1 3 1
3 1 4 1
4 1 5 1
@<TRIPOS>MOLECULE
CH4
5 4
SMALL
USER_CHARGES


@<TRIPOS>ATOM
1 C 84.972 49.546 82.621 C 0.0 **** 0.0
2 H 84.657 50.515 83.01 H 0.0 **** 0.0
3 H 84.137 48.847 82.668 H 0.0 **** 0.0
4 H 85.799 49.166 83.221 H 0.0 **** 0.0
5 H 85.295 49.658 81.586 H 0.0 **** 0.0
@<TRIPOS>BOND
1 1 2 1
2 1 3 1
3 1 4 1
4 1 5 1
@<TRIPOS>MOLECULE
CH4
5 4
SMALL
USER_CHARGES


@<TRIPOS>ATOM
1 C 47.685 40.998 45.714 C 0.0 **** 0.0
2 H 47.696 41.434 46.713 H 0.0 **** 0.0
3 H 46.671 40.685 45.465 H 0.0 **** 0.0
4 H 48.349 40.134 45.688 H 0.0 **** 0.0
5 H 48.025 41.739 44.991 H 0.0 **** 0.0
@<TRIPOS>BOND
1 1 3 1
2 1 2 1
3 1 4 1
4 1 5 1
@<TRIPOS>MOLECULE
CH4
5 4
SMALL
USER_CHARGES


@<TRIPOS>ATOM
1 C 43.013 12.531 73.491 C 0.0 **** 0.0
2 H 43.014 12.665 74.573 H 0.0 **** 0.0
3 H 42.334 13.253 73.036 H 0.0 **** 0.0
4 H 42.683 11.521 73.25 H 0.0 **** 0.0
5 H 44.021 12.686 73.105 H 0.0 **** 0.0
@<TRIPOS>BOND
1 1 2 1
2 1 3 1
3 1 4 1
4 1 5 1
@<TRIPOS>MOLECULE
CH4
5 4
SMALL
USER_CHARGES


@<TRIPOS>ATOM
1 C 27.172 63.223 51.025 C 0.0 **** 0.0
2 H 26.703 62.776 51.901 H 0.0 **** 0.0
3 H 26.866 62.678 50.132 H 0.0 **** 0.0
4 H 28.256 63.174 51.128 H 0.0 **** 0.0
5 H 26.862 64.265 50.939 H 0.0 **** 0.0
@<TRIPOS>BOND
1 1 2 1
2 1 3 1
3 1 4 1
4 1 5 1
@<TRIPOS>MOLECULE
CH4
5 4
SMALL
USER_CHARGES


@<TRIPOS>ATOM
1 C 82.527 85.798 56.352 C 0.0 **** 0.0
2 H 82.167 86.751 56.741 H 0.0 **** 0.0
3 H 82.004 84.982 56.852 H 0.0 **** 0.0
4 H 83.597 85.712 56.536 H 0.0 **** 0.0
5 H 82.337 85.749 55.28 H 0.0 **** 0.0
@<TRIPOS>BOND
1 1 5 1
2 1 2 1
3 1 3 1
4 1 4 1
@<TRIPOS>MOLECULE
CH4
5 4
SMALL
USER_CHARGES


@<TRIPOS>ATOM
1 C 44.855 38.992 26.649 C 0.0 **** 0.0
2 H 44.71 38.425 25.729 H 0.0 **** 0.0
3 H 43.935 39.523 26.897 H 0.0 **** 0.0
4 H 45.663 39.71 26.509 H 0.0 **** 0.0
5 H 45.111 38.31 27.459 H 0.0 **** 0.0
@<TRIPOS>BOND
1 1 2 1
2 1 3 1
3 1 4 1
4 1 5 1
@<TRIPOS>MOLECULE
CH4
5 4
SMALL
USER_CHARGES


@<TRIPOS>ATOM
1 C 27.62 78.885 16.121 C 0.0 **** 0.0
2 H 27.815 78.833 15.05 H 0.0 **** 0.0
3 H 27.248 79.878 16.374 H 0.0 **** 0.0
4 H 28.542 78.691 16.668 H 0.0 **** 0.0
5 H 26.873 78.138 16.39 H 0.0 **** 0.0
@<TRIPOS>BOND
1 1 2 1
2 1 3 1
3 1 4 1
4 1 5 1
@<TRIPOS>MOLECULE
CH4
5 4
SMALL
USER_CHARGES


@<TRIPOS>ATOM
1 C 89.78 20.868 91.579 C 0.0 **** 0.0
2 H 90.815 21.175 91.434 H 0.0 **** 0.0
3 H 89.421 21.24 92.539 H 0.0 **** 0.0
4 H 89.718 19.78 91.564 H 0.0 **** 0.0
5 H 89.165 21.278 90.777 H 0.0 **** 0.0
@<TRIPOS>BOND
1 1 2 1
2 1 3 1
3 1 4 1
4 1 5 1
@<TRIPOS>MOLECULE
CH4
5 4
SMALL
USER_CHARGES


@<TRIPOS>ATOM
1 C 84.643 32.062 7.893 C 0.0 **** 0.0
2 H 84.066 32.66 7.188 H 0.0 **** 0.0
3 H 84.363 31.013 7.794 H 0.0 **** 0.0
4 H 84.437 32.399 8.909 H 0.0 **** 0.0
5 H 85.706 32.176 7.681 H 0.0 **** 0.0
@<TRIPOS>BOND
1 1 2 1
2 1 3 1
3 1 4 1
4 1 5 1
@<TRIPOS>MOLECULE
CH4
5 4
SMALL
USER_CHARGES


@<TRIPOS>ATOM
1 C 45.125 15.492 87.11 C 0.0 **** 0.0
2 H 45.096 16.444 86.578 H 0.0 **** 0.0
3 H 44.11 15.112 87.229 H 0.0 **** 0.0
4 H 45.576 15.638 88.091 H 0.0 **** 0.0
5 H 45.717 14.776 86.54 H 0.0 **** 0.0
@<TRIPOS>BOND
1 1 2 1
2 1 3 1
3 1 4 1
4 1 5 1
@<TRIPOS>MOLECULE
CH4
5 4
SMALL
USER_CHARGES


@<TRIPOS>ATOM
1 C 72.217 37.709 30.572 C 0.0 **** 0.0
2 H 73.153 37.922 30.055 H 0.0 **** 0.0
3 H 72.419 37.526 31.628 H 0.0 **** 0.0
4 H 71.752 36.826 30.132 H 0.0 **** 0.0
5 H 71.545 38.561 30.473 H 0.0 **** 0.0
@<TRIPOS>BOND
1 1 2 1
2 1 3 1
3 1 4 1
4 1 5 1
@<TRIPOS>MOLECULE
CH4
5 4
SMALL
USER_CHARGES


@<TRIPOS>ATOM
1 C 42.273 62.958 32.923 C 0.0 **** 0.0
2 H 43.323 62.742 32.729 H 0.0 **** 0.0
3 H 41.793 62.076 33.347 H 0.0 **** 0.0
4 H 41.779 63.227 31.989 H 0.0 **** 0.0
5 H 42.197 63.788 33.626 H 0.0 **** 0.0
@<TRIPOS>BOND
1 1 2 1
2 1 3 1
3 1 4 1
4 1 5 1
@<TRIPOS>MOLECULE
CH4
5 4
SMALL
USER_CHARGES


@<TRIPOS>ATOM
1 C 69.53 22.922 87.467 C 0.0 **** 0.0
2 H 68.903 23.234 88.303 H 0.0 **** 0.0
3 H 69.38 23.601 86.628 H 0.0 **** 0.0
4 H 69.259 21.909 87.168 H 0.0 **** 0.0
5 H 70.576 22.943 87.77 H 0.0 **** 0.0
@<TRIPOS>BOND
1 1 2 1
2 1 3 1
3 1 4 1
4 1 5 1
@<TRIPOS>MOLECULE
CH4
5 4
SMALL
USER_CHARGES


@<TRIPOS>ATOM
1 C 9.296 44.228 39.41 C 0.0 **** 0.0
2 H 8.34 44.464 38.941 H 0.0 **** 0.0
3 H 9.467 44.906 40.247 H 0.0 **** 0.0
4 H 10.096 44.344 38.679 H 0.0 **** 0.0
5 H 9.28 43.2 39.771 H 0.0 **** 0.0
@<TRIPOS>BOND
1 1 2 1
2 1 3 1
3 1 4 1
4 1 5 1
@<TRIPOS>MOLECULE
CH4
5 4
SMALL
USER_CHARGES


@<TRIPOS>ATOM
1 C 20.986 37.885 12.346 C 0.0 **** 0.0
2 H 21.361 37.892 11.323 H 0.0 **** 0.0
3 H 21.731 37.435 13.003 H 0.0 **** 0.0
4 H 20.063 37.307 12.392 H 0.0 **** 0.0
5 H 20.789 38.908 12.667 H 0.0 **** 0.0
@<TRIPOS>BOND
1 1 2 1
2 1 3 1
3 1 4 1
4 1 5 1
@<TRIPOS>MOLECULE
CH4
5 4
SMALL
USER_CHARGES


@<TRIPOS>ATOM
1 C 88.663 83.707 93.541 C 0.0 **** 0.0
2 H 89.321 83.581 92.682 H 0.0 **** 0.0
3 H 89.047 83.127 94.38 H 0.0 **** 0.0
4 H 87.662 83.359 93.286 H 0.0 **** 0.0
5 H 88.622 84.761 93.816 H 0.0 **** 0.0
@<TRIPOS>BOND
1 1 2 1
2 1 3 1
3 1 4 1
4 1 5 1
@<TRIPOS>MOLECULE
CH4
5 4
SMALL
USER_CHARGES


@<TRIPOS>ATOM
1 C 25.677 26.577 54.753 C 0.0 **** 0.0
2 H 25.945 26.299 55.772 H 0.0 **** 0.0
3 H 26.026 27.59 54.549 H 0.0 **** 0.0
4 H 24.594 26.535 54.637 H 0.0 **** 0.0
5 H 26.144 25.884 54.053 H 0.0 **** 0.0
@<TRIPOS>BOND
1 1 2 1
2 1 3 1
3 1 4 1
4 1 5 1
@<TRIPOS>MOLECULE
CH4
5 4
SMALL
USER_CHARGES


@<TRIPOS>ATOM
1 C 48.145 56.329 53.608 C 0.0 **** 0.0
2 H 48.126 56.903 54.534 H 0.0 **** 0.0
3 H 47.131 56.233 53.22 H 0.0 **** 0.0
4 H 48.554 55.337 53.805 H 0.0 **** 0.0
5 H 48.769 56.841 52.876 H 0.0 **** 0.0
@<TRIPOS>BOND
1 1 2 1
2 1 3 1
3 1 4 1
4 1 5 1
@<TRIPOS>MOLECULE
CH4
5 4
SMALL
USER_CHARGES


@<TRIPOS>ATOM
1 C 90.681 90.64 93.338 C 0.0 **** 0.0
2 H 90.324 91.388 92.631 H 0.0 **** 0.0
3 H 90.235 89.674 93.101 H 0.0 **** 0.0
4 H 90.4 90.932 94.35 H 0.0 **** 0.0
5 H 91.767 90.565 93.27 H 0.0 **** 0.0
@<TRIPOS>BOND
1 1 2 1
2 1 3 1
3 1 4 1
4 1 5 1
@<TRIPOS>MOLECULE
CH4
5 4
SMALL
USER_CHARGES


@<TRIPOS>ATOM
1 C 51.521 57.218 30.856 C 0.0 **** 0.0
2 H 52.203 56.833 30.098 H 0.0 **** 0.0
3 H 50.519 56.829 30.675 H 0.0 **** 0.0
4 H 51.503 58.307 30.808 H 0.0 **** 0.0
5 H 51.861 56.904 31.843 H 0.0 **** 0.0
@<TRIPOS>BOND
1 1 2 1
2 1 4 1
3 1 5 1
4 1 3 1
@<TRIPOS>MOLECULE
CH4
5 4
SMALL
USER_CHARGES


@<TRIPOS>ATOM
1 C 38.86 64.819 32.808 C 0.0 **** 0.0
2 H 38.391 65.014 33.772 H 0.0 **** 0.0
3 H 38.686 65.664 32.141 H 0.0 **** 0.0
4 H 38.432 63.916 32.372 H 0.0 **** 0.0
5 H 39.933 64.681 32.948 H 0.0 **** 0.0
@<TRIPOS>BOND
1 1 2 1
2 1 3 1
3 1 4 1
4 1 5 1
@<TRIPOS>MOLECULE
CH4
5 4
SMALL
USER_CHARGES


@<TRIPOS>ATOM
1 C 74.342 80.271 53.843 C 0.0 **** 0.0
2 H 75.002 80.693 54.601 H 0.0 **** 0.0
3 H 74.891 80.156 52.908 H 0.0 **** 0.0
4 H 73.495 80.939 53.688 H 0.0 **** 0.0
5 H 73.982 79.298 54.175 H 0.0 **** 0.0
@<TRIPOS>BOND
1 1 2 1
2 1 3 1
3 1 4 1
4 1 5 1
@<TRIPOS>MOLECULE
CH4
5 4
SMALL
USER_CHARGES


@<TRIPOS>ATOM
1 C 1.285 7.297 92.18 C 0.0 **** 0.0
2 H 2.182 7.607 92.716 H 0.0 **** 0.0
3 H 0.874 8.148 91.638 H 0.0 **** 0.0
4 H 0.547 6.928 92.892 H 0.0 **** 0.0
5 H 1.538 6.505 91.476 H 0.0 **** 0.0
@<TRIPOS>BOND
1 1 2 1
2 1 3 1
3 1 4 1
4 1 5 1
@<TRIPOS>MOLECULE
CH4
5 4
SMALL
USER_CHARGES


@<TRIPOS>ATOM
1 C 76.316 67.758 80.985 C 0.0 **** 0.0
2 H 75.76 68.389 80.292 H 0.0 **** 0.0
3 H 77.01 68.374 81.558 H 0.0 **** 0.0
4 H 76.873 67.007 80.425 H 0.0 **** 0.0
5 H 75.622 67.264 81.664 H 0.0 **** 0.0
@<TRIPOS>BOND
1 1 2 1
2 1 3 1
3 1 4 1
4 1 5 1
@<TRIPOS>MOLECULE
CH4
5 4
SMALL
USER_CHARGES


@<TRIPOS>ATOM
1 C 21.067 59.753 56.273 C 0.0 **** 0.0
2 H 20.918 59.334 57.268 H 0.0 **** 0.0
3 H 21.292 60.817 56.357 H 0.0 **** 0.0
4 H 20.161 59.618 55.683 H 0.0 **** 0.0
5 H 21.898 59.243 55.786 H 0.0 **** 0.0
@<TRIPOS>BOND
1 1 2 1
2 1 3 1
3 1 4 1
4 1 5 1
@<TRIPOS>MOLECULE
CH4
5 4
SMALL
USER_CHARGES


@<TRIPOS>ATOM
1 C 50.007 66.931 60.598 C 0.0 **** 0.0
2 H 49.842 66.567 59.584 H 0.0 **** 0.0
3 H 51.072 66.895 60.828 H 0.0 **** 0.0
4 H 49.461 66.303 61.302 H 0.0 **** 0.0
5 H 49.653 67.959 60.677 H 0.0 **** 0.0
@<TRIPOS>BOND
1 1 2 1
2 1 3 1
3 1 4 1
4 1 5 1
@<TRIPOS>MOLECULE
CH4
5 4
SMALL
USER_CHARGES


@<TRIPOS>ATOM
1 C 57.182 97.276 35.513 C 0.0 **** 0.0
2 H 57.046 96.91 36.531 H 0.0 **** 0.0
3 H 57.568 96.471 34.886 H 0.0 **** 0.0
4 H 57.888 98.106 35.516 H 0.0 **** 0.0
5 H 56.224 97.615 35.119 H 0.0 **** 0.0
@<TRIPOS>BOND
1 1 2 1
2 1 3 1
3 1 4 1
4 1 5 1
@<TRIPOS>MOLECULE
CH4
5 4
SMALL
USER_CHARGES


@<TRIPOS>ATOM
1 C 24.807 9.366 6.47 C 0.0 **** 0.0
2 H 24.883 8.508 7.138 H 0.0 **** 0.0
3 H 25.69 9.411 5.833 H 0.0 **** 0.0
4 H 24.737 10.28 7.06 H 0.0 **** 0.0
5 H 23.916 9.265 5.85 H 0.0 **** 0.0
@<TRIPOS>BOND
1 1 2 1
2 1 3 1
3 1 4 1
4 1 5 1
@<TRIPOS>MOLECULE
CH4
5 4
SMALL
USER_CHARGES


@<TRIPOS>ATOM
1 C 30.643 86.339 49.411 C 0.0 **** 0.0
2 H 29.587 86.109 49.268 H 0.0 **** 0.0
3 H 30.929 86.107 50.437 H 0.0 **** 0.0
4 H 30.814 87.398 49.216 H 0.0 **** 0.0
5 H 31.241 85.742 48.723 H 0.0 **** 0.0
@<TRIPOS>BOND
1 1 2 1
2 1 3 1
3 1 4 1
4 1 5 1
@<TRIPOS>MOLECULE
CH4
5 4
SMALL
USER_CHARGES


@<TRIPOS>ATOM
1 C 63.583 15.642 57.667 C 0.0 **** 0.0
2 H 64.078 15.448 58.619 H 0.0 **** 0.0
3 H 64.071 15.066 56.88 H 0.0 **** 0.0
4 H 63.648 16.704 57.433 H 0.0 **** 0.0
5 H 62.536 15.348 57.736 H 0.0 **** 0.0
@<TRIPOS>BOND
1 1 2 1
2 1 3 1
3 1 4 1
4 1 5 1
@<TRIPOS>MOLECULE
CH4
5 4
SMALL
USER_CHARGES


@<TRIPOS>ATOM
1 C 36.674 22.441 34.113 C 0.0 **** 0.0
2 H 37.167 21.742 34.789 H 0.0 **** 0.0
3 H 37.378 23.222 33.823 H 0.0 **** 0.0
4 H 35.818 22.891 34.615 H 0.0 **** 0.0
5 H 36.335 21.909 33.224 H 0.0 **** 0.0
@<TRIPOS>BOND
1 1 2 1
2 1 3 1
3 1 4 1
4 1 5 1
@<TRIPOS>MOLECULE
CH4
5 4
SMALL
USER_CHARGES


@<TRIPOS>ATOM
1 C 27.599 91.572 16.167 C 0.0 **** 0.0
2 H 27.675 90.682 15.542 H 0.0 **** 0.0
3 H 28.308 91.498 16.992 H 0.0 **** 0.0
4 H 26.587 91.653 16.563 H 0.0 **** 0.0
5 H 27.827 92.455 15.57 H 0.0 **** 0.0
@<TRIPOS>BOND
1 1 2 1
2 1 3 1
3 1 4 1
4 1 5 1
@<TRIPOS>MOLECULE
CH4
5 4
SMALL
USER_CHARGES


@<TRIPOS>ATOM
1 C 47.823 74.711 68.923 C 0.0 **** 0.0
2 H 48.14 74.671 67.881 H 0.0 **** 0.0
3 H 46.735 74.774 68.969 H 0.0 **** 0.0
4 H 48.259 75.588 69.401 H 0.0 **** 0.0
5 H 48.157 73.812 69.439 H 0.0 **** 0.0
@<TRIPOS>BOND
1 1 2 1
2 1 3 1
3 1 4 1
4 1 5 1
@<TRIPOS>MOLECULE
CH4
5 4
SMALL
USER_CHARGES


@<TRIPOS>ATOM
1 C 77.235 39.055 77.326 C 0.0 **** 0.0
2 H 77.14 38.974 76.243 H 0.0 **** 0.0
3 H 77.539 38.092 77.737 H 0.0 **** 0.0
4 H 76.275 39.346 77.754 H 0.0 **** 0.0
5 H 77.985 39.808 77.57 H 0.0 **** 0.0
@<TRIPOS>BOND
1 1 2 1
2 1 3 1
3 1 4 1
4 1 5 1
@<TRIPOS>MOLECULE
CH4
5 4
SMALL
USER_CHARGES


@<TRIPOS>ATOM
1 C 2.953 10.765 46.252 C 0.0 **** 0.0
2 H 2.892 9.684 46.378 H 0.0 **** 0.0
3 H 3.907 11.023 45.79 H 0.0 **** 0.0
4 H 2.877 11.25 47.225 H 0.0 **** 0.0
5 H 2.137 11.103 45.613 H 0.0 **** 0.0
@<TRIPOS>BOND
1 1 2 1
2 1 3 1
3 1 4 1
4 1 5 1
@<TRIPOS>MOLECULE
CH4
5 4
SMALL
USER_CHARGES


@<TRIPOS>ATOM
1 C 56.427 44.357 50.251 C 0.0 **** 0.0
2 H 57.165 45.101 50.554 H 0.0 **** 0.0
3 H 55.425 44.738 50.447 H 0.0 **** 0.0
4 H 56.585 43.439 50.818 H 0.0 **** 0.0
5 H 56.536 44.15 49.187 H 0.0 **** 0.0
@<TRIPOS>BOND
1 1 2 1
2 1 3 1
3 1 4 1
4 1 5 1
@<TRIPOS>MOLECULE
CH4
5 4
SMALL
USER_CHARGES


@<TRIPOS>ATOM
1 C 17.943 35.377 56.797 C 0.0 **** 0.0
2 H 16.934 35.147 56.454 H 0.0 **** 0.0
3 H 17.899 36.162 57.552 H 0.0 **** 0.0
4 H 18.545 35.717 55.954 H 0.0 **** 0.0
5 H 18.393 34.483 57.228 H 0.0 **** 0.0
@<TRIPOS>BOND
1 1 2 1
2 1 3 1
3 1 4 1
4 1 5 1
@<TRIPOS>MOLECULE
CH4
5 4
SMALL
USER_CHARGES


@<TRIPOS>ATOM
1 C 73.749 42.861 5.153 C 0.0 **** 0.0
2 H 74.626 43.046 5.775 H 0.0 **** 0.0
3 H 73.836 43.428 4.226 H 0.0 **** 0.0
4 H 72.853 43.174 5.688 H 0.0 **** 0.0
5 H 73.684 41.797 4.925 H 0.0 **** 0.0
@<TRIPOS>BOND
1 1 2 1
2 1 3 1
3 1 4 1
4 1 5 1
@<TRIPOS>MOLECULE
CH4
5 4
SMALL
USER_CHARGES


@<TRIPOS>ATOM
1 C 42.33 18.11 75.742 C 0.0 **** 0.0
2 H 42.476 18.053 76.82 H 0.0 **** 0.0
3 H 42.687 19.074 75.378 H 0.0 **** 0.0
4 H 41.27 18.005 75.512 H 0.0 **** 0.0
5 H 42.889 17.309 75.257 H 0.0 **** 0.0
@<TRIPOS>BOND
1 1 3 1
2 1 4 1
3 1 5 1
4 1 2 1
@<TRIPOS>MOLECULE
CH4
5 4
SMALL
USER_CHARGES


@<TRIPOS>ATOM
1 C 94.009 40.3 7.991 C 0.0 **** 0.0
2 H 94.657 40.472 8.85 H 0.0 **** 0.0
3 H 93.1 40.893 8.097 H 0.0 **** 0.0
4 H 93.75 39.243 7.938 H 0.0 **** 0.0
5 H 94.53 40.593 7.079 H 0.0 **** 0.0
@<TRIPOS>BOND
1 1 2 1
2 1 3 1
3 1 4 1
4 1 5 1
@<TRIPOS>MOLECULE
CH4
5 4
SMALL
USER_CHARGES


@<TRIPOS>ATOM
1 C 90.584 17.416 49.994 C 0.0 **** 0.0
2 H 90.699 17.171 48.938 H 0.0 **** 0.0
3 H 90.803 16.535 50.598 H 0.0 **** 0.0
4 H 89.561 17.741 50.182 H 0.0 **** 0.0
5 H 91.273 18.219 50.257 H 0.0 **** 0.0
@<TRIPOS>BOND
1 1 2 1
2 1 3 1
3 1 4 1
4 1 5 1
@<TRIPOS>MOLECULE
CH4
5 4
SMALL
USER_CHARGES


@<TRIPOS>ATOM
1 C 79.737 45.196 29.215 C 0.0 **** 0.0
2 H 78.686 45.061 28.961 H 0.0 **** 0.0
3 H 80.344 45.093 28.315 H 0.0 **** 0.0
4 H 80.034 44.441 29.943 H 0.0 **** 0.0
5 H 79.883 46.189 29.641 H 0.0 **** 0.0
@<TRIPOS>BOND
1 1 2 1
2 1 3 1
3 1 4 1
4 1 5 1
@<TRIPOS>MOLECULE
CH4
5 4
SMALL
USER_CHARGES


@<TRIPOS>ATOM
1 C 18.404 46.533 14.812 C 0.0 **** 0.0
2 H 19.457 46.619 15.082 H 0.0 **** 0.0
3 H 17.988 47.528 14.654 H 0.0 **** 0.0
4 H 17.862 46.036 15.617 H 0.0 **** 0.0
5 H 18.31 45.95 13.896 H 0.0 **** 0.0
@<TRIPOS>BOND
1 1 2 1
2 1 3 1
3 1 4 1
4 1 5 1
@<TRIPOS>MOLECULE
CH4
5 4
SMALL
USER_CHARGES


@<TRIPOS>ATOM
1 C 46.329 22.085 71.384 C 0.0 **** 0.0
2 H 46.375 22.114 72.472 H 0.0 **** 0.0
3 H 47.269 21.697 70.991 H 0.0 **** 0.0
4 H 46.163 23.092 71.001 H 0.0 **** 0.0
5 H 45.51 21.438 71.072 H 0.0 **** 0.0
@<TRIPOS>BOND
1 1 2 1
2 1 3 1
3 1 4 1
4 1 5 1
@<TRIPOS>MOLECULE
CH4
5 4
SMALL
USER_CHARGES


@<TRIPOS>ATOM
1 C 60.36 44.478 63.193 C 0.0 **** 0.0
2 H 59.692 43.631 63.036 H 0.0 **** 0.0
3 H 61.17 44.44 62.465 H 0.0 **** 0.0
4 H 60.773 44.433 64.2 H 0.0 **** 0.0
5 H 59.803 45.407 63.07 H 0.0 **** 0.0
@<TRIPOS>BOND
1 1 2 1
2 1 3 1
3 1 4 1
4 1 5 1
@<TRIPOS>MOLECULE
CH4
5 4
SMALL
USER_CHARGES


@<TRIPOS>ATOM
1 C 77.924 37.651 70.763 C 0.0 **** 0.0
2 H 77.804 38.24 71.672 H 0.0 **** 0.0
3 H 77.301 38.07 69.974 H 0.0 **** 0.0
4 H 77.624 36.621 70.956 H 0.0 **** 0.0
5 H 78.969 37.672 70.452 H 0.0 **** 0.0
@<TRIPOS>BOND
1 1 2 1
2 1 3 1
3 1 4 1
4 1 5 1
@<TRIPOS>MOLECULE
CH4
5 4
SMALL
USER_CHARGES


@<TRIPOS>ATOM
1 C 51.925 58.495 58.238 C 0.0 **** 0.0
2 H 52.386 59.373 58.69 H 0.0 **** 0.0
3 H 52.234 57.602 58.781 H 0.0 **** 0.0
4 H 52.239 58.414 57.197 H 0.0 **** 0.0
5 H 50.84 58.591 58.283 H 0.0 **** 0.0
@<TRIPOS>BOND
1 1 2 1
2 1 3 1
3 1 4 1
4 1 5 1
@<TRIPOS>MOLECULE
CH4
5 4
SMALL
USER_CHARGES


@<TRIPOS>ATOM
1 C 65.627 9.68 53.354 C 0.0 **** 0.0
2 H 66.311 10.312 53.921 H 0.0 **** 0.0
3 H 64.959 9.161 54.042 H 0.0 **** 0.0
4 H 66.198 8.95 52.78 H 0.0 **** 0.0
5 H 65.04 10.298 52.675 H 0.0 **** 0.0
@<TRIPOS>BOND
1 1 2 1
2 1 3 1
3 1 4 1
4 1 5 1
@<TRIPOS>MOLECULE
CH4
5 4
SMALL
USER_CHARGES


@<TRIPOS>ATOM
1 C 65.364 53.822 54.159 C 0.0 **** 0.0
2 H 65.915 53.575 53.252 H 0.0 **** 0.0
3 H 66.057 53.885 54.999 H 0.0 **** 0.0
4 H 64.623 53.048 54.357 H 0.0 **** 0.0
5 H 64.862 54.781 54.03 H 0.0 **** 0.0
@<TRIPOS>BOND
1 1 2 1
2 1 3 1
3 1 4 1
4 1 5 1
@<TRIPOS>MOLECULE
CH4
5 4
SMALL
USER_CHARGES


@<TRIPOS>ATOM
1 C 94.96 75.58 37.124 C 0.0 **** 0.0
2 H 95.605 74.987 36.474 H 0.0 **** 0.0
3 H 95.315 76.61 37.145 H 0.0 **** 0.0
4 H 94.982 75.166 38.132 H 0.0 **** 0.0
5 H 93.939 75.554 36.743 H 0.0 **** 0.0
@<TRIPOS>BOND
1 1 2 1
2 1 3 1
3 1 4 1
4 1 5 1
@<TRIPOS>MOLECULE
CH4
5 4
SMALL
USER_CHARGES


@<TRIPOS>ATOM
1 C 2.891 83.598 16.585 C 0.0 **** 0.0
2 H 3.145 84.219 15.726 H 0.0 **** 0.0
3 H 2.98 82.546 16.312 H 0.0 **** 0.0
4 H 1.866 83.807 16.893 H 0.0 **** 0.0
5 H 3.571 83.819 17.407 H 0.0 **** 0.0
@<TRIPOS>BOND
1 1 2 1
2 1 3 1
3 1 4 1
4 1 5 1
@<TRIPOS>MOLECULE
CH4
5 4
SMALL
USER_CHARGES


@<TRIPOS>ATOM
1 C 74.064 24.879 61.729 C 0.0 **** 0.0
2 H 73.994 24.75 60.649 H 0.0 **** 0.0
3 H 73.076 24.762 62.174 H 0.0 **** 0.0
4 H 74.448 25.875 61.951 H 0.0 **** 0.0
5 H 74.74 24.13 62.141 H 0.0 **** 0.0
@<TRIPOS>BOND
1 1 2 1
2 1 3 1
3 1 4 1
4 1 5 1
@<TRIPOS>MOLECULE
CH4
5 4
SMALL
USER_CHARGES


@<TRIPOS>ATOM
1 C 46.071 50.448 34.723 C 0.0 **** 0.0
2 H 45.963 50.44 35.808 H 0.0 **** 0.0
3 H 45.796 49.471 34.324 H 0.0 **** 0.0
4 H 47.106 50.669 34.463 H 0.0 **** 0.0
5 H 45.418 51.211 34.298 H 0.0 **** 0.0
@<TRIPOS>BOND
1 1 2 1
2 1 3 1
3 1 4 1
4 1 5 1
@<TRIPOS>MOLECULE
CH4
5 4
SMALL
USER_CHARGES


@<TRIPOS>ATOM
1 C 66.088 0.781 50.544 C 0.0 **** 0.0
2 H 66.841 0.001 50.435 H 0.0 **** 0.0
3 H 66.221 1.283 51.503 H 0.0 **** 0.0
4 H 65.094 0.334 50.502 H 0.0 **** 0.0
5 H 66.195 1.505 49.736 H 0.0 **** 0.0
@<TRIPOS>BOND
1 1 2 1
2 1 3 1
3 1 4 1
4 1 5 1
@<TRIPOS>MOLECULE
CH4
5 4
SMALL
USER_CHARGES


@<TRIPOS>ATOM
1 C 93.405 26.316 29.187 C 0.0 **** 0.0
2 H 93.384 26.28 30.277 H 0.0 **** 0.0
3 H 92.467 26.732 28.819 H 0.0 **** 0.0
4 H 93.535 25.307 28.794 H 0.0 **** 0.0
5 H 94.234 26.943 28.861 H 0.0 **** 0.0
@<TRIPOS>BOND
1 1 2 1
2 1 3 1
3 1 4 1
4 1 5 1
@<TRIPOS>MOLECULE
CH4
5 4
SMALL
USER_CHARGES


@<TRIPOS>ATOM
1 C 79.936 56.975 88.413 C 0.0 **** 0.0
2 H 79.1 56.634 89.025 H 0.0 **** 0.0
3 H 79.726 56.767 87.364 H 0.0 **** 0.0
4 H 80.843 56.451 88.713 H 0.0 **** 0.0
5 H 80.073 58.047 88.552 H 0.0 **** 0.0
@<TRIPOS>BOND
1 1 2 1
2 1 3 1
3 1 4 1
4 1 5 1
@<TRIPOS>MOLECULE
CH4
5 4
SMALL
USER_CHARGES


@<TRIPOS>ATOM
1 C 51.413 72.23 42.033 C 0.0 **** 0.0
2 H 51.205 72.744 41.094 H 0.0 **** 0.0
3 H 51.022 71.213 41.984 H 0.0 **** 0.0
4 H 50.933 72.765 42.853 H 0.0 **** 0.0
5 H 52.489 72.199 42.199 H 0.0 **** 0.0
@<TRIPOS>BOND
1 1 2 1
2 1 3 1
3 1 4 1
4 1 5 1
@<TRIPOS>MOLECULE
CH4
5 4
SMALL
USER_CHARGES


@<TRIPOS>ATOM
1 C 1.758 22.889 83.258 C 0.0 **** 0.0
2 H 2.24 23.56 82.547 H 0.0 **** 0.0
3 H 0.713 22.754 82.979 H 0.0 **** 0.0
4 H 1.815 23.318 84.258 H 0.0 **** 0.0
5 H 2.265 21.924 83.247 H 0.0 **** 0.0
@<TRIPOS>BOND
1 1 2 1
2 1 3 1
3 1 4 1
4 1 5 1
@<TRIPOS>MOLECULE
CH4
5 4
SMALL
USER_CHARGES


@<TRIPOS>ATOM
1 C 81.301 29.733 88.84 C 0.0 **** 0.0
2 H 80.434 29.082 88.955 H 0.0 **** 0.0
3 H 81.945 29.636 89.714 H 0.0 **** 0.0
4 H 80.97 30.767 88.745 H 0.0 **** 0.0
5 H 81.855 29.445 87.946 H 0.0 **** 0.0
@<TRIPOS>BOND
1 1 2 1
2 1 3 1
3 1 4 1
4 1 5 1
@<TRIPOS>MOLECULE
CH4
5 4
SMALL
USER_CHARGES


@<TRIPOS>ATOM
1 C 82.026 73.477 56.047 C 0.0 **** 0.0
2 H 83.07 73.283 56.291 H 0.0 **** 0.0
3 H 81.384 72.903 56.716 H 0.0 **** 0.0
4 H 81.833 73.18 55.016 H 0.0 **** 0.0
5 H 81.816 74.54 56.165 H 0.0 **** 0.0
@<TRIPOS>BOND
1 1 2 1
2 1 3 1
3 1 4 1
4 1 5 1
@<TRIPOS>MOLECULE
CH4
5 4
SMALL
USER_CHARGES


@<TRIPOS>ATOM
1 C 75.943 26.52 20.806 C 0.0 **** 0.0
2 H 76.958 26.202 21.046 H 0.0 **** 0.0
3 H 75.471 25.774 20.167 H 0.0 **** 0.0
4 H 75.976 27.477 20.286 H 0.0 **** 0.0
5 H 75.369 26.626 21.727 H 0.0 **** 0.0
@<TRIPOS>BOND
1 1 2 1
2 1 3 1
3 1 4 1
4 1 5 1
@<TRIPOS>MOLECULE
CH4
5 4
SMALL
USER_CHARGES


@<TRIPOS>ATOM
1 C 25.047 74.17 12.319 C 0.0 **** 0.0
2 H 24.07 74.064 12.792 H 0.0 **** 0.0
3 H 25.741 74.631 13.021 H 0.0 **** 0.0
4 H 24.955 74.798 11.433 H 0.0 **** 0.0
5 H 25.419 73.187 12.031 H 0.0 **** 0.0
@<TRIPOS>BOND
1 1 2 1
2 1 3 1
3 1 4 1
4 1 5 1
@<TRIPOS>MOLECULE
CH4
5 4
SMALL
USER_CHARGES


@<TRIPOS>ATOM
1 C 65.203 41.4 43.495 C 0.0 **** 0.0
2 H 66.239 41.691 43.319 H 0.0 **** 0.0
3 H 65.158 40.333 43.71 H 0.0 **** 0.0
4 H 64.609 41.618 42.607 H 0.0 **** 0.0
5 H 64.808 41.959 44.343 H 0.0 **** 0.0
@<TRIPOS>BOND
1 1 2 1
2 1 3 1
3 1 4 1
4 1 5 1
@<TRIPOS>MOLECULE
CH4
5 4
SMALL
USER_CHARGES


@<TRIPOS>ATOM
1 C 11.258 89.944 85.054 C 0.0 **** 0.0
2 H 10.585 89.373 85.694 H 0.0 **** 0.0
3 H 12.252 89.498 85.084 H 0.0 **** 0.0
4 H 11.31 90.973 85.407 H 0.0 **** 0.0
5 H 10.884 89.929 84.03 H 0.0 **** 0.0
@<TRIPOS>BOND
1 1 2 1
2 1 3 1
3 1 4 1
4 1 5 1
@<TRIPOS>MOLECULE
CH4
5 4
SMALL
USER_CHARGES


@<TRIPOS>ATOM
1 C 91.429 41.644 59.501 C 0.0 **** 0.0
2 H 91.592 42.716 59.609 H 0.0 **** 0.0
3 H 91.397 41.18 60.487 H 0.0 **** 0.0
4 H 92.243 41.21 58.92 H 0.0 **** 0.0
5 H 90.483 41.471 58.987 H 0.0 **** 0.0
@<TRIPOS>BOND
1 1 2 1
2 1 3 1
3 1 4 1
4 1 5 1
@<TRIPOS>MOLECULE
CH4
5 4
SMALL
USER_CHARGES


@<TRIPOS>ATOM
1 C 55.64 29.519 29.888 C 0.0 **** 0.0
2 H 55.247 30.22 29.151 H 0.0 **** 0.0
3 H 54.951 28.681 29.995 H 0.0 **** 0.0
4 H 55.749 30.025 30.848 H 0.0 **** 0.0
5 H 56.612 29.152 29.558 H 0.0 **** 0.0
@<TRIPOS>BOND
1 1 2 1
2 1 3 1
3 1 4 1
4 1 5 1
@<TRIPOS>MOLECULE
CH4
5 4
SMALL
USER_CHARGES


@<TRIPOS>ATOM
1 C 22.57 34.746 55.851 C 0.0 **** 0.0
2 H 23.018 34.063 56.573 H 0.0 **** 0.0
3 H 22.115 34.172 55.044 H 0.0 **** 0.0
4 H 23.342 35.399 55.443 H 0.0 **** 0.0
5 H 21.808 35.348 56.345 H 0.0 **** 0.0
@<TRIPOS>BOND
1 1 2 1
2 1 3 1
3 1 4 1
4 1 5 1
@<TRIPOS>MOLECULE
CH4
5 4
SMALL
USER_CHARGES


@<TRIPOS>ATOM
1 C 67.169 93.709 14.137 C 0.0 **** 0.0
2 H 66.94 93.721 15.202 H 0.0 **** 0.0
3 H 66.251 93.553 13.57 H 0.0 **** 0.0
4 H 67.869 92.9 13.925 H 0.0 **** 0.0
5 H 67.616 94.661 13.851 H 0.0 **** 0.0
@<TRIPOS>BOND
1 1 2 1
2 1 3 1
3 1 4 1
4 1 5 1
@<TRIPOS>MOLECULE
CH4
5 4
SMALL
USER_CHARGES


@<TRIPOS>ATOM
1 C 54.179 68.244 26.138 C 0.0 **** 0.0
2 H 53.927 68.127 27.192 H 0.0 **** 0.0
3 H 55.162 67.812 25.95 H 0.0 **** 0.0
4 H 54.193 69.304 25.884 H 0.0 **** 0.0
5 H 53.434 67.734 25.527 H 0.0 **** 0.0
@<TRIPOS>BOND
1 1 2 1
2 1 3 1
3 1 4 1
4 1 5 1
@<TRIPOS>MOLECULE
CH4
5 4
SMALL
USER_CHARGES


@<TRIPOS>ATOM
1 C 66.227 90.686 62.941 C 0.0 **** 0.0
2 H 66.315 90.642 61.856 H 0.0 **** 0.0
3 H 65.722 91.609 63.228 H 0.0 **** 0.0
4 H 67.222 90.662 63.387 H 0.0 **** 0.0
5 H 65.651 89.831 63.294 H 0.0 **** 0.0
@<TRIPOS>BOND
1 1 2 1
2 1 3 1
3 1 4 1
4 1 5 1
@<TRIPOS>MOLECULE
CH4
5 4
SMALL
USER_CHARGES


@<TRIPOS>ATOM
1 C 69.193 27.767 21.345 C 0.0 **** 0.0
2 H 68.859 28.648 20.797 H 0.0 **** 0.0
3 H 68.413 27.006 21.319 H 0.0 **** 0.0
4 H 69.4 28.041 22.38 H 0.0 **** 0.0
5 H 70.099 27.375 20.884 H 0.0 **** 0.0
@<TRIPOS>BOND
1 1 2 1
2 1 3 1
3 1 4 1
4 1 5 1
@<TRIPOS>MOLECULE
CH4
5 4
SMALL
USER_CHARGES


@<TRIPOS>ATOM
1 C 5.656 18.398 16.518 C 0.0 **** 0.0
2 H 6.271 18.647 15.653 H 0.0 **** 0.0
3 H 5.428 17.332 16.507 H 0.0 **** 0.0
4 H 4.728 18.969 16.479 H 0.0 **** 0.0
5 H 6.197 18.646 17.431 H 0.0 **** 0.0
@<TRIPOS>BOND
1 1 2 1
2 1 3 1
3 1 4 1
4 1 5 1
@<TRIPOS>MOLECULE
CH4
5 4
SMALL
USER_CHARGES


@<TRIPOS>ATOM
1 C 44.839 45.511 65.502 C 0.0 **** 0.0
2 H 44.925 45.117 66.514 H 0.0 **** 0.0
3 H 43.807 45.812 65.316 H 0.0 **** 0.0
4 H 45.127 44.741 64.786 H 0.0 **** 0.0
5 H 45.495 46.374 65.391 H 0.0 **** 0.0
@<TRIPOS>BOND
1 1 2 1
2 1 3 1
3 1 4 1
4 1 5 1
@<TRIPOS>MOLECULE
CH4
5 4
SMALL
USER_CHARGES


@<TRIPOS>ATOM
1 C 53.9 41.315 20.122 C 0.0 **** 0.0
2 H 54.137 41.29 19.059 H 0.0 **** 0.0
3 H 52.828 41.464 20.252 H 0.0 **** 0.0
4 H 54.441 42.135 20.595 H 0.0 **** 0.0
5 H 54.195 40.372 20.582 H 0.0 **** 0.0
@<TRIPOS>BOND
1 1 2 1
2 1 3 1
3 1 4 1
4 1 5 1
@<TRIPOS>MOLECULE
CH4
5 4
SMALL
USER_CHARGES


@<TRIPOS>ATOM
1 C 9.271 56.323 31.005 C 0.0 **** 0.0
2 H 8.806 56.608 31.949 H 0.0 **** 0.0
3 H 9.731 57.2 30.548 H 0.0 **** 0.0
4 H 8.514 55.918 30.334 H 0.0 **** 0.0
5 H 10.034 55.567 31.19 H 0.0 **** 0.0
@<TRIPOS>BOND
1 1 2 1
2 1 3 1
3 1 4 1
4 1 5 1
@<TRIPOS>MOLECULE
CH4
5 4
SMALL
USER_CHARGES


@<TRIPOS>ATOM
1 C 80.518 80.961 26.407 C 0.0 **** 0.0
2 H 81.142 81.601 25.783 H 0.0 **** 0.0
3 H 80.378 81.43 27.381 H 0.0 **** 0.0
4 H 81.005 79.994 26.536 H 0.0 **** 0.0
5 H 79.549 80.819 25.929 H 0.0 **** 0.0
@<TRIPOS>BOND
1 1 2 1
2 1 3 1
3 1 4 1
4 1 5 1
@<TRIPOS>MOLECULE
CH4
5 4
SMALL
USER_CHARGES


@<TRIPOS>ATOM
1 C 16.633 33.471 75.862 C 0.0 **** 0.0
2 H 16.521 32.681 76.604 H 0.0 **** 0.0
3 H 17.128 34.33 76.317 H 0.0 **** 0.0
4 H 15.65 33.769 75.497 H 0.0 **** 0.0
5 H 17.235 33.105 75.03 H 0.0 **** 0.0
@<TRIPOS>BOND
1 1 2 1
2 1 3 1
3 1 4 1
4 1 5 1
@<TRIPOS>MOLECULE
CH4
5 4
SMALL
USER_CHARGES


@<TRIPOS>ATOM
1 C 63.474 2.391 48.009 C 0.0 **** 0.0
2 H 63.379 2.887 48.975 H 0.0 **** 0.0
3 H 63.355 1.315 48.14 H 0.0 **** 0.0
4 H 64.458 2.599 47.589 H 0.0 **** 0.0
5 H 62.704 2.762 47.333 H 0.0 **** 0.0
@<TRIPOS>BOND
1 1 2 1
2 1 3 1
3 1 4 1
4 1 5 1
@<TRIPOS>MOLECULE
CH4
5 4
SMALL
USER_CHARGES


@<TRIPOS>ATOM
1 C 18.012 49.971 45.344 C 0.0 **** 0.0
2 H 18.163 49.669 44.307 H 0.0 **** 0.0
3 H 17.149 49.445 45.753 H 0.0 **** 0.0
4 H 17.836 51.046 45.387 H 0.0 **** 0.0
5 H 18.899 49.724 45.927 H 0.0 **** 0.0
@<TRIPOS>BOND
1 1 2 1
2 1 3 1
3 1 4 1
4 1 5 1
@<TRIPOS>MOLECULE
CH4
5 4
SMALL
USER_CHARGES


@<TRIPOS>ATOM
1 C 95.876 87.145 37.838 C 0.0 **** 0.0
2 H 96.265 88.16 37.758 H 0.0 **** 0.0
3 H 96.199 86.705 38.782 H 0.0 **** 0.0
4 H 96.253 86.545 37.01 H 0.0 **** 0.0
5 H 94.787 87.17 37.802 H 0.0 **** 0.0
@<TRIPOS>BOND
1 1 2 1
2 1 3 1
3 1 4 1
4 1 5 1
@<TRIPOS>MOLECULE
CH4
5 4
SMALL
USER_CHARGES


@<TRIPOS>ATOM
1 C 59.804 90.936 34.421 C 0.0 **** 0.0
2 H 59.315 91.574 33.685 H 0.0 **** 0.0
3 H 60.755 90.583 34.02 H 0.0 **** 0.0
4 H 59.164 90.083 34.643 H 0.0 **** 0.0
5 H 59.982 91.505 35.333 H 0.0 **** 0.0
@<TRIPOS>BOND
1 1 2 1
2 1 3 1
3 1 4 1
4 1 5 1
@<TRIPOS>MOLECULE
CH4
5 4
SMALL
USER_CHARGES


@<TRIPOS>ATOM
1 C 30.553 57.821 20.172 C 0.0 **** 0.0
2 H 31.267 57.263 20.778 H 0.0 **** 0.0
3 H 29.737 58.171 20.804 H 0.0 **** 0.0
4 H 30.156 57.173 19.391 H 0.0 **** 0.0
5 H 31.053 58.675 19.717 H 0.0 **** 0.0
@<TRIPOS>BOND
1 1 2 1
2 1 3 1
3 1 4 1
4 1 5 1
@<TRIPOS>MOLECULE
CH4
5 4
SMALL
USER_CHARGES


@<TRIPOS>ATOM
1 C 15.781 49.117 84.392 C 0.0 **** 0.0
2 H 15.671 48.057 84.619 H 0.0 **** 0.0
3 H 15.852 49.252 83.312 H 0.0 **** 0.0
4 H 16.686 49.497 84.866 H 0.0 **** 0.0
5 H 14.916 49.661 84.771 H 0.0 **** 0.0
@<TRIPOS>BOND
1 1 2 1
2 1 3 1
3 1 4 1
4 1 5 1
@<TRIPOS>MOLECULE
CH4
5 4
SMALL
USER_CHARGES


@<TRIPOS>ATOM
1 C 16.325 4.135 1.005 C 0.0 **** 0.0
2 H 16.009 4.411 -0.0 H 0.0 **** 0.0
3 H 17.148 3.423 0.944 H 0.0 **** 0.0
4 H 15.489 3.68 1.537 H 0.0 **** 0.0
5 H 16.654 5.026 1.54 H 0.0 **** 0.0
@<TRIPOS>BOND
1 1 2 1
2 1 3 1
3 1 4 1
4 1 5 1
@<TRIPOS>MOLECULE
CH4
5 4
SMALL
USER_CHARGES


@<TRIPOS>ATOM
1 C 28.367 47.995 48.375 C 0.0 **** 0.0
2 H 27.579 48.16 47.64 H 0.0 **** 0.0
3 H 28.398 48.836 49.068 H 0.0 **** 0.0
4 H 29.327 47.91 47.864 H 0.0 **** 0.0
5 H 28.165 47.077 48.925 H 0.0 **** 0.0
@<TRIPOS>BOND
1 1 2 1
2 1 3 1
3 1 4 1
4 1 5 1
@<TRIPOS>MOLECULE
CH4
5 4
SMALL
USER_CHARGES


@<TRIPOS>ATOM
1 C 48.599 50.716 24.208 C 0.0 **** 0.0
2 H 48.719 49.811 23.613 H 0.0 **** 0.0
3 H 49.475 51.353 24.081 H 0.0 **** 0.0
4 H 48.494 50.448 25.26 H 0.0 **** 0.0
5 H 47.709 51.252 23.879 H 0.0 **** 0.0
@<TRIPOS>BOND
1 1 2 1
2 1 3 1
3 1 4 1
4 1 5 1
@<TRIPOS>MOLECULE
CH4
5 4
SMALL
USER_CHARGES


@<TRIPOS>ATOM
1 C 87.978 96.13 52.8 C 0.0 **** 0.0
2 H 87.808 96.121 53.877 H 0.0 **** 0.0
3 H 88.444 95.191 52.499 H 0.0 **** 0.0
4 H 88.634 96.961 52.543 H 0.0 **** 0.0
5 H 87.025 96.245 52.284 H 0.0 **** 0.0
@<TRIPOS>BOND
1 1 2 1
2 1 3 1
3 1 4 1
4 1 5 1
@<TRIPOS>MOLECULE
CH4
5 4
SMALL
USER_CHARGES


@<TRIPOS>ATOM
1 C 66.083 60.304 9.487 C 0.0 **** 0.0
2 H 66.044 59.762 10.432 H 0.0 **** 0.0
3 H 66.978 60.013 8.939 H 0.0 **** 0.0
4 H 66.109 61.376 9.685 H 0.0 **** 0.0
5 H 65.199 60.066 8.895 H 0.0 **** 0.0
@<TRIPOS>BOND
1 1 2 1
2 1 3 1
3 1 4 1
4 1 5 1
@<TRIPOS>MOLECULE
CH4
5 4
SMALL
USER_CHARGES


@<TRIPOS>ATOM
1 C 55.684 66.99 46.201 C 0.0 **** 0.0
2 H 55.614 67.072 45.117 H 0.0 **** 0.0
3 H 54.681 66.966 46.629 H 0.0 **** 0.0
4 H 56.227 67.849 46.596 H 0.0 **** 0.0
5 H 56.213 66.074 46.463 H 0.0 **** 0.0
@<TRIPOS>BOND
1 1 2 1
2 1 3 1
3 1 4 1
4 1 5 1
@<TRIPOS>MOLECULE
CH4
5 4
SMALL
USER_CHARGES


@<TRIPOS>ATOM
1 C 89.33 40.678 77.893 C 0.0 **** 0.0
2 H 88.953 39.995 78.655 H 0.0 **** 0.0
3 H 88.585 41.448 77.695 H 0.0 **** 0.0
4 H 89.533 40.124 76.977 H 0.0 **** 0.0
5 H 90.25 41.143 78.247 H 0.0 **** 0.0
@<TRIPOS>BOND
1 1 2 1
2 1 3 1
3 1 4 1
4 1 5 1
@<TRIPOS>MOLECULE
CH4
5 4
SMALL
USER_CHARGES


@<TRIPOS>ATOM
1 C 73.285 63.642 44.101 C 0.0 **** 0.0
2 H 72.501 64.23 43.623 H 0.0 **** 0.0
3 H 73.197 62.6 43.793 H 0.0 **** 0.0
4 H 73.182 63.711 45.184 H 0.0 **** 0.0
5 H 74.26 64.028 43.804 H 0.0 **** 0.0
@<TRIPOS>BOND
1 1 2 1
2 1 3 1
3 1 4 1
4 1 5 1
@<TRIPOS>MOLECULE
CH4
5 4
SMALL
USER_CHARGES


@<TRIPOS>ATOM
1 C 51.804 17.539 40.107 C 0.0 **** 0.0
2 H 51.201 18.191 39.475 H 0.0 **** 0.0
3 H 52.767 17.359 39.628 H 0.0 **** 0.0
4 H 51.286 16.591 40.25 H 0.0 **** 0.0
5 H 51.962 18.017 41.074 H 0.0 **** 0.0
@<TRIPOS>BOND
1 1 2 1
2 1 3 1
3 1 4 1
4 1 5 1
@<TRIPOS>MOLECULE
CH4
5 4
SMALL
USER_CHARGES


@<TRIPOS>ATOM
1 C 44.796 20.21 52.984 C 0.0 **** 0.0
2 H 44.042 20.91 52.623 H 0.0 **** 0.0
3 H 45.788 20.581 52.726 H 0.0 **** 0.0
4 H 44.639 19.236 52.519 H 0.0 **** 0.0
5 H 44.713 20.114 54.066 H 0.0 **** 0.0
@<TRIPOS>BOND
1 1 2 1
2 1 3 1
3 1 4 1
4 1 5 1
@<TRIPOS>MOLECULE
CH4
5 4
SMALL
USER_CHARGES


@<TRIPOS>ATOM
1 C 90.504 59.218 26.389 C 0.0 **** 0.0
2 H 91.042 60.073 26.797 H 0.0 **** 0.0
3 H 89.439 59.446 26.345 H 0.0 **** 0.0
4 H 90.664 58.35 27.028 H 0.0 **** 0.0
5 H 90.871 59.003 25.386 H 0.0 **** 0.0
@<TRIPOS>BOND
1 1 2 1
2 1 3 1
3 1 4 1
4 1 5 1
@<TRIPOS>MOLECULE
CH4
5 4
SMALL
USER_CHARGES


@<TRIPOS>ATOM
1 C 82.061 24.965 16.439 C 0.0 **** 0.0
2 H 82.647 24.172 16.904 H 0.0 **** 0.0
3 H 81.625 25.596 17.213 H 0.0 **** 0.0
4 H 81.266 24.525 15.837 H 0.0 **** 0.0
5 H 82.708 25.568 15.801 H 0.0 **** 0.0
@<TRIPOS>BOND
1 1 2 1
2 1 3 1
3 1 4 1
4 1 5 1
@<TRIPOS>MOLECULE
CH4
5 4
SMALL
USER_CHARGES


@<TRIPOS>ATOM
1 C 50.844 28.734 84.678 C 0.0 **** 0.0
2 H 50.619 28.762 85.744 H 0.0 **** 0.0
3 H 50.193 28.009 84.189 H 0.0 **** 0.0
4 H 51.885 28.443 84.535 H 0.0 **** 0.0
5 H 50.679 29.721 84.246 H 0.0 **** 0.0
@<TRIPOS>BOND
1 1 2 1
2 1 3 1
3 1 4 1
4 1 5 1
@<TRIPOS>MOLECULE
CH4
5 4
SMALL
USER_CHARGES


@<TRIPOS>ATOM
1 C 35.761 46.177 5.214 C 0.0 **** 0.0
2 H 35.752 46.108 4.126 H 0.0 **** 0.0
3 H 35.136 45.388 5.633 H 0.0 **** 0.0
4 H 35.372 47.149 5.519 H 0.0 **** 0.0
5 H 36.782 46.064 5.577 H 0.0 **** 0.0
@<TRIPOS>BOND
1 1 2 1
2 1 3 1
3 1 4 1
4 1 5 1
@<TRIPOS>MOLECULE
CH4
5 4
SMALL
USER_CHARGES


@<TRIPOS>ATOM
1 C 62.268 40.332 43.895 C 0.0 **** 0.0
2 H 61.403 40.396 44.555 H 0.0 **** 0.0
3 H 62.032 39.685 43.049 H 0.0 **** 0.0
4 H 63.114 39.918 44.444 H 0.0 **** 0.0
5 H 62.522 41.328 43.532 H 0.0 **** 0.0
@<TRIPOS>BOND
1 1 2 1
2 1 3 1
3 1 4 1
4 1 5 1
@<TRIPOS>MOLECULE
CH4
5 4
SMALL
USER_CHARGES


@<TRIPOS>ATOM
1 C 15.276 70.27 50.045 C 0.0 **** 0.0
2 H 14.433 69.619 50.277 H 0.0 **** 0.0
3 H 14.907 71.258 49.77 H 0.0 **** 0.0
4 H 15.842 69.849 49.214 H 0.0 **** 0.0
5 H 15.921 70.353 50.92 H 0.0 **** 0.0
@<TRIPOS>BOND
1 1 2 1
2 1 3 1
3 1 4 1
4 1 5 1
@<TRIPOS>MOLECULE
CH4
5 4
SMALL
USER_CHARGES


@<TRIPOS>ATOM
1 C 76.962 57.33 28.374 C 0.0 **** 0.0
2 H 77.713 57.25 29.16 H 0.0 **** 0.0
3 H 77.081 56.504 27.674 H 0.0 **** 0.0
4 H 77.088 58.276 27.846 H 0.0 **** 0.0
5 H 75.967 57.292 28.817 H 0.0 **** 0.0
@<TRIPOS>BOND
1 1 2 1
2 1 3 1
3 1 4 1
4 1 5 1
@<TRIPOS>MOLECULE
CH4
5 4
SMALL
USER_CHARGES


@<TRIPOS>ATOM
1 C 4.659 10.284 16.626 C 0.0 **** 0.0
2 H 4.818 9.909 17.637 H 0.0 **** 0.0
3 H 3.601 10.5 16.481 H 0.0 **** 0.0
4 H 4.979 9.532 15.906 H 0.0 **** 0.0
5 H 5.24 11.195 16.482 H 0.0 **** 0.0
@<TRIPOS>BOND
1 1 2 1
2 1 3 1
3 1 4 1
4 1 5 1
@<TRIPOS>MOLECULE
CH4
5 4
SMALL
USER_CHARGES


@<TRIPOS>ATOM
1 C 6.326 34.527 44.982 C 0.0 **** 0.0
2 H 7.256 33.979 45.134 H 0.0 **** 0.0
3 H 6.431 35.188 44.121 H 0.0 **** 0.0
4 H 6.105 35.119 45.871 H 0.0 **** 0.0
5 H 5.514 33.822 44.804 H 0.0 **** 0.0
@<TRIPOS>BOND
1 1 2 1
2 1 3 1
3 1 4 1
4 1 5 1
@<TRIPOS>MOLECULE
CH4
5 4
SMALL
USER_CHARGES


@<TRIPOS>ATOM
1 C 12.257 92.409 48.026 C 0.0 **** 0.0
2 H 11.863 93.425 48.023 H 0.0 **** 0.0
3 H 11.849 91.859 47.178 H 0.0 **** 0.0
4 H 11.973 91.912 48.953 H 0.0 **** 0.0
5 H 13.344 92.441 47.95 H 0.0 **** 0.0
@<TRIPOS>BOND
1 1 2 1
2 1 3 1
3 1 4 1
4 1 5 1
@<TRIPOS>MOLECULE
CH4
5 4
SMALL
USER_CHARGES


@<TRIPOS>ATOM
1 C 2.392 89.094 33.53 C 0.0 **** 0.0
2 H 2.726 88.103 33.84 H 0.0 **** 0.0
3 H 1.429 89.01 33.026 H 0.0 **** 0.0
4 H 3.123 89.527 32.847 H 0.0 **** 0.0
5 H 2.289 89.733 34.407 H 0.0 **** 0.0
@<TRIPOS>BOND
1 1 2 1
2 1 3 1
3 1 4 1
4 1 5 1
@<TRIPOS>MOLECULE
CH4
5 4
SMALL
USER_CHARGES


@<TRIPOS>ATOM
1 C 58.968 14.416 59.14 C 0.0 **** 0.0
2 H 59.272 13.394 58.914 H 0.0 **** 0.0
3 H 59.659 15.113 58.665 H 0.0 **** 0.0
4 H 58.981 14.569 60.219 H 0.0 **** 0.0
5 H 57.96 14.587 58.761 H 0.0 **** 0.0
@<TRIPOS>BOND
1 1 2 1
2 1 3 1
3 1 4 1
4 1 5 1
@<TRIPOS>MOLECULE
CH4
5 4
SMALL
USER_CHARGES


@<TRIPOS>ATOM
1 C 80.834 52.096 71.934 C 0.0 **** 0.0
2 H 81.8 52.519 72.209 H 0.0 **** 0.0
3 H 80.177 52.891 71.58 H 0.0 **** 0.0
4 H 80.387 51.615 72.804 H 0.0 **** 0.0
5 H 80.972 51.359 71.143 H 0.0 **** 0.0
@<TRIPOS>BOND
1 1 4 1
2 1 5 1
3 1 2 1
4 1 3 1
@<TRIPOS>MOLECULE
CH4
5 4
SMALL
USER_CHARGES


@<TRIPOS>ATOM
1 C 77.892 74.027 19.34 C 0.0 **** 0.0
2 H 78.344 74.41 20.254 H 0.0 **** 0.0
3 H 78.588 73.348 18.847 H 0.0 **** 0.0
4 H 77.659 74.857 18.674 H 0.0 **** 0.0
5 H 76.975 73.491 19.586 H 0.0 **** 0.0
@<TRIPOS>BOND
1 1 2 1
2 1 3 1
3 1 4 1
4 1 5 1
@<TRIPOS>MOLECULE
CH4
5 4
SMALL
USER_CHARGES


@<TRIPOS>ATOM
1 C 43.253 3.751 91.765 C 0.0 **** 0.0
2 H 43.817 3.294 90.952 H 0.0 **** 0.0
3 H 42.775 4.663 91.407 H 0.0 **** 0.0
4 H 43.929 3.993 92.585 H 0.0 **** 0.0
5 H 42.492 3.055 92.115 H 0.0 **** 0.0
@<TRIPOS>BOND
1 1 2 1
2 1 3 1
3 1 4 1
4 1 5 1
@<TRIPOS>MOLECULE
CH4
5 4
SMALL
USER_CHARGES


@<TRIPOS>ATOM
1 C 27.072 43.143 94.951 C 0.0 **** 0.0
2 H 26.635 43.754 94.161 H 0.0 **** 0.0
3 H 28.145 43.328 95.002 H 0.0 **** 0.0
4 H 26.894 42.09 94.735 H 0.0 **** 0.0
5 H 26.612 43.402 95.905 H 0.0 **** 0.0
@<TRIPOS>BOND
1 1 2 1
2 1 3 1
3 1 4 1
4 1 5 1
@<TRIPOS>MOLECULE
CH4
5 4
SMALL
USER_CHARGES


@<TRIPOS>ATOM
1 C 58.891 65.589 76.252 C 0.0 **** 0.0
2 H 58.794 66.673 76.311 H 0.0 **** 0.0
3 H 59.875 65.293 76.617 H 0.0 **** 0.0
4 H 58.776 65.271 75.216 H 0.0 **** 0.0
5 H 58.12 65.121 76.863 H 0.0 **** 0.0
@<TRIPOS>BOND
1 1 2 1
2 1 3 1
3 1 4 1
4 1 5 1
@<TRIPOS>MOLECULE
CH4
5 4
SMALL
USER_CHARGES


@<TRIPOS>ATOM
1 C 27.841 5.128 55.771 C 0.0 **** 0.0
2 H 28.885 5.374 55.962 H 0.0 **** 0.0
3 H 27.512 4.367 56.479 H 0.0 **** 0.0
4 H 27.738 4.747 54.754 H 0.0 **** 0.0
5 H 27.23 6.023 55.887 H 0.0 **** 0.0
@<TRIPOS>BOND
1 1 2 1
2 1 3 1
3 1 4 1
4 1 5 1
@<TRIPOS>MOLECULE
CH4
5 4
SMALL
USER_CHARGES


@<TRIPOS>ATOM
1 C 91.158 88.792 11.302 C 0.0 **** 0.0
2 H 91.124 87.988 12.037 H 0.0 **** 0.0
3 H 90.142 89.077 11.029 H 0.0 **** 0.0
4 H 91.692 88.451 10.415 H 0.0 **** 0.0
5 H 91.675 89.652 11.729 H 0.0 **** 0.0
@<TRIPOS>BOND
1 1 2 1
2 1 3 1
3 1 4 1
4 1 5 1
@<TRIPOS>MOLECULE
CH4
5 4
SMALL
USER_CHARGES


@<TRIPOS>ATOM
1 C 50.901 69.047 78.867 C 0.0 **** 0.0
2 H 51.432 68.365 78.203 H 0.0 **** 0.0
3 H 51.581 69.831 79.202 H 0.0 **** 0.0
4 H 50.527 68.496 79.73 H 0.0 **** 0.0
5 H 50.064 69.496 78.332 H 0.0 **** 0.0
@<TRIPOS>BOND
1 1 2 1
2 1 3 1
3 1 4 1
4 1 5 1
@<TRIPOS>MOLECULE
CH4
5 4
SMALL
USER_CHARGES


@<TRIPOS>ATOM
1 C 92.358 7.328 95.727 C 0.0 **** 0.0
2 H 92.75 7.767 96.645 H 0.0 **** 0.0
3 H 93.12 6.693 95.274 H 0.0 **** 0.0
4 H 92.086 8.122 95.032 H 0.0 **** 0.0
5 H 91.477 6.73 95.959 H 0.0 **** 0.0
@<TRIPOS>BOND
1 1 5 1
2 1 2 1
3 1 3 1
4 1 4 1
@<TRIPOS>MOLECULE
CH4
5 4
SMALL
USER_CHARGES


@<TRIPOS>ATOM
1 C 7.713 72.621 51.778 C 0.0 **** 0.0
2 H 7.184 73.574 51.787 H 0.0 **** 0.0
3 H 6.99 71.805 51.784 H 0.0 **** 0.0
4 H 8.349 72.55 52.66 H 0.0 **** 0.0
5 H 8.328 72.556 50.88 H 0.0 **** 0.0
@<TRIPOS>BOND
1 1 2 1
2 1 3 1
3 1 4 1
4 1 5 1
@<TRIPOS>MOLECULE
CH4
5 4
SMALL
USER_CHARGES


@<TRIPOS>ATOM
1 C 13.508 22.662 53.974 C 0.0 **** 0.0
2 H 14.304 23.403 54.043 H 0.0 **** 0.0
3 H 12.799 22.962 53.202 H 0.0 **** 0.0
4 H 12.994 22.593 54.933 H 0.0 **** 0.0
5 H 13.935 21.692 53.72 H 0.0 **** 0.0
@<TRIPOS>BOND
1 1 2 1
2 1 3 1
3 1 4 1
4 1 5 1
@<TRIPOS>MOLECULE
CH4
5 4
SMALL
USER_CHARGES


@<TRIPOS>ATOM
1 C 21.065 46.063 87.821 C 0.0 **** 0.0
2 H 20.475 45.334 87.266 H 0.0 **** 0.0
3 H 21.964 45.583 88.209 H 0.0 **** 0.0
4 H 20.474 46.453 88.65 H 0.0 **** 0.0
5 H 21.347 46.881 87.158 H 0.0 **** 0.0
@<TRIPOS>BOND
1 1 2 1
2 1 3 1
3 1 4 1
4 1 5 1
@<TRIPOS>MOLECULE
CH4
5 4
SMALL
USER_CHARGES


@<TRIPOS>ATOM
1 C 8.589 34.143 0.8 C 0.0 **** 0.0
2 H 7.948 34.952 1.15 H 0.0 **** 0.0
3 H 9.232 34.51 0.0 H 0.0 **** 0.0
4 H 7.971 33.327 0.425 H 0.0 **** 0.0
5 H 9.204 33.784 1.626 H 0.0 **** 0.0
@<TRIPOS>BOND
1 1 2 1
2 1 3 1
3 1 4 1
4 1 5 1
@<TRIPOS>MOLECULE
CH4
5 4
SMALL
USER_CHARGES


@<TRIPOS>ATOM
1 C 69.655 21.36 67.036 C 0.0 **** 0.0
2 H 69.697 21.281 65.95 H 0.0 **** 0.0
3 H 69.147 22.284 67.314 H 0.0 **** 0.0
4 H 70.668 21.367 67.439 H 0.0 **** 0.0
5 H 69.109 20.509 67.442 H 0.0 **** 0.0
@<TRIPOS>BOND
1 1 2 1
2 1 3 1
3 1 4 1
4 1 5 1
@<TRIPOS>MOLECULE
CH4
5 4
SMALL
USER_CHARGES


@<TRIPOS>ATOM
1 C 46.151 36.474 23.168 C 0.0 **** 0.0
2 H 46.246 37.058 22.253 H 0.0 **** 0.0
3 H 46.706 36.962 23.97 H 0.0 **** 0.0
4 H 46.554 35.474 23.003 H 0.0 **** 0.0
5 H 45.1 36.4 23.445 H 0.0 **** 0.0
@<TRIPOS>BOND
1 1 2 1
2 1 3 1
3 1 4 1
4 1 5 1
@<TRIPOS>MOLECULE
CH4
5 4
SMALL
USER_CHARGES


@<TRIPOS>ATOM
1 C 23.736 83.097 18.128 C 0.0 **** 0.0
2 H 22.931 83.769 17.831 H 0.0 **** 0.0
3 H 24.045 83.329 19.148 H 0.0 **** 0.0
4 H 24.583 83.224 17.454 H 0.0 **** 0.0
5 H 23.384 82.067 18.081 H 0.0 **** 0.0
@<TRIPOS>BOND
1 1 2 1
2 1 3 1
3 1 4 1
4 1 5 1
@<TRIPOS>MOLECULE
CH4
5 4
SMALL
USER_CHARGES


@<TRIPOS>ATOM
1 C 96.931 34.681 4.629 C 0.0 **** 0.0
2 H 96.215 34.804 3.816 H 0.0 **** 0.0
3 H 97.614 33.866 4.391 H 0.0 **** 0.0
4 H 96.397 34.451 5.551 H 0.0 **** 0.0
5 H 97.496 35.604 4.758 H 0.0 **** 0.0
@<TRIPOS>BOND
1 1 2 1
2 1 3 1
3 1 4 1
4 1 5 1
@<TRIPOS>MOLECULE
CH4
5 4
SMALL
USER_CHARGES


@<TRIPOS>ATOM
1 C 89.868 67.383 35.983 C 0.0 **** 0.0
2 H 89.13 67.141 35.219 H 0.0 **** 0.0
3 H 90.667 67.979 35.541 H 0.0 **** 0.0
4 H 90.284 66.462 36.391 H 0.0 **** 0.0
5 H 89.391 67.95 36.782 H 0.0 **** 0.0
@<TRIPOS>BOND
1 1 3 1
2 1 4 1
3 1 5 1
4 1 2 1
@<TRIPOS>MOLECULE
CH4
5 4
SMALL
USER_CHARGES


@<TRIPOS>ATOM
1 C 12.649 76.233 15.04 C 0.0 **** 0.0
2 H 12.567 76.158 16.124 H 0.0 **** 0.0
3 H 13.133 77.174 14.777 H 0.0 **** 0.0
4 H 11.653 76.2 14.597 H 0.0 **** 0.0
5 H 13.242 75.4 14.663 H 0.0 **** 0.0
@<TRIPOS>BOND
1 1 2 1
2 1 3 1
3 1 4 1
4 1 5 1
@<TRIPOS>MOLECULE
CH4
5 4
SMALL
USER_CHARGES


@<TRIPOS>ATOM
1 C 74.843 22.01 32.251 C 0.0 **** 0.0
2 H 73.843 22.103 32.675 H 0.0 **** 0.0
3 H 75.106 20.956 32.169 H 0.0 **** 0.0
4 H 75.559 22.515 32.899 H 0.0 **** 0.0
5 H 74.862 22.469 31.262 H 0.0 **** 0.0
@<TRIPOS>BOND
1 1 2 1
2 1 3 1
3 1 4 1
4 1 5 1
@<TRIPOS>MOLECULE
CH4
5 4
SMALL
USER_CHARGES


@<TRIPOS>ATOM
1 C 10.036 59.272 79.387 C 0.0 **** 0.0
2 H 10.202 58.256 79.746 H 0.0 **** 0.0
3 H 9.195 59.279 78.693 H 0.0 **** 0.0
4 H 10.931 59.628 78.877 H 0.0 **** 0.0
5 H 9.816 59.924 80.232 H 0.0 **** 0.0
@<TRIPOS>BOND
1 1 2 1
2 1 3 1
3 1 4 1
4 1 5 1
@<TRIPOS>MOLECULE
CH4
5 4
SMALL
USER_CHARGES


@<TRIPOS>ATOM
1 C 56.785 75.469 70.708 C 0.0 **** 0.0
2 H 57.259 75.431 69.727 H 0.0 **** 0.0
3 H 55.913 76.123 70.664 H 0.0 **** 0.0
4 H 57.494 75.857 71.439 H 0.0 **** 0.0
5 H 56.474 74.467 71.0 H 0.0 **** 0.0
@<TRIPOS>BOND
1 1 2 1
2 1 3 1
3 1 4 1
4 1 5 1
@<TRIPOS>MOLECULE
CH4
5 4
SMALL
USER_CHARGES


@<TRIPOS>ATOM
1 C 31.607 8.281 37.285 C 0.0 **** 0.0
2 H 31.19 7.678 36.478 H 0.0 **** 0.0
3 H 32.317 7.682 37.856 H 0.0 **** 0.0
4 H 30.803 8.616 37.941 H 0.0 **** 0.0
5 H 32.117 9.147 36.864 H 0.0 **** 0.0
@<TRIPOS>BOND
1 1 2 1
2 1 3 1
3 1 4 1
4 1 5 1
@<TRIPOS>MOLECULE
CH4
5 4
SMALL
USER_CHARGES


@<TRIPOS>ATOM
1 C 60.19 94.892 29.326 C 0.0 **** 0.0
2 H 59.6 95.351 28.533 H 0.0 **** 0.0
3 H 59.523 94.484 30.086 H 0.0 **** 0.0
4 H 60.839 95.643 29.777 H 0.0 **** 0.0
5 H 60.799 94.09 28.908 H 0.0 **** 0.0
@<TRIPOS>BOND
1 1 2 1
2 1 3 1
3 1 4 1
4 1 5 1
@<TRIPOS>MOLECULE
CH4
5 4
SMALL
USER_CHARGES


@<TRIPOS>ATOM
1 C 14.687 97.246 39.06 C 0.0 **** 0.0
2 H 15.615 97.72 39.378 H 0.0 **** 0.0
3 H 14.73 97.046 37.989 H 0.0 **** 0.0
4 H 13.849 97.91 39.273 H 0.0 **** 0.0
5 H 14.554 96.308 39.6 H 0.0 **** 0.0
@<TRIPOS>BOND
1 1 2 1
2 1 3 1
3 1 4 1
4 1 5 1
@<TRIPOS>MOLECULE
CH4
5 4
SMALL
USER_CHARGES


@<TRIPOS>ATOM
1 C 30.518 7.554 88.502 C 0.0 **** 0.0
2 H 30.069 8.48 88.861 H 0.0 **** 0.0
3 H 30.007 6.704 88.954 H 0.0 **** 0.0
4 H 31.573 7.532 88.775 H 0.0 **** 0.0
5 H 30.422 7.501 87.417 H 0.0 **** 0.0
@<TRIPOS>BOND
1 1 2 1
2 1 3 1
3 1 4 1
4 1 5 1
@<TRIPOS>MOLECULE
CH4
5 4
SMALL
USER_CHARGES


@<TRIPOS>ATOM
1 C 31.832 17.843 88.512 C 0.0 **** 0.0
2 H 31.316 18.066 89.446 H 0.0 **** 0.0
3 H 32.07 18.774 87.998 H 0.0 **** 0.0
4 H 31.19 17.231 87.879 H 0.0 **** 0.0
5 H 32.753 17.301 88.727 H 0.0 **** 0.0
@<TRIPOS>BOND
1 1 2 1
2 1 3 1
3 1 4 1
4 1 5 1
@<TRIPOS>MOLECULE
CH4
5 4
SMALL
USER_CHARGES


@<TRIPOS>ATOM
1 C 79.417 50.031 84.364 C 0.0 **** 0.0
2 H 79.576 50.405 83.353 H 0.0 **** 0.0
3 H 78.403 50.272 84.685 H 0.0 **** 0.0
4 H 80.133 50.498 85.04 H 0.0 **** 0.0
5 H 79.556 48.95 84.378 H 0.0 **** 0.0
@<TRIPOS>BOND
1 1 2 1
2 1 3 1
3 1 4 1
4 1 5 1
@<TRIPOS>MOLECULE
CH4
5 4
SMALL
USER_CHARGES


@<TRIPOS>ATOM
1 C 86.53 77.99 4.206 C 0.0 **** 0.0
2 H 86.329 78.584 3.314 H 0.0 **** 0.0
3 H 85.802 77.182 4.276 H 0.0 **** 0.0
4 H 86.456 78.624 5.089 H 0.0 **** 0.0
5 H 87.534 77.57 4.143 H 0.0 **** 0.0
@<TRIPOS>BOND
1 1 2 1
2 1 3 1
3 1 4 1
4 1 5 1
@<TRIPOS>MOLECULE
CH4
5 4
SMALL
USER_CHARGES


@<TRIPOS>ATOM
1 C 88.967 48.502 92.477 C 0.0 **** 0.0
2 H 88.837 48.59 93.556 H 0.0 **** 0.0
3 H 90.0 48.734 92.217 H 0.0 **** 0.0
4 H 88.299 49.2 91.973 H 0.0 **** 0.0
5 H 88.733 47.484 92.165 H 0.0 **** 0.0
@<TRIPOS>BOND
1 1 2 1
2 1 3 1
3 1 4 1
4 1 5 1
@<TRIPOS>MOLECULE
CH4
5 4
SMALL
USER_CHARGES


@<TRIPOS>ATOM
1 C 62.633 58.019 66.809 C 0.0 **** 0.0
2 H 62.603 58.235 65.741 H 0.0 **** 0.0
3 H 62.645 56.939 66.961 H 0.0 **** 0.0
4 H 61.752 58.444 67.29 H 0.0 **** 0.0
5 H 63.532 58.457 67.243 H 0.0 **** 0.0
@<TRIPOS>BOND
1 1 2 1
2 1 3 1
3 1 4 1
4 1 5 1
@<TRIPOS>MOLECULE
CH4
5 4
SMALL
USER_CHARGES


@<TRIPOS>ATOM
1 C 39.809 33.399 62.423 C 0.0 **** 0.0
2 H 39.715 33.324 61.339 H 0.0 **** 0.0
3 H 40.166 34.394 62.688 H 0.0 **** 0.0
4 H 40.518 32.651 62.778 H 0.0 **** 0.0
5 H 38.836 33.227 62.884 H 0.0 **** 0.0
@<TRIPOS>BOND
1 1 2 1
2 1 3 1
3 1 4 1
4 1 5 1
@<TRIPOS>MOLECULE
CH4
5 4
SMALL
USER_CHARGES


@<TRIPOS>ATOM
1 C 27.134 52.79 38.174 C 0.0 **** 0.0
2 H 26.064 52.719 38.369 H 0.0 **** 0.0
3 H 27.453 51.933 37.582 H 0.0 **** 0.0
4 H 27.675 52.801 39.12 H 0.0 **** 0.0
5 H 27.342 53.709 37.626 H 0.0 **** 0.0
@<TRIPOS>BOND
1 1 2 1
2 1 3 1
3 1 4 1
4 1 5 1
@<TRIPOS>MOLECULE
CH4
5 4
SMALL
USER_CHARGES


@<TRIPOS>ATOM
1 C 97.74 83.049 51.599 C 0.0 **** 0.0
2 H 98.131 83.518 50.697 H 0.0 **** 0.0
3 H 98.47 82.337 51.984 H 0.0 **** 0.0
4 H 96.812 82.528 51.364 H 0.0 **** 0.0
5 H 97.546 83.814 52.351 H 0.0 **** 0.0
@<TRIPOS>BOND
1 1 2 1
2 1 3 1
3 1 4 1
4 1 5 1
@<TRIPOS>MOLECULE
CH4
5 4
SMALL
USER_CHARGES


@<TRIPOS>ATOM
1 C 4.149 84.047 81.788 C 0.0 **** 0.0
2 H 4.717 84.157 80.864 H 0.0 **** 0.0
3 H 3.108 83.826 81.55 H 0.0 **** 0.0
4 H 4.203 84.973 82.36 H 0.0 **** 0.0
5 H 4.568 83.231 82.377 H 0.0 **** 0.0
@<TRIPOS>BOND
1 1 2 1
2 1 3 1
3 1 4 1
4 1 5 1
@<TRIPOS>MOLECULE
CH4
5 4
SMALL
USER_CHARGES


@<TRIPOS>ATOM
1 C 68.912 26.607 46.854 C 0.0 **** 0.0
2 H 69.681 27.379 46.845 H 0.0 **** 0.0
3 H 69.304 25.709 47.332 H 0.0 **** 0.0
4 H 68.619 26.375 45.829 H 0.0 **** 0.0
5 H 68.044 26.964 47.407 H 0.0 **** 0.0
@<TRIPOS>BOND
1 1 2 1
2 1 3 1
3 1 4 1
4 1 5 1
@<TRIPOS>MOLECULE
CH4
5 4
SMALL
USER_CHARGES


@<TRIPOS>ATOM
1 C 5.717 69.151 36.996 C 0.0 **** 0.0
2 H 4.78 68.733 37.365 H 0.0 **** 0.0
3 H 6.462 69.13 37.791 H 0.0 **** 0.0
4 H 5.555 70.18 36.676 H 0.0 **** 0.0
5 H 6.07 68.559 36.151 H 0.0 **** 0.0
@<TRIPOS>BOND
1 1 2 1
2 1 3 1
3 1 4 1
4 1 5 1
@<TRIPOS>MOLECULE
CH4
5 4
SMALL
USER_CHARGES


@<TRIPOS>ATOM
1 C 32.536 97.176 60.225 C 0.0 **** 0.0
2 H 32.434 97.011 61.298 H 0.0 **** 0.0
3 H 33.156 98.056 60.05 H 0.0 **** 0.0
4 H 31.55 97.333 59.787 H 0.0 **** 0.0
5 H 33.003 96.305 59.766 H 0.0 **** 0.0
@<TRIPOS>BOND
1 1 2 1
2 1 3 1
3 1 4 1
4 1 5 1
@<TRIPOS>MOLECULE
CH4
5 4
SMALL
USER_CHARGES


@<TRIPOS>ATOM
1 C 53.841 84.449 57.396 C 0.0 **** 0.0
2 H 53.624 83.627 56.714 H 0.0 **** 0.0
3 H 52.908 84.838 57.804 H 0.0 **** 0.0
4 H 54.361 85.241 56.857 H 0.0 **** 0.0
5 H 54.472 84.089 58.209 H 0.0 **** 0.0
@<TRIPOS>BOND
1 1 2 1
2 1 3 1
3 1 4 1
4 1 5 1
@<TRIPOS>MOLECULE
CH4
5 4
SMALL
USER_CHARGES


@<TRIPOS>ATOM
1 C 17.16 35.982 65.191 C 0.0 **** 0.0
2 H 17.454 35.895 64.145 H 0.0 **** 0.0
3 H 16.201 36.498 65.256 H 0.0 **** 0.0
4 H 17.916 36.549 65.734 H 0.0 **** 0.0
5 H 17.068 34.988 65.627 H 0.0 **** 0.0
@<TRIPOS>BOND
1 1 2 1
2 1 3 1
3 1 4 1
4 1 5 1
@<TRIPOS>MOLECULE
CH4
5 4
SMALL
USER_CHARGES


@<TRIPOS>ATOM
1 C 81.982 94.648 30.319 C 0.0 **** 0.0
2 H 82.665 95.407 30.699 H 0.0 **** 0.0
3 H 82.376 93.658 30.546 H 0.0 **** 0.0
4 H 81.88 94.76 29.239 H 0.0 **** 0.0
5 H 81.006 94.769 30.79 H 0.0 **** 0.0
@<TRIPOS>BOND
1 1 2 1
2 1 3 1
3 1 4 1
4 1 5 1
@<TRIPOS>MOLECULE
CH4
5 4
SMALL
USER_CHARGES


@<TRIPOS>ATOM
1 C 9.064 65.321 91.573 C 0.0 **** 0.0
2 H 9.549 66.209 91.168 H 0.0 **** 0.0
3 H 8.147 65.61 92.087 H 0.0 **** 0.0
4 H 9.736 64.829 92.276 H 0.0 **** 0.0
5 H 8.825 64.636 90.76 H 0.0 **** 0.0
@<TRIPOS>BOND
1 1 2 1
2 1 3 1
3 1 4 1
4 1 5 1
@<TRIPOS>MOLECULE
CH4
5 4
SMALL
USER_CHARGES


@<TRIPOS>ATOM
1 C 65.211 91.731 65.868 C 0.0 **** 0.0
2 H 64.408 91.447 65.188 H 0.0 **** 0.0
3 H 65.727 90.836 66.216 H 0.0 **** 0.0
4 H 64.793 92.265 66.721 H 0.0 **** 0.0
5 H 65.917 92.377 65.345 H 0.0 **** 0.0
@<TRIPOS>BOND
1 1 2 1
2 1 3 1
3 1 4 1
4 1 5 1
@<TRIPOS>MOLECULE
CH4
5 4
SMALL
USER_CHARGES


@<TRIPOS>ATOM
1 C 74.36 22.64 10.347 C 0.0 **** 0.0
2 H 73.459 22.027 10.376 H 0.0 **** 0.0
3 H 74.132 23.639 10.719 H 0.0 **** 0.0
4 H 74.72 22.708 9.32 H 0.0 **** 0.0
5 H 75.129 22.186 10.972 H 0.0 **** 0.0
@<TRIPOS>BOND
1 1 2 1
2 1 3 1
3 1 4 1
4 1 5 1
@<TRIPOS>MOLECULE
CH4
5 4
SMALL
USER_CHARGES


@<TRIPOS>ATOM
1 C 63.448 34.68 57.896 C 0.0 **** 0.0
2 H 63.451 34.651 58.986 H 0.0 **** 0.0
3 H 62.973 35.602 57.559 H 0.0 **** 0.0
4 H 62.895 33.824 57.511 H 0.0 **** 0.0
5 H 64.474 34.645 57.529 H 0.0 **** 0.0
@<TRIPOS>BOND
1 1 2 1
2 1 3 1
3 1 4 1
4 1 5 1
@<TRIPOS>MOLECULE
CH4
5 4
SMALL
USER_CHARGES


@<TRIPOS>ATOM
1 C 63.467 90.053 15.261 C 0.0 **** 0.0
2 H 63.747 90.892 15.899 H 0.0 **** 0.0
3 H 64.312 89.372 15.166 H 0.0 **** 0.0
4 H 63.187 90.425 14.275 H 0.0 **** 0.0
5 H 62.622 89.526 15.705 H 0.0 **** 0.0
@<TRIPOS>BOND
1 1 2 1
2 1 3 1
3 1 4 1
4 1 5 1
@<TRIPOS>MOLECULE
CH4
5 4
SMALL
USER_CHARGES


@<TRIPOS>ATOM
1 C 77.488 71.252 42.743 C 0.0 **** 0.0
2 H 77.472 71.16 41.657 H 0.0 **** 0.0
3 H 77.067 72.215 43.032 H 0.0 **** 0.0
4 H 78.516 71.183 43.098 H 0.0 **** 0.0
5 H 76.896 70.449 43.184 H 0.0 **** 0.0
@<TRIPOS>BOND
1 1 2 1
2 1 3 1
3 1 4 1
4 1 5 1
@<TRIPOS>MOLECULE
CH4
5 4
SMALL
USER_CHARGES


@<TRIPOS>ATOM
1 C 90.021 72.622 82.242 C 0.0 **** 0.0
2 H 90.042 72.642 83.331 H 0.0 **** 0.0
3 H 89.525 71.711 81.905 H 0.0 **** 0.0
4 H 91.041 72.644 81.858 H 0.0 **** 0.0
5 H 89.476 73.491 81.873 H 0.0 **** 0.0
@<TRIPOS>BOND
1 1 2 1
2 1 3 1
3 1 4 1
4 1 5 1
@<TRIPOS>MOLECULE
CH4
5 4
SMALL
USER_CHARGES


@<TRIPOS>ATOM
1 C 9.216 93.8 0.764 C 0.0 **** 0.0
2 H 9.906 94.505 0.299 H 0.0 **** 0.0
3 H 8.795 93.147 0.0 H 0.0 **** 0.0
4 H 8.413 94.35 1.256 H 0.0 **** 0.0
5 H 9.75 93.201 1.501 H 0.0 **** 0.0
@<TRIPOS>BOND
1 1 2 1
2 1 3 1
3 1 4 1
4 1 5 1
@<TRIPOS>MOLECULE
CH4
5 4
SMALL
USER_CHARGES


@<TRIPOS>ATOM
1 C 32.453 91.582 81.003 C 0.0 **** 0.0
2 H 31.553 91.539 80.39 H 0.0 **** 0.0
3 H 32.2 91.962 81.994 H 0.0 **** 0.0
4 H 33.18 92.246 80.535 H 0.0 **** 0.0
5 H 32.879 90.583 81.095 H 0.0 **** 0.0
@<TRIPOS>BOND
1 1 2 1
2 1 3 1
3 1 4 1
4 1 5 1
@<TRIPOS>MOLECULE
CH4
5 4
SMALL
USER_CHARGES


@<TRIPOS>ATOM
1 C 84.006 71.916 53.354 C 0.0 **** 0.0
2 H 84.06 71.227 52.511 H 0.0 **** 0.0
3 H 84.995 72.331 53.547 H 0.0 **** 0.0
4 H 83.657 71.382 54.237 H 0.0 **** 0.0
5 H 83.312 72.723 53.119 H 0.0 **** 0.0
@<TRIPOS>BOND
1 1 2 1
2 1 3 1
3 1 4 1
4 1 5 1
@<TRIPOS>MOLECULE
CH4
5 4
SMALL
USER_CHARGES


@<TRIPOS>ATOM
1 C 59.322 52.396 22.632 C 0.0 **** 0.0
2 H 59.325 53.244 23.316 H 0.0 **** 0.0
3 H 59.244 52.757 21.606 H 0.0 **** 0.0
4 H 58.472 51.751 22.856 H 0.0 **** 0.0
5 H 60.247 51.831 22.749 H 0.0 **** 0.0
@<TRIPOS>BOND
1 1 2 1
2 1 3 1
3 1 4 1
4 1 5 1
@<TRIPOS>MOLECULE
CH4
5 4
SMALL
USER_CHARGES


@<TRIPOS>ATOM
1 C 12.157 91.524 5.341 C 0.0 **** 0.0
2 H 11.993 90.95 6.253 H 0.0 **** 0.0
3 H 11.623 91.054 4.515 H 0.0 **** 0.0
4 H 13.223 91.55 5.116 H 0.0 **** 0.0
5 H 11.79 92.54 5.481 H 0.0 **** 0.0
@<TRIPOS>BOND
1 1 2 1
2 1 3 1
3 1 4 1
4 1 5 1
@<TRIPOS>MOLECULE
CH4
5 4
SMALL
USER_CHARGES


@<TRIPOS>ATOM
1 C 8.198 26.373 60.829 C 0.0 **** 0.0
2 H 7.867 25.958 61.781 H 0.0 **** 0.0
3 H 7.83 27.395 60.731 H 0.0 **** 0.0
4 H 7.807 25.766 60.013 H 0.0 **** 0.0
5 H 9.287 26.374 60.793 H 0.0 **** 0.0
@<TRIPOS>BOND
1 1 2 1
2 1 3 1
3 1 4 1
4 1 5 1
@<TRIPOS>MOLECULE
CH4
5 4
SMALL
USER_CHARGES


@<TRIPOS>ATOM
1 C 39.211 34.22 97.633 C 0.0 **** 0.0
2 H 39.384 33.36 96.987 H 0.0 **** 0.0
3 H 38.154 34.488 97.605 H 0.0 **** 0.0
4 H 39.809 35.062 97.285 H 0.0 **** 0.0
5 H 39.495 33.969 98.655 H 0.0 **** 0.0
@<TRIPOS>BOND
1 1 2 1
2 1 3 1
3 1 4 1
4 1 5 1
@<TRIPOS>MOLECULE
CH4
5 4
SMALL
USER_CHARGES


@<TRIPOS>ATOM
1 C 82.127 40.93 81.046 C 0.0 **** 0.0
2 H 81.588 41.871 81.149 H 0.0 **** 0.0
3 H 81.579 40.14 81.561 H 0.0 **** 0.0
4 H 83.12 41.029 81.484 H 0.0 **** 0.0
5 H 82.219 40.679 79.989 H 0.0 **** 0.0
@<TRIPOS>BOND
1 1 2 1
2 1 3 1
3 1 4 1
4 1 5 1
@<TRIPOS>MOLECULE
CH4
5 4
SMALL
USER_CHARGES


@<TRIPOS>ATOM
1 C 59.22 57.918 38.787 C 0.0 **** 0.0
2 H 58.984 58.803 39.378 H 0.0 **** 0.0
3 H 59.119 57.029 39.409 H 0.0 **** 0.0
4 H 60.244 57.99 38.419 H 0.0 **** 0.0
5 H 58.534 57.852 37.942 H 0.0 **** 0.0
@<TRIPOS>BOND
1 1 2 1
2 1 3 1
3 1 4 1
4 1 5 1
@<TRIPOS>MOLECULE
CH4
5 4
SMALL
USER_CHARGES


@<TRIPOS>ATOM
1 C 26.566 95.044 52.024 C 0.0 **** 0.0
2 H 27.543 95.327 51.632 H 0.0 **** 0.0
3 H 25.787 95.571 51.472 H 0.0 **** 0.0
4 H 26.506 95.31 53.079 H 0.0 **** 0.0
5 H 26.427 93.969 51.912 H 0.0 **** 0.0
@<TRIPOS>BOND
1 1 2 1
2 1 3 1
3 1 4 1
4 1 5 1
@<TRIPOS>MOLECULE
CH4
5 4
SMALL
USER_CHARGES


@<TRIPOS>ATOM
1 C 18.555 40.151 13.087 C 0.0 **** 0.0
2 H 19.478 40.672 12.832 H 0.0 **** 0.0
3 H 18.093 39.765 12.178 H 0.0 **** 0.0
4 H 17.87 40.844 13.576 H 0.0 **** 0.0
5 H 18.779 39.324 13.761 H 0.0 **** 0.0
@<TRIPOS>BOND
1 1 2 1
2 1 3 1
3 1 4 1
4 1 5 1
@<TRIPOS>MOLECULE
CH4
5 4
SMALL
USER_CHARGES


@<TRIPOS>ATOM
1 C 86.343 71.04 76.969 C 0.0 **** 0.0
2 H 86.572 71.144 78.03 H 0.0 **** 0.0
3 H 86.172 72.026 76.536 H 0.0 **** 0.0
4 H 85.448 70.429 76.849 H 0.0 **** 0.0
5 H 87.181 70.561 76.462 H 0.0 **** 0.0
@<TRIPOS>BOND
1 1 2 1
2 1 3 1
3 1 4 1
4 1 5 1
@<TRIPOS>MOLECULE
CH4
5 4
SMALL
USER_CHARGES


@<TRIPOS>ATOM
1 C 48.569 59.384 82.305 C 0.0 **** 0.0
2 H 49.509 59.755 81.897 H 0.0 **** 0.0
3 H 47.745 59.7 81.665 H 0.0 **** 0.0
4 H 48.425 59.785 83.308 H 0.0 **** 0.0
5 H 48.597 58.295 82.35 H 0.0 **** 0.0
@<TRIPOS>BOND
1 1 2 1
2 1 3 1
3 1 4 1
4 1 5 1
@<TRIPOS>MOLECULE
CH4
5 4
SMALL
USER_CHARGES


@<TRIPOS>ATOM
1 C 47.904 64.794 33.384 C 0.0 **** 0.0
2 H 47.544 65.028 34.386 H 0.0 **** 0.0
3 H 47.484 65.505 32.673 H 0.0 **** 0.0
4 H 47.594 63.784 33.114 H 0.0 **** 0.0
5 H 48.992 64.858 33.365 H 0.0 **** 0.0
@<TRIPOS>BOND
1 1 2 1
2 1 3 1
3 1 4 1
4 1 5 1
@<TRIPOS>MOLECULE
CH4
5 4
SMALL
USER_CHARGES


@<TRIPOS>ATOM
1 C 36.759 36.334 65.239 C 0.0 **** 0.0
2 H 37.504 35.862 64.599 H 0.0 **** 0.0
3 H 36.739 35.831 66.206 H 0.0 **** 0.0
4 H 35.777 36.259 64.77 H 0.0 **** 0.0
5 H 37.014 37.385 65.38 H 0.0 **** 0.0
@<TRIPOS>BOND
1 1 2 1
2 1 3 1
3 1 4 1
4 1 5 1
@<TRIPOS>MOLECULE
CH4
5 4
SMALL
USER_CHARGES


@<TRIPOS>ATOM
1 C 10.029 78.852 53.453 C 0.0 **** 0.0
2 H 10.251 79.866 53.787 H 0.0 **** 0.0
3 H 10.713 78.576 52.651 H 0.0 **** 0.0
4 H 9.003 78.807 53.088 H 0.0 **** 0.0
5 H 10.148 78.161 54.288 H 0.0 **** 0.0
@<TRIPOS>BOND
1 1 2 1
2 1 3 1
3 1 4 1
4 1 5 1
@<TRIPOS>MOLECULE
CH4
5 4
SMALL
USER_CHARGES


@<TRIPOS>ATOM
1 C 27.447 16.362 42.672 C 0.0 **** 0.0
2 H 27.502 15.789 43.598 H 0.0 **** 0.0
3 H 26.476 16.853 42.607 H 0.0 **** 0.0
4 H 27.573 15.692 41.822 H 0.0 **** 0.0
5 H 28.236 17.113 42.663 H 0.0 **** 0.0
@<TRIPOS>BOND
1 1 2 1
2 1 3 1
3 1 4 1
4 1 5 1
@<TRIPOS>MOLECULE
CH4
5 4
SMALL
USER_CHARGES


@<TRIPOS>ATOM
1 C 28.103 85.485 67.697 C 0.0 **** 0.0
2 H 28.049 84.402 67.806 H 0.0 **** 0.0
3 H 27.125 85.87 67.405 H 0.0 **** 0.0
4 H 28.837 85.737 66.932 H 0.0 **** 0.0
5 H 28.4 85.931 68.646 H 0.0 **** 0.0
@<TRIPOS>BOND
1 1 2 1
2 1 3 1
3 1 4 1
4 1 5 1
@<TRIPOS>MOLECULE
CH4
5 4
SMALL
USER_CHARGES


@<TRIPOS>ATOM
1 C 78.313 6.587 64.819 C 0.0 **** 0.0
2 H 78.538 6.985 65.809 H 0.0 **** 0.0
3 H 78.663 5.557 64.754 H 0.0 **** 0.0
4 H 78.816 7.191 64.063 H 0.0 **** 0.0
5 H 77.237 6.617 64.651 H 0.0 **** 0.0
@<TRIPOS>BOND
1 1 2 1
2 1 3 1
3 1 4 1
4 1 5 1
@<TRIPOS>MOLECULE
CH4
5 4
SMALL
USER_CHARGES


@<TRIPOS>ATOM
1 C 2.6 2.242 71.38 C 0.0 **** 0.0
2 H 1.574 2.212 71.014 H 0.0 **** 0.0
3 H 2.877 1.26 71.764 H 0.0 **** 0.0
4 H 2.68 2.98 72.178 H 0.0 **** 0.0
5 H 3.269 2.515 70.564 H 0.0 **** 0.0
@<TRIPOS>BOND
1 1 5 1
2 1 2 1
3 1 3 1
4 1 4 1
@<TRIPOS>MOLECULE
CH4
5 4
SMALL
USER_CHARGES


@<TRIPOS>ATOM
1 C 93.879 67.858 30.179 C 0.0 **** 0.0
2 H 93.588 67.877 29.129 H 0.0 **** 0.0
3 H 93.268 68.567 30.738 H 0.0 **** 0.0
4 H 94.93 68.131 30.271 H 0.0 **** 0.0
5 H 93.728 66.855 30.579 H 0.0 **** 0.0
@<TRIPOS>BOND
1 1 2 1
2 1 3 1
3 1 4 1
4 1 5 1
@<TRIPOS>MOLECULE
CH4
5 4
SMALL
USER_CHARGES


@<TRIPOS>ATOM
1 C 36.84 91.347 1.159 C 0.0 **** 0.0
2 H 36.902 90.271 1.319 H 0.0 **** 0.0
3 H 37.01 91.567 0.104 H 0.0 **** 0.0
4 H 37.597 91.848 1.762 H 0.0 **** 0.0
5 H 35.851 91.701 1.449 H 0.0 **** 0.0
@<TRIPOS>BOND
1 1 2 1
2 1 3 1
3 1 4 1
4 1 5 1
@<TRIPOS>MOLECULE
CH4
5 4
SMALL
USER_CHARGES


@<TRIPOS>ATOM
1 C 54.855 90.277 92.339 C 0.0 **** 0.0
2 H 54.887 89.826 91.347 H 0.0 **** 0.0
3 H 55.627 91.042 92.415 H 0.0 **** 0.0
4 H 55.028 89.509 93.093 H 0.0 **** 0.0
5 H 53.876 90.73 92.5 H 0.0 **** 0.0
@<TRIPOS>BOND
1 1 2 1
2 1 3 1
3 1 4 1
4 1 5 1
@<TRIPOS>MOLECULE
CH4
5 4
SMALL
USER_CHARGES


@<TRIPOS>ATOM
1 C 67.108 0.614 14.856 C 0.0 **** 0.0
2 H 66.7 0.672 15.865 H 0.0 **** 0.0
3 H 67.353 1.616 14.505 H 0.0 **** 0.0
4 H 66.369 0.166 14.191 H 0.0 **** 0.0
5 H 68.009 0.0 14.863 H 0.0 **** 0.0
@<TRIPOS>BOND
1 1 2 1
2 1 3 1
3 1 4 1
4 1 5 1
@<TRIPOS>MOLECULE
CH4
5 4
SMALL
USER_CHARGES


@<TRIPOS>ATOM
1 C 44.863 29.889 37.579 C 0.0 **** 0.0
2 H 45.327 29.625 36.629 H 0.0 **** 0.0
3 H 45.295 30.819 37.949 H 0.0 **** 0.0
4 H 45.04 29.093 38.303 H 0.0 **** 0.0
5 H 43.79 30.017 37.436 H 0.0 **** 0.0
@<TRIPOS>BOND
1 1 2 1
2 1 3 1
3 1 4 1
4 1 5 1
@<TRIPOS>MOLECULE
CH4
5 4
SMALL
USER_CHARGES


@<TRIPOS>ATOM
1 C 37.279 53.21 22.575 C 0.0 **** 0.0
2 H 38.183 53.43 22.008 H 0.0 **** 0.0
3 H 36.971 54.1 23.126 H 0.0 **** 0.0
4 H 37.478 52.4 23.276 H 0.0 **** 0.0
5 H 36.484 52.913 21.891 H 0.0 **** 0.0
@<TRIPOS>BOND
1 1 2 1
2 1 3 1
3 1 4 1
4 1 5 1
@<TRIPOS>MOLECULE
CH4
5 4
SMALL
USER_CHARGES


@<TRIPOS>ATOM
1 C 84.36 38.234 85.085 C 0.0 **** 0.0
2 H 83.579 38.031 85.818 H 0.0 **** 0.0
3 H 83.934 38.784 84.245 H 0.0 **** 0.0
4 H 84.777 37.292 84.728 H 0.0 **** 0.0
5 H 85.147 38.829 85.548 H 0.0 **** 0.0
@<TRIPOS>BOND
1 1 2 1
2 1 3 1
3 1 4 1
4 1 5 1
@<TRIPOS>MOLECULE
CH4
5 4
SMALL
USER_CHARGES


@<TRIPOS>ATOM
1 C 28.479 2.047 35.557 C 0.0 **** 0.0
2 H 28.475 1.998 34.468 H 0.0 **** 0.0
3 H 28.568 3.087 35.873 H 0.0 **** 0.0
4 H 29.324 1.476 35.943 H 0.0 **** 0.0
5 H 27.55 1.628 35.943 H 0.0 **** 0.0
@<TRIPOS>BOND
1 1 2 1
2 1 3 1
3 1 4 1
4 1 5 1
@<TRIPOS>MOLECULE
CH4
5 4
SMALL
USER_CHARGES


@<TRIPOS>ATOM
1 C 92.7 9.238 41.896 C 0.0 **** 0.0
2 H 91.991 9.415 41.087 H 0.0 **** 0.0
3 H 92.199 8.71 42.708 H 0.0 **** 0.0
4 H 93.079 10.192 42.262 H 0.0 **** 0.0
5 H 93.529 8.635 41.527 H 0.0 **** 0.0
@<TRIPOS>BOND
1 1 2 1
2 1 3 1
3 1 4 1
4 1 5 1
@<TRIPOS>MOLECULE
CH4
5 4
SMALL
USER_CHARGES


@<TRIPOS>ATOM
1 C 31.542 83.489 50.916 C 0.0 **** 0.0
2 H 30.484 83.308 50.723 H 0.0 **** 0.0
3 H 32.06 82.535 51.019 H 0.0 **** 0.0
4 H 31.65 84.063 51.836 H 0.0 **** 0.0
5 H 31.971 84.049 50.086 H 0.0 **** 0.0
@<TRIPOS>BOND
1 1 2 1
2 1 3 1
3 1 4 1
4 1 5 1
@<TRIPOS>MOLECULE
CH4
5 4
SMALL
USER_CHARGES


@<TRIPOS>ATOM
1 C 9.494 79.939 39.271 C 0.0 **** 0.0
2 H 9.567 80.118 38.199 H 0.0 **** 0.0
3 H 8.483 80.169 39.609 H 0.0 **** 0.0
4 H 10.207 80.576 39.795 H 0.0 **** 0.0
5 H 9.719 78.893 39.481 H 0.0 **** 0.0
@<TRIPOS>BOND
1 1 2 1
2 1 3 1
3 1 4 1
4 1 5 1
@<TRIPOS>MOLECULE
CH4
5 4
SMALL
USER_CHARGES


@<TRIPOS>ATOM
1 C 62.432 4.406 11.292 C 0.0 **** 0.0
2 H 62.102 5.189 11.974 H 0.0 **** 0.0
3 H 62.66 4.843 10.319 H 0.0 **** 0.0
4 H 61.642 3.664 11.181 H 0.0 **** 0.0
5 H 63.326 3.928 11.694 H 0.0 **** 0.0
@<TRIPOS>BOND
1 1 2 1
2 1 3 1
3 1 4 1
4 1 5 1
@<TRIPOS>MOLECULE
CH4
5 4
SMALL
USER_CHARGES


@<TRIPOS>ATOM
1 C 38.388 11.234 15.52 C 0.0 **** 0.0
2 H 39.121 11.9 15.974 H 0.0 **** 0.0
3 H 38.536 11.214 14.44 H 0.0 **** 0.0
4 H 37.383 11.593 15.743 H 0.0 **** 0.0
5 H 38.512 10.228 15.923 H 0.0 **** 0.0
@<TRIPOS>BOND
1 1 2 1
2 1 3 1
3 1 4 1
4 1 5 1
@<TRIPOS>MOLECULE
CH4
5 4
SMALL
USER_CHARGES


@<TRIPOS>ATOM
1 C 15.473 82.445 18.14 C 0.0 **** 0.0
2 H 15.23 81.8 17.296 H 0.0 **** 0.0
3 H 15.556 83.476 17.797 H 0.0 **** 0.0
4 H 16.42 82.13 18.577 H 0.0 **** 0.0
5 H 14.685 82.373 18.89 H 0.0 **** 0.0
@<TRIPOS>BOND
1 1 2 1
2 1 3 1
3 1 4 1
4 1 5 1
@<TRIPOS>MOLECULE
CH4
5 4
SMALL
USER_CHARGES


@<TRIPOS>ATOM
1 C 67.381 73.639 42.882 C 0.0 **** 0.0
2 H 67.417 73.701 41.794 H 0.0 **** 0.0
3 H 67.755 72.666 43.202 H 0.0 **** 0.0
4 H 66.352 73.763 43.219 H 0.0 **** 0.0
5 H 68.001 74.426 43.311 H 0.0 **** 0.0
@<TRIPOS>BOND
1 1 2 1
2 1 3 1
3 1 4 1
4 1 5 1
@<TRIPOS>MOLECULE
CH4
5 4
SMALL
USER_CHARGES


@<TRIPOS>ATOM
1 C 12.066 55.158 13.116 C 0.0 **** 0.0
2 H 11.728 55.448 14.111 H 0.0 **** 0.0
3 H 11.279 55.366 12.391 H 0.0 **** 0.0
4 H 12.296 54.093 13.107 H 0.0 **** 0.0
5 H 12.96 55.725 12.857 H 0.0 **** 0.0
@<TRIPOS>BOND
1 1 2 1
2 1 3 1
3 1 4 1
4 1 5 1
@<TRIPOS>MOLECULE
CH4
5 4
SMALL
USER_CHARGES


@<TRIPOS>ATOM
1 C 69.038 47.549 47.937 C 0.0 **** 0.0
2 H 68.209 47.59 48.644 H 0.0 **** 0.0
3 H 69.301 48.56 47.628 H 0.0 **** 0.0
4 H 68.742 46.967 47.065 H 0.0 **** 0.0
5 H 69.898 47.078 48.413 H 0.0 **** 0.0
@<TRIPOS>BOND
1 1 2 1
2 1 3 1
3 1 4 1
4 1 5 1
@<TRIPOS>MOLECULE
CH4
5 4
SMALL
USER_CHARGES


@<TRIPOS>ATOM
1 C 44.533 44.869 29.177 C 0.0 **** 0.0
2 H 45.078 45.484 29.893 H 0.0 **** 0.0
3 H 44.738 45.22 28.166 H 0.0 **** 0.0
4 H 43.464 44.94 29.377 H 0.0 **** 0.0
5 H 44.852 43.831 29.273 H 0.0 **** 0.0
@<TRIPOS>BOND
1 1 2 1
2 1 3 1
3 1 4 1
4 1 5 1
@<TRIPOS>MOLECULE
CH4
5 4
SMALL
USER_CHARGES


@<TRIPOS>ATOM
1 C 50.439 85.699 51.94 C 0.0 **** 0.0
2 H 50.989 85.212 52.745 H 0.0 **** 0.0
3 H 51.013 86.549 51.57 H 0.0 **** 0.0
4 H 49.476 86.046 52.316 H 0.0 **** 0.0
5 H 50.277 84.989 51.129 H 0.0 **** 0.0
@<TRIPOS>BOND
1 1 2 1
2 1 3 1
3 1 4 1
4 1 5 1
@<TRIPOS>MOLECULE
CH4
5 4
SMALL
USER_CHARGES


@<TRIPOS>ATOM
1 C 68.523 14.048 33.055 C 0.0 **** 0.0
2 H 67.608 13.456 33.031 H 0.0 **** 0.0
3 H 68.716 14.378 34.076 H 0.0 **** 0.0
4 H 68.408 14.918 32.407 H 0.0 **** 0.0
5 H 69.358 13.442 32.704 H 0.0 **** 0.0
@<TRIPOS>BOND
1 1 2 1
2 1 3 1
3 1 4 1
4 1 5 1
@<TRIPOS>MOLECULE
CH4
5 4
SMALL
USER_CHARGES


@<TRIPOS>ATOM
1 C 30.567 83.687 26.496 C 0.0 **** 0.0
2 H 31.52 83.491 26.988 H 0.0 **** 0.0
3 H 30.731 84.329 25.631 H 0.0 **** 0.0
4 H 29.894 84.183 27.195 H 0.0 **** 0.0
5 H 30.125 82.745 26.172 H 0.0 **** 0.0
@<TRIPOS>BOND
1 1 2 1
2 1 3 1
3 1 4 1
4 1 5 1
@<TRIPOS>MOLECULE
CH4
5 4
SMALL
USER_CHARGES


@<TRIPOS>ATOM
1 C 38.881 26.575 98.299 C 0.0 **** 0.0
2 H 39.621 27.299 97.955 H 0.0 **** 0.0
3 H 38.318 26.199 97.444 H 0.0 **** 0.0
4 H 38.2 27.058 99.0 H 0.0 **** 0.0
5 H 39.387 25.747 98.795 H 0.0 **** 0.0
@<TRIPOS>BOND
1 1 2 1
2 1 3 1
3 1 4 1
4 1 5 1
@<TRIPOS>MOLECULE
CH4
5 4
SMALL
USER_CHARGES


@<TRIPOS>ATOM
1 C 95.469 83.655 45.216 C 0.0 **** 0.0
2 H 94.452 83.839 45.563 H 0.0 **** 0.0
3 H 95.961 82.952 45.889 H 0.0 **** 0.0
4 H 96.023 84.593 45.202 H 0.0 **** 0.0
5 H 95.439 83.235 44.211 H 0.0 **** 0.0
@<TRIPOS>BOND
1 1 2 1
2 1 3 1
3 1 4 1
4 1 5 1
@<TRIPOS>MOLECULE
CH4
5 4
SMALL
USER_CHARGES


@<TRIPOS>ATOM
1 C 27.187 33.406 78.522 C 0.0 **** 0.0
2 H 27.352 33.698 79.559 H 0.0 **** 0.0
3 H 28.149 33.291 78.02 H 0.0 **** 0.0
4 H 26.604 34.176 78.016 H 0.0 **** 0.0
5 H 26.646 32.461 78.492 H 0.0 **** 0.0
@<TRIPOS>BOND
1 1 2 1
2 1 3 1
3 1 4 1
4 1 5 1
@<TRIPOS>MOLECULE
CH4
5 4
SMALL
USER_CHARGES


@<TRIPOS>ATOM
1 C 34.868 58.519 45.571 C 0.0 **** 0.0
2 H 34.262 57.625 45.718 H 0.0 **** 0.0
3 H 35.735 58.274 44.958 H 0.0 **** 0.0
4 H 35.2 58.896 46.538 H 0.0 **** 0.0
5 H 34.272 59.282 45.069 H 0.0 **** 0.0
@<TRIPOS>BOND
1 1 2 1
2 1 3 1
3 1 4 1
4 1 5 1
@<TRIPOS>MOLECULE
CH4
5 4
SMALL
USER_CHARGES


@<TRIPOS>ATOM
1 C 55.398 41.347 61.459 C 0.0 **** 0.0
2 H 55.67 41.546 60.422 H 0.0 **** 0.0
3 H 55.08 42.274 61.936 H 0.0 **** 0.0
4 H 56.261 40.942 61.989 H 0.0 **** 0.0
5 H 54.583 40.624 61.487 H 0.0 **** 0.0
@<TRIPOS>BOND
1 1 2 1
2 1 3 1
3 1 4 1
4 1 5 1
@<TRIPOS>MOLECULE
CH4
5 4
SMALL
USER_CHARGES


@<TRIPOS>ATOM
1 C 39.461 61.694 56.421 C 0.0 **** 0.0
2 H 39.434 61.683 55.331 H 0.0 **** 0.0
3 H 39.125 62.667 56.782 H 0.0 **** 0.0
4 H 40.48 61.512 56.761 H 0.0 **** 0.0
5 H 38.803 60.916 56.808 H 0.0 **** 0.0
@<TRIPOS>BOND
1 1 2 1
2 1 3 1
3 1 4 1
4 1 5 1
@<TRIPOS>MOLECULE
CH4
5 4
SMALL
USER_CHARGES


@<TRIPOS>ATOM
1 C 50.518 86.504 33.335 C 0.0 **** 0.0
2 H 49.895 85.725 32.896 H 0.0 **** 0.0
3 H 49.889 87.211 33.876 H 0.0 **** 0.0
4 H 51.057 87.026 32.544 H 0.0 **** 0.0
5 H 51.233 86.051 34.023 H 0.0 **** 0.0
@<TRIPOS>BOND
1 1 2 1
2 1 3 1
3 1 4 1
4 1 5 1
@<TRIPOS>MOLECULE
CH4
5 4
SMALL
USER_CHARGES


@<TRIPOS>ATOM
1 C 49.751 35.074 0.751 C 0.0 **** 0.0
2 H 49.034 35.891 0.669 H 0.0 **** 0.0
3 H 50.758 35.457 0.59 H 0.0 **** 0.0
4 H 49.526 34.317 0.0 H 0.0 **** 0.0
5 H 49.684 34.631 1.745 H 0.0 **** 0.0
@<TRIPOS>BOND
1 1 2 1
2 1 3 1
3 1 4 1
4 1 5 1
@<TRIPOS>MOLECULE
CH4
5 4
SMALL
USER_CHARGES


@<TRIPOS>ATOM
1 C 46.575 35.994 67.364 C 0.0 **** 0.0
2 H 46.509 36.244 68.423 H 0.0 **** 0.0
3 H 46.576 34.91 67.246 H 0.0 **** 0.0
4 H 47.496 36.405 66.95 H 0.0 **** 0.0
5 H 45.719 36.416 66.837 H 0.0 **** 0.0
@<TRIPOS>BOND
1 1 2 1
2 1 3 1
3 1 4 1
4 1 5 1
@<TRIPOS>MOLECULE
CH4
5 4
SMALL
USER_CHARGES


@<TRIPOS>ATOM
1 C 46.751 47.56 82.833 C 0.0 **** 0.0
2 H 45.944 48.155 82.405 H 0.0 **** 0.0
3 H 47.409 48.206 83.414 H 0.0 **** 0.0
4 H 47.319 47.089 82.031 H 0.0 **** 0.0
5 H 46.33 46.791 83.481 H 0.0 **** 0.0
@<TRIPOS>BOND
1 1 2 1
2 1 3 1
3 1 4 1
4 1 5 1
@<TRIPOS>MOLECULE
CH4
5 4
SMALL
USER_CHARGES


@<TRIPOS>ATOM
1 C 82.815 63.724 78.746 C 0.0 **** 0.0
2 H 82.631 63.951 77.696 H 0.0 **** 0.0
3 H 81.948 63.211 79.164 H 0.0 **** 0.0
4 H 82.988 64.651 79.293 H 0.0 **** 0.0
5 H 83.692 63.083 78.831 H 0.0 **** 0.0
@<TRIPOS>BOND
1 1 2 1
2 1 3 1
3 1 4 1
4 1 5 1
@<TRIPOS>MOLECULE
CH4
5 4
SMALL
USER_CHARGES


@<TRIPOS>ATOM
1 C 89.627 28.642 47.112 C 0.0 **** 0.0
2 H 90.571 29.105 47.4 H 0.0 **** 0.0
3 H 89.516 28.689 46.028 H 0.0 **** 0.0
4 H 88.802 29.175 47.586 H 0.0 **** 0.0
5 H 89.62 27.601 47.434 H 0.0 **** 0.0
@<TRIPOS>BOND
1 1 2 1
2 1 3 1
3 1 4 1
4 1 5 1
@<TRIPOS>MOLECULE
CH4
5 4
SMALL
USER_CHARGES


@<TRIPOS>ATOM
1 C 77.89 6.888 60.26 C 0.0 **** 0.0
2 H 78.084 7.118 59.213 H 0.0 **** 0.0
3 H 78.803 6.513 60.724 H 0.0 **** 0.0
4 H 77.11 6.13 60.327 H 0.0 **** 0.0
5 H 77.565 7.791 60.776 H 0.0 **** 0.0
@<TRIPOS>BOND
1 1 3 1
2 1 4 1
3 1 5 1
4 1 2 1
@<TRIPOS>MOLECULE
CH4
5 4
SMALL
USER_CHARGES


@<TRIPOS>ATOM
1 C 76.544 14.661 42.19 C 0.0 **** 0.0
2 H 77.03 13.685 42.196 H 0.0 **** 0.0
3 H 75.682 14.641 42.858 H 0.0 **** 0.0
4 H 76.214 14.896 41.178 H 0.0 **** 0.0
5 H 77.249 15.42 42.529 H 0.0 **** 0.0
@<TRIPOS>BOND
1 1 2 1
2 1 3 1
3 1 4 1
4 1 5 1
@<TRIPOS>MOLECULE
CH4
5 4
SMALL
USER_CHARGES


@<TRIPOS>ATOM
1 C 58.454 20.215 34.805 C 0.0 **** 0.0
2 H 58.812 19.476 34.088 H 0.0 **** 0.0
3 H 59.034 20.137 35.726 H 0.0 **** 0.0
4 H 57.402 20.032 35.021 H 0.0 **** 0.0
5 H 58.57 21.214 34.386 H 0.0 **** 0.0
@<TRIPOS>BOND
1 1 2 1
2 1 3 1
3 1 4 1
4 1 5 1
@<TRIPOS>MOLECULE
CH4
5 4
SMALL
USER_CHARGES


@<TRIPOS>ATOM
1 C 74.316 25.044 75.294 C 0.0 **** 0.0
2 H 74.034 25.946 74.752 H 0.0 **** 0.0
3 H 73.722 24.966 76.205 H 0.0 **** 0.0
4 H 75.374 25.091 75.552 H 0.0 **** 0.0
5 H 74.134 24.172 74.665 H 0.0 **** 0.0
@<TRIPOS>BOND
1 1 2 1
2 1 3 1
3 1 4 1
4 1 5 1
@<TRIPOS>MOLECULE
CH4
5 4
SMALL
USER_CHARGES


@<TRIPOS>ATOM
1 C 22.298 90.534 69.543 C 0.0 **** 0.0
2 H 22.255 90.437 70.628 H 0.0 **** 0.0
3 H 23.269 90.934 69.252 H 0.0 **** 0.0
4 H 21.51 91.209 69.207 H 0.0 **** 0.0
5 H 22.156 89.554 69.085 H 0.0 **** 0.0
@<TRIPOS>BOND
1 1 2 1
2 1 3 1
3 1 4 1
4 1 5 1
@<TRIPOS>MOLECULE
CH4
5 4
SMALL
USER_CHARGES


@<TRIPOS>ATOM
1 C 52.649 21.784 68.926 C 0.0 **** 0.0
2 H 52.577 21.807 67.839 H 0.0 **** 0.0
3 H 53.549 22.312 69.242 H 0.0 **** 0.0
4 H 52.696 20.749 69.265 H 0.0 **** 0.0
5 H 51.772 22.268 69.358 H 0.0 **** 0.0
@<TRIPOS>BOND
1 1 2 1
2 1 3 1
3 1 4 1
4 1 5 1
@<TRIPOS>MOLECULE
CH4
5 4
SMALL
USER_CHARGES


@<TRIPOS>ATOM
1 C 40.178 6.507 47.234 C 0.0 **** 0.0
2 H 40.364 7.558 47.456 H 0.0 **** 0.0
3 H 40.153 5.939 48.164 H 0.0 **** 0.0
4 H 40.974 6.125 46.595 H 0.0 **** 0.0
5 H 39.222 6.409 46.721 H 0.0 **** 0.0
@<TRIPOS>BOND
1 1 2 1
2 1 3 1
3 1 4 1
4 1 5 1
@<TRIPOS>MOLECULE
CH4
5 4
SMALL
USER_CHARGES


@<TRIPOS>ATOM
1 C 64.127 23.899 50.84 C 0.0 **** 0.0
2 H 64.076 24.498 49.931 H 0.0 **** 0.0
3 H 64.271 24.556 51.699 H 0.0 **** 0.0
4 H 64.962 23.203 50.77 H 0.0 **** 0.0
5 H 63.198 23.342 50.961 H 0.0 **** 0.0
@<TRIPOS>BOND
1 1 2 1
2 1 3 1
3 1 4 1
4 1 5 1
@<TRIPOS>MOLECULE
CH4
5 4
SMALL
USER_CHARGES


@<TRIPOS>ATOM
1 C 63.132 31.077 24.116 C 0.0 **** 0.0
2 H 63.456 32.109 23.981 H 0.0 **** 0.0
3 H 62.483 30.789 23.289 H 0.0 **** 0.0
4 H 62.587 30.987 25.055 H 0.0 **** 0.0
5 H 64.004 30.423 24.138 H 0.0 **** 0.0
@<TRIPOS>BOND
1 1 2 1
2 1 3 1
3 1 4 1
4 1 5 1
@<TRIPOS>MOLECULE
CH4
5 4
SMALL
USER_CHARGES


@<TRIPOS>ATOM
1 C 47.256 5.048 22.775 C 0.0 **** 0.0
2 H 48.239 5.249 23.201 H 0.0 **** 0.0
3 H 46.505 5.077 23.565 H 0.0 **** 0.0
4 H 47.256 4.063 22.309 H 0.0 **** 0.0
5 H 47.024 5.804 22.025 H 0.0 **** 0.0
@<TRIPOS>BOND
1 1 2 1
2 1 3 1
3 1 4 1
4 1 5 1
@<TRIPOS>MOLECULE
CH4
5 4
SMALL
USER_CHARGES


@<TRIPOS>ATOM
1 C 51.769 42.685 60.262 C 0.0 **** 0.0
2 H 52.794 43.024 60.11 H 0.0 **** 0.0
3 H 51.694 41.628 60.005 H 0.0 **** 0.0
4 H 51.098 43.263 59.626 H 0.0 **** 0.0
5 H 51.49 42.826 61.306 H 0.0 **** 0.0
@<TRIPOS>BOND
1 1 2 1
2 1 3 1
3 1 4 1
4 1 5 1
@<TRIPOS>MOLECULE
CH4
5 4
SMALL
USER_CHARGES


@<TRIPOS>ATOM
1 C 36.309 65.97 27.315 C 0.0 **** 0.0
2 H 36.98 66.412 26.578 H 0.0 **** 0.0
3 H 36.338 64.884 27.227 H 0.0 **** 0.0
4 H 35.293 66.322 27.137 H 0.0 **** 0.0
5 H 36.625 66.263 28.316 H 0.0 **** 0.0
@<TRIPOS>BOND
1 1 2 1
2 1 3 1
3 1 4 1
4 1 5 1
@<TRIPOS>MOLECULE
CH4
5 4
SMALL
USER_CHARGES


@<TRIPOS>ATOM
1 C 12.072 34.468 29.518 C 0.0 **** 0.0
2 H 11.438 35.004 30.224 H 0.0 **** 0.0
3 H 12.332 33.493 29.931 H 0.0 **** 0.0
4 H 12.982 35.042 29.34 H 0.0 **** 0.0
5 H 11.537 34.335 28.578 H 0.0 **** 0.0
@<TRIPOS>BOND
1 1 2 1
2 1 3 1
3 1 4 1
4 1 5 1
@<TRIPOS>MOLECULE
CH4
5 4
SMALL
USER_CHARGES


@<TRIPOS>ATOM
1 C 85.507 63.798 50.278 C 0.0 **** 0.0
2 H 85.097 64.498 49.55 H 0.0 **** 0.0
3 H 86.077 63.027 49.76 H 0.0 **** 0.0
4 H 84.692 63.336 50.835 H 0.0 **** 0.0
5 H 86.161 64.332 50.968 H 0.0 **** 0.0
@<TRIPOS>BOND
1 1 2 1
2 1 3 1
3 1 4 1
4 1 5 1
@<TRIPOS>MOLECULE
CH4
5 4
SMALL
USER_CHARGES


@<TRIPOS>ATOM
1 C 89.777 0.633 67.049 C 0.0 **** 0.0
2 H 90.289 1.199 67.827 H 0.0 **** 0.0
3 H 89.299 1.323 66.353 H 0.0 **** 0.0
4 H 89.021 -0.007 67.504 H 0.0 **** 0.0
5 H 90.499 0.017 66.512 H 0.0 **** 0.0
@<TRIPOS>BOND
1 1 2 1
2 1 3 1
3 1 4 1
4 1 5 1
@<TRIPOS>MOLECULE
CH4
5 4
SMALL
USER_CHARGES


@<TRIPOS>ATOM
1 C 96.867 86.668 29.954 C 0.0 **** 0.0
2 H 97.159 87.473 29.279 H 0.0 **** 0.0
3 H 97.29 85.727 29.602 H 0.0 **** 0.0
4 H 95.78 86.591 29.979 H 0.0 **** 0.0
5 H 97.24 86.881 30.956 H 0.0 **** 0.0
@<TRIPOS>BOND
1 1 2 1
2 1 3 1
3 1 4 1
4 1 5 1
@<TRIPOS>MOLECULE
CH4
5 4
SMALL
USER_CHARGES


@<TRIPOS>ATOM
1 C 1.026 78.591 19.945 C 0.0 **** 0.0
2 H 0.003 78.967 19.942 H 0.0 **** 0.0
3 H 1.316 78.335 20.964 H 0.0 **** 0.0
4 H 1.696 79.359 19.558 H 0.0 **** 0.0
5 H 1.089 77.704 19.314 H 0.0 **** 0.0
@<TRIPOS>BOND
1 1 2 1
2 1 3 1
3 1 4 1
4 1 5 1
@<TRIPOS>MOLECULE
CH4
5 4
SMALL
USER_CHARGES


@<TRIPOS>ATOM
1 C 31.61 85.283 12.465 C 0.0 **** 0.0
2 H 30.577 85.549 12.241 H 0.0 **** 0.0
3 H 31.757 84.217 12.288 H 0.0 **** 0.0
4 H 31.826 85.512 13.508 H 0.0 **** 0.0
5 H 32.279 85.854 11.821 H 0.0 **** 0.0
@<TRIPOS>BOND
1 1 2 1
2 1 3 1
3 1 4 1
4 1 5 1
@<TRIPOS>MOLECULE
CH4
5 4
SMALL
USER_CHARGES


@<TRIPOS>ATOM
1 C 25.039 17.552 28.381 C 0.0 **** 0.0
2 H 25.019 17.481 27.293 H 0.0 **** 0.0
3 H 25.01 18.601 28.676 H 0.0 **** 0.0
4 H 25.953 17.093 28.758 H 0.0 **** 0.0
5 H 24.174 17.034 28.794 H 0.0 **** 0.0
@<TRIPOS>BOND
1 1 2 1
2 1 4 1
3 1 3 1
4 1 5 1
@<TRIPOS>MOLECULE
CH4
5 4
SMALL
USER_CHARGES


@<TRIPOS>ATOM
1 C 28.637 86.015 77.414 C 0.0 **** 0.0
2 H 29.67 86.353 77.501 H 0.0 **** 0.0
3 H 27.974 86.758 77.859 H 0.0 **** 0.0
4 H 28.521 85.065 77.936 H 0.0 **** 0.0
5 H 28.385 85.885 76.362 H 0.0 **** 0.0
@<TRIPOS>BOND
1 1 2 1
2 1 3 1
3 1 4 1
4 1 5 1
@<TRIPOS>MOLECULE
CH4
5 4
SMALL
USER_CHARGES


@<TRIPOS>ATOM
1 C 26.459 54.424 32.52 C 0.0 **** 0.0
2 H 26.512 55.493 32.725 H 0.0 **** 0.0
3 H 25.636 53.986 33.086 H 0.0 **** 0.0
4 H 27.396 53.951 32.814 H 0.0 **** 0.0
5 H 26.292 54.267 31.454 H 0.0 **** 0.0
@<TRIPOS>BOND
1 1 2 1
2 1 3 1
3 1 4 1
4 1 5 1
@<TRIPOS>MOLECULE
CH4
5 4
SMALL
USER_CHARGES


@<TRIPOS>ATOM
1 C 36.552 95.876 93.032 C 0.0 **** 0.0
2 H 36.562 95.777 91.947 H 0.0 **** 0.0
3 H 37.556 96.11 93.385 H 0.0 **** 0.0
4 H 36.218 94.939 93.479 H 0.0 **** 0.0
5 H 35.87 96.677 93.317 H 0.0 **** 0.0
@<TRIPOS>BOND
1 1 2 1
2 1 3 1
3 1 4 1
4 1 5 1
@<TRIPOS>MOLECULE
CH4
5 4
SMALL
USER_CHARGES


@<TRIPOS>ATOM
1 C 85.273 55.271 23.986 C 0.0 **** 0.0
2 H 84.961 54.819 23.044 H 0.0 **** 0.0
3 H 86.041 54.651 24.45 H 0.0 **** 0.0
4 H 84.415 55.347 24.653 H 0.0 **** 0.0
5 H 85.676 56.266 23.795 H 0.0 **** 0.0
@<TRIPOS>BOND
1 1 2 1
2 1 3 1
3 1 4 1
4 1 5 1
@<TRIPOS>MOLECULE
CH4
5 4
SMALL
USER_CHARGES


@<TRIPOS>ATOM
1 C 30.532 47.472 50.53 C 0.0 **** 0.0
2 H 30.426 46.799 49.68 H 0.0 **** 0.0
3 H 31.212 47.032 51.26 H 0.0 **** 0.0
4 H 29.557 47.631 50.992 H 0.0 **** 0.0
5 H 30.933 48.427 50.19 H 0.0 **** 0.0
@<TRIPOS>BOND
1 1 2 1
2 1 3 1
3 1 4 1
4 1 5 1
@<TRIPOS>MOLECULE
CH4
5 4
SMALL
USER_CHARGES


@<TRIPOS>ATOM
1 C 36.443 37.754 53.324 C 0.0 **** 0.0
2 H 37.483 37.882 53.023 H 0.0 **** 0.0
3 H 35.96 38.73 53.385 H 0.0 **** 0.0
4 H 36.404 37.268 54.299 H 0.0 **** 0.0
5 H 35.926 37.138 52.589 H 0.0 **** 0.0
@<TRIPOS>BOND
1 1 2 1
2 1 3 1
3 1 4 1
4 1 5 1
@<TRIPOS>MOLECULE
CH4
5 4
SMALL
USER_CHARGES


@<TRIPOS>ATOM
1 C 95.679 69.789 26.683 C 0.0 **** 0.0
2 H 95.543 69.933 25.611 H 0.0 **** 0.0
3 H 95.461 68.753 26.94 H 0.0 **** 0.0
4 H 95.004 70.45 27.227 H 0.0 **** 0.0
5 H 96.709 70.022 26.952 H 0.0 **** 0.0
@<TRIPOS>BOND
1 1 4 1
2 1 5 1
3 1 2 1
4 1 3 1
@<TRIPOS>MOLECULE
CH4
5 4
SMALL
USER_CHARGES


@<TRIPOS>ATOM
1 C 82.969 92.496 70.496 C 0.0 **** 0.0
2 H 82.622 92.543 71.529 H 0.0 **** 0.0
3 H 83.067 93.507 70.1 H 0.0 **** 0.0
4 H 82.251 91.938 69.896 H 0.0 **** 0.0
5 H 83.938 91.997 70.461 H 0.0 **** 0.0
@<TRIPOS>BOND
1 1 2 1
2 1 3 1
3 1 4 1
4 1 5 1
@<TRIPOS>MOLECULE
CH4
5 4
SMALL
USER_CHARGES


@<TRIPOS>ATOM
1 C 35.668 83.95 18.653 C 0.0 **** 0.0
2 H 35.528 84.933 19.102 H 0.0 **** 0.0
3 H 36.524 83.458 19.115 H 0.0 **** 0.0
4 H 35.846 84.061 17.583 H 0.0 **** 0.0
5 H 34.774 83.348 18.811 H 0.0 **** 0.0
@<TRIPOS>BOND
1 1 2 1
2 1 3 1
3 1 4 1
4 1 5 1
@<TRIPOS>MOLECULE
CH4
5 4
SMALL
USER_CHARGES


@<TRIPOS>ATOM
1 C 55.61 35.857 93.229 C 0.0 **** 0.0
2 H 56.116 36.238 92.342 H 0.0 **** 0.0
3 H 54.683 36.409 93.383 H 0.0 **** 0.0
4 H 56.257 35.982 94.097 H 0.0 **** 0.0
5 H 55.385 34.799 93.092 H 0.0 **** 0.0
@<TRIPOS>BOND
1 1 2 1
2 1 3 1
3 1 4 1
4 1 5 1
@<TRIPOS>MOLECULE
CH4
5 4
SMALL
USER_CHARGES


@<TRIPOS>ATOM
1 C 10.805 50.731 34.358 C 0.0 **** 0.0
2 H 10.729 49.76 33.868 H 0.0 **** 0.0
3 H 11.734 50.78 34.925 H 0.0 **** 0.0
4 H 9.959 50.863 35.033 H 0.0 **** 0.0
5 H 10.796 51.519 33.605 H 0.0 **** 0.0
@<TRIPOS>BOND
1 1 2 1
2 1 3 1
3 1 4 1
4 1 5 1
@<TRIPOS>MOLECULE
CH4
5 4
SMALL
USER_CHARGES


@<TRIPOS>ATOM
1 C 25.254 94.801 58.606 C 0.0 **** 0.0
2 H 25.279 94.033 57.833 H 0.0 **** 0.0
3 H 26.204 95.335 58.618 H 0.0 **** 0.0
4 H 25.086 94.334 59.577 H 0.0 **** 0.0
5 H 24.445 95.501 58.395 H 0.0 **** 0.0
@<TRIPOS>BOND
1 1 2 1
2 1 3 1
3 1 4 1
4 1 5 1
@<TRIPOS>MOLECULE
CH4
5 4
SMALL
USER_CHARGES


@<TRIPOS>ATOM
1 C 44.355 80.39 18.24 C 0.0 **** 0.0
2 H 44.813 79.913 17.373 H 0.0 **** 0.0
3 H 44.984 81.216 18.574 H 0.0 **** 0.0
4 H 44.255 79.662 19.044 H 0.0 **** 0.0
5 H 43.37 80.769 17.968 H 0.0 **** 0.0
@<TRIPOS>BOND
1 1 2 1
2 1 3 1
3 1 4 1
4 1 5 1
@<TRIPOS>MOLECULE
CH4
5 4
SMALL
USER_CHARGES


@<TRIPOS>ATOM
1 C 49.436 34.099 20.05 C 0.0 **** 0.0
2 H 49.113 34.35 19.04 H 0.0 **** 0.0
3 H 49.521 33.016 20.146 H 0.0 **** 0.0
4 H 48.706 34.472 20.768 H 0.0 **** 0.0
5 H 50.405 34.558 20.246 H 0.0 **** 0.0
@<TRIPOS>BOND
1 1 2 1
2 1 3 1
3 1 4 1
4 1 5 1
@<TRIPOS>MOLECULE
CH4
5 4
SMALL
USER_CHARGES


@<TRIPOS>ATOM
1 C 68.529 54.242 36.286 C 0.0 **** 0.0
2 H 68.541 53.152 36.251 H 0.0 **** 0.0
3 H 69.509 54.606 36.595 H 0.0 **** 0.0
4 H 67.775 54.574 36.999 H 0.0 **** 0.0
5 H 68.291 54.634 35.297 H 0.0 **** 0.0
@<TRIPOS>BOND
1 1 2 1
2 1 3 1
3 1 4 1
4 1 5 1
@<TRIPOS>MOLECULE
CH4
5 4
SMALL
USER_CHARGES


@<TRIPOS>ATOM
1 C 10.759 55.927 55.551 C 0.0 **** 0.0
2 H 10.818 55.925 54.462 H 0.0 **** 0.0
3 H 11.474 56.645 55.952 H 0.0 **** 0.0
4 H 10.993 54.931 55.928 H 0.0 **** 0.0
5 H 9.751 56.205 55.859 H 0.0 **** 0.0
@<TRIPOS>BOND
1 1 2 1
2 1 3 1
3 1 4 1
4 1 5 1
@<TRIPOS>MOLECULE
CH4
5 4
SMALL
USER_CHARGES


@<TRIPOS>ATOM
1 C 41.249 19.425 21.842 C 0.0 **** 0.0
2 H 41.099 20.044 20.957 H 0.0 **** 0.0
3 H 42.311 19.208 21.958 H 0.0 **** 0.0
4 H 40.697 18.492 21.728 H 0.0 **** 0.0
5 H 40.887 19.956 22.722 H 0.0 **** 0.0
@<TRIPOS>BOND
1 1 2 1
2 1 3 1
3 1 4 1
4 1 5 1
@<TRIPOS>MOLECULE
CH4
5 4
SMALL
USER_CHARGES


@<TRIPOS>ATOM
1 C 24.606 52.226 64.777 C 0.0 **** 0.0
2 H 24.837 51.644 65.668 H 0.0 **** 0.0
3 H 25.531 52.489 64.264 H 0.0 **** 0.0
4 H 24.078 53.136 65.064 H 0.0 **** 0.0
5 H 23.976 51.636 64.111 H 0.0 **** 0.0
@<TRIPOS>BOND
1 1 2 1
2 1 3 1
3 1 4 1
4 1 5 1
@<TRIPOS>MOLECULE
CH4
5 4
SMALL
USER_CHARGES


@<TRIPOS>ATOM
1 C 15.308 51.734 89.35 C 0.0 **** 0.0
2 H 15.282 51.833 90.435 H 0.0 **** 0.0
3 H 14.547 52.378 88.909 H 0.0 **** 0.0
4 H 15.111 50.698 89.074 H 0.0 **** 0.0
5 H 16.291 52.028 88.982 H 0.0 **** 0.0
@<TRIPOS>BOND
1 1 2 1
2 1 3 1
3 1 4 1
4 1 5 1
@<TRIPOS>MOLECULE
CH4
5 4
SMALL
USER_CHARGES


@<TRIPOS>ATOM
1 C 18.368 22.748 5.574 C 0.0 **** 0.0
2 H 18.28 23.434 4.732 H 0.0 **** 0.0
3 H 17.614 21.965 5.484 H 0.0 **** 0.0
4 H 18.215 23.295 6.505 H 0.0 **** 0.0
5 H 19.361 22.299 5.575 H 0.0 **** 0.0
@<TRIPOS>BOND
1 1 2 1
2 1 3 1
3 1 4 1
4 1 5 1
@<TRIPOS>MOLECULE
CH4
5 4
SMALL
USER_CHARGES


@<TRIPOS>ATOM
1 C 17.159 21.429 96.405 C 0.0 **** 0.0
2 H 17.371 21.568 97.465 H 0.0 **** 0.0
3 H 16.367 20.69 96.287 H 0.0 **** 0.0
4 H 18.059 21.083 95.897 H 0.0 **** 0.0
5 H 16.839 22.377 95.971 H 0.0 **** 0.0
@<TRIPOS>BOND
1 1 2 1
2 1 3 1
3 1 4 1
4 1 5 1
@<TRIPOS>MOLECULE
CH4
5 4
SMALL
USER_CHARGES


@<TRIPOS>ATOM
1 C 58.657 37.632 78.284 C 0.0 **** 0.0
2 H 58.563 37.577 79.368 H 0.0 **** 0.0
3 H 58.094 36.818 77.828 H 0.0 **** 0.0
4 H 59.708 37.548 78.006 H 0.0 **** 0.0
5 H 58.264 38.587 77.934 H 0.0 **** 0.0
@<TRIPOS>BOND
1 1 2 1
2 1 3 1
3 1 4 1
4 1 5 1
@<TRIPOS>MOLECULE
CH4
5 4
SMALL
USER_CHARGES


@<TRIPOS>ATOM
1 C 39.416 57.064 88.28 C 0.0 **** 0.0
2 H 39.423 57.104 87.191 H 0.0 **** 0.0
3 H 39.064 56.085 88.605 H 0.0 **** 0.0
4 H 38.752 57.837 88.667 H 0.0 **** 0.0
5 H 40.426 57.231 88.656 H 0.0 **** 0.0
@<TRIPOS>BOND
1 1 2 1
2 1 3 1
3 1 4 1
4 1 5 1
@<TRIPOS>MOLECULE
CH4
5 4
SMALL
USER_CHARGES


@<TRIPOS>ATOM
1 C 80.716 75.932 38.792 C 0.0 **** 0.0
2 H 80.712 75.751 39.867 H 0.0 **** 0.0
3 H 81.445 75.276 38.316 H 0.0 **** 0.0
4 H 80.981 76.971 38.6 H 0.0 **** 0.0
5 H 79.725 75.729 38.386 H 0.0 **** 0.0
@<TRIPOS>BOND
1 1 2 1
2 1 3 1
3 1 4 1
4 1 5 1
@<TRIPOS>MOLECULE
CH4
5 4
SMALL
USER_CHARGES


@<TRIPOS>ATOM
1 C 63.003 27.141 20.021 C 0.0 **** 0.0
2 H 62.448 26.714 19.186 H 0.0 **** 0.0
3 H 64.021 27.368 19.703 H 0.0 **** 0.0
4 H 63.031 26.425 20.843 H 0.0 **** 0.0
5 H 62.513 28.056 20.353 H 0.0 **** 0.0
@<TRIPOS>BOND
1 1 2 1
2 1 3 1
3 1 4 1
4 1 5 1
@<TRIPOS>MOLECULE
CH4
5 4
SMALL
USER_CHARGES


@<TRIPOS>ATOM
1 C 28.087 59.704 78.575 C 0.0 **** 0.0
2 H 27.979 60.117 77.572 H 0.0 **** 0.0
3 H 28.83 58.907 78.561 H 0.0 **** 0.0
4 H 27.129 59.304 78.908 H 0.0 **** 0.0
5 H 28.409 60.49 79.258 H 0.0 **** 0.0
@<TRIPOS>BOND
1 1 2 1
2 1 3 1
3 1 4 1
4 1 5 1
@<TRIPOS>MOLECULE
CH4
5 4
SMALL
USER_CHARGES


@<TRIPOS>ATOM
1 C 49.732 3.282 56.931 C 0.0 **** 0.0
2 H 50.422 2.804 56.236 H 0.0 **** 0.0
3 H 49.684 2.701 57.852 H 0.0 **** 0.0
4 H 48.74 3.333 56.482 H 0.0 **** 0.0
5 H 50.082 4.29 57.155 H 0.0 **** 0.0
@<TRIPOS>BOND
1 1 2 1
2 1 3 1
3 1 4 1
4 1 5 1
@<TRIPOS>MOLECULE
CH4
5 4
SMALL
USER_CHARGES


@<TRIPOS>ATOM
1 C 96.39 37.215 28.714 C 0.0 **** 0.0
2 H 95.989 37.128 27.705 H 0.0 **** 0.0
3 H 95.667 36.819 29.428 H 0.0 **** 0.0
4 H 96.585 38.264 28.938 H 0.0 **** 0.0
5 H 97.319 36.65 28.786 H 0.0 **** 0.0
@<TRIPOS>BOND
1 1 2 1
2 1 3 1
3 1 4 1
4 1 5 1
@<TRIPOS>MOLECULE
CH4
5 4
SMALL
USER_CHARGES


@<TRIPOS>ATOM
1 C 91.33 15.061 80.234 C 0.0 **** 0.0
2 H 91.327 15.045 81.324 H 0.0 **** 0.0
3 H 91.147 14.055 79.856 H 0.0 **** 0.0
4 H 92.298 15.414 79.879 H 0.0 **** 0.0
5 H 90.546 15.731 79.879 H 0.0 **** 0.0
@<TRIPOS>BOND
1 1 2 1
2 1 3 1
3 1 4 1
4 1 5 1
@<TRIPOS>MOLECULE
CH4
5 4
SMALL
USER_CHARGES


@<TRIPOS>ATOM
1 C 55.281 24.438 72.206 C 0.0 **** 0.0
2 H 55.171 24.529 71.125 H 0.0 **** 0.0
3 H 54.339 24.694 72.69 H 0.0 **** 0.0
4 H 56.063 25.115 72.549 H 0.0 **** 0.0
5 H 55.553 23.412 72.457 H 0.0 **** 0.0
@<TRIPOS>BOND
1 1 2 1
2 1 3 1
3 1 4 1
4 1 5 1
@<TRIPOS>MOLECULE
CH4
5 4
SMALL
USER_CHARGES


@<TRIPOS>ATOM
1 C 2.283 94.463 22.355 C 0.0 **** 0.0
2 H 2.454 94.391 21.281 H 0.0 **** 0.0
3 H 1.212 94.426 22.556 H 0.0 **** 0.0
4 H 2.69 95.404 22.726 H 0.0 **** 0.0
5 H 2.776 93.631 22.858 H 0.0 **** 0.0
@<TRIPOS>BOND
1 1 2 1
2 1 3 1
3 1 4 1
4 1 5 1
@<TRIPOS>MOLECULE
CH4
5 4
SMALL
USER_CHARGES


@<TRIPOS>ATOM
1 C 43.182 30.697 42.385 C 0.0 **** 0.0
2 H 43.848 31.279 41.747 H 0.0 **** 0.0
3 H 42.198 30.633 41.919 H 0.0 **** 0.0
4 H 43.094 31.184 43.356 H 0.0 **** 0.0
5 H 43.589 29.695 42.516 H 0.0 **** 0.0
@<TRIPOS>BOND
1 1 5 1
2 1 2 1
3 1 3 1
4 1 4 1
@<TRIPOS>MOLECULE
CH4
5 4
SMALL
USER_CHARGES


@<TRIPOS>ATOM
1 C 74.374 40.374 92.924 C 0.0 **** 0.0
2 H 74.31 40.403 94.012 H 0.0 **** 0.0
3 H 75.419 40.306 92.624 H 0.0 **** 0.0
4 H 73.935 41.282 92.511 H 0.0 **** 0.0
5 H 73.831 39.506 92.552 H 0.0 **** 0.0
@<TRIPOS>BOND
1 1 2 1
2 1 3 1
3 1 4 1
4 1 5 1
@<TRIPOS>MOLECULE
CH4
5 4
SMALL
USER_CHARGES


@<TRIPOS>ATOM
1 C 39.042 62.134 8.798 C 0.0 **** 0.0
2 H 39.642 62.152 9.708 H 0.0 **** 0.0
3 H 39.233 63.038 8.22 H 0.0 **** 0.0
4 H 37.985 62.087 9.061 H 0.0 **** 0.0
5 H 39.309 61.259 8.205 H 0.0 **** 0.0
@<TRIPOS>BOND
1 1 2 1
2 1 3 1
3 1 4 1
4 1 5 1
@<TRIPOS>MOLECULE
CH4
5 4
SMALL
USER_CHARGES


@<TRIPOS>ATOM
1 C 96.038 89.964 23.175 C 0.0 **** 0.0
2 H 96.316 89.153 22.501 H 0.0 **** 0.0
3 H 96.101 90.915 22.644 H 0.0 **** 0.0
4 H 96.718 89.978 24.027 H 0.0 **** 0.0
5 H 95.018 89.811 23.526 H 0.0 **** 0.0
@<TRIPOS>BOND
1 1 2 1
2 1 3 1
3 1 4 1
4 1 5 1
@<TRIPOS>MOLECULE
CH4
5 4
SMALL
USER_CHARGES


@<TRIPOS>ATOM
1 C 5.83 38.776 69.54 C 0.0 **** 0.0
2 H 5.46 38.994 70.542 H 0.0 **** 0.0
3 H 6.724 39.369 69.347 H 0.0 **** 0.0
4 H 5.063 39.026 68.807 H 0.0 **** 0.0
5 H 6.073 37.717 69.465 H 0.0 **** 0.0
@<TRIPOS>BOND
1 1 2 1
2 1 3 1
3 1 4 1
4 1 5 1
@<TRIPOS>MOLECULE
CH4
5 4
SMALL
USER_CHARGES


@<TRIPOS>ATOM
1 C 81.878 54.067 23.368 C 0.0 **** 0.0
2 H 81.784 54.705 22.489 H 0.0 **** 0.0
3 H 82.562 53.246 23.15 H 0.0 **** 0.0
4 H 80.9 53.666 23.632 H 0.0 **** 0.0
5 H 82.267 54.653 24.202 H 0.0 **** 0.0
@<TRIPOS>BOND
1 1 2 1
2 1 3 1
3 1 4 1
4 1 5 1
@<TRIPOS>MOLECULE
CH4
5 4
SMALL
USER_CHARGES


@<TRIPOS>ATOM
1 C 15.788 97.523 96.19 C 0.0 **** 0.0
2 H 16.251 96.674 95.687 H 0.0 **** 0.0
3 H 14.792 97.242 96.534 H 0.0 **** 0.0
4 H 15.71 98.359 95.494 H 0.0 **** 0.0
5 H 16.398 97.817 97.044 H 0.0 **** 0.0
@<TRIPOS>BOND
1 1 2 1
2 1 3 1
3 1 4 1
4 1 5 1
@<TRIPOS>MOLECULE
CH4
5 4
SMALL
USER_CHARGES


@<TRIPOS>ATOM
1 C 28.739 86.848 86.827 C 0.0 **** 0.0
2 H 29.338 86.179 87.444 H 0.0 **** 0.0
3 H 28.65 86.433 85.822 H 0.0 **** 0.0
4 H 29.221 87.824 86.776 H 0.0 **** 0.0
5 H 27.747 86.955 87.265 H 0.0 **** 0.0
@<TRIPOS>BOND
1 1 2 1
2 1 3 1
3 1 4 1
4 1 5 1
@<TRIPOS>MOLECULE
CH4
5 4
SMALL
USER_CHARGES


@<TRIPOS>ATOM
1 C 17.259 10.547 56.761 C 0.0 **** 0.0
2 H 17.71 10.511 57.752 H 0.0 **** 0.0
3 H 16.785 9.59 56.542 H 0.0 **** 0.0
4 H 18.03 10.75 56.017 H 0.0 **** 0.0
5 H 16.509 11.338 56.732 H 0.0 **** 0.0
@<TRIPOS>BOND
1 1 2 1
2 1 3 1
3 1 4 1
4 1 5 1
@<TRIPOS>MOLECULE
CH4
5 4
SMALL
USER_CHARGES


@<TRIPOS>ATOM
1 C 92.596 90.201 16.609 C 0.0 **** 0.0
2 H 92.798 89.258 16.101 H 0.0 **** 0.0
3 H 93.378 90.393 17.344 H 0.0 **** 0.0
4 H 91.631 90.142 17.113 H 0.0 **** 0.0
5 H 92.577 91.01 15.879 H 0.0 **** 0.0
@<TRIPOS>BOND
1 1 2 1
2 1 3 1
3 1 4 1
4 1 5 1
@<TRIPOS>MOLECULE
CH4
5 4
SMALL
USER_CHARGES


@<TRIPOS>ATOM
1 C 16.693 47.381 54.332 C 0.0 **** 0.0
2 H 17.316 47.239 55.215 H 0.0 **** 0.0
3 H 16.711 46.475 53.726 H 0.0 **** 0.0
4 H 17.078 48.217 53.748 H 0.0 **** 0.0
5 H 15.669 47.593 54.639 H 0.0 **** 0.0
@<TRIPOS>BOND
1 1 2 1
2 1 3 1
3 1 4 1
4 1 5 1
@<TRIPOS>MOLECULE
CH4
5 4
SMALL
USER_CHARGES


@<TRIPOS>ATOM
1 C 20.125 1.232 16.923 C 0.0 **** 0.0
2 H 20.134 1.226 18.013 H 0.0 **** 0.0
3 H 19.12 1.462 16.569 H 0.0 **** 0.0
4 H 20.427 0.253 16.552 H 0.0 **** 0.0
5 H 20.821 1.989 16.559 H 0.0 **** 0.0
@<TRIPOS>BOND
1 1 2 1
2 1 3 1
3 1 4 1
4 1 5 1
@<TRIPOS>MOLECULE
CH4
5 4
SMALL
USER_CHARGES


@<TRIPOS>ATOM
1 C 86.006 15.589 6.63 C 0.0 **** 0.0
2 H 86.012 15.565 5.541 H 0.0 **** 0.0
3 H 86.599 16.435 6.978 H 0.0 **** 0.0
4 H 86.431 14.663 7.017 H 0.0 **** 0.0
5 H 84.981 15.694 6.985 H 0.0 **** 0.0
@<TRIPOS>BOND
1 1 2 1
2 1 3 1
3 1 4 1
4 1 5 1
@<TRIPOS>MOLECULE
CH4
5 4
SMALL
USER_CHARGES


@<TRIPOS>ATOM
1 C 74.461 47.584 33.562 C 0.0 **** 0.0
2 H 75.412 48.057 33.317 H 0.0 **** 0.0
3 H 74.395 46.619 33.061 H 0.0 **** 0.0
4 H 73.643 48.223 33.231 H 0.0 **** 0.0
5 H 74.395 47.44 34.641 H 0.0 **** 0.0
@<TRIPOS>BOND
1 1 2 1
2 1 3 1
3 1 4 1
4 1 5 1
@<TRIPOS>MOLECULE
CH4
5 4
SMALL
USER_CHARGES


@<TRIPOS>ATOM
1 C 14.129 95.525 30.536 C 0.0 **** 0.0
2 H 15.129 95.181 30.799 H 0.0 **** 0.0
3 H 13.955 96.506 30.976 H 0.0 **** 0.0
4 H 13.391 94.819 30.916 H 0.0 **** 0.0
5 H 14.043 95.592 29.451 H 0.0 **** 0.0
@<TRIPOS>BOND
1 1 2 1
2 1 3 1
3 1 4 1
4 1 5 1
@<TRIPOS>MOLECULE
CH4
5 4
SMALL
USER_CHARGES


@<TRIPOS>ATOM
1 C 4.553 26.187 64.629 C 0.0 **** 0.0
2 H 5.05 26.244 63.661 H 0.0 **** 0.0
3 H 4.498 27.183 65.069 H 0.0 **** 0.0
4 H 5.118 25.529 65.289 H 0.0 **** 0.0
5 H 3.545 25.792 64.497 H 0.0 **** 0.0
@<TRIPOS>BOND
1 1 2 1
2 1 3 1
3 1 4 1
4 1 5 1
@<TRIPOS>MOLECULE
CH4
5 4
SMALL
USER_CHARGES


@<TRIPOS>ATOM
1 C 21.523 3.595 54.148 C 0.0 **** 0.0
2 H 21.22 4.24 54.973 H 0.0 **** 0.0
3 H 22.55 3.827 53.864 H 0.0 **** 0.0
4 H 20.864 3.76 53.296 H 0.0 **** 0.0
5 H 21.459 2.552 54.461 H 0.0 **** 0.0
@<TRIPOS>BOND
1 1 2 1
2 1 3 1
3 1 4 1
4 1 5 1
@<TRIPOS>MOLECULE
CH4
5 4
SMALL
USER_CHARGES


@<TRIPOS>ATOM
1 C 1.346 58.353 92.617 C 0.0 **** 0.0
2 H 1.391 58.138 93.685 H 0.0 **** 0.0
3 H 0.427 57.937 92.202 H 0.0 **** 0.0
4 H 2.206 57.904 92.12 H 0.0 **** 0.0
5 H 1.359 59.431 92.462 H 0.0 **** 0.0
@<TRIPOS>BOND
1 1 4 1
2 1 5 1
3 1 2 1
4 1 3 1
@<TRIPOS>MOLECULE
CH4
5 4
SMALL
USER_CHARGES


@<TRIPOS>ATOM
1 C 77.771 19.427 49.669 C 0.0 **** 0.0
2 H 77.993 19.349 50.734 H 0.0 **** 0.0
3 H 76.713 19.223 49.503 H 0.0 **** 0.0
4 H 78.372 18.702 49.12 H 0.0 **** 0.0
5 H 78.007 20.433 49.322 H 0.0 **** 0.0
@<TRIPOS>BOND
1 1 2 1
2 1 3 1
3 1 4 1
4 1 5 1
@<TRIPOS>MOLECULE
CH4
5 4
SMALL
USER_CHARGES


@<TRIPOS>ATOM
1 C 7.767 59.428 61.147 C 0.0 **** 0.0
2 H 7.881 59.367 62.23 H 0.0 **** 0.0
3 H 7.062 58.666 60.813 H 0.0 **** 0.0
4 H 8.733 59.264 60.671 H 0.0 **** 0.0
5 H 7.391 60.415 60.877 H 0.0 **** 0.0
@<TRIPOS>BOND
1 1 2 1
2 1 3 1
3 1 4 1
4 1 5 1
@<TRIPOS>MOLECULE
CH4
5 4
SMALL
USER_CHARGES


@<TRIPOS>ATOM
1 C 18.414 29.812 13.423 C 0.0 **** 0.0
2 H 17.822 30.482 14.047 H 0.0 **** 0.0
3 H 17.748 29.217 12.797 H 0.0 **** 0.0
4 H 19.004 29.151 14.057 H 0.0 **** 0.0
5 H 19.079 30.398 12.79 H 0.0 **** 0.0
@<TRIPOS>BOND
1 1 2 1
2 1 3 1
3 1 4 1
4 1 5 1
@<TRIPOS>MOLECULE
CH4
5 4
SMALL
USER_CHARGES


@<TRIPOS>ATOM
1 C 63.32 47.041 95.66 C 0.0 **** 0.0
2 H 63.228 47.802 96.436 H 0.0 **** 0.0
3 H 63.985 47.402 94.875 H 0.0 **** 0.0
4 H 62.337 46.834 95.237 H 0.0 **** 0.0
5 H 63.729 46.129 96.093 H 0.0 **** 0.0
@<TRIPOS>BOND
1 1 2 1
2 1 3 1
3 1 4 1
4 1 5 1
@<TRIPOS>MOLECULE
CH4
5 4
SMALL
USER_CHARGES


@<TRIPOS>ATOM
1 C 48.825 8.9 55.432 C 0.0 **** 0.0
2 H 48.963 9.98 55.367 H 0.0 **** 0.0
3 H 48.079 8.585 54.702 H 0.0 **** 0.0
4 H 48.486 8.637 56.434 H 0.0 **** 0.0
5 H 49.771 8.4 55.225 H 0.0 **** 0.0
@<TRIPOS>BOND
1 1 2 1
2 1 3 1
3 1 4 1
4 1 5 1
@<TRIPOS>MOLECULE
CH4
5 4
SMALL
USER_CHARGES


@<TRIPOS>ATOM
1 C 96.686 38.979 4.842 C 0.0 **** 0.0
2 H 97.733 39.249 4.98 H 0.0 **** 0.0
3 H 96.065 39.579 5.507 H 0.0 **** 0.0
4 H 96.55 37.922 5.073 H 0.0 **** 0.0
5 H 96.398 39.165 3.807 H 0.0 **** 0.0
@<TRIPOS>BOND
1 1 2 1
2 1 3 1
3 1 4 1
4 1 5 1
@<TRIPOS>MOLECULE
CH4
5 4
SMALL
USER_CHARGES


@<TRIPOS>ATOM
1 C 58.384 41.02 8.844 C 0.0 **** 0.0
2 H 57.863 41.072 7.889 H 0.0 **** 0.0
3 H 57.853 41.623 9.581 H 0.0 **** 0.0
4 H 59.398 41.401 8.725 H 0.0 **** 0.0
5 H 58.422 39.984 9.182 H 0.0 **** 0.0
@<TRIPOS>BOND
1 1 2 1
2 1 3 1
3 1 4 1
4 1 5 1
@<TRIPOS>MOLECULE
CH4
5 4
SMALL
USER_CHARGES


@<TRIPOS>ATOM
1 C 75.586 78.171 47.208 C 0.0 **** 0.0
2 H 75.615 78.778 48.113 H 0.0 **** 0.0
3 H 76.563 77.717 47.044 H 0.0 **** 0.0
4 H 75.329 78.8 46.356 H 0.0 **** 0.0
5 H 74.836 77.388 47.321 H 0.0 **** 0.0
@<TRIPOS>BOND
1 1 2 1
2 1 3 1
3 1 4 1
4 1 5 1
@<TRIPOS>MOLECULE
CH4
5 4
SMALL
USER_CHARGES


@<TRIPOS>ATOM
1 C 70.035 50.647 50.095 C 0.0 **** 0.0
2 H 70.834 50.856 50.806 H 0.0 **** 0.0
3 H 70.454 50.567 49.092 H 0.0 **** 0.0
4 H 69.305 51.456 50.12 H 0.0 **** 0.0
5 H 69.548 49.709 50.362 H 0.0 **** 0.0
@<TRIPOS>BOND
1 1 2 1
2 1 3 1
3 1 4 1
4 1 5 1
@<TRIPOS>MOLECULE
CH4
5 4
SMALL
USER_CHARGES


@<TRIPOS>ATOM
1 C 19.785 54.367 75.003 C 0.0 **** 0.0
2 H 19.914 54.153 73.942 H 0.0 **** 0.0
3 H 19.061 53.67 75.428 H 0.0 **** 0.0
4 H 19.423 55.387 75.126 H 0.0 **** 0.0
5 H 20.74 54.255 75.515 H 0.0 **** 0.0
@<TRIPOS>BOND
1 1 2 1
2 1 3 1
3 1 4 1
4 1 5 1
@<TRIPOS>MOLECULE
CH4
5 4
SMALL
USER_CHARGES


@<TRIPOS>ATOM
1 C 89.23 87.453 46.709 C 0.0 **** 0.0
2 H 88.732 87.232 45.766 H 0.0 **** 0.0
3 H 89.743 88.412 46.633 H 0.0 **** 0.0
4 H 89.956 86.67 46.929 H 0.0 **** 0.0
5 H 88.491 87.498 47.509 H 0.0 **** 0.0
@<TRIPOS>BOND
1 1 2 1
2 1 3 1
3 1 4 1
4 1 5 1
@<TRIPOS>MOLECULE
CH4
5 4
SMALL
USER_CHARGES


@<TRIPOS>ATOM
1 C 14.769 83.79 57.705 C 0.0 **** 0.0
2 H 14.857 84.873 57.621 H 0.0 **** 0.0
3 H 14.163 83.41 56.882 H 0.0 **** 0.0
4 H 14.296 83.536 58.653 H 0.0 **** 0.0
5 H 15.762 83.341 57.662 H 0.0 **** 0.0
@<TRIPOS>BOND
1 1 2 1
2 1 3 1
3 1 4 1
4 1 5 1
@<TRIPOS>MOLECULE
CH4
5 4
SMALL
USER_CHARGES


@<TRIPOS>ATOM
1 C 22.504 31.616 86.801 C 0.0 **** 0.0
2 H 22.479 32.613 87.24 H 0.0 **** 0.0
3 H 22.062 30.902 87.496 H 0.0 **** 0.0
4 H 23.538 31.335 86.598 H 0.0 **** 0.0
5 H 21.939 31.616 85.869 H 0.0 **** 0.0
@<TRIPOS>BOND
1 1 2 1
2 1 3 1
3 1 4 1
4 1 5 1
@<TRIPOS>MOLECULE
CH4
5 4
SMALL
USER_CHARGES


@<TRIPOS>ATOM
1 C 48.17 80.593 47.573 C 0.0 **** 0.0
2 H 48.361 79.667 47.03 H 0.0 **** 0.0
3 H 47.695 81.312 46.906 H 0.0 **** 0.0
4 H 49.112 81.001 47.937 H 0.0 **** 0.0
5 H 47.511 80.389 48.417 H 0.0 **** 0.0
@<TRIPOS>BOND
1 1 2 1
2 1 3 1
3 1 4 1
4 1 5 1
@<TRIPOS>MOLECULE
CH4
5 4
SMALL
USER_CHARGES


@<TRIPOS>ATOM
1 C 8.475 62.141 89.046 C 0.0 **** 0.0
2 H 8.216 61.851 88.027 H 0.0 **** 0.0
3 H 7.972 61.479 89.751 H 0.0 **** 0.0
4 H 8.158 63.169 89.223 H 0.0 **** 0.0
5 H 9.554 62.065 89.181 H 0.0 **** 0.0
@<TRIPOS>BOND
1 1 2 1
2 1 3 1
3 1 4 1
4 1 5 1
@<TRIPOS>MOLECULE
CH4
5 4
SMALL
USER_CHARGES


@<TRIPOS>ATOM
1 C 86.869 45.454 61.365 C 0.0 **** 0.0
2 H 86.85 46.461 60.949 H 0.0 **** 0.0
3 H 85.908 45.235 61.831 H 0.0 **** 0.0
4 H 87.66 45.384 62.112 H 0.0 **** 0.0
5 H 87.059 44.736 60.567 H 0.0 **** 0.0
@<TRIPOS>BOND
1 1 2 1
2 1 3 1
3 1 4 1
4 1 5 1
@<TRIPOS>MOLECULE
CH4
5 4
SMALL
USER_CHARGES


@<TRIPOS>ATOM
1 C 57.832 26.201 40.815 C 0.0 **** 0.0
2 H 57.532 26.033 39.78 H 0.0 **** 0.0
3 H 58.911 26.354 40.859 H 0.0 **** 0.0
4 H 57.563 25.334 41.417 H 0.0 **** 0.0
5 H 57.324 27.084 41.201 H 0.0 **** 0.0
@<TRIPOS>BOND
1 1 2 1
2 1 3 1
3 1 4 1
4 1 5 1
@<TRIPOS>MOLECULE
CH4
5 4
SMALL
USER_CHARGES


@<TRIPOS>ATOM
1 C 24.591 9.943 77.809 C 0.0 **** 0.0
2 H 24.615 10.168 76.743 H 0.0 **** 0.0
3 H 23.857 10.583 78.299 H 0.0 **** 0.0
4 H 25.576 10.124 78.241 H 0.0 **** 0.0
5 H 24.318 8.898 77.954 H 0.0 **** 0.0
@<TRIPOS>BOND
1 1 2 1
2 1 3 1
3 1 4 1
4 1 5 1
@<TRIPOS>MOLECULE
CH4
5 4
SMALL
USER_CHARGES


@<TRIPOS>ATOM
1 C 15.225 42.061 95.843 C 0.0 **** 0.0
2 H 15.261 42.093 94.754 H 0.0 **** 0.0
3 H 15.552 43.02 96.245 H 0.0 **** 0.0
4 H 15.883 41.271 96.205 H 0.0 **** 0.0
5 H 14.203 41.86 96.166 H 0.0 **** 0.0
@<TRIPOS>BOND
1 1 2 1
2 1 3 1
3 1 4 1
4 1 5 1
@<TRIPOS>MOLECULE
CH4
5 4
SMALL
USER_CHARGES


@<TRIPOS>ATOM
1 C 21.278 81.984 15.665 C 0.0 **** 0.0
2 H 21.274 82.497 14.702 H 0.0 **** 0.0
3 H 20.309 82.114 16.148 H 0.0 **** 0.0
4 H 22.06 82.405 16.297 H 0.0 **** 0.0
5 H 21.468 80.922 15.509 H 0.0 **** 0.0
@<TRIPOS>BOND
1 1 2 1
2 1 3 1
3 1 4 1
4 1 5 1
@<TRIPOS>MOLECULE
CH4
5 4
SMALL
USER_CHARGES


@<TRIPOS>ATOM
1 C 95.859 63.392 17.694 C 0.0 **** 0.0
2 H 95.804 63.42 18.782 H 0.0 **** 0.0
3 H 96.849 63.715 17.373 H 0.0 **** 0.0
4 H 95.105 64.058 17.275 H 0.0 **** 0.0
5 H 95.678 62.374 17.348 H 0.0 **** 0.0
@<TRIPOS>BOND
1 1 2 1
2 1 3 1
3 1 4 1
4 1 5 1
@<TRIPOS>MOLECULE
CH4
5 4
SMALL
USER_CHARGES


@<TRIPOS>ATOM
1 C 56.589 78.288 86.361 C 0.0 **** 0.0
2 H 56.219 79.133 86.942 H 0.0 **** 0.0
3 H 57.679 78.292 86.368 H 0.0 **** 0.0
4 H 56.232 78.37 85.334 H 0.0 **** 0.0
5 H 56.225 77.359 86.799 H 0.0 **** 0.0
@<TRIPOS>BOND
1 1 2 1
2 1 3 1
3 1 4 1
4 1 5 1
@<TRIPOS>MOLECULE
CH4
5 4
SMALL
USER_CHARGES


@<TRIPOS>ATOM
1 C 68.482 6.168 92.222 C 0.0 **** 0.0
2 H 69.473 6.023 91.792 H 0.0 **** 0.0
3 H 67.905 6.84 91.586 H 0.0 **** 0.0
4 H 68.579 6.603 93.217 H 0.0 **** 0.0
5 H 67.972 5.208 92.293 H 0.0 **** 0.0
@<TRIPOS>BOND
1 1 2 1
2 1 3 1
3 1 4 1
4 1 5 1
@<TRIPOS>MOLECULE
CH4
5 4
SMALL
USER_CHARGES


@<TRIPOS>ATOM
1 C 48.689 32.298 79.787 C 0.0 **** 0.0
2 H 48.689 32.303 78.697 H 0.0 **** 0.0
3 H 48.802 31.275 80.147 H 0.0 **** 0.0
4 H 47.748 32.71 80.152 H 0.0 **** 0.0
5 H 49.517 32.906 80.153 H 0.0 **** 0.0
@<TRIPOS>BOND
1 1 2 1
2 1 3 1
3 1 4 1
4 1 5 1
@<TRIPOS>MOLECULE
CH4
5 4
SMALL
USER_CHARGES


@<TRIPOS>ATOM
1 C 24.241 65.614 54.813 C 0.0 **** 0.0
2 H 24.155 64.829 54.062 H 0.0 **** 0.0
3 H 23.258 65.821 55.237 H 0.0 **** 0.0
4 H 24.635 66.519 54.35 H 0.0 **** 0.0
5 H 24.916 65.287 55.604 H 0.0 **** 0.0
@<TRIPOS>BOND
1 1 2 1
2 1 3 1
3 1 4 1
4 1 5 1
@<TRIPOS>MOLECULE
CH4
5 4
SMALL
USER_CHARGES


@<TRIPOS>ATOM
1 C 7.395 66.554 28.871 C 0.0 **** 0.0
2 H 7.345 66.354 29.941 H 0.0 **** 0.0
3 H 6.436 66.946 28.529 H 0.0 **** 0.0
4 H 7.621 65.63 28.339 H 0.0 **** 0.0
5 H 8.178 67.287 28.675 H 0.0 **** 0.0
@<TRIPOS>BOND
1 1 2 1
2 1 3 1
3 1 4 1
4 1 5 1
@<TRIPOS>MOLECULE
CH4
5 4
SMALL
USER_CHARGES


@<TRIPOS>ATOM
1 C 45.769 79.236 8.942 C 0.0 **** 0.0
2 H 45.889 79.073 7.871 H 0.0 **** 0.0
3 H 46.747 79.216 9.424 H 0.0 **** 0.0
4 H 45.142 78.45 9.362 H 0.0 **** 0.0
5 H 45.3 80.205 9.112 H 0.0 **** 0.0
@<TRIPOS>BOND
1 1 2 1
2 1 3 1
3 1 4 1
4 1 5 1
@<TRIPOS>MOLECULE
CH4
5 4
SMALL
USER_CHARGES


@<TRIPOS>ATOM
1 C 23.183 47.915 89.789 C 0.0 **** 0.0
2 H 24.153 48.398 89.904 H 0.0 **** 0.0
3 H 23.073 47.56 88.764 H 0.0 **** 0.0
4 H 22.392 48.631 90.013 H 0.0 **** 0.0
5 H 23.114 47.071 90.476 H 0.0 **** 0.0
@<TRIPOS>BOND
1 1 2 1
2 1 3 1
3 1 4 1
4 1 5 1
@<TRIPOS>MOLECULE
CH4
5 4
SMALL
USER_CHARGES


@<TRIPOS>ATOM
1 C 40.017 39.994 86.418 C 0.0 **** 0.0
2 H 38.975 39.799 86.161 H 0.0 **** 0.0
3 H 40.659 39.659 85.603 H 0.0 **** 0.0
4 H 40.273 39.454 87.329 H 0.0 **** 0.0
5 H 40.158 41.063 86.576 H 0.0 **** 0.0
@<TRIPOS>BOND
1 1 2 1
2 1 3 1
3 1 4 1
4 1 5 1
@<TRIPOS>MOLECULE
CH4
5 4
SMALL
USER_CHARGES


@<TRIPOS>ATOM
1 C 19.098 92.951 42.551 C 0.0 **** 0.0
2 H 19.731 93.747 42.943 H 0.0 **** 0.0
3 H 19.252 92.044 43.135 H 0.0 **** 0.0
4 H 19.356 92.761 41.509 H 0.0 **** 0.0
5 H 18.052 93.252 42.617 H 0.0 **** 0.0
@<TRIPOS>BOND
1 1 2 1
2 1 3 1
3 1 4 1
4 1 5 1
@<TRIPOS>MOLECULE
CH4
5 4
SMALL
USER_CHARGES


@<TRIPOS>ATOM
1 C 68.205 61.846 41.013 C 0.0 **** 0.0
2 H 67.537 62.654 41.314 H 0.0 **** 0.0
3 H 67.656 61.13 40.402 H 0.0 **** 0.0
4 H 68.592 61.346 41.9 H 0.0 **** 0.0
5 H 69.034 62.256 40.436 H 0.0 **** 0.0
@<TRIPOS>BOND
1 1 2 1
2 1 3 1
3 1 4 1
4 1 5 1
@<TRIPOS>MOLECULE
CH4
5 4
SMALL
USER_CHARGES


@<TRIPOS>ATOM
1 C 97.749 1.849 1.162 C 0.0 **** 0.0
2 H 98.075 0.88 0.783 H 0.0 **** 0.0
3 H 98.346 2.117 2.034 H 0.0 **** 0.0
4 H 96.697 1.793 1.445 H 0.0 **** 0.0
5 H 97.877 2.604 0.387 H 0.0 **** 0.0
@<TRIPOS>BOND
1 1 2 1
2 1 3 1
3 1 4 1
4 1 5 1
@<TRIPOS>MOLECULE
CH4
5 4
SMALL
USER_CHARGES


@<TRIPOS>ATOM
1 C 49.061 13.19 56.529 C 0.0 **** 0.0
2 H 48.422 12.332 56.318 H 0.0 **** 0.0
3 H 50.079 12.972 56.205 H 0.0 **** 0.0
4 H 49.055 13.392 57.6 H 0.0 **** 0.0
5 H 48.687 14.062 55.992 H 0.0 **** 0.0
@<TRIPOS>BOND
1 1 2 1
2 1 3 1
3 1 4 1
4 1 5 1
@<TRIPOS>MOLECULE
CH4
5 4
SMALL
USER_CHARGES


@<TRIPOS>ATOM
1 C 15.053 7.308 89.482 C 0.0 **** 0.0
2 H 15.316 7.472 88.437 H 0.0 **** 0.0
3 H 15.914 7.533 90.112 H 0.0 **** 0.0
4 H 14.761 6.267 89.624 H 0.0 **** 0.0
5 H 14.223 7.959 89.754 H 0.0 **** 0.0
@<TRIPOS>BOND
1 1 2 1
2 1 3 1
3 1 4 1
4 1 5 1
@<TRIPOS>MOLECULE
CH4
5 4
SMALL
USER_CHARGES


@<TRIPOS>ATOM
1 C 75.219 64.102 72.818 C 0.0 **** 0.0
2 H 75.333 65.091 73.261 H 0.0 **** 0.0
3 H 74.644 64.181 71.895 H 0.0 **** 0.0
4 H 74.695 63.449 73.517 H 0.0 **** 0.0
5 H 76.202 63.686 72.6 H 0.0 **** 0.0
@<TRIPOS>BOND
1 1 2 1
2 1 3 1
3 1 4 1
4 1 5 1
@<TRIPOS>MOLECULE
CH4
5 4
SMALL
USER_CHARGES


@<TRIPOS>ATOM
1 C 31.18 3.578 19.862 C 0.0 **** 0.0
2 H 31.249 3.835 20.919 H 0.0 **** 0.0
3 H 31.018 2.504 19.76 H 0.0 **** 0.0
4 H 32.107 3.855 19.36 H 0.0 **** 0.0
5 H 30.347 4.116 19.411 H 0.0 **** 0.0
@<TRIPOS>BOND
1 1 2 1
2 1 3 1
3 1 4 1
4 1 5 1
@<TRIPOS>MOLECULE
CH4
5 4
SMALL
USER_CHARGES


@<TRIPOS>ATOM
1 C 80.187 41.388 46.772 C 0.0 **** 0.0
2 H 81.232 41.64 46.593 H 0.0 **** 0.0
3 H 79.751 42.114 47.46 H 0.0 **** 0.0
4 H 80.123 40.391 47.207 H 0.0 **** 0.0
5 H 79.642 41.409 45.829 H 0.0 **** 0.0
@<TRIPOS>BOND
1 1 2 1
2 1 3 1
3 1 4 1
4 1 5 1
@<TRIPOS>MOLECULE
CH4
5 4
SMALL
USER_CHARGES


@<TRIPOS>ATOM
1 C 83.846 23.868 57.994 C 0.0 **** 0.0
2 H 84.146 22.859 57.712 H 0.0 **** 0.0
3 H 83.448 24.385 57.121 H 0.0 **** 0.0
4 H 84.71 24.411 58.376 H 0.0 **** 0.0
5 H 83.078 23.816 58.767 H 0.0 **** 0.0
@<TRIPOS>BOND
1 1 2 1
2 1 3 1
3 1 4 1
4 1 5 1
@<TRIPOS>MOLECULE
CH4
5 4
SMALL
USER_CHARGES


@<TRIPOS>ATOM
1 C 30.357 77.872 34.415 C 0.0 **** 0.0
2 H 30.334 77.691 33.34 H 0.0 **** 0.0
3 H 30.494 76.926 34.939 H 0.0 **** 0.0
4 H 29.417 78.327 34.727 H 0.0 **** 0.0
5 H 31.182 78.542 34.653 H 0.0 **** 0.0
@<TRIPOS>BOND
1 1 2 1
2 1 3 1
3 1 4 1
4 1 5 1
@<TRIPOS>MOLECULE
CH4
5 4
SMALL
USER_CHARGES


@<TRIPOS>ATOM
1 C 55.099 87.214 61.953 C 0.0 **** 0.0
2 H 55.173 87.253 63.04 H 0.0 **** 0.0
3 H 55.94 86.647 61.552 H 0.0 **** 0.0
4 H 55.118 88.226 61.551 H 0.0 **** 0.0
5 H 54.165 86.728 61.671 H 0.0 **** 0.0
@<TRIPOS>BOND
1 1 2 1
2 1 3 1
3 1 4 1
4 1 5 1
@<TRIPOS>MOLECULE
CH4
5 4
SMALL
USER_CHARGES


@<TRIPOS>ATOM
1 C 21.924 42.025 46.817 C 0.0 **** 0.0
2 H 21.438 41.311 46.152 H 0.0 **** 0.0
3 H 22.126 41.548 47.776 H 0.0 **** 0.0
4 H 21.269 42.884 46.969 H 0.0 **** 0.0
5 H 22.861 42.357 46.371 H 0.0 **** 0.0
@<TRIPOS>BOND
1 1 2 1
2 1 3 1
3 1 4 1
4 1 5 1
@<TRIPOS>MOLECULE
CH4
5 4
SMALL
USER_CHARGES


@<TRIPOS>ATOM
1 C 91.093 68.745 63.742 C 0.0 **** 0.0
2 H 91.595 68.691 64.708 H 0.0 **** 0.0
3 H 90.02 68.616 63.883 H 0.0 **** 0.0
4 H 91.472 67.958 63.091 H 0.0 **** 0.0
5 H 91.286 69.717 63.287 H 0.0 **** 0.0
@<TRIPOS>BOND
1 1 2 1
2 1 3 1
3 1 4 1
4 1 5 1
@<TRIPOS>MOLECULE
CH4
5 4
SMALL
USER_CHARGES


@<TRIPOS>ATOM
1 C 82.47 64.395 30.604 C 0.0 **** 0.0
2 H 83.376 64.099 31.133 H 0.0 **** 0.0
3 H 81.598 64.13 31.202 H 0.0 **** 0.0
4 H 82.424 63.879 29.645 H 0.0 **** 0.0
5 H 82.482 65.472 30.436 H 0.0 **** 0.0
@<TRIPOS>BOND
1 1 2 1
2 1 3 1
3 1 4 1
4 1 5 1
@<TRIPOS>MOLECULE
CH4
5 4
SMALL
USER_CHARGES


@<TRIPOS>ATOM
1 C 49.845 39.583 36.938 C 0.0 **** 0.0
2 H 49.762 38.56 37.304 H 0.0 **** 0.0
3 H 50.894 39.881 36.925 H 0.0 **** 0.0
4 H 49.285 40.25 37.594 H 0.0 **** 0.0
5 H 49.438 39.641 35.928 H 0.0 **** 0.0
@<TRIPOS>BOND
1 1 2 1
2 1 3 1
3 1 4 1
4 1 5 1
@<TRIPOS>MOLECULE
CH4
5 4
SMALL
USER_CHARGES


@<TRIPOS>ATOM
1 C 12.06 58.389 91.041 C 0.0 **** 0.0
2 H 13.064 58.347 90.621 H 0.0 **** 0.0
3 H 12.058 57.918 92.024 H 0.0 **** 0.0
4 H 11.368 57.863 90.384 H 0.0 **** 0.0
5 H 11.749 59.43 91.137 H 0.0 **** 0.0
@<TRIPOS>BOND
1 1 2 1
2 1 3 1
3 1 4 1
4 1 5 1
@<TRIPOS>MOLECULE
CH4
5 4
SMALL
USER_CHARGES


@<TRIPOS>ATOM
1 C 28.662 13.22 49.968 C 0.0 **** 0.0
2 H 28.013 12.732 49.24 H 0.0 **** 0.0
3 H 29.16 12.463 50.574 H 0.0 **** 0.0
4 H 28.065 13.866 50.611 H 0.0 **** 0.0
5 H 29.409 13.817 49.445 H 0.0 **** 0.0
@<TRIPOS>BOND
1 1 2 1
2 1 3 1
3 1 4 1
4 1 5 1
@<TRIPOS>MOLECULE
CH4
5 4
SMALL
USER_CHARGES


@<TRIPOS>ATOM
1 C 20.839 64.525 90.638 C 0.0 **** 0.0
2 H 19.983 64.67 91.298 H 0.0 **** 0.0
3 H 21.702 64.213 91.226 H 0.0 **** 0.0
4 H 21.066 65.461 90.127 H 0.0 **** 0.0
5 H 20.603 63.757 89.902 H 0.0 **** 0.0
@<TRIPOS>BOND
1 1 2 1
2 1 3 1
3 1 4 1
4 1 5 1
@<TRIPOS>MOLECULE
CH4
5 4
SMALL
USER_CHARGES


@<TRIPOS>ATOM
1 C 53.829 8.258 91.239 C 0.0 **** 0.0
2 H 54.347 8.23 90.28 H 0.0 **** 0.0
3 H 54.558 8.206 92.047 H 0.0 **** 0.0
4 H 53.147 7.41 91.308 H 0.0 **** 0.0
5 H 53.263 9.186 91.318 H 0.0 **** 0.0
@<TRIPOS>BOND
1 1 2 1
2 1 3 1
3 1 4 1
4 1 5 1
@<TRIPOS>MOLECULE
CH4
5 4
SMALL
USER_CHARGES


@<TRIPOS>ATOM
1 C 66.561 54.007 40.256 C 0.0 **** 0.0
2 H 65.897 54.866 40.349 H 0.0 **** 0.0
3 H 66.268 53.242 40.976 H 0.0 **** 0.0
4 H 67.587 54.318 40.453 H 0.0 **** 0.0
5 H 66.491 53.602 39.247 H 0.0 **** 0.0
@<TRIPOS>BOND
1 1 2 1
2 1 3 1
3 1 4 1
4 1 5 1
@<TRIPOS>MOLECULE
CH4
5 4
SMALL
USER_CHARGES


@<TRIPOS>ATOM
1 C 42.959 34.331 11.861 C 0.0 **** 0.0
2 H 42.977 34.606 12.916 H 0.0 **** 0.0
3 H 42.48 35.125 11.287 H 0.0 **** 0.0
4 H 42.4 33.404 11.738 H 0.0 **** 0.0
5 H 43.98 34.191 11.505 H 0.0 **** 0.0
@<TRIPOS>BOND
1 1 4 1
2 1 5 1
3 1 2 1
4 1 3 1
@<TRIPOS>MOLECULE
CH4
5 4
SMALL
USER_CHARGES


@<TRIPOS>ATOM
1 C 41.811 29.31 69.329 C 0.0 **** 0.0
2 H 42.417 30.076 69.812 H 0.0 **** 0.0
3 H 41.672 28.473 70.013 H 0.0 **** 0.0
4 H 42.316 28.963 68.428 H 0.0 **** 0.0
5 H 40.841 29.729 69.063 H 0.0 **** 0.0
@<TRIPOS>BOND
1 1 2 1
2 1 3 1
3 1 4 1
4 1 5 1
@<TRIPOS>MOLECULE
CH4
5 4
SMALL
USER_CHARGES


@<TRIPOS>ATOM
1 C 85.386 78.97 17.271 C 0.0 **** 0.0
2 H 85.825 79.034 18.267 H 0.0 **** 0.0
3 H 85.229 77.924 17.01 H 0.0 **** 0.0
4 H 86.06 79.429 16.548 H 0.0 **** 0.0
5 H 84.431 79.495 17.261 H 0.0 **** 0.0
@<TRIPOS>BOND
1 1 2 1
2 1 3 1
3 1 4 1
4 1 5 1
@<TRIPOS>MOLECULE
CH4
5 4
SMALL
USER_CHARGES


@<TRIPOS>ATOM
1 C 14.407 15.825 28.234 C 0.0 **** 0.0
2 H 13.624 16.511 27.91 H 0.0 **** 0.0
3 H 13.977 15.069 28.891 H 0.0 **** 0.0
4 H 15.175 16.38 28.772 H 0.0 **** 0.0
5 H 14.849 15.342 27.363 H 0.0 **** 0.0
@<TRIPOS>BOND
1 1 2 1
2 1 3 1
3 1 4 1
4 1 5 1
@<TRIPOS>MOLECULE
CH4
5 4
SMALL
USER_CHARGES


@<TRIPOS>ATOM
1 C 59.303 55.251 14.373 C 0.0 **** 0.0
2 H 59.5 54.738 15.315 H 0.0 **** 0.0
3 H 59.312 54.528 13.557 H 0.0 **** 0.0
4 H 60.074 56.003 14.202 H 0.0 **** 0.0
5 H 58.327 55.735 14.42 H 0.0 **** 0.0
@<TRIPOS>BOND
1 1 2 1
2 1 3 1
3 1 4 1
4 1 5 1
@<TRIPOS>MOLECULE
CH4
5 4
SMALL
USER_CHARGES


@<TRIPOS>ATOM
1 C 60.27 49.108 55.394 C 0.0 **** 0.0
2 H 61.061 49.727 54.971 H 0.0 **** 0.0
3 H 59.742 48.595 54.59 H 0.0 **** 0.0
4 H 59.571 49.739 55.944 H 0.0 **** 0.0
5 H 60.706 48.373 56.07 H 0.0 **** 0.0
@<TRIPOS>BOND
1 1 2 1
2 1 3 1
3 1 4 1
4 1 5 1
@<TRIPOS>MOLECULE
CH4
5 4
SMALL
USER_CHARGES


@<TRIPOS>ATOM
1 C 86.1 89.427 47.733 C 0.0 **** 0.0
2 H 85.362 90.079 47.266 H 0.0 **** 0.0
3 H 86.166 88.494 47.173 H 0.0 **** 0.0
4 H 85.799 89.216 48.759 H 0.0 **** 0.0
5 H 87.072 89.921 47.734 H 0.0 **** 0.0
@<TRIPOS>BOND
1 1 2 1
2 1 3 1
3 1 4 1
4 1 5 1
@<TRIPOS>MOLECULE
CH4
5 4
SMALL
USER_CHARGES


@<TRIPOS>ATOM
1 C 87.921 16.85 32.458 C 0.0 **** 0.0
2 H 87.147 16.948 33.218 H 0.0 **** 0.0
3 H 88.161 17.834 32.054 H 0.0 **** 0.0
4 H 87.563 16.205 31.655 H 0.0 **** 0.0
5 H 88.815 16.413 32.904 H 0.0 **** 0.0
@<TRIPOS>BOND
1 1 2 1
2 1 3 1
3 1 4 1
4 1 5 1
@<TRIPOS>MOLECULE
CH4
5 4
SMALL
USER_CHARGES


@<TRIPOS>ATOM
1 C 17.372 20.507 92.937 C 0.0 **** 0.0
2 H 17.225 21.573 93.111 H 0.0 **** 0.0
3 H 18.252 20.359 92.31 H 0.0 **** 0.0
4 H 16.495 20.095 92.438 H 0.0 **** 0.0
5 H 17.517 20.001 93.892 H 0.0 **** 0.0
@<TRIPOS>BOND
1 1 2 1
2 1 3 1
3 1 4 1
4 1 5 1
@<TRIPOS>MOLECULE
CH4
5 4
SMALL
USER_CHARGES


@<TRIPOS>ATOM
1 C 9.88 69.467 20.128 C 0.0 **** 0.0
2 H 9.055 69.329 19.428 H 0.0 **** 0.0
3 H 9.488 69.803 21.088 H 0.0 **** 0.0
4 H 10.569 70.214 19.734 H 0.0 **** 0.0
5 H 10.406 68.522 20.26 H 0.0 **** 0.0
@<TRIPOS>BOND
1 1 2 1
2 1 3 1
3 1 4 1
4 1 5 1
@<TRIPOS>MOLECULE
CH4
5 4
SMALL
USER_CHARGES


@<TRIPOS>ATOM
1 C 74.792 14.849 74.16 C 0.0 **** 0.0
2 H 75.246 15.816 74.374 H 0.0 **** 0.0
3 H 74.733 14.264 75.078 H 0.0 **** 0.0
4 H 75.399 14.317 73.428 H 0.0 **** 0.0
5 H 73.789 15.0 73.759 H 0.0 **** 0.0
@<TRIPOS>BOND
1 1 2 1
2 1 3 1
3 1 4 1
4 1 5 1
@<TRIPOS>MOLECULE
CH4
5 4
SMALL
USER_CHARGES


@<TRIPOS>ATOM
1 C 45.074 28.53 44.669 C 0.0 **** 0.0
2 H 44.484 28.143 43.838 H 0.0 **** 0.0
3 H 45.923 27.871 44.849 H 0.0 **** 0.0
4 H 44.454 28.578 45.564 H 0.0 **** 0.0
5 H 45.435 29.529 44.423 H 0.0 **** 0.0
@<TRIPOS>BOND
1 1 2 1
2 1 3 1
3 1 4 1
4 1 5 1
@<TRIPOS>MOLECULE
CH4
5 4
SMALL
USER_CHARGES


@<TRIPOS>ATOM
1 C 53.226 76.121 40.062 C 0.0 **** 0.0
2 H 53.226 76.389 41.118 H 0.0 **** 0.0
3 H 52.58 75.256 39.908 H 0.0 **** 0.0
4 H 54.241 75.877 39.749 H 0.0 **** 0.0
5 H 52.856 76.961 39.474 H 0.0 **** 0.0
@<TRIPOS>BOND
1 1 2 1
2 1 3 1
3 1 4 1
4 1 5 1
@<TRIPOS>MOLECULE
CH4
5 4
SMALL
USER_CHARGES


@<TRIPOS>ATOM
1 C 29.418 17.644 91.476 C 0.0 **** 0.0
2 H 29.438 17.714 92.563 H 0.0 **** 0.0
3 H 29.853 18.546 91.046 H 0.0 **** 0.0
4 H 28.388 17.539 91.137 H 0.0 **** 0.0
5 H 29.995 16.775 91.158 H 0.0 **** 0.0
@<TRIPOS>BOND
1 1 2 1
2 1 3 1
3 1 4 1
4 1 5 1
@<TRIPOS>MOLECULE
CH4
5 4
SMALL
USER_CHARGES


@<TRIPOS>ATOM
1 C 29.457 87.143 80.934 C 0.0 **** 0.0
2 H 29.265 86.62 81.871 H 0.0 **** 0.0
3 H 30.093 86.528 80.298 H 0.0 **** 0.0
4 H 29.956 88.089 81.143 H 0.0 **** 0.0
5 H 28.511 87.335 80.426 H 0.0 **** 0.0
@<TRIPOS>BOND
1 1 2 1
2 1 3 1
3 1 4 1
4 1 5 1
@<TRIPOS>MOLECULE
CH4
5 4
SMALL
USER_CHARGES


@<TRIPOS>ATOM
1 C 69.629 59.903 29.377 C 0.0 **** 0.0
2 H 69.916 60.831 28.883 H 0.0 **** 0.0
3 H 70.255 59.751 30.256 H 0.0 **** 0.0
4 H 69.76 59.069 28.688 H 0.0 **** 0.0
5 H 68.584 59.962 29.681 H 0.0 **** 0.0
@<TRIPOS>BOND
1 1 2 1
2 1 3 1
3 1 4 1
4 1 5 1
@<TRIPOS>MOLECULE
CH4
5 4
SMALL
USER_CHARGES


@<TRIPOS>ATOM
1 C 37.315 56.188 40.31 C 0.0 **** 0.0
2 H 37.934 56.048 39.424 H 0.0 **** 0.0
3 H 36.772 57.129 40.228 H 0.0 **** 0.0
4 H 37.95 56.21 41.196 H 0.0 **** 0.0
5 H 36.606 55.364 40.392 H 0.0 **** 0.0
@<TRIPOS>BOND
1 1 2 1
2 1 3 1
3 1 4 1
4 1 5 1
@<TRIPOS>MOLECULE
CH4
5 4
SMALL
USER_CHARGES


@<TRIPOS>ATOM
1 C 6.363 65.37 51.619 C 0.0 **** 0.0
2 H 6.058 64.915 50.676 H 0.0 **** 0.0
3 H 5.741 66.243 51.819 H 0.0 **** 0.0
4 H 7.407 65.675 51.554 H 0.0 **** 0.0
5 H 6.245 64.647 52.426 H 0.0 **** 0.0
@<TRIPOS>BOND
1 1 5 1
2 1 2 1
3 1 3 1
4 1 4 1
@<TRIPOS>MOLECULE
CH4
5 4
SMALL
USER_CHARGES


@<TRIPOS>ATOM
1 C 52.569 26.545 64.55 C 0.0 **** 0.0
2 H 51.597 26.543 65.044 H 0.0 **** 0.0
3 H 53.272 27.136 65.137 H 0.0 **** 0.0
4 H 52.47 26.98 63.556 H 0.0 **** 0.0
5 H 52.935 25.522 64.465 H 0.0 **** 0.0
@<TRIPOS>BOND
1 1 2 1
2 1 3 1
3 1 4 1
4 1 5 1
@<TRIPOS>MOLECULE
CH4
5 4
SMALL
USER_CHARGES


@<TRIPOS>ATOM
1 C 68.884 50.396 28.16 C 0.0 **** 0.0
2 H 69.301 50.115 29.127 H 0.0 **** 0.0
3 H 69.478 49.946 27.364 H 0.0 **** 0.0
4 H 68.903 51.481 28.058 H 0.0 **** 0.0
5 H 67.856 50.042 28.092 H 0.0 **** 0.0
@<TRIPOS>BOND
1 1 2 1
2 1 3 1
3 1 4 1
4 1 5 1
@<TRIPOS>MOLECULE
CH4
5 4
SMALL
USER_CHARGES


@<TRIPOS>ATOM
1 C 82.223 78.12 41.451 C 0.0 **** 0.0
2 H 82.374 77.176 40.927 H 0.0 **** 0.0
3 H 82.388 78.948 40.763 H 0.0 **** 0.0
4 H 82.927 78.19 42.281 H 0.0 **** 0.0
5 H 81.204 78.163 41.835 H 0.0 **** 0.0
@<TRIPOS>BOND
1 1 2 1
2 1 3 1
3 1 4 1
4 1 5 1
@<TRIPOS>MOLECULE
CH4
5 4
SMALL
USER_CHARGES


@<TRIPOS>ATOM
1 C 7.756 25.594 43.524 C 0.0 **** 0.0
2 H 8.272 25.582 42.564 H 0.0 **** 0.0
3 H 6.7 25.816 43.366 H 0.0 **** 0.0
4 H 8.196 26.36 44.163 H 0.0 **** 0.0
5 H 7.855 24.62 44.002 H 0.0 **** 0.0
@<TRIPOS>BOND
1 1 2 1
2 1 3 1
3 1 4 1
4 1 5 1
@<TRIPOS>MOLECULE
CH4
5 4
SMALL
USER_CHARGES


@<TRIPOS>ATOM
1 C 52.977 32.335 54.062 C 0.0 **** 0.0
2 H 52.554 33.254 54.468 H 0.0 **** 0.0
3 H 52.54 31.477 54.572 H 0.0 **** 0.0
4 H 54.057 32.336 54.212 H 0.0 **** 0.0
5 H 52.758 32.274 52.996 H 0.0 **** 0.0
@<TRIPOS>BOND
1 1 2 1
2 1 3 1
3 1 4 1
4 1 5 1
@<TRIPOS>MOLECULE
CH4
5 4
SMALL
USER_CHARGES


@<TRIPOS>ATOM
1 C 22.221 21.284 39.125 C 0.0 **** 0.0
2 H 22.01 20.766 38.189 H 0.0 **** 0.0
3 H 23.11 20.853 39.586 H 0.0 **** 0.0
4 H 21.372 21.174 39.8 H 0.0 **** 0.0
5 H 22.391 22.341 38.925 H 0.0 **** 0.0
@<TRIPOS>BOND
1 1 2 1
2 1 3 1
3 1 4 1
4 1 5 1
@<TRIPOS>MOLECULE
CH4
5 4
SMALL
USER_CHARGES


@<TRIPOS>ATOM
1 C 10.292 14.263 76.745 C 0.0 **** 0.0
2 H 11.293 13.845 76.64 H 0.0 **** 0.0
3 H 10.285 14.99 77.557 H 0.0 **** 0.0
4 H 9.586 13.462 76.969 H 0.0 **** 0.0
5 H 10.003 14.753 75.815 H 0.0 **** 0.0
@<TRIPOS>BOND
1 1 2 1
2 1 3 1
3 1 4 1
4 1 5 1
@<TRIPOS>MOLECULE
CH4
5 4
SMALL
USER_CHARGES


@<TRIPOS>ATOM
1 C 23.347 68.898 76.376 C 0.0 **** 0.0
2 H 24.114 69.332 75.735 H 0.0 **** 0.0
3 H 22.363 69.09 75.947 H 0.0 **** 0.0
4 H 23.405 69.347 77.367 H 0.0 **** 0.0
5 H 23.506 67.822 76.455 H 0.0 **** 0.0
@<TRIPOS>BOND
1 1 2 1
2 1 3 1
3 1 4 1
4 1 5 1
@<TRIPOS>MOLECULE
CH4
5 4
SMALL
USER_CHARGES


@<TRIPOS>ATOM
1 C 93.52 31.443 65.781 C 0.0 **** 0.0
2 H 92.59 31.604 66.326 H 0.0 **** 0.0
3 H 94.127 30.706 66.308 H 0.0 **** 0.0
4 H 94.067 32.383 65.712 H 0.0 **** 0.0
5 H 93.294 31.08 64.778 H 0.0 **** 0.0
@<TRIPOS>BOND
1 1 2 1
2 1 3 1
3 1 4 1
4 1 5 1
@<TRIPOS>MOLECULE
CH4
5 4
SMALL
USER_CHARGES


@<TRIPOS>ATOM
1 C 72.532 91.738 28.787 C 0.0 **** 0.0
2 H 72.623 90.71 28.437 H 0.0 **** 0.0
3 H 73.023 92.407 28.08 H 0.0 **** 0.0
4 H 73.006 91.831 29.765 H 0.0 **** 0.0
5 H 71.478 92.003 28.867 H 0.0 **** 0.0
@<TRIPOS>BOND
1 1 2 1
2 1 3 1
3 1 4 1
4 1 5 1
@<TRIPOS>MOLECULE
CH4
5 4
SMALL
USER_CHARGES


@<TRIPOS>ATOM
1 C 56.911 48.543 42.54 C 0.0 **** 0.0
2 H 57.997 48.597 42.625 H 0.0 **** 0.0
3 H 56.524 49.51 42.217 H 0.0 **** 0.0
4 H 56.484 48.286 43.509 H 0.0 **** 0.0
5 H 56.642 47.78 41.81 H 0.0 **** 0.0
@<TRIPOS>BOND
1 1 2 1
2 1 3 1
3 1 4 1
4 1 5 1
@<TRIPOS>MOLECULE
CH4
5 4
SMALL
USER_CHARGES


@<TRIPOS>ATOM
1 C 72.685 4.656 81.652 C 0.0 **** 0.0
2 H 72.715 4.688 82.741 H 0.0 **** 0.0
3 H 71.675 4.408 81.324 H 0.0 **** 0.0
4 H 73.381 3.898 81.291 H 0.0 **** 0.0
5 H 72.968 5.629 81.252 H 0.0 **** 0.0
@<TRIPOS>BOND
1 1 2 1
2 1 3 1
3 1 4 1
4 1 5 1
@<TRIPOS>MOLECULE
CH4
5 4
SMALL
USER_CHARGES


@<TRIPOS>ATOM
1 C 14.469 45.635 20.544 C 0.0 **** 0.0
2 H 14.523 44.572 20.31 H 0.0 **** 0.0
3 H 14.18 45.762 21.588 H 0.0 **** 0.0
4 H 13.729 46.111 19.901 H 0.0 **** 0.0
5 H 15.444 46.093 20.378 H 0.0 **** 0.0
@<TRIPOS>BOND
1 1 2 1
2 1 3 1
3 1 4 1
4 1 5 1
@<TRIPOS>MOLECULE
CH4
5 4
SMALL
USER_CHARGES


@<TRIPOS>ATOM
1 C 56.225 83.538 55.417 C 0.0 **** 0.0
2 H 55.415 84.192 55.097 H 0.0 **** 0.0
3 H 56.261 83.511 56.507 H 0.0 **** 0.0
4 H 57.172 83.916 55.032 H 0.0 **** 0.0
5 H 56.053 82.532 55.034 H 0.0 **** 0.0
@<TRIPOS>BOND
1 1 2 1
2 1 3 1
3 1 4 1
4 1 5 1
@<TRIPOS>MOLECULE
CH4
5 4
SMALL
USER_CHARGES


@<TRIPOS>ATOM
1 C 12.027 47.1 70.644 C 0.0 **** 0.0
2 H 11.502 46.239 70.23 H 0.0 **** 0.0
3 H 13.073 46.841 70.811 H 0.0 **** 0.0
4 H 11.567 47.385 71.59 H 0.0 **** 0.0
5 H 11.966 47.933 69.944 H 0.0 **** 0.0
@<TRIPOS>BOND
1 1 2 1
2 1 3 1
3 1 4 1
4 1 5 1
@<TRIPOS>MOLECULE
CH4
5 4
SMALL
USER_CHARGES


@<TRIPOS>ATOM
1 C 53.445 47.995 19.353 C 0.0 **** 0.0
2 H 53.233 48.033 18.285 H 0.0 **** 0.0
3 H 52.519 47.82 19.901 H 0.0 **** 0.0
4 H 53.882 48.942 19.671 H 0.0 **** 0.0
5 H 54.146 47.186 19.556 H 0.0 **** 0.0
@<TRIPOS>BOND
1 1 2 1
2 1 3 1
3 1 4 1
4 1 5 1
@<TRIPOS>MOLECULE
CH4
5 4
SMALL
USER_CHARGES


@<TRIPOS>ATOM
1 C 35.375 52.06 77.045 C 0.0 **** 0.0
2 H 35.383 52.88 76.326 H 0.0 **** 0.0
3 H 34.568 52.215 77.762 H 0.0 **** 0.0
4 H 36.329 52.03 77.572 H 0.0 **** 0.0
5 H 35.219 51.118 76.52 H 0.0 **** 0.0
@<TRIPOS>BOND
1 1 4 1
2 1 5 1
3 1 2 1
4 1 3 1
@<TRIPOS>MOLECULE
CH4
5 4
SMALL
USER_CHARGES


@<TRIPOS>ATOM
1 C 39.788 81.491 64.088 C 0.0 **** 0.0
2 H 39.284 80.748 64.707 H 0.0 **** 0.0
3 H 39.058 82.213 63.722 H 0.0 **** 0.0
4 H 40.266 80.995 63.243 H 0.0 **** 0.0
5 H 40.543 82.006 64.682 H 0.0 **** 0.0
@<TRIPOS>BOND
1 1 2 1
2 1 3 1
3 1 4 1
4 1 5 1
@<TRIPOS>MOLECULE
CH4
5 4
SMALL
USER_CHARGES


@<TRIPOS>ATOM
1 C 84.487 39.206 12.687 C 0.0 **** 0.0
2 H 84.487 39.203 13.777 H 0.0 **** 0.0
3 H 85.307 38.587 12.323 H 0.0 **** 0.0
4 H 84.613 40.227 12.327 H 0.0 **** 0.0
5 H 83.54 38.806 12.324 H 0.0 **** 0.0
@<TRIPOS>BOND
1 1 2 1
2 1 3 1
3 1 4 1
4 1 5 1
@<TRIPOS>MOLECULE
CH4
5 4
SMALL
USER_CHARGES


@<TRIPOS>ATOM
1 C 24.951 79.981 79.557 C 0.0 **** 0.0
2 H 24.58 80.998 79.686 H 0.0 **** 0.0
3 H 26.03 79.966 79.714 H 0.0 **** 0.0
4 H 24.726 79.638 78.547 H 0.0 **** 0.0
5 H 24.469 79.324 80.281 H 0.0 **** 0.0
@<TRIPOS>BOND
1 1 2 1
2 1 3 1
3 1 4 1
4 1 5 1
@<TRIPOS>MOLECULE
CH4
5 4
SMALL
USER_CHARGES


@<TRIPOS>ATOM
1 C 96.748 38.738 60.82 C 0.0 **** 0.0
2 H 96.306 38.874 61.807 H 0.0 **** 0.0
3 H 96.798 39.7 60.309 H 0.0 **** 0.0
4 H 96.135 38.05 60.239 H 0.0 **** 0.0
5 H 97.753 38.329 60.926 H 0.0 **** 0.0
@<TRIPOS>BOND
1 1 2 1
2 1 3 1
3 1 4 1
4 1 5 1
@<TRIPOS>MOLECULE
CH4
5 4
SMALL
USER_CHARGES


@<TRIPOS>ATOM
1 C 42.883 51.363 18.562 C 0.0 **** 0.0
2 H 42.37 51.675 17.652 H 0.0 **** 0.0
3 H 43.956 51.516 18.444 H 0.0 **** 0.0
4 H 42.685 50.307 18.747 H 0.0 **** 0.0
5 H 42.522 51.954 19.404 H 0.0 **** 0.0
@<TRIPOS>BOND
1 1 2 1
2 1 3 1
3 1 4 1
4 1 5 1
@<TRIPOS>MOLECULE
CH4
5 4
SMALL
USER_CHARGES


@<TRIPOS>ATOM
1 C 75.549 56.386 87.613 C 0.0 **** 0.0
2 H 75.886 57.209 88.244 H 0.0 **** 0.0
3 H 75.911 55.443 88.021 H 0.0 **** 0.0
4 H 75.938 56.52 86.603 H 0.0 **** 0.0
5 H 74.459 56.375 87.583 H 0.0 **** 0.0
@<TRIPOS>BOND
1 1 2 1
2 1 3 1
3 1 4 1
4 1 5 1
@<TRIPOS>MOLECULE
CH4
5 4
SMALL
USER_CHARGES


@<TRIPOS>ATOM
1 C 57.792 65.794 62.377 C 0.0 **** 0.0
2 H 56.925 66.313 62.784 H 0.0 **** 0.0
3 H 57.906 64.831 62.875 H 0.0 **** 0.0
4 H 58.686 66.396 62.541 H 0.0 **** 0.0
5 H 57.652 65.635 61.307 H 0.0 **** 0.0
@<TRIPOS>BOND
1 1 2 1
2 1 3 1
3 1 4 1
4 1 5 1
@<TRIPOS>MOLECULE
CH4
5 4
SMALL
USER_CHARGES


@<TRIPOS>ATOM
1 C 5.545 94.458 54.746 C 0.0 **** 0.0
2 H 6.53 94.734 55.123 H 0.0 **** 0.0
3 H 4.841 94.404 55.577 H 0.0 **** 0.0
4 H 5.603 93.487 54.254 H 0.0 **** 0.0
5 H 5.207 95.208 54.031 H 0.0 **** 0.0
@<TRIPOS>BOND
1 1 2 1
2 1 3 1
3 1 4 1
4 1 5 1
@<TRIPOS>MOLECULE
CH4
5 4
SMALL
USER_CHARGES


@<TRIPOS>ATOM
1 C 97.793 96.615 47.249 C 0.0 **** 0.0
2 H 98.619 97.178 47.685 H 0.0 **** 0.0
3 H 98.163 95.661 46.873 H 0.0 **** 0.0
4 H 97.358 97.185 46.429 H 0.0 **** 0.0
5 H 97.034 96.436 48.011 H 0.0 **** 0.0
@<TRIPOS>BOND
1 1 2 1
2 1 3 1
3 1 4 1
4 1 5 1
@<TRIPOS>MOLECULE
CH4
5 4
SMALL
USER_CHARGES


@<TRIPOS>ATOM
1 C 85.176 36.652 10.263 C 0.0 **** 0.0
2 H 84.228 36.584 9.728 H 0.0 **** 0.0
3 H 85.05 36.269 11.275 H 0.0 **** 0.0
4 H 85.494 37.694 10.305 H 0.0 **** 0.0
5 H 85.93 36.063 9.741 H 0.0 **** 0.0
@<TRIPOS>BOND
1 1 2 1
2 1 3 1
3 1 4 1
4 1 5 1
@<TRIPOS>MOLECULE
CH4
5 4
SMALL
USER_CHARGES


@<TRIPOS>ATOM
1 C 40.727 3.993 70.939 C 0.0 **** 0.0
2 H 39.705 4.333 70.769 H 0.0 **** 0.0
3 H 41.302 4.794 71.404 H 0.0 **** 0.0
4 H 41.183 3.723 69.987 H 0.0 **** 0.0
5 H 40.716 3.124 71.597 H 0.0 **** 0.0
@<TRIPOS>BOND
1 1 2 1
2 1 3 1
3 1 4 1
4 1 5 1
@<TRIPOS>MOLECULE
CH4
5 4
SMALL
USER_CHARGES


@<TRIPOS>ATOM
1 C 32.032 30.04 84.395 C 0.0 **** 0.0
2 H 32.83 30.561 83.867 H 0.0 **** 0.0
3 H 32.457 29.233 84.992 H 0.0 **** 0.0
4 H 31.328 29.626 83.673 H 0.0 **** 0.0
5 H 31.512 30.741 85.049 H 0.0 **** 0.0
@<TRIPOS>BOND
1 1 2 1
2 1 3 1
3 1 4 1
4 1 5 1
@<TRIPOS>MOLECULE
CH4
5 4
SMALL
USER_CHARGES


@<TRIPOS>ATOM
1 C 22.418 29.026 53.135 C 0.0 **** 0.0
2 H 22.601 28.934 54.206 H 0.0 **** 0.0
3 H 23.021 29.84 52.733 H 0.0 **** 0.0
4 H 21.362 29.235 52.964 H 0.0 **** 0.0
5 H 22.689 28.093 52.64 H 0.0 **** 0.0
@<TRIPOS>BOND
1 1 2 1
2 1 3 1
3 1 4 1
4 1 5 1
@<TRIPOS>MOLECULE
CH4
5 4
SMALL
USER_CHARGES


@<TRIPOS>ATOM
1 C 79.376 30.272 97.875 C 0.0 **** 0.0
2 H 79.255 30.083 98.942 H 0.0 **** 0.0
3 H 78.431 30.618 97.458 H 0.0 **** 0.0
4 H 79.679 29.351 97.376 H 0.0 **** 0.0
5 H 80.141 31.034 97.726 H 0.0 **** 0.0
@<TRIPOS>BOND
1 1 2 1
2 1 3 1
3 1 4 1
4 1 5 1
@<TRIPOS>MOLECULE
CH4
5 4
SMALL
USER_CHARGES


@<TRIPOS>ATOM
1 C 23.307 85.267 72.429 C 0.0 **** 0.0
2 H 23.461 86.061 71.698 H 0.0 **** 0.0
3 H 23.345 85.687 73.434 H 0.0 **** 0.0
4 H 24.088 84.515 72.318 H 0.0 **** 0.0
5 H 22.332 84.807 72.264 H 0.0 **** 0.0
@<TRIPOS>BOND
1 1 2 1
2 1 3 1
3 1 4 1
4 1 5 1
@<TRIPOS>MOLECULE
CH4
5 4
SMALL
USER_CHARGES


@<TRIPOS>ATOM
1 C 18.848 73.613 36.075 C 0.0 **** 0.0
2 H 18.679 73.732 35.005 H 0.0 **** 0.0
3 H 18.569 72.603 36.377 H 0.0 **** 0.0
4 H 18.242 74.335 36.621 H 0.0 **** 0.0
5 H 19.902 73.781 36.297 H 0.0 **** 0.0
@<TRIPOS>BOND
1 1 2 1
2 1 3 1
3 1 4 1
4 1 5 1
@<TRIPOS>MOLECULE
CH4
5 4
SMALL
USER_CHARGES


@<TRIPOS>ATOM
1 C 93.051 60.782 19.174 C 0.0 **** 0.0
2 H 93.06 61.233 20.166 H 0.0 **** 0.0
3 H 93.09 61.566 18.418 H 0.0 **** 0.0
4 H 92.138 60.2 19.047 H 0.0 **** 0.0
5 H 93.916 60.128 19.065 H 0.0 **** 0.0
@<TRIPOS>BOND
1 1 3 1
2 1 4 1
3 1 5 1
4 1 2 1
@<TRIPOS>MOLECULE
CH4
5 4
SMALL
USER_CHARGES


@<TRIPOS>ATOM
1 C 57.092 56.325 1.394 C 0.0 **** 0.0
2 H 56.385 56.6 0.611 H 0.0 **** 0.0
3 H 56.654 56.539 2.369 H 0.0 **** 0.0
4 H 58.01 56.9 1.273 H 0.0 **** 0.0
5 H 57.317 55.261 1.322 H 0.0 **** 0.0
@<TRIPOS>BOND
1 1 2 1
2 1 3 1
3 1 4 1
4 1 5 1
@<TRIPOS>MOLECULE
CH4
5 4
SMALL
USER_CHARGES


@<TRIPOS>ATOM
1 C 63.435 22.761 55.898 C 0.0 **** 0.0
2 H 63.507 22.645 56.98 H 0.0 **** 0.0
3 H 62.856 23.655 55.668 H 0.0 **** 0.0
4 H 62.942 21.888 55.471 H 0.0 **** 0.0
5 H 64.435 22.856 55.476 H 0.0 **** 0.0
@<TRIPOS>BOND
1 1 2 1
2 1 3 1
3 1 4 1
4 1 5 1
@<TRIPOS>MOLECULE
CH4
5 4
SMALL
USER_CHARGES


@<TRIPOS>ATOM
1 C 5.737 73.354 14.823 C 0.0 **** 0.0
2 H 4.977 72.854 15.424 H 0.0 **** 0.0
3 H 6.727 73.058 15.17 H 0.0 **** 0.0
4 H 5.624 74.433 14.921 H 0.0 **** 0.0
5 H 5.617 73.069 13.777 H 0.0 **** 0.0
@<TRIPOS>BOND
1 1 2 1
2 1 3 1
3 1 4 1
4 1 5 1
@<TRIPOS>MOLECULE
CH4
5 4
SMALL
USER_CHARGES


@<TRIPOS>ATOM
1 C 93.93 56.18 30.078 C 0.0 **** 0.0
2 H 93.94 56.376 31.15 H 0.0 **** 0.0
3 H 94.841 55.653 29.796 H 0.0 **** 0.0
4 H 93.874 57.125 29.537 H 0.0 **** 0.0
5 H 93.063 55.568 29.83 H 0.0 **** 0.0
@<TRIPOS>BOND
1 1 2 1
2 1 3 1
3 1 4 1
4 1 5 1
@<TRIPOS>MOLECULE
CH4
5 4
SMALL
USER_CHARGES


@<TRIPOS>ATOM
1 C 69.976 13.638 18.586 C 0.0 **** 0.0
2 H 69.855 13.753 17.509 H 0.0 **** 0.0
3 H 69.177 14.172 19.1 H 0.0 **** 0.0
4 H 70.94 14.048 18.888 H 0.0 **** 0.0
5 H 69.933 12.58 18.846 H 0.0 **** 0.0
@<TRIPOS>BOND
1 1 2 1
2 1 3 1
3 1 4 1
4 1 5 1
@<TRIPOS>MOLECULE
CH4
5 4
SMALL
USER_CHARGES


@<TRIPOS>ATOM
1 C 10.8 92.728 8.741 C 0.0 **** 0.0
2 H 10.816 92.754 7.651 H 0.0 **** 0.0
3 H 10.752 91.693 9.079 H 0.0 **** 0.0
4 H 9.926 93.27 9.103 H 0.0 **** 0.0
5 H 11.704 93.196 9.129 H 0.0 **** 0.0
@<TRIPOS>BOND
1 1 2 1
2 1 3 1
3 1 4 1
4 1 5 1
@<TRIPOS>MOLECULE
CH4
5 4
SMALL
USER_CHARGES


@<TRIPOS>ATOM
1 C 13.648 72.527 67.133 C 0.0 **** 0.0
2 H 13.898 72.313 68.172 H 0.0 **** 0.0
3 H 13.035 73.427 67.085 H 0.0 **** 0.0
4 H 13.095 71.687 66.712 H 0.0 **** 0.0
5 H 14.564 72.681 66.563 H 0.0 **** 0.0
@<TRIPOS>BOND
1 1 2 1
2 1 3 1
3 1 4 1
4 1 5 1
@<TRIPOS>MOLECULE
CH4
5 4
SMALL
USER_CHARGES


@<TRIPOS>ATOM
1 C 75.002 54.309 24.558 C 0.0 **** 0.0
2 H 74.165 53.715 24.193 H 0.0 **** 0.0
3 H 74.793 54.647 25.573 H 0.0 **** 0.0
4 H 75.143 55.174 23.909 H 0.0 **** 0.0
5 H 75.907 53.702 24.556 H 0.0 **** 0.0
@<TRIPOS>BOND
1 1 2 1
2 1 3 1
3 1 4 1
4 1 5 1
@<TRIPOS>MOLECULE
CH4
5 4
SMALL
USER_CHARGES


@<TRIPOS>ATOM
1 C 30.251 32.555 38.743 C 0.0 **** 0.0
2 H 30.294 32.565 37.654 H 0.0 **** 0.0
3 H 29.21 32.589 39.065 H 0.0 **** 0.0
4 H 30.782 33.422 39.135 H 0.0 **** 0.0
5 H 30.718 31.643 39.116 H 0.0 **** 0.0
@<TRIPOS>BOND
1 1 2 1
2 1 3 1
3 1 4 1
4 1 5 1
@<TRIPOS>MOLECULE
CH4
5 4
SMALL
USER_CHARGES


@<TRIPOS>ATOM
1 C 32.591 9.535 86.669 C 0.0 **** 0.0
2 H 32.641 9.548 85.58 H 0.0 **** 0.0
3 H 33.238 10.316 87.071 H 0.0 **** 0.0
4 H 32.923 8.564 87.035 H 0.0 **** 0.0
5 H 31.564 9.713 86.988 H 0.0 **** 0.0
@<TRIPOS>BOND
1 1 2 1
2 1 3 1
3 1 4 1
4 1 5 1
@<TRIPOS>MOLECULE
CH4
5 4
SMALL
USER_CHARGES


@<TRIPOS>ATOM
1 C 25.616 13.208 77.001 C 0.0 **** 0.0
2 H 24.703 13.382 77.569 H 0.0 **** 0.0
3 H 26.47 13.596 77.557 H 0.0 **** 0.0
4 H 25.548 13.715 76.038 H 0.0 **** 0.0
5 H 25.744 12.137 76.839 H 0.0 **** 0.0
@<TRIPOS>BOND
1 1 2 1
2 1 3 1
3 1 4 1
4 1 5 1
@<TRIPOS>MOLECULE
CH4
5 4
SMALL
USER_CHARGES


@<TRIPOS>ATOM
1 C 42.582 46.989 63.318 C 0.0 **** 0.0
2 H 43.115 46.318 62.645 H 0.0 **** 0.0
3 H 43.293 47.66 63.8 H 0.0 **** 0.0
4 H 42.061 46.404 64.076 H 0.0 **** 0.0
5 H 41.859 47.573 62.749 H 0.0 **** 0.0
@<TRIPOS>BOND
1 1 2 1
2 1 3 1
3 1 4 1
4 1 5 1
@<TRIPOS>MOLECULE
CH4
5 4
SMALL
USER_CHARGES


@<TRIPOS>ATOM
1 C 21.786 22.048 53.41 C 0.0 **** 0.0
2 H 21.898 21.391 52.547 H 0.0 **** 0.0
3 H 21.358 21.487 54.24 H 0.0 **** 0.0
4 H 21.125 22.876 53.151 H 0.0 **** 0.0
5 H 22.761 22.438 53.699 H 0.0 **** 0.0
@<TRIPOS>BOND
1 1 2 1
2 1 3 1
3 1 4 1
4 1 5 1
@<TRIPOS>MOLECULE
CH4
5 4
SMALL
USER_CHARGES


@<TRIPOS>ATOM
1 C 51.424 35.627 59.297 C 0.0 **** 0.0
2 H 52.212 34.968 59.663 H 0.0 **** 0.0
3 H 50.867 35.123 58.507 H 0.0 **** 0.0
4 H 51.868 36.541 58.903 H 0.0 **** 0.0
5 H 50.749 35.875 60.116 H 0.0 **** 0.0
@<TRIPOS>BOND
1 1 2 1
2 1 3 1
3 1 4 1
4 1 5 1
@<TRIPOS>MOLECULE
CH4
5 4
SMALL
USER_CHARGES


@<TRIPOS>ATOM
1 C 97.112 30.488 67.09 C 0.0 **** 0.0
2 H 97.097 30.192 68.138 H 0.0 **** 0.0
3 H 96.548 29.764 66.5 H 0.0 **** 0.0
4 H 98.142 30.522 66.736 H 0.0 **** 0.0
5 H 96.659 31.474 66.985 H 0.0 **** 0.0
@<TRIPOS>BOND
1 1 2 1
2 1 3 1
3 1 4 1
4 1 5 1
@<TRIPOS>MOLECULE
CH4
5 4
SMALL
USER_CHARGES


@<TRIPOS>ATOM
1 C 70.387 87.034 11.024 C 0.0 **** 0.0
2 H 70.946 86.952 11.956 H 0.0 **** 0.0
3 H 70.763 87.879 10.448 H 0.0 **** 0.0
4 H 69.331 87.186 11.247 H 0.0 **** 0.0
5 H 70.508 86.117 10.447 H 0.0 **** 0.0
@<TRIPOS>BOND
1 1 2 1
2 1 3 1
3 1 4 1
4 1 5 1
@<TRIPOS>MOLECULE
CH4
5 4
SMALL
USER_CHARGES


@<TRIPOS>ATOM
1 C 47.904 18.072 33.785 C 0.0 **** 0.0
2 H 48.448 18.654 33.042 H 0.0 **** 0.0
3 H 47.277 18.736 34.38 H 0.0 **** 0.0
4 H 48.614 17.562 34.437 H 0.0 **** 0.0
5 H 47.278 17.335 33.282 H 0.0 **** 0.0
@<TRIPOS>BOND
1 1 2 1
2 1 3 1
3 1 4 1
4 1 5 1
@<TRIPOS>MOLECULE
CH4
5 4
SMALL
USER_CHARGES


@<TRIPOS>ATOM
1 C 9.535 21.799 97.58 C 0.0 **** 0.0
2 H 9.588 21.831 96.491 H 0.0 **** 0.0
3 H 8.516 21.561 97.886 H 0.0 **** 0.0
4 H 9.82 22.769 97.986 H 0.0 **** 0.0
5 H 10.215 21.034 97.954 H 0.0 **** 0.0
@<TRIPOS>BOND
1 1 2 1
2 1 3 1
3 1 4 1
4 1 5 1
@<TRIPOS>MOLECULE
CH4
5 4
SMALL
USER_CHARGES


@<TRIPOS>ATOM
1 C 33.903 80.188 6.538 C 0.0 **** 0.0
2 H 34.645 80.282 5.744 H 0.0 **** 0.0
3 H 34.403 80.207 7.506 H 0.0 **** 0.0
4 H 33.368 79.245 6.424 H 0.0 **** 0.0
5 H 33.198 81.017 6.475 H 0.0 **** 0.0
@<TRIPOS>BOND
1 1 2 1
2 1 3 1
3 1 4 1
4 1 5 1
@<TRIPOS>MOLECULE
CH4
5 4
SMALL
USER_CHARGES


@<TRIPOS>ATOM
1 C 10.28 31.423 54.539 C 0.0 **** 0.0
2 H 10.067 31.835 53.552 H 0.0 **** 0.0
3 H 9.358 31.369 55.117 H 0.0 **** 0.0
4 H 10.995 32.066 55.053 H 0.0 **** 0.0
5 H 10.702 30.424 54.432 H 0.0 **** 0.0
@<TRIPOS>BOND
1 1 2 1
2 1 3 1
3 1 4 1
4 1 5 1
@<TRIPOS>MOLECULE
CH4
5 4
SMALL
USER_CHARGES


@<TRIPOS>ATOM
1 C 23.181 8.554 34.067 C 0.0 **** 0.0
2 H 23.575 9.565 34.174 H 0.0 **** 0.0
3 H 23.385 7.987 34.975 H 0.0 **** 0.0
4 H 23.66 8.066 33.218 H 0.0 **** 0.0
5 H 22.105 8.6 33.9 H 0.0 **** 0.0
@<TRIPOS>BOND
1 1 2 1
2 1 3 1
3 1 4 1
4 1 5 1
@<TRIPOS>MOLECULE
CH4
5 4
SMALL
USER_CHARGES


@<TRIPOS>ATOM
1 C 29.44 19.428 41.306 C 0.0 **** 0.0
2 H 29.359 19.396 42.392 H 0.0 **** 0.0
3 H 30.464 19.199 41.011 H 0.0 **** 0.0
4 H 29.175 20.424 40.952 H 0.0 **** 0.0
5 H 28.763 18.695 40.869 H 0.0 **** 0.0
@<TRIPOS>BOND
1 1 2 1
2 1 3 1
3 1 4 1
4 1 5 1
@<TRIPOS>MOLECULE
CH4
5 4
SMALL
USER_CHARGES


@<TRIPOS>ATOM
1 C 48.034 69.078 76.334 C 0.0 **** 0.0
2 H 48.303 68.194 76.913 H 0.0 **** 0.0
3 H 48.74 69.202 75.513 H 0.0 **** 0.0
4 H 48.066 69.957 76.977 H 0.0 **** 0.0
5 H 47.028 68.957 75.934 H 0.0 **** 0.0
@<TRIPOS>BOND
1 1 2 1
2 1 3 1
3 1 4 1
4 1 5 1
@<TRIPOS>MOLECULE
CH4
5 4
SMALL
USER_CHARGES


@<TRIPOS>ATOM
1 C 68.78 24.459 73.257 C 0.0 **** 0.0
2 H 68.526 24.801 72.253 H 0.0 **** 0.0
3 H 68.549 23.397 73.348 H 0.0 **** 0.0
4 H 68.201 25.021 73.989 H 0.0 **** 0.0
5 H 69.843 24.616 73.436 H 0.0 **** 0.0
@<TRIPOS>BOND
1 1 2 1
2 1 3 1
3 1 4 1
4 1 5 1
@<TRIPOS>MOLECULE
CH4
5 4
SMALL
USER_CHARGES


@<TRIPOS>ATOM
1 C 8.152 76.289 50.886 C 0.0 **** 0.0
2 H 8.967 75.58 51.034 H 0.0 **** 0.0
3 H 7.448 75.884 50.158 H 0.0 **** 0.0
4 H 8.554 77.233 50.517 H 0.0 **** 0.0
5 H 7.64 76.457 51.833 H 0.0 **** 0.0
@<TRIPOS>BOND
1 1 2 1
2 1 3 1
3 1 4 1
4 1 5 1
@<TRIPOS>MOLECULE
CH4
5 4
SMALL
USER_CHARGES


@<TRIPOS>ATOM
1 C 90.15 37.096 75.98 C 0.0 **** 0.0
2 H 90.774 36.925 76.857 H 0.0 **** 0.0
3 H 89.318 36.391 75.984 H 0.0 **** 0.0
4 H 90.745 36.951 75.078 H 0.0 **** 0.0
5 H 89.764 38.115 76.001 H 0.0 **** 0.0
@<TRIPOS>BOND
1 1 2 1
2 1 3 1
3 1 4 1
4 1 5 1
@<TRIPOS>MOLECULE
CH4
5 4
SMALL
USER_CHARGES


@<TRIPOS>ATOM
1 C 81.159 92.055 78.861 C 0.0 **** 0.0
2 H 80.944 91.725 79.877 H 0.0 **** 0.0
3 H 80.587 92.957 78.644 H 0.0 **** 0.0
4 H 80.881 91.27 78.158 H 0.0 **** 0.0
5 H 82.224 92.268 78.766 H 0.0 **** 0.0
@<TRIPOS>BOND
1 1 2 1
2 1 3 1
3 1 4 1
4 1 5 1
@<TRIPOS>MOLECULE
CH4
5 4
SMALL
USER_CHARGES


@<TRIPOS>ATOM
1 C 53.971 50.943 96.687 C 0.0 **** 0.0
2 H 54.674 51.531 96.097 H 0.0 **** 0.0
3 H 53.503 50.191 96.051 H 0.0 **** 0.0
4 H 53.204 51.6 97.098 H 0.0 **** 0.0
5 H 54.503 50.451 97.502 H 0.0 **** 0.0
@<TRIPOS>BOND
1 1 2 1
2 1 3 1
3 1 4 1
4 1 5 1
@<TRIPOS>MOLECULE
CH4
5 4
SMALL
USER_CHARGES


@<TRIPOS>ATOM
1 C 51.362 97.015 63.453 C 0.0 **** 0.0
2 H 52.314 97.257 62.98 H 0.0 **** 0.0
3 H 51.545 96.594 64.442 H 0.0 **** 0.0
4 H 50.828 96.288 62.841 H 0.0 **** 0.0
5 H 50.763 97.92 63.548 H 0.0 **** 0.0
@<TRIPOS>BOND
1 1 2 1
2 1 3 1
3 1 4 1
4 1 5 1
@<TRIPOS>MOLECULE
CH4
5 4
SMALL
USER_CHARGES


@<TRIPOS>ATOM
1 C 31.713 60.713 26.871 C 0.0 **** 0.0
2 H 31.798 60.827 27.951 H 0.0 **** 0.0
3 H 30.706 60.38 26.619 H 0.0 **** 0.0
4 H 32.437 59.976 26.525 H 0.0 **** 0.0
5 H 31.91 61.671 26.389 H 0.0 **** 0.0
@<TRIPOS>BOND
1 1 2 1
2 1 3 1
3 1 4 1
4 1 5 1
@<TRIPOS>MOLECULE
CH4
5 4
SMALL
USER_CHARGES


@<TRIPOS>ATOM
1 C 7.042 7.73 25.422 C 0.0 **** 0.0
2 H 6.986 8.377 26.298 H 0.0 **** 0.0
3 H 6.034 7.467 25.1 H 0.0 **** 0.0
4 H 7.592 6.824 25.676 H 0.0 **** 0.0
5 H 7.556 8.254 24.616 H 0.0 **** 0.0
@<TRIPOS>BOND
1 1 2 1
2 1 3 1
3 1 4 1
4 1 5 1
@<TRIPOS>MOLECULE
CH4
5 4
SMALL
USER_CHARGES


@<TRIPOS>ATOM
1 C 3.439 4.515 54.857 C 0.0 **** 0.0
2 H 3.154 3.743 55.572 H 0.0 **** 0.0
3 H 3.774 5.402 55.395 H 0.0 **** 0.0
4 H 2.581 4.769 54.236 H 0.0 **** 0.0
5 H 4.248 4.145 54.226 H 0.0 **** 0.0
@<TRIPOS>BOND
1 1 2 1
2 1 3 1
3 1 4 1
4 1 5 1
@<TRIPOS>MOLECULE
CH4
5 4
SMALL
USER_CHARGES


@<TRIPOS>ATOM
1 C 30.012 56.66 63.177 C 0.0 **** 0.0
2 H 29.621 56.473 62.177 H 0.0 **** 0.0
3 H 29.424 57.443 63.656 H 0.0 **** 0.0
4 H 31.053 56.978 63.106 H 0.0 **** 0.0
5 H 29.952 55.746 63.768 H 0.0 **** 0.0
@<TRIPOS>BOND
1 1 2 1
2 1 3 1
3 1 4 1
4 1 5 1
@<TRIPOS>MOLECULE
CH4
5 4
SMALL
USER_CHARGES


@<TRIPOS>ATOM
1 C 73.104 51.444 76.666 C 0.0 **** 0.0
2 H 72.229 50.997 76.194 H 0.0 **** 0.0
3 H 73.321 52.403 76.194 H 0.0 **** 0.0
4 H 73.96 50.779 76.548 H 0.0 **** 0.0
5 H 72.906 51.597 77.727 H 0.0 **** 0.0
@<TRIPOS>BOND
1 1 2 1
2 1 3 1
3 1 4 1
4 1 5 1
@<TRIPOS>MOLECULE
CH4
5 4
SMALL
USER_CHARGES


@<TRIPOS>ATOM
1 C 61.457 88.753 73.019 C 0.0 **** 0.0
2 H 61.068 88.056 72.276 H 0.0 **** 0.0
3 H 61.344 88.324 74.014 H 0.0 **** 0.0
4 H 60.904 89.691 72.962 H 0.0 **** 0.0
5 H 62.513 88.941 72.822 H 0.0 **** 0.0
@<TRIPOS>BOND
1 1 2 1
2 1 3 1
3 1 4 1
4 1 5 1
@<TRIPOS>MOLECULE
CH4
5 4
SMALL
USER_CHARGES


@<TRIPOS>ATOM
1 C 15.339 66.207 15.717 C 0.0 **** 0.0
2 H 15.082 65.979 16.751 H 0.0 **** 0.0
3 H 15.426 67.287 15.594 H 0.0 **** 0.0
4 H 14.56 65.826 15.056 H 0.0 **** 0.0
5 H 16.29 65.735 15.468 H 0.0 **** 0.0
@<TRIPOS>BOND
1 1 2 1
2 1 3 1
3 1 4 1
4 1 5 1
@<TRIPOS>MOLECULE
CH4
5 4
SMALL
USER_CHARGES


@<TRIPOS>ATOM
1 C 79.542 33.623 86.58 C 0.0 **** 0.0
2 H 79.544 33.625 85.49 H 0.0 **** 0.0
3 H 78.744 34.271 86.942 H 0.0 **** 0.0
4 H 80.501 33.988 86.945 H 0.0 **** 0.0
5 H 79.378 32.608 86.941 H 0.0 **** 0.0
@<TRIPOS>BOND
1 1 2 1
2 1 3 1
3 1 4 1
4 1 5 1
@<TRIPOS>MOLECULE
CH4
5 4
SMALL
USER_CHARGES


@<TRIPOS>ATOM
1 C 76.467 76.905 58.199 C 0.0 **** 0.0
2 H 76.075 76.259 57.413 H 0.0 **** 0.0
3 H 75.978 77.878 58.148 H 0.0 **** 0.0
4 H 77.541 77.03 58.064 H 0.0 **** 0.0
5 H 76.273 76.451 59.171 H 0.0 **** 0.0
@<TRIPOS>BOND
1 1 2 1
2 1 3 1
3 1 4 1
4 1 5 1
@<TRIPOS>MOLECULE
CH4
5 4
SMALL
USER_CHARGES


@<TRIPOS>ATOM
1 C 45.035 59.765 18.072 C 0.0 **** 0.0
2 H 44.98 59.831 16.985 H 0.0 **** 0.0
3 H 45.622 60.599 18.457 H 0.0 **** 0.0
4 H 45.507 58.825 18.356 H 0.0 **** 0.0
5 H 44.028 59.807 18.489 H 0.0 **** 0.0
@<TRIPOS>BOND
1 1 2 1
2 1 3 1
3 1 4 1
4 1 5 1
@<TRIPOS>MOLECULE
CH4
5 4
SMALL
USER_CHARGES


@<TRIPOS>ATOM
1 C 3.026 85.448 37.333 C 0.0 **** 0.0
2 H 3.679 86.276 37.056 H 0.0 **** 0.0
3 H 3.428 84.948 38.215 H 0.0 **** 0.0
4 H 2.969 84.739 36.507 H 0.0 **** 0.0
5 H 2.029 85.83 37.553 H 0.0 **** 0.0
@<TRIPOS>BOND
1 1 2 1
2 1 3 1
3 1 4 1
4 1 5 1
@<TRIPOS>MOLECULE
CH4
5 4
SMALL
USER_CHARGES


@<TRIPOS>ATOM
1 C 8.505 50.85 23.876 C 0.0 **** 0.0
2 H 8.961 51.259 22.975 H 0.0 **** 0.0
3 H 8.94 51.329 24.754 H 0.0 **** 0.0
4 H 8.686 49.776 23.92 H 0.0 **** 0.0
5 H 7.431 51.036 23.856 H 0.0 **** 0.0
@<TRIPOS>BOND
1 1 2 1
2 1 3 1
3 1 4 1
4 1 5 1
@<TRIPOS>MOLECULE
CH4
5 4
SMALL
USER_CHARGES


@<TRIPOS>ATOM
1 C 54.636 94.13 23.89 C 0.0 **** 0.0
2 H 55.278 94.411 23.056 H 0.0 **** 0.0
3 H 55.251 93.894 24.759 H 0.0 **** 0.0
4 H 54.045 93.256 23.615 H 0.0 **** 0.0
5 H 53.969 94.958 24.13 H 0.0 **** 0.0
@<TRIPOS>BOND
1 1 2 1
2 1 3 1
3 1 4 1
4 1 5 1
@<TRIPOS>MOLECULE
CH4
5 4
SMALL
USER_CHARGES


@<TRIPOS>ATOM
1 C 62.294 33.763 97.154 C 0.0 **** 0.0
2 H 62.5 34.702 96.641 H 0.0 **** 0.0
3 H 61.445 33.269 96.681 H 0.0 **** 0.0
4 H 62.062 33.964 98.2 H 0.0 **** 0.0
5 H 63.17 33.117 97.094 H 0.0 **** 0.0
@<TRIPOS>BOND
1 1 2 1
2 1 3 1
3 1 4 1
4 1 5 1
@<TRIPOS>MOLECULE
CH4
5 4
SMALL
USER_CHARGES


@<TRIPOS>ATOM
1 C 20.887 11.301 75.774 C 0.0 **** 0.0
2 H 20.348 10.993 74.878 H 0.0 **** 0.0
3 H 20.357 12.125 76.251 H 0.0 **** 0.0
4 H 21.891 11.625 75.5 H 0.0 **** 0.0
5 H 20.952 10.461 76.466 H 0.0 **** 0.0
@<TRIPOS>BOND
1 1 2 1
2 1 3 1
3 1 4 1
4 1 5 1
@<TRIPOS>MOLECULE
CH4
5 4
SMALL
USER_CHARGES


@<TRIPOS>ATOM
1 C 14.215 59.024 3.858 C 0.0 **** 0.0
2 H 13.833 60.045 3.826 H 0.0 **** 0.0
3 H 13.379 58.324 3.835 H 0.0 **** 0.0
4 H 14.786 58.879 4.774 H 0.0 **** 0.0
5 H 14.859 58.85 2.996 H 0.0 **** 0.0
@<TRIPOS>BOND
1 1 2 1
2 1 3 1
3 1 4 1
4 1 5 1
@<TRIPOS>MOLECULE
CH4
5 4
SMALL
USER_CHARGES


@<TRIPOS>ATOM
1 C 84.442 57.594 45.089 C 0.0 **** 0.0
2 H 83.435 57.206 44.935 H 0.0 **** 0.0
3 H 84.628 57.71 46.157 H 0.0 **** 0.0
4 H 84.537 58.562 44.596 H 0.0 **** 0.0
5 H 85.168 56.899 44.667 H 0.0 **** 0.0
@<TRIPOS>BOND
1 1 2 1
2 1 3 1
3 1 4 1
4 1 5 1
@<TRIPOS>MOLECULE
CH4
5 4
SMALL
USER_CHARGES


@<TRIPOS>ATOM
1 C 3.968 6.718 42.19 C 0.0 **** 0.0
2 H 3.314 7.365 42.775 H 0.0 **** 0.0
3 H 4.99 7.093 42.241 H 0.0 **** 0.0
4 H 3.635 6.708 41.152 H 0.0 **** 0.0
5 H 3.932 5.705 42.593 H 0.0 **** 0.0
@<TRIPOS>BOND
1 1 2 1
2 1 3 1
3 1 4 1
4 1 5 1
@<TRIPOS>MOLECULE
CH4
5 4
SMALL
USER_CHARGES


@<TRIPOS>ATOM
1 C 37.178 43.269 83.997 C 0.0 **** 0.0
2 H 36.907 43.798 84.911 H 0.0 **** 0.0
3 H 37.981 43.806 83.491 H 0.0 **** 0.0
4 H 36.31 43.21 83.341 H 0.0 **** 0.0
5 H 37.514 42.263 84.246 H 0.0 **** 0.0
@<TRIPOS>BOND
1 1 2 1
2 1 3 1
3 1 4 1
4 1 5 1
@<TRIPOS>MOLECULE
CH4
5 4
SMALL
USER_CHARGES


@<TRIPOS>ATOM
1 C 48.754 49.082 39.866 C 0.0 **** 0.0
2 H 48.757 48.017 40.102 H 0.0 **** 0.0
3 H 49.62 49.32 39.248 H 0.0 **** 0.0
4 H 48.796 49.658 40.79 H 0.0 **** 0.0
5 H 47.841 49.33 39.324 H 0.0 **** 0.0
@<TRIPOS>BOND
1 1 2 1
2 1 3 1
3 1 4 1
4 1 5 1
@<TRIPOS>MOLECULE
CH4
5 4
SMALL
USER_CHARGES


@<TRIPOS>ATOM
1 C 59.011 91.973 17.205 C 0.0 **** 0.0
2 H 59.977 91.584 17.529 H 0.0 **** 0.0
3 H 58.362 91.144 16.924 H 0.0 **** 0.0
4 H 59.154 92.63 16.347 H 0.0 **** 0.0
5 H 58.554 92.534 18.02 H 0.0 **** 0.0
@<TRIPOS>BOND
1 1 2 1
2 1 5 1
3 1 3 1
4 1 4 1
@<TRIPOS>MOLECULE
CH4
5 4
SMALL
USER_CHARGES


@<TRIPOS>ATOM
1 C 60.219 93.16 70.171 C 0.0 **** 0.0
2 H 60.861 93.675 70.886 H 0.0 **** 0.0
3 H 59.281 93.706 70.067 H 0.0 **** 0.0
4 H 60.014 92.151 70.528 H 0.0 **** 0.0
5 H 60.72 93.11 69.205 H 0.0 **** 0.0
@<TRIPOS>BOND
1 1 2 1
2 1 3 1
3 1 4 1
4 1 5 1
@<TRIPOS>MOLECULE
CH4
5 4
SMALL
USER_CHARGES


@<TRIPOS>ATOM
1 C 3.24 9.087 24.454 C 0.0 **** 0.0
2 H 4.258 9.044 24.842 H 0.0 **** 0.0
3 H 3.043 10.085 24.062 H 0.0 **** 0.0
4 H 2.536 8.866 25.257 H 0.0 **** 0.0
5 H 3.124 8.353 23.657 H 0.0 **** 0.0
@<TRIPOS>BOND
1 1 2 1
2 1 3 1
3 1 4 1
4 1 5 1
@<TRIPOS>MOLECULE
CH4
5 4
SMALL
USER_CHARGES


@<TRIPOS>ATOM
1 C 45.833 48.446 18.462 C 0.0 **** 0.0
2 H 44.922 48.742 17.943 H 0.0 **** 0.0
3 H 46.423 49.333 18.694 H 0.0 **** 0.0
4 H 46.413 47.779 17.825 H 0.0 **** 0.0
5 H 45.573 47.93 19.386 H 0.0 **** 0.0
@<TRIPOS>BOND
1 1 2 1
2 1 3 1
3 1 4 1
4 1 5 1
@<TRIPOS>MOLECULE
CH4
5 4
SMALL
USER_CHARGES


@<TRIPOS>ATOM
1 C 62.323 43.93 90.759 C 0.0 **** 0.0
2 H 62.739 44.305 89.824 H 0.0 **** 0.0
3 H 62.929 43.098 91.118 H 0.0 **** 0.0
4 H 61.301 43.59 90.591 H 0.0 **** 0.0
5 H 62.324 44.727 91.503 H 0.0 **** 0.0
@<TRIPOS>BOND
1 1 2 1
2 1 3 1
3 1 4 1
4 1 5 1
@<TRIPOS>MOLECULE
CH4
5 4
SMALL
USER_CHARGES


@<TRIPOS>ATOM
1 C 93.99 97.119 82.567 C 0.0 **** 0.0
2 H 93.935 97.262 81.488 H 0.0 **** 0.0
3 H 94.098 96.057 82.787 H 0.0 **** 0.0
4 H 93.077 97.496 83.029 H 0.0 **** 0.0
5 H 94.848 97.662 82.962 H 0.0 **** 0.0
@<TRIPOS>BOND
1 1 2 1
2 1 3 1
3 1 4 1
4 1 5 1
@<TRIPOS>MOLECULE
CH4
5 4
SMALL
USER_CHARGES


@<TRIPOS>ATOM
1 C 10.755 95.036 85.761 C 0.0 **** 0.0
2 H 10.799 94.407 86.65 H 0.0 **** 0.0
3 H 11.309 95.958 85.941 H 0.0 **** 0.0
4 H 9.716 95.274 85.535 H 0.0 **** 0.0
5 H 11.197 94.505 84.918 H 0.0 **** 0.0
@<TRIPOS>BOND
1 1 2 1
2 1 3 1
3 1 4 1
4 1 5 1
@<TRIPOS>MOLECULE
CH4
5 4
SMALL
USER_CHARGES


@<TRIPOS>ATOM
1 C 50.473 18.268 51.386 C 0.0 **** 0.0
2 H 50.914 18.813 52.22 H 0.0 **** 0.0
3 H 49.43 18.564 51.269 H 0.0 **** 0.0
4 H 50.527 17.197 51.583 H 0.0 **** 0.0
5 H 51.021 18.498 50.472 H 0.0 **** 0.0
@<TRIPOS>BOND
1 1 2 1
2 1 3 1
3 1 4 1
4 1 5 1
@<TRIPOS>MOLECULE
CH4
5 4
SMALL
USER_CHARGES


@<TRIPOS>ATOM
1 C 58.008 53.381 45.388 C 0.0 **** 0.0
2 H 58.557 53.012 44.522 H 0.0 **** 0.0
3 H 57.17 53.993 45.052 H 0.0 **** 0.0
4 H 58.671 53.983 46.009 H 0.0 **** 0.0
5 H 57.633 52.537 45.967 H 0.0 **** 0.0
@<TRIPOS>BOND
1 1 2 1
2 1 3 1
3 1 4 1
4 1 5 1
@<TRIPOS>MOLECULE
CH4
5 4
SMALL
USER_CHARGES


@<TRIPOS>ATOM
1 C 92.817 6.896 22.922 C 0.0 **** 0.0
2 H 92.944 6.889 24.005 H 0.0 **** 0.0
3 H 92.495 7.887 22.601 H 0.0 **** 0.0
4 H 92.064 6.16 22.64 H 0.0 **** 0.0
5 H 93.765 6.648 22.444 H 0.0 **** 0.0
@<TRIPOS>BOND
1 1 2 1
2 1 3 1
3 1 4 1
4 1 5 1
@<TRIPOS>MOLECULE
CH4
5 4
SMALL
USER_CHARGES


@<TRIPOS>ATOM
1 C 93.888 23.067 41.678 C 0.0 **** 0.0
2 H 94.404 23.382 40.771 H 0.0 **** 0.0
3 H 94.615 22.915 42.475 H 0.0 **** 0.0
4 H 93.356 22.135 41.488 H 0.0 **** 0.0
5 H 93.176 23.837 41.977 H 0.0 **** 0.0
@<TRIPOS>BOND
1 1 2 1
2 1 3 1
3 1 4 1
4 1 5 1
@<TRIPOS>MOLECULE
CH4
5 4
SMALL
USER_CHARGES


@<TRIPOS>ATOM
1 C 85.61 10.97 58.805 C 0.0 **** 0.0
2 H 85.658 10.705 59.861 H 0.0 **** 0.0
3 H 84.78 11.657 58.64 H 0.0 **** 0.0
4 H 85.46 10.068 58.211 H 0.0 **** 0.0
5 H 86.543 11.45 58.508 H 0.0 **** 0.0
@<TRIPOS>BOND
1 1 2 1
2 1 3 1
3 1 4 1
4 1 5 1
@<TRIPOS>MOLECULE
CH4
5 4
SMALL
USER_CHARGES


@<TRIPOS>ATOM
1 C 33.295 68.867 69.365 C 0.0 **** 0.0
2 H 32.281 69.196 69.592 H 0.0 **** 0.0
3 H 33.734 69.532 68.62 H 0.0 **** 0.0
4 H 33.268 67.85 68.974 H 0.0 **** 0.0
5 H 33.896 68.891 70.274 H 0.0 **** 0.0
@<TRIPOS>BOND
1 1 2 1
2 1 3 1
3 1 4 1
4 1 5 1
@<TRIPOS>MOLECULE
CH4
5 4
SMALL
USER_CHARGES


@<TRIPOS>ATOM
1 C 42.893 6.589 63.563 C 0.0 **** 0.0
2 H 41.808 6.638 63.468 H 0.0 **** 0.0
3 H 43.274 7.562 63.874 H 0.0 **** 0.0
4 H 43.33 6.318 62.602 H 0.0 **** 0.0
5 H 43.159 5.839 64.308 H 0.0 **** 0.0
@<TRIPOS>BOND
1 1 2 1
2 1 3 1
3 1 4 1
4 1 5 1
@<TRIPOS>MOLECULE
CH4
5 4
SMALL
USER_CHARGES


@<TRIPOS>ATOM
1 C 41.009 85.816 95.592 C 0.0 **** 0.0
2 H 40.493 84.858 95.658 H 0.0 **** 0.0
3 H 40.288 86.626 95.709 H 0.0 **** 0.0
4 H 41.496 85.899 94.62 H 0.0 **** 0.0
5 H 41.759 85.879 96.381 H 0.0 **** 0.0
@<TRIPOS>BOND
1 1 2 1
2 1 3 1
3 1 4 1
4 1 5 1
@<TRIPOS>MOLECULE
CH4
5 4
SMALL
USER_CHARGES


@<TRIPOS>ATOM
1 C 42.973 35.663 1.427 C 0.0 **** 0.0
2 H 42.436 35.719 2.373 H 0.0 **** 0.0
3 H 43.469 36.614 1.233 H 0.0 **** 0.0
4 H 42.269 35.449 0.622 H 0.0 **** 0.0
5 H 43.717 34.868 1.479 H 0.0 **** 0.0
@<TRIPOS>BOND
1 1 2 1
2 1 3 1
3 1 4 1
4 1 5 1
@<TRIPOS>MOLECULE
CH4
5 4
SMALL
USER_CHARGES


@<TRIPOS>ATOM
1 C 85.251 19.28 32.94 C 0.0 **** 0.0
2 H 84.845 18.279 33.084 H 0.0 **** 0.0
3 H 84.828 19.954 33.684 H 0.0 **** 0.0
4 H 84.997 19.634 31.941 H 0.0 **** 0.0
5 H 86.335 19.251 33.05 H 0.0 **** 0.0
@<TRIPOS>BOND
1 1 2 1
2 1 3 1
3 1 4 1
4 1 5 1
@<TRIPOS>MOLECULE
CH4
5 4
SMALL
USER_CHARGES


@<TRIPOS>ATOM
1 C 91.833 5.634 89.594 C 0.0 **** 0.0
2 H 91.304 4.687 89.699 H 0.0 **** 0.0
3 H 92.907 5.458 89.653 H 0.0 **** 0.0
4 H 91.53 6.31 90.393 H 0.0 **** 0.0
5 H 91.591 6.08 88.629 H 0.0 **** 0.0
@<TRIPOS>BOND
1 1 4 1
2 1 5 1
3 1 2 1
4 1 3 1
@<TRIPOS>MOLECULE
CH4
5 4
SMALL
USER_CHARGES


@<TRIPOS>ATOM
1 C 29.624 45.034 11.217 C 0.0 **** 0.0
2 H 29.797 46.103 11.341 H 0.0 **** 0.0
3 H 29.106 44.857 10.274 H 0.0 **** 0.0
4 H 29.013 44.667 12.042 H 0.0 **** 0.0
5 H 30.58 44.51 11.211 H 0.0 **** 0.0
@<TRIPOS>BOND
1 1 2 1
2 1 3 1
3 1 4 1
4 1 5 1
@<TRIPOS>MOLECULE
CH4
5 4
SMALL
USER_CHARGES


@<TRIPOS>ATOM
1 C 59.601 76.275 50.925 C 0.0 **** 0.0
2 H 60.234 76.507 51.782 H 0.0 **** 0.0
3 H 58.656 75.859 51.275 H 0.0 **** 0.0
4 H 60.104 75.549 50.287 H 0.0 **** 0.0
5 H 59.41 77.186 50.358 H 0.0 **** 0.0
@<TRIPOS>BOND
1 1 2 1
2 1 3 1
3 1 4 1
4 1 5 1
@<TRIPOS>MOLECULE
CH4
5 4
SMALL
USER_CHARGES


@<TRIPOS>ATOM
1 C 22.719 33.209 15.026 C 0.0 **** 0.0
2 H 23.487 33.011 14.279 H 0.0 **** 0.0
3 H 22.84 34.222 15.411 H 0.0 **** 0.0
4 H 22.814 32.495 15.844 H 0.0 **** 0.0
5 H 21.734 33.109 14.569 H 0.0 **** 0.0
@<TRIPOS>BOND
1 1 2 1
2 1 3 1
3 1 4 1
4 1 5 1
@<TRIPOS>MOLECULE
CH4
5 4
SMALL
USER_CHARGES


@<TRIPOS>ATOM
1 C 47.245 51.267 76.11 C 0.0 **** 0.0
2 H 47.309 51.238 75.022 H 0.0 **** 0.0
3 H 46.882 52.245 76.426 H 0.0 **** 0.0
4 H 48.233 51.091 76.536 H 0.0 **** 0.0
5 H 46.557 50.495 76.454 H 0.0 **** 0.0
@<TRIPOS>BOND
1 1 2 1
2 1 3 1
3 1 4 1
4 1 5 1
@<TRIPOS>MOLECULE
CH4
5 4
SMALL
USER_CHARGES


@<TRIPOS>ATOM
1 C 20.094 33.864 77.085 C 0.0 **** 0.0
2 H 20.609 33.679 78.028 H 0.0 **** 0.0
3 H 20.808 33.804 76.263 H 0.0 **** 0.0
4 H 19.645 34.857 77.105 H 0.0 **** 0.0
5 H 19.314 33.116 76.945 H 0.0 **** 0.0
@<TRIPOS>BOND
1 1 2 1
2 1 3 1
3 1 4 1
4 1 5 1
@<TRIPOS>MOLECULE
CH4
5 4
SMALL
USER_CHARGES


@<TRIPOS>ATOM
1 C 63.399 50.518 94.067 C 0.0 **** 0.0
2 H 63.789 51.527 94.198 H 0.0 **** 0.0
3 H 64.193 49.866 93.704 H 0.0 **** 0.0
4 H 62.584 50.535 93.344 H 0.0 **** 0.0
5 H 63.03 50.145 95.022 H 0.0 **** 0.0
@<TRIPOS>BOND
1 1 2 1
2 1 3 1
3 1 4 1
4 1 5 1
@<TRIPOS>MOLECULE
CH4
5 4
SMALL
USER_CHARGES


@<TRIPOS>ATOM
1 C 41.894 83.774 4.799 C 0.0 **** 0.0
2 H 41.524 84.278 5.692 H 0.0 **** 0.0
3 H 41.871 82.695 4.956 H 0.0 **** 0.0
4 H 42.918 84.091 4.601 H 0.0 **** 0.0
5 H 41.263 84.032 3.949 H 0.0 **** 0.0
@<TRIPOS>BOND
1 1 2 1
2 1 3 1
3 1 4 1
4 1 5 1
@<TRIPOS>MOLECULE
CH4
5 4
SMALL
USER_CHARGES


@<TRIPOS>ATOM
1 C 82.087 25.302 48.088 C 0.0 **** 0.0
2 H 81.316 25.267 47.32 H 0.0 **** 0.0
3 H 82.636 26.241 48.01 H 0.0 **** 0.0
4 H 82.774 24.467 47.951 H 0.0 **** 0.0
5 H 81.623 25.233 49.072 H 0.0 **** 0.0
@<TRIPOS>BOND
1 1 2 1
2 1 3 1
3 1 4 1
4 1 5 1
@<TRIPOS>MOLECULE
CH4
5 4
SMALL
USER_CHARGES


@<TRIPOS>ATOM
1 C 65.317 38.182 74.263 C 0.0 **** 0.0
2 H 65.048 38.253 75.317 H 0.0 **** 0.0
3 H 65.393 37.133 73.978 H 0.0 **** 0.0
4 H 66.275 38.674 74.099 H 0.0 **** 0.0
5 H 64.55 38.668 73.659 H 0.0 **** 0.0
@<TRIPOS>BOND
1 1 2 1
2 1 3 1
3 1 4 1
4 1 5 1
@<TRIPOS>MOLECULE
CH4
5 4
SMALL
USER_CHARGES


@<TRIPOS>ATOM
1 C 98.046 73.573 58.756 C 0.0 **** 0.0
2 H 97.486 74.196 58.059 H 0.0 **** 0.0
3 H 97.473 72.673 58.98 H 0.0 **** 0.0
4 H 98.225 74.129 59.677 H 0.0 **** 0.0
5 H 99.0 73.295 58.308 H 0.0 **** 0.0
@<TRIPOS>BOND
1 1 2 1
2 1 3 1
3 1 4 1
4 1 5 1
@<TRIPOS>MOLECULE
CH4
5 4
SMALL
USER_CHARGES


@<TRIPOS>ATOM
1 C 47.937 48.964 28.336 C 0.0 **** 0.0
2 H 48.604 48.293 28.877 H 0.0 **** 0.0
3 H 48.305 49.1 27.319 H 0.0 **** 0.0
4 H 47.903 49.928 28.843 H 0.0 **** 0.0
5 H 46.936 48.534 28.306 H 0.0 **** 0.0
@<TRIPOS>BOND
1 1 2 1
2 1 3 1
3 1 4 1
4 1 5 1
@<TRIPOS>MOLECULE
CH4
5 4
SMALL
USER_CHARGES


@<TRIPOS>ATOM
1 C 67.314 95.356 4.025 C 0.0 **** 0.0
2 H 66.732 94.503 4.374 H 0.0 **** 0.0
3 H 66.646 96.096 3.584 H 0.0 **** 0.0
4 H 68.033 95.023 3.276 H 0.0 **** 0.0
5 H 67.846 95.801 4.866 H 0.0 **** 0.0
@<TRIPOS>BOND
1 1 2 1
2 1 3 1
3 1 4 1
4 1 5 1
@<TRIPOS>MOLECULE
CH4
5 4
SMALL
USER_CHARGES


@<TRIPOS>ATOM
1 C 87.303 72.375 94.176 C 0.0 **** 0.0
2 H 86.391 72.239 94.758 H 0.0 **** 0.0
3 H 88.152 72.48 94.852 H 0.0 **** 0.0
4 H 87.212 73.273 93.565 H 0.0 **** 0.0
5 H 87.456 71.51 93.531 H 0.0 **** 0.0
@<TRIPOS>BOND
1 1 2 1
2 1 3 1
3 1 4 1
4 1 5 1
@<TRIPOS>MOLECULE
CH4
5 4
SMALL
USER_CHARGES


@<TRIPOS>ATOM
1 C 78.162 69.562 1.953 C 0.0 **** 0.0
2 H 77.681 70.384 2.483 H 0.0 **** 0.0
3 H 78.655 68.906 2.67 H 0.0 **** 0.0
4 H 78.9 69.961 1.257 H 0.0 **** 0.0
5 H 77.41 68.998 1.4 H 0.0 **** 0.0
@<TRIPOS>BOND
1 1 2 1
2 1 3 1
3 1 4 1
4 1 5 1
@<TRIPOS>MOLECULE
CH4
5 4
SMALL
USER_CHARGES


@<TRIPOS>ATOM
1 C 63.341 66.164 27.671 C 0.0 **** 0.0
2 H 63.139 65.19 28.118 H 0.0 **** 0.0
3 H 62.401 66.691 27.509 H 0.0 **** 0.0
4 H 63.85 66.026 26.717 H 0.0 **** 0.0
5 H 63.975 66.746 28.34 H 0.0 **** 0.0
@<TRIPOS>BOND
1 1 2 1
2 1 3 1
3 1 4 1
4 1 5 1
@<TRIPOS>MOLECULE
CH4
5 4
SMALL
USER_CHARGES


@<TRIPOS>ATOM
1 C 83.484 16.842 28.187 C 0.0 **** 0.0
2 H 84.006 15.903 28.371 H 0.0 **** 0.0
3 H 83.356 17.377 29.128 H 0.0 **** 0.0
4 H 82.506 16.634 27.751 H 0.0 **** 0.0
5 H 84.067 17.452 27.498 H 0.0 **** 0.0
@<TRIPOS>BOND
1 1 2 1
2 1 3 1
3 1 4 1
4 1 5 1
@<TRIPOS>MOLECULE
CH4
5 4
SMALL
USER_CHARGES


@<TRIPOS>ATOM
1 C 8.155 18.722 7.467 C 0.0 **** 0.0
2 H 8.609 18.266 6.588 H 0.0 **** 0.0
3 H 7.246 19.247 7.175 H 0.0 **** 0.0
4 H 8.856 19.428 7.913 H 0.0 **** 0.0
5 H 7.91 17.946 8.192 H 0.0 **** 0.0
@<TRIPOS>BOND
1 1 3 1
2 1 4 1
3 1 5 1
4 1 2 1
@<TRIPOS>MOLECULE
CH4
5 4
SMALL
USER_CHARGES


@<TRIPOS>ATOM
1 C 79.41 73.673 1.068 C 0.0 **** 0.0
2 H 79.482 73.982 0.026 H 0.0 **** 0.0
3 H 78.389 73.824 1.421 H 0.0 **** 0.0
4 H 80.095 74.269 1.672 H 0.0 **** 0.0
5 H 79.672 72.619 1.155 H 0.0 **** 0.0
@<TRIPOS>BOND
1 1 2 1
2 1 3 1
3 1 4 1
4 1 5 1
@<TRIPOS>MOLECULE
CH4
5 4
SMALL
USER_CHARGES


@<TRIPOS>ATOM
1 C 14.522 6.46 32.121 C 0.0 **** 0.0
2 H 14.521 6.364 31.036 H 0.0 **** 0.0
3 H 15.539 6.651 32.467 H 0.0 **** 0.0
4 H 14.154 5.536 32.568 H 0.0 **** 0.0
5 H 13.877 7.287 32.414 H 0.0 **** 0.0
@<TRIPOS>BOND
1 1 2 1
2 1 3 1
3 1 4 1
4 1 5 1
@<TRIPOS>MOLECULE
CH4
5 4
SMALL
USER_CHARGES


@<TRIPOS>ATOM
1 C 36.684 57.708 31.111 C 0.0 **** 0.0
2 H 36.561 58.774 31.304 H 0.0 **** 0.0
3 H 37.729 57.432 31.251 H 0.0 **** 0.0
4 H 36.384 57.487 30.087 H 0.0 **** 0.0
5 H 36.062 57.14 31.803 H 0.0 **** 0.0
@<TRIPOS>BOND
1 1 2 1
2 1 3 1
3 1 4 1
4 1 5 1
@<TRIPOS>MOLECULE
CH4
5 4
SMALL
USER_CHARGES


@<TRIPOS>ATOM
1 C 97.062 68.909 68.562 C 0.0 **** 0.0
2 H 96.448 68.82 67.666 H 0.0 **** 0.0
3 H 97.782 69.717 68.431 H 0.0 **** 0.0
4 H 97.593 67.972 68.732 H 0.0 **** 0.0
5 H 96.424 69.125 69.419 H 0.0 **** 0.0
@<TRIPOS>BOND
1 1 2 1
2 1 3 1
3 1 4 1
4 1 5 1
@<TRIPOS>MOLECULE
CH4
5 4
SMALL
USER_CHARGES


@<TRIPOS>ATOM
1 C 3.342 4.307 39.846 C 0.0 **** 0.0
2 H 2.852 3.375 40.128 H 0.0 **** 0.0
3 H 2.592 5.088 39.724 H 0.0 **** 0.0
4 H 3.878 4.166 38.908 H 0.0 **** 0.0
5 H 4.046 4.596 40.627 H 0.0 **** 0.0
@<TRIPOS>BOND
1 1 2 1
2 1 3 1
3 1 4 1
4 1 5 1
@<TRIPOS>MOLECULE
CH4
5 4
SMALL
USER_CHARGES


@<TRIPOS>ATOM
1 C 94.029 26.961 85.678 C 0.0 **** 0.0
2 H 93.545 26.075 85.268 H 0.0 **** 0.0
3 H 93.865 26.999 86.755 H 0.0 **** 0.0
4 H 93.607 27.853 85.214 H 0.0 **** 0.0
5 H 95.099 26.917 85.474 H 0.0 **** 0.0
@<TRIPOS>BOND
1 1 2 1
2 1 3 1
3 1 4 1
4 1 5 1
@<TRIPOS>MOLECULE
CH4
5 4
SMALL
USER_CHARGES


@<TRIPOS>ATOM
1 C 4.884 31.647 48.951 C 0.0 **** 0.0
2 H 5.234 32.471 48.329 H 0.0 **** 0.0
3 H 4.063 31.991 49.581 H 0.0 **** 0.0
4 H 5.701 31.294 49.579 H 0.0 **** 0.0
5 H 4.538 30.834 48.314 H 0.0 **** 0.0
@<TRIPOS>BOND
1 1 2 1
2 1 3 1
3 1 4 1
4 1 5 1
@<TRIPOS>MOLECULE
CH4
5 4
SMALL
USER_CHARGES


@<TRIPOS>ATOM
1 C 75.618 79.571 1.747 C 0.0 **** 0.0
2 H 74.914 79.824 0.955 H 0.0 **** 0.0
3 H 76.477 79.054 1.319 H 0.0 **** 0.0
4 H 75.129 78.923 2.474 H 0.0 **** 0.0
5 H 75.952 80.484 2.241 H 0.0 **** 0.0
@<TRIPOS>BOND
1 1 2 1
2 1 3 1
3 1 4 1
4 1 5 1
@<TRIPOS>MOLECULE
CH4
5 4
SMALL
USER_CHARGES


@<TRIPOS>ATOM
1 C 35.803 37.803 70.754 C 0.0 **** 0.0
2 H 35.71 37.048 71.535 H 0.0 **** 0.0
3 H 35.015 37.659 70.015 H 0.0 **** 0.0
4 H 36.776 37.708 70.272 H 0.0 **** 0.0
5 H 35.711 38.795 71.196 H 0.0 **** 0.0
@<TRIPOS>BOND
1 1 2 1
2 1 3 1
3 1 4 1
4 1 5 1
@<TRIPOS>MOLECULE
CH4
5 4
SMALL
USER_CHARGES


@<TRIPOS>ATOM
1 C 5.483 55.815 75.681 C 0.0 **** 0.0
2 H 6.233 55.855 74.892 H 0.0 **** 0.0
3 H 5.412 56.789 76.165 H 0.0 **** 0.0
4 H 5.769 55.063 76.416 H 0.0 **** 0.0
5 H 4.516 55.553 75.25 H 0.0 **** 0.0
@<TRIPOS>BOND
1 1 2 1
2 1 3 1
3 1 4 1
4 1 5 1
@<TRIPOS>MOLECULE
CH4
5 4
SMALL
USER_CHARGES


@<TRIPOS>ATOM
1 C 39.444 76.561 64.326 C 0.0 **** 0.0
2 H 39.367 75.689 63.677 H 0.0 **** 0.0
3 H 39.935 77.372 63.788 H 0.0 **** 0.0
4 H 40.029 76.305 65.21 H 0.0 **** 0.0
5 H 38.446 76.877 64.63 H 0.0 **** 0.0
@<TRIPOS>BOND
1 1 2 1
2 1 3 1
3 1 4 1
4 1 5 1
@<TRIPOS>MOLECULE
CH4
5 4
SMALL
USER_CHARGES


@<TRIPOS>ATOM
1 C 21.796 47.517 6.069 C 0.0 **** 0.0
2 H 21.089 47.597 6.895 H 0.0 **** 0.0
3 H 21.878 48.48 5.566 H 0.0 **** 0.0
4 H 21.445 46.765 5.362 H 0.0 **** 0.0
5 H 22.773 47.224 6.456 H 0.0 **** 0.0
@<TRIPOS>BOND
1 1 2 1
2 1 3 1
3 1 4 1
4 1 5 1
@<TRIPOS>MOLECULE
CH4
5 4
SMALL
USER_CHARGES


@<TRIPOS>ATOM
1 C 45.844 72.791 85.88 C 0.0 **** 0.0
2 H 45.698 72.984 84.818 H 0.0 **** 0.0
3 H 46.777 73.248 86.208 H 0.0 **** 0.0
4 H 45.886 71.715 86.051 H 0.0 **** 0.0
5 H 45.013 73.216 86.444 H 0.0 **** 0.0
@<TRIPOS>BOND
1 1 2 1
2 1 3 1
3 1 4 1
4 1 5 1
@<TRIPOS>MOLECULE
CH4
5 4
SMALL
USER_CHARGES


@<TRIPOS>ATOM
1 C 58.54 76.372 16.894 C 0.0 **** 0.0
2 H 58.487 75.701 16.037 H 0.0 **** 0.0
3 H 57.537 76.709 17.154 H 0.0 **** 0.0
4 H 59.159 77.233 16.643 H 0.0 **** 0.0
5 H 58.978 75.845 17.741 H 0.0 **** 0.0
@<TRIPOS>BOND
1 1 2 1
2 1 3 1
3 1 4 1
4 1 5 1
@<TRIPOS>MOLECULE
CH4
5 4
SMALL
USER_CHARGES


@<TRIPOS>ATOM
1 C 41.981 89.113 97.218 C 0.0 **** 0.0
2 H 42.388 88.52 96.4 H 0.0 **** 0.0
3 H 42.017 90.17 96.953 H 0.0 **** 0.0
4 H 42.571 88.944 98.119 H 0.0 **** 0.0
5 H 40.947 88.819 97.4 H 0.0 **** 0.0
@<TRIPOS>BOND
1 1 2 1
2 1 3 1
3 1 4 1
4 1 5 1
@<TRIPOS>MOLECULE
CH4
5 4
SMALL
USER_CHARGES


@<TRIPOS>ATOM
1 C 7.615 89.256 11.161 C 0.0 **** 0.0
2 H 7.67 89.418 10.084 H 0.0 **** 0.0
3 H 6.84 88.52 11.378 H 0.0 **** 0.0
4 H 7.373 90.196 11.657 H 0.0 **** 0.0
5 H 8.575 88.891 11.523 H 0.0 **** 0.0
@<TRIPOS>BOND
1 1 2 1
2 1 3 1
3 1 4 1
4 1 5 1
@<TRIPOS>MOLECULE
CH4
5 4
SMALL
USER_CHARGES


@<TRIPOS>ATOM
1 C 61.846 94.319 34.214 C 0.0 **** 0.0
2 H 61.579 93.463 33.594 H 0.0 **** 0.0
3 H 61.018 95.028 34.229 H 0.0 **** 0.0
4 H 62.732 94.803 33.803 H 0.0 **** 0.0
5 H 62.054 93.981 35.229 H 0.0 **** 0.0
@<TRIPOS>BOND
1 1 2 1
2 1 3 1
3 1 4 1
4 1 5 1
@<TRIPOS>MOLECULE
CH4
5 4
SMALL
USER_CHARGES


@<TRIPOS>ATOM
1 C 74.931 87.275 13.019 C 0.0 **** 0.0
2 H 75.789 87.946 13.037 H 0.0 **** 0.0
3 H 75.271 86.246 13.145 H 0.0 **** 0.0
4 H 74.413 87.372 12.064 H 0.0 **** 0.0
5 H 74.25 87.535 13.829 H 0.0 **** 0.0
@<TRIPOS>BOND
1 1 2 1
2 1 3 1
3 1 4 1
4 1 5 1
@<TRIPOS>MOLECULE
CH4
5 4
SMALL
USER_CHARGES


@<TRIPOS>ATOM
1 C 87.289 20.659 26.991 C 0.0 **** 0.0
2 H 87.61 21.002 26.008 H 0.0 **** 0.0
3 H 86.246 20.934 27.149 H 0.0 **** 0.0
4 H 87.908 21.124 27.759 H 0.0 **** 0.0
5 H 87.392 19.575 27.049 H 0.0 **** 0.0
@<TRIPOS>BOND
1 1 2 1
2 1 3 1
3 1 4 1
4 1 5 1
@<TRIPOS>MOLECULE
CH4
5 4
SMALL
USER_CHARGES


@<TRIPOS>ATOM
1 C 55.777 93.545 64.49 C 0.0 **** 0.0
2 H 56.205 94.245 65.207 H 0.0 **** 0.0
3 H 54.823 93.932 64.13 H 0.0 **** 0.0
4 H 55.619 92.581 64.974 H 0.0 **** 0.0
5 H 56.46 93.422 63.65 H 0.0 **** 0.0
@<TRIPOS>BOND
1 1 2 1
2 1 3 1
3 1 4 1
4 1 5 1
@<TRIPOS>MOLECULE
CH4
5 4
SMALL
USER_CHARGES


@<TRIPOS>ATOM
1 C 61.354 84.87 70.1 C 0.0 **** 0.0
2 H 60.875 84.805 69.123 H 0.0 **** 0.0
3 H 60.607 84.732 70.881 H 0.0 **** 0.0
4 H 61.82 85.85 70.211 H 0.0 **** 0.0
5 H 62.116 84.095 70.184 H 0.0 **** 0.0
@<TRIPOS>BOND
1 1 2 1
2 1 3 1
3 1 4 1
4 1 5 1
@<TRIPOS>MOLECULE
CH4
5 4
SMALL
USER_CHARGES


@<TRIPOS>ATOM
1 C 56.272 58.569 32.847 C 0.0 **** 0.0
2 H 57.295 58.929 32.959 H 0.0 **** 0.0
3 H 56.093 57.758 33.554 H 0.0 **** 0.0
4 H 56.125 58.205 31.831 H 0.0 **** 0.0
5 H 55.576 59.384 33.046 H 0.0 **** 0.0
@<TRIPOS>BOND
1 1 2 1
2 1 3 1
3 1 4 1
4 1 5 1
@<TRIPOS>MOLECULE
CH4
5 4
SMALL
USER_CHARGES


@<TRIPOS>ATOM
1 C 56.588 48.978 64.747 C 0.0 **** 0.0
2 H 57.39 49.681 64.976 H 0.0 **** 0.0
3 H 55.627 49.486 64.826 H 0.0 **** 0.0
4 H 56.621 48.148 65.453 H 0.0 **** 0.0
5 H 56.717 48.598 63.734 H 0.0 **** 0.0
@<TRIPOS>BOND
1 1 2 1
2 1 3 1
3 1 4 1
4 1 5 1
@<TRIPOS>MOLECULE
CH4
5 4
SMALL
USER_CHARGES


@<TRIPOS>ATOM
1 C 3.725 6.725 52.372 C 0.0 **** 0.0
2 H 3.428 6.812 51.327 H 0.0 **** 0.0
3 H 2.836 6.701 53.002 H 0.0 **** 0.0
4 H 4.342 7.582 52.646 H 0.0 **** 0.0
5 H 4.296 5.807 52.512 H 0.0 **** 0.0
@<TRIPOS>BOND
1 1 2 1
2 1 3 1
3 1 4 1
4 1 5 1
@<TRIPOS>MOLECULE
CH4
5 4
SMALL
USER_CHARGES


@<TRIPOS>ATOM
1 C 80.292 91.043 30.462 C 0.0 **** 0.0
2 H 79.447 91.458 29.914 H 0.0 **** 0.0
3 H 81.222 91.415 30.031 H 0.0 **** 0.0
4 H 80.27 89.956 30.395 H 0.0 **** 0.0
5 H 80.23 91.344 31.508 H 0.0 **** 0.0
@<TRIPOS>BOND
1 1 2 1
2 1 3 1
3 1 4 1
4 1 5 1
@<TRIPOS>MOLECULE
CH4
5 4
SMALL
USER_CHARGES


@<TRIPOS>ATOM
1 C 61.831 68.293 32.695 C 0.0 **** 0.0
2 H 60.758 68.474 32.762 H 0.0 **** 0.0
3 H 62.045 67.266 32.99 H 0.0 **** 0.0
4 H 62.356 68.98 33.358 H 0.0 **** 0.0
5 H 62.162 68.453 31.669 H 0.0 **** 0.0
@<TRIPOS>BOND
1 1 2 1
2 1 3 1
3 1 4 1
4 1 5 1
@<TRIPOS>MOLECULE
CH4
5 4
SMALL
USER_CHARGES


@<TRIPOS>ATOM
1 C 23.788 75.152 35.524 C 0.0 **** 0.0
2 H 23.801 75.847 34.684 H 0.0 **** 0.0
3 H 22.915 74.504 35.445 H 0.0 **** 0.0
4 H 23.742 75.713 36.458 H 0.0 **** 0.0
5 H 24.694 74.547 35.508 H 0.0 **** 0.0
@<TRIPOS>BOND
1 1 2 1
2 1 3 1
3 1 4 1
4 1 5 1
@<TRIPOS>MOLECULE
CH4
5 4
SMALL
USER_CHARGES


@<TRIPOS>ATOM
1 C 79.685 89.643 55.536 C 0.0 **** 0.0
2 H 78.929 88.892 55.31 H 0.0 **** 0.0
3 H 80.541 89.507 54.874 H 0.0 **** 0.0
4 H 80.006 89.536 56.572 H 0.0 **** 0.0
5 H 79.264 90.638 55.386 H 0.0 **** 0.0
@<TRIPOS>BOND
1 1 2 1
2 1 3 1
3 1 4 1
4 1 5 1
@<TRIPOS>MOLECULE
CH4
5 4
SMALL
USER_CHARGES


@<TRIPOS>ATOM
1 C 85.627 43.728 44.031 C 0.0 **** 0.0
2 H 85.634 43.691 42.941 H 0.0 **** 0.0
3 H 86.311 42.974 44.424 H 0.0 **** 0.0
4 H 84.619 43.529 44.394 H 0.0 **** 0.0
5 H 85.945 44.716 44.363 H 0.0 **** 0.0
@<TRIPOS>BOND
1 1 2 1
2 1 3 1
3 1 4 1
4 1 5 1
@<TRIPOS>MOLECULE
CH4
5 4
SMALL
USER_CHARGES


@<TRIPOS>ATOM
1 C 75.771 85.911 67.696 C 0.0 **** 0.0
2 H 76.242 84.952 67.483 H 0.0 **** 0.0
3 H 75.314 85.88 68.685 H 0.0 **** 0.0
4 H 75.004 86.113 66.948 H 0.0 **** 0.0
5 H 76.523 86.7 67.667 H 0.0 **** 0.0
@<TRIPOS>BOND
1 1 2 1
2 1 3 1
3 1 4 1
4 1 5 1
@<TRIPOS>MOLECULE
CH4
5 4
SMALL
USER_CHARGES


@<TRIPOS>ATOM
1 C 95.281 13.105 64.045 C 0.0 **** 0.0
2 H 95.577 12.719 65.02 H 0.0 **** 0.0
3 H 94.206 12.976 63.914 H 0.0 **** 0.0
4 H 95.811 12.561 63.263 H 0.0 **** 0.0
5 H 95.53 14.165 63.983 H 0.0 **** 0.0
@<TRIPOS>BOND
1 1 2 1
2 1 3 1
3 1 4 1
4 1 5 1
@<TRIPOS>MOLECULE
CH4
5 4
SMALL
USER_CHARGES


@<TRIPOS>ATOM
1 C 16.674 52.529 28.649 C 0.0 **** 0.0
2 H 16.639 53.618 28.611 H 0.0 **** 0.0
3 H 17.427 52.165 27.95 H 0.0 **** 0.0
4 H 15.699 52.125 28.375 H 0.0 **** 0.0
5 H 16.929 52.208 29.658 H 0.0 **** 0.0
@<TRIPOS>BOND
1 1 2 1
2 1 3 1
3 1 4 1
4 1 5 1
@<TRIPOS>MOLECULE
CH4
5 4
SMALL
USER_CHARGES


@<TRIPOS>ATOM
1 C 74.755 77.183 16.262 C 0.0 **** 0.0
2 H 75.307 76.495 15.622 H 0.0 **** 0.0
3 H 73.685 77.067 16.082 H 0.0 **** 0.0
4 H 75.052 78.207 16.036 H 0.0 **** 0.0
5 H 74.974 76.963 17.306 H 0.0 **** 0.0
@<TRIPOS>BOND
1 1 2 1
2 1 3 1
3 1 4 1
4 1 5 1
@<TRIPOS>MOLECULE
CH4
5 4
SMALL
USER_CHARGES


@<TRIPOS>ATOM
1 C 15.809 64.573 94.121 C 0.0 **** 0.0
2 H 16.3 63.697 94.545 H 0.0 **** 0.0
3 H 15.059 64.942 94.821 H 0.0 **** 0.0
4 H 15.326 64.3 93.182 H 0.0 **** 0.0
5 H 16.549 65.351 93.937 H 0.0 **** 0.0
@<TRIPOS>BOND
1 1 2 1
2 1 3 1
3 1 4 1
4 1 5 1
@<TRIPOS>MOLECULE
CH4
5 4
SMALL
USER_CHARGES


@<TRIPOS>ATOM
1 C 75.854 8.552 96.685 C 0.0 **** 0.0
2 H 76.677 7.838 96.655 H 0.0 **** 0.0
3 H 76.249 9.565 96.603 H 0.0 **** 0.0
4 H 75.316 8.447 97.627 H 0.0 **** 0.0
5 H 75.174 8.359 95.855 H 0.0 **** 0.0
@<TRIPOS>BOND
1 1 2 1
2 1 3 1
3 1 4 1
4 1 5 1
@<TRIPOS>MOLECULE
CH4
5 4
SMALL
USER_CHARGES


@<TRIPOS>ATOM
1 C 91.636 25.223 11.271 C 0.0 **** 0.0
2 H 92.509 24.936 10.684 H 0.0 **** 0.0
3 H 91.858 25.104 12.332 H 0.0 **** 0.0
4 H 90.793 24.587 11.003 H 0.0 **** 0.0
5 H 91.387 26.264 11.066 H 0.0 **** 0.0
@<TRIPOS>BOND
1 1 2 1
2 1 3 1
3 1 4 1
4 1 5 1
@<TRIPOS>MOLECULE
CH4
5 4
SMALL
USER_CHARGES


@<TRIPOS>ATOM
1 C 89.415 4.102 36.447 C 0.0 **** 0.0
2 H 89.104 4.447 37.433 H 0.0 **** 0.0
3 H 90.484 4.277 36.322 H 0.0 **** 0.0
4 H 88.865 4.647 35.681 H 0.0 **** 0.0
5 H 89.208 3.036 36.354 H 0.0 **** 0.0
@<TRIPOS>BOND
1 1 2 1
2 1 3 1
3 1 4 1
4 1 5 1
@<TRIPOS>MOLECULE
CH4
5 4
SMALL
USER_CHARGES


@<TRIPOS>ATOM
1 C 85.738 84.492 83.587 C 0.0 **** 0.0
2 H 85.825 84.432 82.502 H 0.0 **** 0.0
3 H 86.729 84.618 84.024 H 0.0 **** 0.0
4 H 85.287 83.575 83.966 H 0.0 **** 0.0
5 H 85.112 85.343 83.855 H 0.0 **** 0.0
@<TRIPOS>BOND
1 1 2 1
2 1 3 1
3 1 4 1
4 1 5 1
@<TRIPOS>MOLECULE
CH4
5 4
SMALL
USER_CHARGES


@<TRIPOS>ATOM
1 C 76.814 38.719 83.125 C 0.0 **** 0.0
2 H 76.772 38.41 84.17 H 0.0 **** 0.0
3 H 77.006 37.849 82.497 H 0.0 **** 0.0
4 H 77.613 39.448 82.993 H 0.0 **** 0.0
5 H 75.862 39.169 82.842 H 0.0 **** 0.0
@<TRIPOS>BOND
1 1 2 1
2 1 3 1
3 1 4 1
4 1 5 1
@<TRIPOS>MOLECULE
CH4
5 4
SMALL
USER_CHARGES


@<TRIPOS>ATOM
1 C 19.16 50.802 74.702 C 0.0 **** 0.0
2 H 18.631 50.893 75.65 H 0.0 **** 0.0
3 H 18.485 50.397 73.947 H 0.0 **** 0.0
4 H 20.012 50.134 74.824 H 0.0 **** 0.0
5 H 19.51 51.785 74.386 H 0.0 **** 0.0
@<TRIPOS>BOND
1 1 2 1
2 1 3 1
3 1 4 1
4 1 5 1
@<TRIPOS>MOLECULE
CH4
5 4
SMALL
USER_CHARGES


@<TRIPOS>ATOM
1 C 55.287 15.55 36.524 C 0.0 **** 0.0
2 H 54.761 15.402 35.581 H 0.0 **** 0.0
3 H 56.115 16.243 36.373 H 0.0 **** 0.0
4 H 55.672 14.594 36.879 H 0.0 **** 0.0
5 H 54.598 15.961 37.263 H 0.0 **** 0.0
@<TRIPOS>BOND
1 1 2 1
2 1 3 1
3 1 4 1
4 1 5 1
@<TRIPOS>MOLECULE
CH4
5 4
SMALL
USER_CHARGES


@<TRIPOS>ATOM
1 C 82.131 38.277 6.248 C 0.0 **** 0.0
2 H 81.641 37.981 5.321 H 0.0 **** 0.0
3 H 82.808 39.109 6.051 H 0.0 **** 0.0
4 H 82.697 37.435 6.646 H 0.0 **** 0.0
5 H 81.379 38.585 6.975 H 0.0 **** 0.0
@<TRIPOS>BOND
1 1 2 1
2 1 3 1
3 1 4 1
4 1 5 1
@<TRIPOS>MOLECULE
CH4
5 4
SMALL
USER_CHARGES


@<TRIPOS>ATOM
1 C 21.098 48.31 21.176 C 0.0 **** 0.0
2 H 21.425 47.717 22.03 H 0.0 **** 0.0
3 H 20.056 48.601 21.314 H 0.0 **** 0.0
4 H 21.193 47.719 20.266 H 0.0 **** 0.0
5 H 21.717 49.203 21.096 H 0.0 **** 0.0
@<TRIPOS>BOND
1 1 2 1
2 1 3 1
3 1 4 1
4 1 5 1
@<TRIPOS>MOLECULE
CH4
5 4
SMALL
USER_CHARGES


@<TRIPOS>ATOM
1 C 53.78 21.386 33.026 C 0.0 **** 0.0
2 H 53.129 21.134 33.863 H 0.0 **** 0.0
3 H 53.481 20.811 32.149 H 0.0 **** 0.0
4 H 54.812 21.148 33.283 H 0.0 **** 0.0
5 H 53.696 22.451 32.808 H 0.0 **** 0.0
@<TRIPOS>BOND
1 1 2 1
2 1 3 1
3 1 4 1
4 1 5 1
@<TRIPOS>MOLECULE
CH4
5 4
SMALL
USER_CHARGES


@<TRIPOS>ATOM
1 C 10.441 75.302 86.771 C 0.0 **** 0.0
2 H 10.151 74.448 86.16 H 0.0 **** 0.0
3 H 9.672 75.49 87.521 H 0.0 **** 0.0
4 H 10.552 76.182 86.136 H 0.0 **** 0.0
5 H 11.388 75.09 87.266 H 0.0 **** 0.0
@<TRIPOS>BOND
1 1 2 1
2 1 3 1
3 1 4 1
4 1 5 1
@<TRIPOS>MOLECULE
CH4
5 4
SMALL
USER_CHARGES


@<TRIPOS>ATOM
1 C 66.703 42.356 47.911 C 0.0 **** 0.0
2 H 65.934 43.053 47.58 H 0.0 **** 0.0
3 H 67.684 42.819 47.802 H 0.0 **** 0.0
4 H 66.659 41.452 47.304 H 0.0 **** 0.0
5 H 66.536 42.1 48.957 H 0.0 **** 0.0
@<TRIPOS>BOND
1 1 2 1
2 1 3 1
3 1 4 1
4 1 5 1
@<TRIPOS>MOLECULE
CH4
5 4
SMALL
USER_CHARGES


@<TRIPOS>ATOM
1 C 57.313 23.818 74.849 C 0.0 **** 0.0
2 H 56.271 24.104 74.991 H 0.0 **** 0.0
3 H 57.855 24.643 74.386 H 0.0 **** 0.0
4 H 57.364 22.941 74.204 H 0.0 **** 0.0
5 H 57.761 23.586 75.816 H 0.0 **** 0.0
@<TRIPOS>BOND
1 1 2 1
2 1 3 1
3 1 4 1
4 1 5 1
@<TRIPOS>MOLECULE
CH4
5 4
SMALL
USER_CHARGES


@<TRIPOS>ATOM
1 C 3.858 81.119 78.941 C 0.0 **** 0.0
2 H 4.576 81.569 79.626 H 0.0 **** 0.0
3 H 3.296 80.343 79.462 H 0.0 **** 0.0
4 H 4.389 80.679 78.097 H 0.0 **** 0.0
5 H 3.171 81.884 78.58 H 0.0 **** 0.0
@<TRIPOS>BOND
1 1 2 1
2 1 3 1
3 1 4 1
4 1 5 1
@<TRIPOS>MOLECULE
CH4
5 4
SMALL
USER_CHARGES


@<TRIPOS>ATOM
1 C 81.309 81.175 93.482 C 0.0 **** 0.0
2 H 81.507 81.521 94.496 H 0.0 **** 0.0
3 H 80.818 80.203 93.519 H 0.0 **** 0.0
4 H 82.25 81.086 92.938 H 0.0 **** 0.0
5 H 80.663 81.891 92.974 H 0.0 **** 0.0
@<TRIPOS>BOND
1 1 2 1
2 1 3 1
3 1 4 1
4 1 5 1
@<TRIPOS>MOLECULE
CH4
5 4
SMALL
USER_CHARGES


@<TRIPOS>ATOM
1 C 80.516 73.446 82.481 C 0.0 **** 0.0
2 H 81.101 74.336 82.252 H 0.0 **** 0.0
3 H 80.654 73.181 83.529 H 0.0 **** 0.0
4 H 80.848 72.621 81.851 H 0.0 **** 0.0
5 H 79.461 73.645 82.292 H 0.0 **** 0.0
@<TRIPOS>BOND
1 1 4 1
2 1 5 1
3 1 2 1
4 1 3 1
@<TRIPOS>MOLECULE
CH4
5 4
SMALL
USER_CHARGES


@<TRIPOS>ATOM
1 C 13.534 38.359 75.132 C 0.0 **** 0.0
2 H 13.257 39.375 74.853 H 0.0 **** 0.0
3 H 14.621 38.265 75.129 H 0.0 **** 0.0
4 H 13.107 37.656 74.417 H 0.0 **** 0.0
5 H 13.153 38.139 76.13 H 0.0 **** 0.0
@<TRIPOS>BOND
1 1 2 1
2 1 3 1
3 1 4 1
4 1 5 1
@<TRIPOS>MOLECULE
CH4
5 4
SMALL
USER_CHARGES


@<TRIPOS>ATOM
1 C 16.546 68.778 72.46 C 0.0 **** 0.0
2 H 15.617 68.774 73.03 H 0.0 **** 0.0
3 H 16.597 67.881 71.842 H 0.0 **** 0.0
4 H 17.393 68.796 73.146 H 0.0 **** 0.0
5 H 16.576 69.662 71.822 H 0.0 **** 0.0
@<TRIPOS>BOND
1 1 2 1
2 1 3 1
3 1 4 1
4 1 5 1
@<TRIPOS>MOLECULE
CH4
5 4
SMALL
USER_CHARGES


@<TRIPOS>ATOM
1 C 90.476 76.581 85.012 C 0.0 **** 0.0
2 H 91.026 76.742 85.939 H 0.0 **** 0.0
3 H 90.6 77.447 84.362 H 0.0 **** 0.0
4 H 89.418 76.443 85.237 H 0.0 **** 0.0
5 H 90.86 75.692 84.512 H 0.0 **** 0.0
@<TRIPOS>BOND
1 1 2 1
2 1 3 1
3 1 4 1
4 1 5 1
@<TRIPOS>MOLECULE
CH4
5 4
SMALL
USER_CHARGES


@<TRIPOS>ATOM
1 C 73.797 85.808 64.561 C 0.0 **** 0.0
2 H 73.393 84.796 64.527 H 0.0 **** 0.0
3 H 73.357 86.346 65.402 H 0.0 **** 0.0
4 H 73.557 86.326 63.632 H 0.0 **** 0.0
5 H 74.879 85.764 64.683 H 0.0 **** 0.0
@<TRIPOS>BOND
1 1 2 1
2 1 3 1
3 1 4 1
4 1 5 1
@<TRIPOS>MOLECULE
CH4
5 4
SMALL
USER_CHARGES


@<TRIPOS>ATOM
1 C 7.965 94.395 51.751 C 0.0 **** 0.0
2 H 8.671 95.193 51.519 H 0.0 **** 0.0
3 H 7.402 94.137 50.854 H 0.0 **** 0.0
4 H 7.279 94.733 52.527 H 0.0 **** 0.0
5 H 8.51 93.519 52.103 H 0.0 **** 0.0
@<TRIPOS>BOND
1 1 2 1
2 1 3 1
3 1 4 1
4 1 5 1
@<TRIPOS>MOLECULE
CH4
5 4
SMALL
USER_CHARGES


@<TRIPOS>ATOM
1 C 51.953 63.453 72.383 C 0.0 **** 0.0
2 H 51.34 63.944 71.627 H 0.0 **** 0.0
3 H 53.004 63.524 72.1 H 0.0 **** 0.0
4 H 51.667 62.404 72.458 H 0.0 **** 0.0
5 H 51.802 63.941 73.345 H 0.0 **** 0.0
@<TRIPOS>BOND
1 1 2 1
2 1 3 1
3 1 4 1
4 1 5 1
@<TRIPOS>MOLECULE
CH4
5 4
SMALL
USER_CHARGES


@<TRIPOS>ATOM
1 C 20.276 34.782 88.231 C 0.0 **** 0.0
2 H 19.655 34.855 89.124 H 0.0 **** 0.0
3 H 20.482 33.734 88.017 H 0.0 **** 0.0
4 H 21.214 35.311 88.397 H 0.0 **** 0.0
5 H 19.751 35.23 87.387 H 0.0 **** 0.0
@<TRIPOS>BOND
1 1 2 1
2 1 3 1
3 1 4 1
4 1 5 1
@<TRIPOS>MOLECULE
CH4
5 4
SMALL
USER_CHARGES


@<TRIPOS>ATOM
1 C 91.447 86.621 80.753 C 0.0 **** 0.0
2 H 91.822 86.997 79.801 H 0.0 **** 0.0
3 H 91.214 87.46 81.408 H 0.0 **** 0.0
4 H 92.207 85.995 81.22 H 0.0 **** 0.0
5 H 90.546 86.032 80.581 H 0.0 **** 0.0
@<TRIPOS>BOND
1 1 2 1
2 1 3 1
3 1 4 1
4 1 5 1
@<TRIPOS>MOLECULE
CH4
5 4
SMALL
USER_CHARGES


@<TRIPOS>ATOM
1 C 31.809 44.465 52.342 C 0.0 **** 0.0
2 H 31.159 44.666 51.49 H 0.0 **** 0.0
3 H 32.722 45.053 52.247 H 0.0 **** 0.0
4 H 32.059 43.405 52.365 H 0.0 **** 0.0
5 H 31.294 44.738 53.263 H 0.0 **** 0.0
@<TRIPOS>BOND
1 1 2 1
2 1 3 1
3 1 4 1
4 1 5 1
@<TRIPOS>MOLECULE
CH4
5 4
SMALL
USER_CHARGES


@<TRIPOS>ATOM
1 C 71.485 90.661 63.879 C 0.0 **** 0.0
2 H 71.469 90.66 62.789 H 0.0 **** 0.0
3 H 70.483 90.863 64.257 H 0.0 **** 0.0
4 H 72.169 91.434 64.231 H 0.0 **** 0.0
5 H 71.821 89.688 64.238 H 0.0 **** 0.0
@<TRIPOS>BOND
1 1 2 1
2 1 3 1
3 1 4 1
4 1 5 1
@<TRIPOS>MOLECULE
CH4
5 4
SMALL
USER_CHARGES


@<TRIPOS>ATOM
1 C 32.451 41.87 56.283 C 0.0 **** 0.0
2 H 33.09 41.302 55.607 H 0.0 **** 0.0
3 H 32.728 41.652 57.315 H 0.0 **** 0.0
4 H 31.41 41.59 56.119 H 0.0 **** 0.0
5 H 32.575 42.936 56.09 H 0.0 **** 0.0
@<TRIPOS>BOND
1 1 2 1
2 1 3 1
3 1 4 1
4 1 5 1
@<TRIPOS>MOLECULE
CH4
5 4
SMALL
USER_CHARGES


@<TRIPOS>ATOM
1 C 8.356 69.554 41.018 C 0.0 **** 0.0
2 H 8.219 69.473 42.096 H 0.0 **** 0.0
3 H 7.383 69.562 40.528 H 0.0 **** 0.0
4 H 8.936 68.703 40.662 H 0.0 **** 0.0
5 H 8.887 70.478 40.788 H 0.0 **** 0.0
@<TRIPOS>BOND
1 1 2 1
2 1 3 1
3 1 4 1
4 1 5 1
@<TRIPOS>MOLECULE
CH4
5 4
SMALL
USER_CHARGES


@<TRIPOS>ATOM
1 C 62.566 6.119 34.557 C 0.0 **** 0.0
2 H 62.809 6.054 35.618 H 0.0 **** 0.0
3 H 63.425 5.795 33.968 H 0.0 **** 0.0
4 H 62.32 7.15 34.304 H 0.0 **** 0.0
5 H 61.713 5.477 34.339 H 0.0 **** 0.0
@<TRIPOS>BOND
1 1 2 1
2 1 3 1
3 1 4 1
4 1 5 1
@<TRIPOS>MOLECULE
CH4
5 4
SMALL
USER_CHARGES


@<TRIPOS>ATOM
1 C 37.934 74.27 90.719 C 0.0 **** 0.0
2 H 37.697 74.621 89.715 H 0.0 **** 0.0
3 H 37.87 73.182 90.747 H 0.0 **** 0.0
4 H 37.224 74.694 91.429 H 0.0 **** 0.0
5 H 38.944 74.582 90.985 H 0.0 **** 0.0
@<TRIPOS>BOND
1 1 2 1
2 1 3 1
3 1 4 1
4 1 5 1
@<TRIPOS>MOLECULE
CH4
5 4
SMALL
USER_CHARGES


@<TRIPOS>ATOM
1 C 48.641 62.486 37.023 C 0.0 **** 0.0
2 H 49.652 62.338 37.403 H 0.0 **** 0.0
3 H 48.622 62.276 35.953 H 0.0 **** 0.0
4 H 48.335 63.517 37.196 H 0.0 **** 0.0
5 H 47.957 61.812 37.538 H 0.0 **** 0.0
@<TRIPOS>BOND
1 1 2 1
2 1 3 1
3 1 4 1
4 1 5 1
@<TRIPOS>MOLECULE
CH4
5 4
SMALL
USER_CHARGES


@<TRIPOS>ATOM
1 C 60.591 42.282 50.921 C 0.0 **** 0.0
2 H 60.471 42.422 49.846 H 0.0 **** 0.0
3 H 61.628 42.472 51.197 H 0.0 **** 0.0
4 H 60.325 41.259 51.186 H 0.0 **** 0.0
5 H 59.94 42.976 51.452 H 0.0 **** 0.0
@<TRIPOS>BOND
1 1 2 1
2 1 3 1
3 1 4 1
4 1 5 1
@<TRIPOS>MOLECULE
CH4
5 4
SMALL
USER_CHARGES


@<TRIPOS>ATOM
1 C 15.222 92.787 96.506 C 0.0 **** 0.0
2 H 15.541 92.823 95.465 H 0.0 **** 0.0
3 H 15.992 92.302 97.106 H 0.0 **** 0.0
4 H 14.293 92.223 96.582 H 0.0 **** 0.0
5 H 15.062 93.802 96.872 H 0.0 **** 0.0
@<TRIPOS>BOND
1 1 4 1
2 1 5 1
3 1 2 1
4 1 3 1
@<TRIPOS>MOLECULE
CH4
5 4
SMALL
USER_CHARGES


@<TRIPOS>ATOM
1 C 54.536 81.167 68.654 C 0.0 **** 0.0
2 H 54.626 81.558 67.641 H 0.0 **** 0.0
3 H 55.096 80.235 68.734 H 0.0 **** 0.0
4 H 53.486 80.982 68.88 H 0.0 **** 0.0
5 H 54.937 81.894 69.361 H 0.0 **** 0.0
@<TRIPOS>BOND
1 1 2 1
2 1 3 1
3 1 4 1
4 1 5 1
@<TRIPOS>MOLECULE
CH4
5 4
SMALL
USER_CHARGES


@<TRIPOS>ATOM
1 C 1.965 31.699 47.321 C 0.0 **** 0.0
2 H 2.08 31.911 48.384 H 0.0 **** 0.0
3 H 0.918 31.481 47.106 H 0.0 **** 0.0
4 H 2.577 30.838 47.053 H 0.0 **** 0.0
5 H 2.282 32.565 46.741 H 0.0 **** 0.0
@<TRIPOS>BOND
1 1 2 1
2 1 3 1
3 1 4 1
4 1 5 1
@<TRIPOS>MOLECULE
CH4
5 4
SMALL
USER_CHARGES


@<TRIPOS>ATOM
1 C 18.714 98.015 83.545 C 0.0 **** 0.0
2 H 19.031 99.004 83.217 H 0.0 **** 0.0
3 H 17.646 98.03 83.768 H 0.0 **** 0.0
4 H 19.268 97.734 84.441 H 0.0 **** 0.0
5 H 18.91 97.29 82.755 H 0.0 **** 0.0
@<TRIPOS>BOND
1 1 2 1
2 1 3 1
3 1 4 1
4 1 5 1
@<TRIPOS>MOLECULE
CH4
5 4
SMALL
USER_CHARGES


@<TRIPOS>ATOM
1 C 92.773 29.233 45.333 C 0.0 **** 0.0
2 H 93.579 29.697 44.764 H 0.0 **** 0.0
3 H 92.762 29.64 46.344 H 0.0 **** 0.0
4 H 92.932 28.156 45.375 H 0.0 **** 0.0
5 H 91.82 29.441 44.847 H 0.0 **** 0.0
@<TRIPOS>BOND
1 1 2 1
2 1 3 1
3 1 4 1
4 1 5 1
@<TRIPOS>MOLECULE
CH4
5 4
SMALL
USER_CHARGES


@<TRIPOS>ATOM
1 C 62.816 8.109 56.638 C 0.0 **** 0.0
2 H 61.837 8.588 56.665 H 0.0 **** 0.0
3 H 62.712 7.055 56.895 H 0.0 **** 0.0
4 H 63.478 8.595 57.355 H 0.0 **** 0.0
5 H 63.237 8.2 55.636 H 0.0 **** 0.0
@<TRIPOS>BOND
1 1 2 1
2 1 3 1
3 1 4 1
4 1 5 1
@<TRIPOS>MOLECULE
CH4
5 4
SMALL
USER_CHARGES


@<TRIPOS>ATOM
1 C 71.465 7.939 58.423 C 0.0 **** 0.0
2 H 71.807 7.947 57.389 H 0.0 **** 0.0
3 H 70.547 8.521 58.507 H 0.0 **** 0.0
4 H 72.232 8.377 59.063 H 0.0 **** 0.0
5 H 71.274 6.912 58.735 H 0.0 **** 0.0
@<TRIPOS>BOND
1 1 2 1
2 1 3 1
3 1 4 1
4 1 5 1
@<TRIPOS>MOLECULE
CH4
5 4
SMALL
USER_CHARGES


@<TRIPOS>ATOM
1 C 39.709 82.72 15.708 C 0.0 **** 0.0
2 H 39.569 82.587 14.635 H 0.0 **** 0.0
3 H 38.979 83.439 16.082 H 0.0 **** 0.0
4 H 40.716 83.09 15.9 H 0.0 **** 0.0
5 H 39.57 81.764 16.213 H 0.0 **** 0.0
@<TRIPOS>BOND
1 1 2 1
2 1 3 1
3 1 4 1
4 1 5 1
@<TRIPOS>MOLECULE
CH4
5 4
SMALL
USER_CHARGES


@<TRIPOS>ATOM
1 C 13.293 91.594 63.937 C 0.0 **** 0.0
2 H 13.199 91.715 62.858 H 0.0 **** 0.0
3 H 13.919 92.391 64.339 H 0.0 **** 0.0
4 H 13.749 90.628 64.156 H 0.0 **** 0.0
5 H 12.306 91.641 64.396 H 0.0 **** 0.0
@<TRIPOS>BOND
1 1 2 1
2 1 3 1
3 1 4 1
4 1 5 1
@<TRIPOS>MOLECULE
CH4
5 4
SMALL
USER_CHARGES


@<TRIPOS>ATOM
1 C 71.566 68.293 21.231 C 0.0 **** 0.0
2 H 70.992 67.703 21.945 H 0.0 **** 0.0
3 H 72.253 68.946 21.768 H 0.0 **** 0.0
4 H 70.886 68.896 20.629 H 0.0 **** 0.0
5 H 72.132 67.626 20.581 H 0.0 **** 0.0
@<TRIPOS>BOND
1 1 2 1
2 1 3 1
3 1 4 1
4 1 5 1
@<TRIPOS>MOLECULE
CH4
5 4
SMALL
USER_CHARGES


@<TRIPOS>ATOM
1 C 93.461 43.151 86.964 C 0.0 **** 0.0
2 H 93.182 42.291 86.355 H 0.0 **** 0.0
3 H 93.384 44.06 86.366 H 0.0 **** 0.0
4 H 94.486 43.031 87.314 H 0.0 **** 0.0
5 H 92.791 43.222 87.821 H 0.0 **** 0.0
@<TRIPOS>BOND
1 1 2 1
2 1 3 1
3 1 4 1
4 1 5 1
@<TRIPOS>MOLECULE
CH4
5 4
SMALL
USER_CHARGES


@<TRIPOS>ATOM
1 C 75.915 88.091 49.564 C 0.0 **** 0.0
2 H 75.912 88.557 50.549 H 0.0 **** 0.0
3 H 76.358 88.775 48.839 H 0.0 **** 0.0
4 H 74.891 87.861 49.268 H 0.0 **** 0.0
5 H 76.498 87.171 49.599 H 0.0 **** 0.0
@<TRIPOS>BOND
1 1 2 1
2 1 3 1
3 1 4 1
4 1 5 1
@<TRIPOS>MOLECULE
CH4
5 4
SMALL
USER_CHARGES


@<TRIPOS>ATOM
1 C 82.898 15.131 14.444 C 0.0 **** 0.0
2 H 83.234 15.39 15.448 H 0.0 **** 0.0
3 H 83.753 15.113 13.768 H 0.0 **** 0.0
4 H 82.177 15.872 14.1 H 0.0 **** 0.0
5 H 82.427 14.147 14.462 H 0.0 **** 0.0
@<TRIPOS>BOND
1 1 2 1
2 1 3 1
3 1 4 1
4 1 5 1
@<TRIPOS>MOLECULE
CH4
5 4
SMALL
USER_CHARGES


@<TRIPOS>ATOM
1 C 72.855 28.54 47.732 C 0.0 **** 0.0
2 H 73.694 28.894 47.133 H 0.0 **** 0.0
3 H 72.196 29.376 47.963 H 0.0 **** 0.0
4 H 73.23 28.105 48.659 H 0.0 **** 0.0
5 H 72.303 27.784 47.173 H 0.0 **** 0.0
@<TRIPOS>BOND
1 1 2 1
2 1 3 1
3 1 4 1
4 1 5 1
@<TRIPOS>MOLECULE
CH4
5 4
SMALL
USER_CHARGES


@<TRIPOS>ATOM
1 C 95.211 64.508 97.284 C 0.0 **** 0.0
2 H 95.535 65.095 96.425 H 0.0 **** 0.0
3 H 94.136 64.338 97.223 H 0.0 **** 0.0
4 H 95.443 65.048 98.202 H 0.0 **** 0.0
5 H 95.731 63.55 97.285 H 0.0 **** 0.0
@<TRIPOS>BOND
1 1 2 1
2 1 3 1
3 1 4 1
4 1 5 1
@<TRIPOS>MOLECULE
CH4
5 4
SMALL
USER_CHARGES


@<TRIPOS>ATOM
1 C 41.93 14.175 56.409 C 0.0 **** 0.0
2 H 41.124 14.899 56.292 H 0.0 **** 0.0
3 H 42.783 14.479 55.802 H 0.0 **** 0.0
4 H 41.586 13.192 56.087 H 0.0 **** 0.0
5 H 42.227 14.13 57.457 H 0.0 **** 0.0
@<TRIPOS>BOND
1 1 5 1
2 1 2 1
3 1 3 1
4 1 4 1
@<TRIPOS>MOLECULE
CH4
5 4
SMALL
USER_CHARGES


@<TRIPOS>ATOM
1 C 15.793 45.576 9.153 C 0.0 **** 0.0
2 H 16.112 46.255 9.944 H 0.0 **** 0.0
3 H 15.278 44.722 9.593 H 0.0 **** 0.0
4 H 16.666 45.229 8.599 H 0.0 **** 0.0
5 H 15.118 46.1 8.476 H 0.0 **** 0.0
@<TRIPOS>BOND
1 1 5 1
2 1 2 1
3 1 3 1
4 1 4 1
@<TRIPOS>MOLECULE
CH4
5 4
SMALL
USER_CHARGES


@<TRIPOS>ATOM
1 C 17.053 58.34 52.796 C 0.0 **** 0.0
2 H 17.393 59.272 52.345 H 0.0 **** 0.0
3 H 17.916 57.751 53.108 H 0.0 **** 0.0
4 H 16.472 57.775 52.068 H 0.0 **** 0.0
5 H 16.432 58.562 53.664 H 0.0 **** 0.0
@<TRIPOS>BOND
1 1 3 1
2 1 4 1
3 1 5 1
4 1 2 1
@<TRIPOS>MOLECULE
CH4
5 4
SMALL
USER_CHARGES


@<TRIPOS>ATOM
1 C 81.671 63.493 66.599 C 0.0 **** 0.0
2 H 80.87 62.755 66.56 H 0.0 **** 0.0
3 H 82.057 63.661 65.593 H 0.0 **** 0.0
4 H 82.472 63.125 67.24 H 0.0 **** 0.0
5 H 81.284 64.429 67.001 H 0.0 **** 0.0
@<TRIPOS>BOND
1 1 2 1
2 1 3 1
3 1 4 1
4 1 5 1
@<TRIPOS>MOLECULE
CH4
5 4
SMALL
USER_CHARGES


@<TRIPOS>ATOM
1 C 30.574 32.489 79.728 C 0.0 **** 0.0
2 H 31.361 33.233 79.599 H 0.0 **** 0.0
3 H 30.07 32.326 78.775 H 0.0 **** 0.0
4 H 29.854 32.846 80.464 H 0.0 **** 0.0
5 H 31.013 31.553 80.073 H 0.0 **** 0.0
@<TRIPOS>BOND
1 1 2 1
2 1 3 1
3 1 4 1
4 1 5 1
@<TRIPOS>MOLECULE
CH4
5 4
SMALL
USER_CHARGES


@<TRIPOS>ATOM
1 C 12.447 40.14 16.397 C 0.0 **** 0.0
2 H 12.465 40.805 17.261 H 0.0 **** 0.0
3 H 13.28 39.439 16.462 H 0.0 **** 0.0
4 H 12.538 40.729 15.485 H 0.0 **** 0.0
5 H 11.507 39.589 16.382 H 0.0 **** 0.0
@<TRIPOS>BOND
1 1 2 1
2 1 3 1
3 1 4 1
4 1 5 1
@<TRIPOS>MOLECULE
CH4
5 4
SMALL
USER_CHARGES


@<TRIPOS>ATOM
1 C 19.452 3.174 9.42 C 0.0 **** 0.0
2 H 19.575 2.271 10.019 H 0.0 **** 0.0
3 H 19.553 4.051 10.06 H 0.0 **** 0.0
4 H 18.464 3.172 8.959 H 0.0 **** 0.0
5 H 20.216 3.2 8.643 H 0.0 **** 0.0
@<TRIPOS>BOND
1 1 2 1
2 1 3 1
3 1 4 1
4 1 5 1
@<TRIPOS>MOLECULE
CH4
5 4
SMALL
USER_CHARGES


@<TRIPOS>ATOM
1 C 7.558 72.635 18.709 C 0.0 **** 0.0
2 H 7.411 72.398 17.655 H 0.0 **** 0.0
3 H 8.577 72.378 19.0 H 0.0 **** 0.0
4 H 6.852 72.063 19.312 H 0.0 **** 0.0
5 H 7.392 73.7 18.868 H 0.0 **** 0.0
@<TRIPOS>BOND
1 1 2 1
2 1 3 1
3 1 4 1
4 1 5 1
@<TRIPOS>MOLECULE
CH4
5 4
SMALL
USER_CHARGES


@<TRIPOS>ATOM
1 C 47.284 37.01 95.502 C 0.0 **** 0.0
2 H 47.638 38.041 95.495 H 0.0 **** 0.0
3 H 47.956 36.399 96.105 H 0.0 **** 0.0
4 H 47.26 36.627 94.482 H 0.0 **** 0.0
5 H 46.28 36.974 95.927 H 0.0 **** 0.0
@<TRIPOS>BOND
1 1 2 1
2 1 3 1
3 1 4 1
4 1 5 1
@<TRIPOS>MOLECULE
CH4
5 4
SMALL
USER_CHARGES


@<TRIPOS>ATOM
1 C 22.285 18.337 62.028 C 0.0 **** 0.0
2 H 21.264 18.709 61.935 H 0.0 **** 0.0
3 H 22.986 19.157 61.878 H 0.0 **** 0.0
4 H 22.459 17.566 61.278 H 0.0 **** 0.0
5 H 22.427 17.914 63.023 H 0.0 **** 0.0
@<TRIPOS>BOND
1 1 2 1
2 1 3 1
3 1 4 1
4 1 5 1
@<TRIPOS>MOLECULE
CH4
5 4
SMALL
USER_CHARGES


@<TRIPOS>ATOM
1 C 56.278 95.635 28.634 C 0.0 **** 0.0
2 H 56.379 94.984 29.502 H 0.0 **** 0.0
3 H 57.116 96.332 28.603 H 0.0 **** 0.0
4 H 55.344 96.193 28.704 H 0.0 **** 0.0
5 H 56.273 95.031 27.726 H 0.0 **** 0.0
@<TRIPOS>BOND
1 1 2 1
2 1 3 1
3 1 4 1
4 1 5 1
@<TRIPOS>MOLECULE
CH4
5 4
SMALL
USER_CHARGES


@<TRIPOS>ATOM
1 C 16.745 62.079 24.409 C 0.0 **** 0.0
2 H 17.107 61.923 25.425 H 0.0 **** 0.0
3 H 16.945 63.108 24.107 H 0.0 **** 0.0
4 H 15.672 61.891 24.372 H 0.0 **** 0.0
5 H 17.257 61.395 23.732 H 0.0 **** 0.0
@<TRIPOS>BOND
1 1 2 1
2 1 3 1
3 1 4 1
4 1 5 1
@<TRIPOS>MOLECULE
CH4
5 4
SMALL
USER_CHARGES


@<TRIPOS>ATOM
1 C 47.696 46.905 67.992 C 0.0 **** 0.0
2 H 46.757 47.278 67.583 H 0.0 **** 0.0
3 H 47.893 45.908 67.597 H 0.0 **** 0.0
4 H 47.626 46.858 69.079 H 0.0 **** 0.0
5 H 48.507 47.575 67.709 H 0.0 **** 0.0
@<TRIPOS>BOND
1 1 2 1
2 1 3 1
3 1 4 1
4 1 5 1
@<TRIPOS>MOLECULE
CH4
5 4
SMALL
USER_CHARGES


@<TRIPOS>ATOM
1 C 24.445 93.911 77.668 C 0.0 **** 0.0
2 H 23.531 93.571 78.154 H 0.0 **** 0.0
3 H 25.264 93.901 78.388 H 0.0 **** 0.0
4 H 24.302 94.925 77.295 H 0.0 **** 0.0
5 H 24.683 93.248 76.837 H 0.0 **** 0.0
@<TRIPOS>BOND
1 1 2 1
2 1 3 1
3 1 4 1
4 1 5 1
@<TRIPOS>MOLECULE
CH4
5 4
SMALL
USER_CHARGES


@<TRIPOS>ATOM
1 C 75.865 72.968 57.932 C 0.0 **** 0.0
2 H 74.868 73.031 57.494 H 0.0 **** 0.0
3 H 75.786 72.994 59.019 H 0.0 **** 0.0
4 H 76.465 73.81 57.59 H 0.0 **** 0.0
5 H 76.338 72.035 57.624 H 0.0 **** 0.0
@<TRIPOS>BOND
1 1 2 1
2 1 3 1
3 1 4 1
4 1 5 1
@<TRIPOS>MOLECULE
CH4
5 4
SMALL
USER_CHARGES


@<TRIPOS>ATOM
1 C 61.382 10.599 78.391 C 0.0 **** 0.0
2 H 61.499 10.465 77.316 H 0.0 **** 0.0
3 H 62.084 11.356 78.742 H 0.0 **** 0.0
4 H 61.581 9.655 78.899 H 0.0 **** 0.0
5 H 60.363 10.92 78.608 H 0.0 **** 0.0
@<TRIPOS>BOND
1 1 2 1
2 1 3 1
3 1 4 1
4 1 5 1
@<TRIPOS>MOLECULE
CH4
5 4
SMALL
USER_CHARGES


@<TRIPOS>ATOM
1 C 40.028 17.459 69.551 C 0.0 **** 0.0
2 H 39.141 16.859 69.756 H 0.0 **** 0.0
3 H 40.117 18.243 70.303 H 0.0 **** 0.0
4 H 39.94 17.91 68.563 H 0.0 **** 0.0
5 H 40.911 16.822 69.583 H 0.0 **** 0.0
@<TRIPOS>BOND
1 1 2 1
2 1 3 1
3 1 4 1
4 1 5 1
@<TRIPOS>MOLECULE
CH4
5 4
SMALL
USER_CHARGES


@<TRIPOS>ATOM
1 C 52.847 25.118 36.583 C 0.0 **** 0.0
2 H 52.285 25.593 37.387 H 0.0 **** 0.0
3 H 53.737 25.709 36.364 H 0.0 **** 0.0
4 H 52.223 25.056 35.692 H 0.0 **** 0.0
5 H 53.143 24.115 36.89 H 0.0 **** 0.0
@<TRIPOS>BOND
1 1 2 1
2 1 3 1
3 1 4 1
4 1 5 1
@<TRIPOS>MOLECULE
CH4
5 4
SMALL
USER_CHARGES


@<TRIPOS>ATOM
1 C 63.093 16.337 86.849 C 0.0 **** 0.0
2 H 63.183 16.22 87.929 H 0.0 **** 0.0
3 H 64.088 16.419 86.41 H 0.0 **** 0.0
4 H 62.523 17.239 86.628 H 0.0 **** 0.0
5 H 62.581 15.471 86.431 H 0.0 **** 0.0
@<TRIPOS>BOND
1 1 2 1
2 1 3 1
3 1 4 1
4 1 5 1
@<TRIPOS>MOLECULE
CH4
5 4
SMALL
USER_CHARGES


@<TRIPOS>ATOM
1 C 77.356 11.962 34.355 C 0.0 **** 0.0
2 H 78.04 12.402 35.08 H 0.0 **** 0.0
3 H 77.886 11.214 33.764 H 0.0 **** 0.0
4 H 76.974 12.742 33.697 H 0.0 **** 0.0
5 H 76.525 11.489 34.879 H 0.0 **** 0.0
@<TRIPOS>BOND
1 1 2 1
2 1 3 1
3 1 4 1
4 1 5 1
@<TRIPOS>MOLECULE
CH4
5 4
SMALL
USER_CHARGES


@<TRIPOS>ATOM
1 C 97.92 5.452 24.283 C 0.0 **** 0.0
2 H 97.673 5.793 23.278 H 0.0 **** 0.0
3 H 97.565 6.182 25.011 H 0.0 **** 0.0
4 H 99.001 5.343 24.374 H 0.0 **** 0.0
5 H 97.441 4.491 24.469 H 0.0 **** 0.0
@<TRIPOS>BOND
1 1 2 1
2 1 3 1
3 1 4 1
4 1 5 1
@<TRIPOS>MOLECULE
CH4
5 4
SMALL
USER_CHARGES


@<TRIPOS>ATOM
1 C 73.157 42.226 73.418 C 0.0 **** 0.0
2 H 73.084 42.25 74.506 H 0.0 **** 0.0
3 H 72.157 42.279 72.986 H 0.0 **** 0.0
4 H 73.639 41.299 73.107 H 0.0 **** 0.0
5 H 73.747 43.076 73.075 H 0.0 **** 0.0
@<TRIPOS>BOND
1 1 2 1
2 1 3 1
3 1 4 1
4 1 5 1
@<TRIPOS>MOLECULE
CH4
5 4
SMALL
USER_CHARGES


@<TRIPOS>ATOM
1 C 84.4 74.84 96.381 C 0.0 **** 0.0
2 H 83.419 74.768 96.849 H 0.0 **** 0.0
3 H 84.319 75.408 95.453 H 0.0 **** 0.0
4 H 84.773 73.839 96.163 H 0.0 **** 0.0
5 H 85.09 75.345 97.057 H 0.0 **** 0.0
@<TRIPOS>BOND
1 1 2 1
2 1 3 1
3 1 4 1
4 1 5 1
@<TRIPOS>MOLECULE
CH4
5 4
SMALL
USER_CHARGES


@<TRIPOS>ATOM
1 C 80.624 65.23 81.79 C 0.0 **** 0.0
2 H 80.667 64.479 82.579 H 0.0 **** 0.0
3 H 81.408 65.034 81.059 H 0.0 **** 0.0
4 H 80.77 66.22 82.224 H 0.0 **** 0.0
5 H 79.651 65.188 81.301 H 0.0 **** 0.0
@<TRIPOS>BOND
1 1 2 1
2 1 3 1
3 1 4 1
4 1 5 1
@<TRIPOS>MOLECULE
CH4
5 4
SMALL
USER_CHARGES


@<TRIPOS>ATOM
1 C 8.309 22.112 55.58 C 0.0 **** 0.0
2 H 7.378 21.725 55.993 H 0.0 **** 0.0
3 H 9.088 21.355 55.668 H 0.0 **** 0.0
4 H 8.606 23.006 56.129 H 0.0 **** 0.0
5 H 8.163 22.363 54.529 H 0.0 **** 0.0
@<TRIPOS>BOND
1 1 2 1
2 1 3 1
3 1 4 1
4 1 5 1
@<TRIPOS>MOLECULE
CH4
5 4
SMALL
USER_CHARGES


@<TRIPOS>ATOM
1 C 30.575 44.702 92.985 C 0.0 **** 0.0
2 H 31.026 45.413 92.291 H 0.0 **** 0.0
3 H 30.002 45.244 93.737 H 0.0 **** 0.0
4 H 31.36 44.123 93.472 H 0.0 **** 0.0
5 H 29.914 44.031 92.437 H 0.0 **** 0.0
@<TRIPOS>BOND
1 1 2 1
2 1 3 1
3 1 4 1
4 1 5 1
@<TRIPOS>MOLECULE
CH4
5 4
SMALL
USER_CHARGES


@<TRIPOS>ATOM
1 C 63.612 78.993 73.962 C 0.0 **** 0.0
2 H 63.805 79.347 74.975 H 0.0 **** 0.0
3 H 63.007 79.729 73.431 H 0.0 **** 0.0
4 H 63.076 78.045 74.005 H 0.0 **** 0.0
5 H 64.558 78.853 73.44 H 0.0 **** 0.0
@<TRIPOS>BOND
1 1 2 1
2 1 3 1
3 1 4 1
4 1 5 1
@<TRIPOS>MOLECULE
CH4
5 4
SMALL
USER_CHARGES


@<TRIPOS>ATOM
1 C 96.176 48.242 37.119 C 0.0 **** 0.0
2 H 96.84 47.896 37.912 H 0.0 **** 0.0
3 H 96.511 47.839 36.163 H 0.0 **** 0.0
4 H 96.195 49.331 37.08 H 0.0 **** 0.0
5 H 95.16 47.903 37.322 H 0.0 **** 0.0
@<TRIPOS>BOND
1 1 2 1
2 1 3 1
3 1 4 1
4 1 5 1
@<TRIPOS>MOLECULE
CH4
5 4
SMALL
USER_CHARGES


@<TRIPOS>ATOM
1 C 33.254 58.476 52.827 C 0.0 **** 0.0
2 H 33.873 57.59 52.687 H 0.0 **** 0.0
3 H 32.719 58.694 51.903 H 0.0 **** 0.0
4 H 33.888 59.323 53.089 H 0.0 **** 0.0
5 H 32.538 58.295 53.629 H 0.0 **** 0.0
@<TRIPOS>BOND
1 1 2 1
2 1 3 1
3 1 4 1
4 1 5 1
@<TRIPOS>MOLECULE
CH4
5 4
SMALL
USER_CHARGES


@<TRIPOS>ATOM
1 C 35.79 36.037 25.067 C 0.0 **** 0.0
2 H 35.675 36.253 24.005 H 0.0 **** 0.0
3 H 34.976 35.392 25.397 H 0.0 **** 0.0
4 H 35.767 36.969 25.631 H 0.0 **** 0.0
5 H 36.743 35.534 25.233 H 0.0 **** 0.0
@<TRIPOS>BOND
1 1 2 1
2 1 3 1
3 1 4 1
4 1 5 1
@<TRIPOS>MOLECULE
CH4
5 4
SMALL
USER_CHARGES


@<TRIPOS>ATOM
1 C 85.635 85.81 77.574 C 0.0 **** 0.0
2 H 86.702 85.716 77.779 H 0.0 **** 0.0
3 H 85.414 85.383 76.596 H 0.0 **** 0.0
4 H 85.357 86.864 77.582 H 0.0 **** 0.0
5 H 85.07 85.279 78.339 H 0.0 **** 0.0
@<TRIPOS>BOND
1 1 2 1
2 1 3 1
3 1 4 1
4 1 5 1
@<TRIPOS>MOLECULE
CH4
5 4
SMALL
USER_CHARGES


@<TRIPOS>ATOM
1 C 8.697 11.558 85.752 C 0.0 **** 0.0
2 H 7.913 11.648 85.0 H 0.0 **** 0.0
3 H 8.245 11.369 86.726 H 0.0 **** 0.0
4 H 9.271 12.483 85.791 H 0.0 **** 0.0
5 H 9.358 10.731 85.491 H 0.0 **** 0.0
@<TRIPOS>BOND
1 1 2 1
2 1 3 1
3 1 4 1
4 1 5 1
@<TRIPOS>MOLECULE
CH4
5 4
SMALL
USER_CHARGES


@<TRIPOS>ATOM
1 C 51.702 12.02 28.688 C 0.0 **** 0.0
2 H 51.74 11.389 29.576 H 0.0 **** 0.0
3 H 52.484 12.777 28.747 H 0.0 **** 0.0
4 H 50.729 12.507 28.629 H 0.0 **** 0.0
5 H 51.856 11.407 27.8 H 0.0 **** 0.0
@<TRIPOS>BOND
1 1 2 1
2 1 3 1
3 1 4 1
4 1 5 1
@<TRIPOS>MOLECULE
CH4
5 4
SMALL
USER_CHARGES


@<TRIPOS>ATOM
1 C 29.367 48.304 95.663 C 0.0 **** 0.0
2 H 30.146 48.992 95.334 H 0.0 **** 0.0
3 H 29.746 47.283 95.627 H 0.0 **** 0.0
4 H 28.502 48.394 95.006 H 0.0 **** 0.0
5 H 29.074 48.548 96.684 H 0.0 **** 0.0
@<TRIPOS>BOND
1 1 2 1
2 1 3 1
3 1 4 1
4 1 5 1
@<TRIPOS>MOLECULE
CH4
5 4
SMALL
USER_CHARGES


@<TRIPOS>ATOM
1 C 57.776 71.968 33.51 C 0.0 **** 0.0
2 H 57.238 71.591 34.38 H 0.0 **** 0.0
3 H 58.758 71.498 33.458 H 0.0 **** 0.0
4 H 57.894 73.048 33.596 H 0.0 **** 0.0
5 H 57.212 71.736 32.606 H 0.0 **** 0.0
@<TRIPOS>BOND
1 1 2 1
2 1 3 1
3 1 4 1
4 1 5 1
@<TRIPOS>MOLECULE
CH4
5 4
SMALL
USER_CHARGES


@<TRIPOS>ATOM
1 C 13.162 37.27 66.789 C 0.0 **** 0.0
2 H 13.17 37.221 67.878 H 0.0 **** 0.0
3 H 12.536 36.469 66.395 H 0.0 **** 0.0
4 H 14.178 37.157 66.413 H 0.0 **** 0.0
5 H 12.762 38.234 66.472 H 0.0 **** 0.0
@<TRIPOS>BOND
1 1 2 1
2 1 3 1
3 1 4 1
4 1 5 1
@<TRIPOS>MOLECULE
CH4
5 4
SMALL
USER_CHARGES


@<TRIPOS>ATOM
1 C 34.493 77.552 74.533 C 0.0 **** 0.0
2 H 33.962 76.628 74.305 H 0.0 **** 0.0
3 H 33.803 78.264 74.987 H 0.0 **** 0.0
4 H 34.899 77.974 73.613 H 0.0 **** 0.0
5 H 35.307 77.342 75.226 H 0.0 **** 0.0
@<TRIPOS>BOND
1 1 2 1
2 1 3 1
3 1 4 1
4 1 5 1
@<TRIPOS>MOLECULE
CH4
5 4
SMALL
USER_CHARGES


@<TRIPOS>ATOM
1 C 64.195 39.008 53.677 C 0.0 **** 0.0
2 H 65.235 39.161 53.968 H 0.0 **** 0.0
3 H 63.885 39.809 53.006 H 0.0 **** 0.0
4 H 63.565 39.014 54.567 H 0.0 **** 0.0
5 H 64.097 38.049 53.169 H 0.0 **** 0.0
@<TRIPOS>BOND
1 1 2 1
2 1 3 1
3 1 4 1
4 1 5 1
@<TRIPOS>MOLECULE
CH4
5 4
SMALL
USER_CHARGES


@<TRIPOS>ATOM
1 C 61.363 6.744 62.278 C 0.0 **** 0.0
2 H 61.451 6.333 61.272 H 0.0 **** 0.0
3 H 61.362 7.833 62.227 H 0.0 **** 0.0
4 H 62.206 6.409 62.882 H 0.0 **** 0.0
5 H 60.433 6.4 62.731 H 0.0 **** 0.0
@<TRIPOS>BOND
1 1 2 1
2 1 3 1
3 1 4 1
4 1 5 1
@<TRIPOS>MOLECULE
CH4
5 4
SMALL
USER_CHARGES


@<TRIPOS>ATOM
1 C 88.252 31.861 2.183 C 0.0 **** 0.0
2 H 87.583 31.153 2.673 H 0.0 **** 0.0
3 H 89.286 31.592 2.402 H 0.0 **** 0.0
4 H 88.052 32.866 2.553 H 0.0 **** 0.0
5 H 88.089 31.83 1.106 H 0.0 **** 0.0
@<TRIPOS>BOND
1 1 2 1
2 1 3 1
3 1 4 1
4 1 5 1
@<TRIPOS>MOLECULE
CH4
5 4
SMALL
USER_CHARGES


@<TRIPOS>ATOM
1 C 35.188 86.586 88.822 C 0.0 **** 0.0
2 H 34.931 86.706 87.769 H 0.0 **** 0.0
3 H 34.493 85.887 89.287 H 0.0 **** 0.0
4 H 35.124 87.551 89.324 H 0.0 **** 0.0
5 H 36.203 86.199 88.906 H 0.0 **** 0.0
@<TRIPOS>BOND
1 1 2 1
2 1 3 1
3 1 4 1
4 1 5 1
@<TRIPOS>MOLECULE
CH4
5 4
SMALL
USER_CHARGES


@<TRIPOS>ATOM
1 C 90.08 36.828 63.985 C 0.0 **** 0.0
2 H 89.527 36.526 63.096 H 0.0 **** 0.0
3 H 89.433 36.75 64.859 H 0.0 **** 0.0
4 H 90.416 37.859 63.872 H 0.0 **** 0.0
5 H 90.945 36.177 64.114 H 0.0 **** 0.0
@<TRIPOS>BOND
1 1 2 1
2 1 3 1
3 1 4 1
4 1 5 1
@<TRIPOS>MOLECULE
CH4
5 4
SMALL
USER_CHARGES


@<TRIPOS>ATOM
1 C 58.107 64.616 90.744 C 0.0 **** 0.0
2 H 58.599 65.505 90.348 H 0.0 **** 0.0
3 H 58.155 64.63 91.833 H 0.0 **** 0.0
4 H 58.611 63.725 90.369 H 0.0 **** 0.0
5 H 57.065 64.606 90.425 H 0.0 **** 0.0
@<TRIPOS>BOND
1 1 2 1
2 1 3 1
3 1 4 1
4 1 5 1
@<TRIPOS>MOLECULE
CH4
5 4
SMALL
USER_CHARGES


@<TRIPOS>ATOM
1 C 57.375 68.225 54.203 C 0.0 **** 0.0
2 H 57.971 67.388 53.841 H 0.0 **** 0.0
3 H 56.349 68.121 53.849 H 0.0 **** 0.0
4 H 57.796 69.159 53.83 H 0.0 **** 0.0
5 H 57.384 68.233 55.293 H 0.0 **** 0.0
@<TRIPOS>BOND
1 1 2 1
2 1 3 1
3 1 4 1
4 1 5 1
@<TRIPOS>MOLECULE
CH4
5 4
SMALL
USER_CHARGES


@<TRIPOS>ATOM
1 C 50.016 5.188 20.488 C 0.0 **** 0.0
2 H 49.914 5.202 19.403 H 0.0 **** 0.0
3 H 49.032 5.086 20.945 H 0.0 **** 0.0
4 H 50.478 6.118 20.821 H 0.0 **** 0.0
5 H 50.643 4.346 20.782 H 0.0 **** 0.0
@<TRIPOS>BOND
1 1 3 1
2 1 4 1
3 1 5 1
4 1 2 1
@<TRIPOS>MOLECULE
CH4
5 4
SMALL
USER_CHARGES


@<TRIPOS>ATOM
1 C 39.852 6.904 93.436 C 0.0 **** 0.0
2 H 39.807 6.871 92.348 H 0.0 **** 0.0
3 H 40.821 7.292 93.749 H 0.0 **** 0.0
4 H 39.717 5.898 93.835 H 0.0 **** 0.0
5 H 39.061 7.553 93.813 H 0.0 **** 0.0
@<TRIPOS>BOND
1 1 2 1
2 1 3 1
3 1 4 1
4 1 5 1
@<TRIPOS>MOLECULE
CH4
5 4
SMALL
USER_CHARGES


@<TRIPOS>ATOM
1 C 18.157 65.469 57.981 C 0.0 **** 0.0
2 H 18.19 65.691 56.915 H 0.0 **** 0.0
3 H 17.132 65.236 58.272 H 0.0 **** 0.0
4 H 18.506 66.336 58.543 H 0.0 **** 0.0
5 H 18.799 64.615 58.194 H 0.0 **** 0.0
@<TRIPOS>BOND
1 1 2 1
2 1 3 1
3 1 4 1
4 1 5 1
@<TRIPOS>MOLECULE
CH4
5 4
SMALL
USER_CHARGES


@<TRIPOS>ATOM
1 C 20.184 48.345 60.773 C 0.0 **** 0.0
2 H 19.797 48.002 61.733 H 0.0 **** 0.0
3 H 21.274 48.355 60.804 H 0.0 **** 0.0
4 H 19.817 49.351 60.572 H 0.0 **** 0.0
5 H 19.848 47.671 59.985 H 0.0 **** 0.0
@<TRIPOS>BOND
1 1 2 1
2 1 3 1
3 1 4 1
4 1 5 1
@<TRIPOS>MOLECULE
CH4
5 4
SMALL
USER_CHARGES


@<TRIPOS>ATOM
1 C 34.341 42.435 48.357 C 0.0 **** 0.0
2 H 34.497 42.5 47.281 H 0.0 **** 0.0
3 H 33.375 41.97 48.557 H 0.0 **** 0.0
4 H 34.359 43.436 48.789 H 0.0 **** 0.0
5 H 35.134 41.833 48.802 H 0.0 **** 0.0
@<TRIPOS>BOND
1 1 2 1
2 1 3 1
3 1 5 1
4 1 4 1
@<TRIPOS>MOLECULE
CH4
5 4
SMALL
USER_CHARGES


@<TRIPOS>ATOM
1 C 43.178 56.799 89.515 C 0.0 **** 0.0
2 H 43.372 57.375 88.609 H 0.0 **** 0.0
3 H 42.217 57.096 89.935 H 0.0 **** 0.0
4 H 43.967 56.991 90.242 H 0.0 **** 0.0
5 H 43.157 55.737 89.272 H 0.0 **** 0.0
@<TRIPOS>BOND
1 1 2 1
2 1 3 1
3 1 4 1
4 1 5 1
@<TRIPOS>MOLECULE
CH4
5 4
SMALL
USER_CHARGES


@<TRIPOS>ATOM
1 C 88.459 62.597 22.246 C 0.0 **** 0.0
2 H 87.555 62.795 21.669 H 0.0 **** 0.0
3 H 89.05 61.831 21.743 H 0.0 **** 0.0
4 H 88.185 62.25 23.242 H 0.0 **** 0.0
5 H 89.045 63.513 22.328 H 0.0 **** 0.0
@<TRIPOS>BOND
1 1 2 1
2 1 3 1
3 1 4 1
4 1 5 1
@<TRIPOS>MOLECULE
CH4
5 4
SMALL
USER_CHARGES


@<TRIPOS>ATOM
1 C 65.771 49.449 98.393 C 0.0 **** 0.0
2 H 65.764 50.354 99.001 H 0.0 **** 0.0
3 H 65.062 48.731 98.804 H 0.0 **** 0.0
4 H 66.772 49.017 98.399 H 0.0 **** 0.0
5 H 65.488 49.697 97.37 H 0.0 **** 0.0
@<TRIPOS>BOND
1 1 2 1
2 1 3 1
3 1 4 1
4 1 5 1
@<TRIPOS>MOLECULE
CH4
5 4
SMALL
USER_CHARGES


@<TRIPOS>ATOM
1 C 23.13 29.165 73.298 C 0.0 **** 0.0
2 H 23.51 28.86 72.323 H 0.0 **** 0.0
3 H 23.748 28.727 74.081 H 0.0 **** 0.0
4 H 22.102 28.82 73.41 H 0.0 **** 0.0
5 H 23.159 30.251 73.375 H 0.0 **** 0.0
@<TRIPOS>BOND
1 1 2 1
2 1 3 1
3 1 4 1
4 1 5 1
@<TRIPOS>MOLECULE
CH4
5 4
SMALL
USER_CHARGES


@<TRIPOS>ATOM
1 C 37.852 29.415 44.492 C 0.0 **** 0.0
2 H 37.756 30.0 43.578 H 0.0 **** 0.0
3 H 37.141 28.588 44.47 H 0.0 **** 0.0
4 H 37.644 30.05 45.353 H 0.0 **** 0.0
5 H 38.866 29.021 44.567 H 0.0 **** 0.0
@<TRIPOS>BOND
1 1 2 1
2 1 3 1
3 1 4 1
4 1 5 1
@<TRIPOS>MOLECULE
CH4
5 4
SMALL
USER_CHARGES


@<TRIPOS>ATOM
1 C 92.5 43.91 24.558 C 0.0 **** 0.0
2 H 92.954 43.908 25.549 H 0.0 **** 0.0
3 H 93.215 43.526 23.831 H 0.0 **** 0.0
4 H 92.218 44.928 24.289 H 0.0 **** 0.0
5 H 91.612 43.277 24.564 H 0.0 **** 0.0
@<TRIPOS>BOND
1 1 2 1
2 1 3 1
3 1 4 1
4 1 5 1
@<TRIPOS>MOLECULE
CH4
5 4
SMALL
USER_CHARGES


@<TRIPOS>ATOM
1 C 90.328 46.707 41.019 C 0.0 **** 0.0
2 H 89.58 47.398 41.408 H 0.0 **** 0.0
3 H 90.626 47.021 40.018 H 0.0 **** 0.0
4 H 89.908 45.703 40.975 H 0.0 **** 0.0
5 H 91.199 46.708 41.674 H 0.0 **** 0.0
@<TRIPOS>BOND
1 1 2 1
2 1 3 1
3 1 4 1
4 1 5 1
@<TRIPOS>MOLECULE
CH4
5 4
SMALL
USER_CHARGES


@<TRIPOS>ATOM
1 C 44.745 45.484 49.381 C 0.0 **** 0.0
2 H 45.033 45.114 50.365 H 0.0 **** 0.0
3 H 45.598 45.418 48.705 H 0.0 **** 0.0
4 H 44.425 46.523 49.462 H 0.0 **** 0.0
5 H 43.925 44.881 48.992 H 0.0 **** 0.0
@<TRIPOS>BOND
1 1 2 1
2 1 3 1
3 1 4 1
4 1 5 1
@<TRIPOS>MOLECULE
CH4
5 4
SMALL
USER_CHARGES


@<TRIPOS>ATOM
1 C 3.679 75.95 55.966 C 0.0 **** 0.0
2 H 3.43 75.369 56.854 H 0.0 **** 0.0
3 H 2.807 76.525 55.652 H 0.0 **** 0.0
4 H 3.978 75.276 55.163 H 0.0 **** 0.0
5 H 4.5 76.63 56.194 H 0.0 **** 0.0
@<TRIPOS>BOND
1 1 2 1
2 1 3 1
3 1 4 1
4 1 5 1
@<TRIPOS>MOLECULE
CH4
5 4
SMALL
USER_CHARGES


@<TRIPOS>ATOM
1 C 28.524 36.451 91.445 C 0.0 **** 0.0
2 H 28.032 37.224 90.855 H 0.0 **** 0.0
3 H 27.787 35.948 92.071 H 0.0 **** 0.0
4 H 29.287 36.906 92.076 H 0.0 **** 0.0
5 H 28.99 35.726 90.778 H 0.0 **** 0.0
@<TRIPOS>BOND
1 1 2 1
2 1 3 1
3 1 4 1
4 1 5 1
@<TRIPOS>MOLECULE
CH4
5 4
SMALL
USER_CHARGES


@<TRIPOS>ATOM
1 C 71.733 62.028 84.941 C 0.0 **** 0.0
2 H 71.833 63.087 84.706 H 0.0 **** 0.0
3 H 71.647 61.901 86.02 H 0.0 **** 0.0
4 H 72.612 61.492 84.581 H 0.0 **** 0.0
5 H 70.842 61.63 84.456 H 0.0 **** 0.0
@<TRIPOS>BOND
1 1 2 1
2 1 3 1
3 1 4 1
4 1 5 1
@<TRIPOS>MOLECULE
CH4
5 4
SMALL
USER_CHARGES


@<TRIPOS>ATOM
1 C 70.171 50.648 3.95 C 0.0 **** 0.0
2 H 70.141 50.446 2.879 H 0.0 **** 0.0
3 H 71.172 50.444 4.33 H 0.0 **** 0.0
4 H 69.45 50.008 4.46 H 0.0 **** 0.0
5 H 69.919 51.693 4.129 H 0.0 **** 0.0
@<TRIPOS>BOND
1 1 2 1
2 1 3 1
3 1 4 1
4 1 5 1
@<TRIPOS>MOLECULE
CH4
5 4
SMALL
USER_CHARGES


@<TRIPOS>ATOM
1 C 51.871 42.924 36.124 C 0.0 **** 0.0
2 H 52.928 43.111 36.312 H 0.0 **** 0.0
3 H 51.632 43.189 35.094 H 0.0 **** 0.0
4 H 51.269 43.528 36.804 H 0.0 **** 0.0
5 H 51.654 41.869 36.288 H 0.0 **** 0.0
@<TRIPOS>BOND
1 1 2 1
2 1 3 1
3 1 4 1
4 1 5 1
@<TRIPOS>MOLECULE
CH4
5 4
SMALL
USER_CHARGES


@<TRIPOS>ATOM
1 C 29.801 71.301 95.064 C 0.0 **** 0.0
2 H 29.805 71.361 96.152 H 0.0 **** 0.0
3 H 29.257 72.154 94.656 H 0.0 **** 0.0
4 H 29.315 70.377 94.752 H 0.0 **** 0.0
5 H 30.827 71.315 94.696 H 0.0 **** 0.0
@<TRIPOS>BOND
1 1 2 1
2 1 3 1
3 1 4 1
4 1 5 1
@<TRIPOS>MOLECULE
CH4
5 4
SMALL
USER_CHARGES


@<TRIPOS>ATOM
1 C 92.704 83.269 78.285 C 0.0 **** 0.0
2 H 92.648 83.882 79.185 H 0.0 **** 0.0
3 H 93.152 83.848 77.478 H 0.0 **** 0.0
4 H 91.701 82.957 77.996 H 0.0 **** 0.0
5 H 93.315 82.388 78.484 H 0.0 **** 0.0
@<TRIPOS>BOND
1 1 2 1
2 1 3 1
3 1 4 1
4 1 5 1
@<TRIPOS>MOLECULE
CH4
5 4
SMALL
USER_CHARGES


@<TRIPOS>ATOM
1 C 39.43 93.878 6.122 C 0.0 **** 0.0
2 H 38.825 94.48 5.444 H 0.0 **** 0.0
3 H 39.88 94.523 6.877 H 0.0 **** 0.0
4 H 40.216 93.375 5.558 H 0.0 **** 0.0
5 H 38.8 93.134 6.609 H 0.0 **** 0.0
@<TRIPOS>BOND
1 1 2 1
2 1 3 1
3 1 4 1
4 1 5 1
@<TRIPOS>MOLECULE
CH4
5 4
SMALL
USER_CHARGES


@<TRIPOS>ATOM
1 C 37.768 59.675 28.703 C 0.0 **** 0.0
2 H 36.774 59.291 28.475 H 0.0 **** 0.0
3 H 38.36 58.892 29.179 H 0.0 **** 0.0
4 H 37.683 60.527 29.376 H 0.0 **** 0.0
5 H 38.256 59.988 27.78 H 0.0 **** 0.0
@<TRIPOS>BOND
1 1 2 1
2 1 3 1
3 1 4 1
4 1 5 1
@<TRIPOS>MOLECULE
CH4
5 4
SMALL
USER_CHARGES


@<TRIPOS>ATOM
1 C 36.038 36.661 77.573 C 0.0 **** 0.0
2 H 35.95 36.558 78.654 H 0.0 **** 0.0
3 H 37.064 36.451 77.271 H 0.0 **** 0.0
4 H 35.775 37.679 77.283 H 0.0 **** 0.0
5 H 35.363 35.958 77.085 H 0.0 **** 0.0
@<TRIPOS>BOND
1 1 2 1
2 1 3 1
3 1 4 1
4 1 5 1
@<TRIPOS>MOLECULE
CH4
5 4
SMALL
USER_CHARGES


@<TRIPOS>ATOM
1 C 4.831 74.023 44.723 C 0.0 **** 0.0
2 H 5.206 73.199 44.116 H 0.0 **** 0.0
3 H 5.11 73.863 45.765 H 0.0 **** 0.0
4 H 3.745 74.07 44.64 H 0.0 **** 0.0
5 H 5.263 74.96 44.371 H 0.0 **** 0.0
@<TRIPOS>BOND
1 1 2 1
2 1 3 1
3 1 4 1
4 1 5 1
@<TRIPOS>MOLECULE
CH4
5 4
SMALL
USER_CHARGES


@<TRIPOS>ATOM
1 C 95.16 10.058 27.8 C 0.0 **** 0.0
2 H 95.029 11.027 28.281 H 0.0 **** 0.0
3 H 94.786 10.106 26.777 H 0.0 **** 0.0
4 H 94.607 9.299 28.354 H 0.0 **** 0.0
5 H 96.219 9.799 27.788 H 0.0 **** 0.0
@<TRIPOS>BOND
1 1 2 1
2 1 3 1
3 1 4 1
4 1 5 1
@<TRIPOS>MOLECULE
CH4
5 4
SMALL
USER_CHARGES


@<TRIPOS>ATOM
1 C 54.722 34.935 58.669 C 0.0 **** 0.0
2 H 54.891 34.138 57.945 H 0.0 **** 0.0
3 H 53.901 35.566 58.33 H 0.0 **** 0.0
4 H 55.627 35.536 58.766 H 0.0 **** 0.0
5 H 54.471 34.499 59.636 H 0.0 **** 0.0
@<TRIPOS>BOND
1 1 4 1
2 1 5 1
3 1 2 1
4 1 3 1
@<TRIPOS>MOLECULE
CH4
5 4
SMALL
USER_CHARGES


@<TRIPOS>ATOM
1 C 49.848 90.363 4.452 C 0.0 **** 0.0
2 H 50.776 89.858 4.185 H 0.0 **** 0.0
3 H 49.012 89.878 3.948 H 0.0 **** 0.0
4 H 49.902 91.407 4.145 H 0.0 **** 0.0
5 H 49.703 90.308 5.531 H 0.0 **** 0.0
@<TRIPOS>BOND
1 1 2 1
2 1 3 1
3 1 4 1
4 1 5 1
@<TRIPOS>MOLECULE
CH4
5 4
SMALL
USER_CHARGES


@<TRIPOS>ATOM
1 C 2.096 65.433 23.525 C 0.0 **** 0.0
2 H 2.629 65.71 24.434 H 0.0 **** 0.0
3 H 2.176 66.241 22.797 H 0.0 **** 0.0
4 H 1.046 65.257 23.759 H 0.0 **** 0.0
5 H 2.532 64.525 23.11 H 0.0 **** 0.0
@<TRIPOS>BOND
1 1 2 1
2 1 3 1
3 1 4 1
4 1 5 1
@<TRIPOS>MOLECULE
CH4
5 4
SMALL
USER_CHARGES


@<TRIPOS>ATOM
1 C 94.217 39.231 42.025 C 0.0 **** 0.0
2 H 93.719 38.417 42.551 H 0.0 **** 0.0
3 H 93.835 39.293 41.006 H 0.0 **** 0.0
4 H 95.291 39.045 42.001 H 0.0 **** 0.0
5 H 94.023 40.171 42.543 H 0.0 **** 0.0
@<TRIPOS>BOND
1 1 2 1
2 1 3 1
3 1 4 1
4 1 5 1
@<TRIPOS>MOLECULE
CH4
5 4
SMALL
USER_CHARGES


@<TRIPOS>ATOM
1 C 15.644 19.483 40.121 C 0.0 **** 0.0
2 H 16.593 19.397 40.65 H 0.0 **** 0.0
3 H 15.485 20.52 39.827 H 0.0 **** 0.0
4 H 14.833 19.162 40.776 H 0.0 **** 0.0
5 H 15.665 18.852 39.233 H 0.0 **** 0.0
@<TRIPOS>BOND
1 1 2 1
2 1 3 1
3 1 4 1
4 1 5 1
@<TRIPOS>MOLECULE
CH4
5 4
SMALL
USER_CHARGES


@<TRIPOS>ATOM
1 C 4.869 86.202 79.115 C 0.0 **** 0.0
2 H 5.177 86.754 78.227 H 0.0 **** 0.0
3 H 4.135 86.787 79.67 H 0.0 **** 0.0
4 H 5.738 86.015 79.746 H 0.0 **** 0.0
5 H 4.426 85.251 78.816 H 0.0 **** 0.0
@<TRIPOS>BOND
1 1 2 1
2 1 3 1
3 1 4 1
4 1 5 1
@<TRIPOS>MOLECULE
CH4
5 4
SMALL
USER_CHARGES


@<TRIPOS>ATOM
1 C 84.886 50.607 4.488 C 0.0 **** 0.0
2 H 84.846 50.549 5.576 H 0.0 **** 0.0
3 H 85.774 51.162 4.186 H 0.0 **** 0.0
4 H 83.996 51.117 4.119 H 0.0 **** 0.0
5 H 84.927 49.601 4.072 H 0.0 **** 0.0
@<TRIPOS>BOND
1 1 2 1
2 1 3 1
3 1 4 1
4 1 5 1
@<TRIPOS>MOLECULE
CH4
5 4
SMALL
USER_CHARGES


@<TRIPOS>ATOM
1 C 49.422 90.064 83.972 C 0.0 **** 0.0
2 H 49.527 90.125 82.889 H 0.0 **** 0.0
3 H 49.917 90.918 84.434 H 0.0 **** 0.0
4 H 49.879 89.141 84.33 H 0.0 **** 0.0
5 H 48.364 90.071 84.236 H 0.0 **** 0.0
@<TRIPOS>BOND
1 1 2 1
2 1 3 1
3 1 4 1
4 1 5 1
@<TRIPOS>MOLECULE
CH4
5 4
SMALL
USER_CHARGES


@<TRIPOS>ATOM
1 C 61.485 20.723 49.428 C 0.0 **** 0.0
2 H 62.147 20.4 48.625 H 0.0 **** 0.0
3 H 61.412 21.811 49.423 H 0.0 **** 0.0
4 H 61.885 20.389 50.385 H 0.0 **** 0.0
5 H 60.495 20.292 49.277 H 0.0 **** 0.0
@<TRIPOS>BOND
1 1 2 1
2 1 3 1
3 1 4 1
4 1 5 1
@<TRIPOS>MOLECULE
CH4
5 4
SMALL
USER_CHARGES


@<TRIPOS>ATOM
1 C 59.51 78.22 68.297 C 0.0 **** 0.0
2 H 59.675 78.548 67.27 H 0.0 **** 0.0
3 H 59.175 77.183 68.297 H 0.0 **** 0.0
4 H 58.75 78.848 68.761 H 0.0 **** 0.0
5 H 60.442 78.302 68.857 H 0.0 **** 0.0
@<TRIPOS>BOND
1 1 2 1
2 1 3 1
3 1 4 1
4 1 5 1
@<TRIPOS>MOLECULE
CH4
5 4
SMALL
USER_CHARGES


@<TRIPOS>ATOM
1 C 55.385 54.18 76.516 C 0.0 **** 0.0
2 H 54.676 54.588 77.236 H 0.0 **** 0.0
3 H 54.898 53.405 75.924 H 0.0 **** 0.0
4 H 56.235 53.752 77.047 H 0.0 **** 0.0
5 H 55.732 54.976 75.857 H 0.0 **** 0.0
@<TRIPOS>BOND
1 1 2 1
2 1 3 1
3 1 4 1
4 1 5 1
@<TRIPOS>MOLECULE
CH4
5 4
SMALL
USER_CHARGES


@<TRIPOS>ATOM
1 C 39.827 59.619 43.495 C 0.0 **** 0.0
2 H 40.288 58.918 42.8 H 0.0 **** 0.0
3 H 38.744 59.489 43.478 H 0.0 **** 0.0
4 H 40.075 60.639 43.2 H 0.0 **** 0.0
5 H 40.2 59.431 44.502 H 0.0 **** 0.0
@<TRIPOS>BOND
1 1 2 1
2 1 3 1
3 1 4 1
4 1 5 1
@<TRIPOS>MOLECULE
CH4
5 4
SMALL
USER_CHARGES


@<TRIPOS>ATOM
1 C 10.118 33.618 51.096 C 0.0 **** 0.0
2 H 9.031 33.548 51.126 H 0.0 **** 0.0
3 H 10.444 34.456 51.712 H 0.0 **** 0.0
4 H 10.444 33.775 50.068 H 0.0 **** 0.0
5 H 10.553 32.695 51.479 H 0.0 **** 0.0
@<TRIPOS>BOND
1 1 2 1
2 1 3 1
3 1 4 1
4 1 5 1
@<TRIPOS>MOLECULE
CH4
5 4
SMALL
USER_CHARGES


@<TRIPOS>ATOM
1 C 68.625 58.004 78.717 C 0.0 **** 0.0
2 H 69.684 57.944 78.464 H 0.0 **** 0.0
3 H 68.312 59.048 78.725 H 0.0 **** 0.0
4 H 68.462 57.568 79.703 H 0.0 **** 0.0
5 H 68.043 57.455 77.976 H 0.0 **** 0.0
@<TRIPOS>BOND
1 1 2 1
2 1 3 1
3 1 4 1
4 1 5 1
@<TRIPOS>MOLECULE
CH4
5 4
SMALL
USER_CHARGES


@<TRIPOS>ATOM
1 C 40.003 32.276 57.293 C 0.0 **** 0.0
2 H 39.529 32.161 56.318 H 0.0 **** 0.0
3 H 39.346 31.877 58.066 H 0.0 **** 0.0
4 H 40.188 33.333 57.484 H 0.0 **** 0.0
5 H 40.949 31.734 57.304 H 0.0 **** 0.0
@<TRIPOS>BOND
1 1 5 1
2 1 2 1
3 1 3 1
4 1 4 1
@<TRIPOS>MOLECULE
CH4
5 4
SMALL
USER_CHARGES


@<TRIPOS>ATOM
1 C 69.359 11.969 72.919 C 0.0 **** 0.0
2 H 69.05 12.189 73.941 H 0.0 **** 0.0
3 H 68.6 11.353 72.436 H 0.0 **** 0.0
4 H 70.307 11.432 72.935 H 0.0 **** 0.0
5 H 69.478 12.901 72.367 H 0.0 **** 0.0
@<TRIPOS>BOND
1 1 2 1
2 1 3 1
3 1 4 1
4 1 5 1
@<TRIPOS>MOLECULE
CH4
5 4
SMALL
USER_CHARGES


@<TRIPOS>ATOM
1 C 43.572 40.826 46.535 C 0.0 **** 0.0
2 H 44.568 40.654 46.942 H 0.0 **** 0.0
3 H 43.654 41.358 45.587 H 0.0 **** 0.0
4 H 42.991 41.424 47.238 H 0.0 **** 0.0
5 H 43.075 39.87 46.375 H 0.0 **** 0.0
@<TRIPOS>BOND
1 1 2 1
2 1 3 1
3 1 4 1
4 1 5 1
@<TRIPOS>MOLECULE
CH4
5 4
SMALL
USER_CHARGES


@<TRIPOS>ATOM
1 C 38.815 24.604 59.754 C 0.0 **** 0.0
2 H 38.444 23.953 58.964 H 0.0 **** 0.0
3 H 38.447 24.253 60.718 H 0.0 **** 0.0
4 H 38.465 25.622 59.58 H 0.0 **** 0.0
5 H 39.905 24.59 59.754 H 0.0 **** 0.0
@<TRIPOS>BOND
1 1 3 1
2 1 4 1
3 1 5 1
4 1 2 1
@<TRIPOS>MOLECULE
CH4
5 4
SMALL
USER_CHARGES


@<TRIPOS>ATOM
1 C 93.322 76.105 57.307 C 0.0 **** 0.0
2 H 93.333 75.76 56.273 H 0.0 **** 0.0
3 H 92.293 76.283 57.62 H 0.0 **** 0.0
4 H 93.892 77.03 57.387 H 0.0 **** 0.0
5 H 93.77 75.345 57.948 H 0.0 **** 0.0
@<TRIPOS>BOND
1 1 2 1
2 1 3 1
3 1 4 1
4 1 5 1
@<TRIPOS>MOLECULE
CH4
5 4
SMALL
USER_CHARGES


@<TRIPOS>ATOM
1 C 74.429 35.278 61.418 C 0.0 **** 0.0
2 H 74.016 34.923 62.362 H 0.0 **** 0.0
3 H 74.76 34.427 60.823 H 0.0 **** 0.0
4 H 75.275 35.935 61.616 H 0.0 **** 0.0
5 H 73.662 35.827 60.871 H 0.0 **** 0.0
@<TRIPOS>BOND
1 1 2 1
2 1 3 1
3 1 4 1
4 1 5 1
@<TRIPOS>MOLECULE
CH4
5 4
SMALL
USER_CHARGES


@<TRIPOS>ATOM
1 C 52.722 87.27 21.972 C 0.0 **** 0.0
2 H 52.806 87.44 23.045 H 0.0 **** 0.0
3 H 53.718 87.245 21.529 H 0.0 **** 0.0
4 H 52.143 88.075 21.52 H 0.0 **** 0.0
5 H 52.222 86.318 21.793 H 0.0 **** 0.0
@<TRIPOS>BOND
1 1 2 1
2 1 3 1
3 1 4 1
4 1 5 1
@<TRIPOS>MOLECULE
CH4
5 4
SMALL
USER_CHARGES


@<TRIPOS>ATOM
1 C 3.561 81.287 97.425 C 0.0 **** 0.0
2 H 2.854 82.09 97.221 H 0.0 **** 0.0
3 H 4.574 81.69 97.443 H 0.0 **** 0.0
4 H 3.485 80.529 96.645 H 0.0 **** 0.0
5 H 3.332 80.838 98.391 H 0.0 **** 0.0
@<TRIPOS>BOND
1 1 2 1
2 1 3 1
3 1 4 1
4 1 5 1
@<TRIPOS>MOLECULE
CH4
5 4
SMALL
USER_CHARGES


@<TRIPOS>ATOM
1 C 25.717 10.778 88.328 C 0.0 **** 0.0
2 H 25.072 11.587 87.983 H 0.0 **** 0.0
3 H 25.327 10.377 89.264 H 0.0 **** 0.0
4 H 26.725 11.161 88.488 H 0.0 **** 0.0
5 H 25.743 9.989 87.577 H 0.0 **** 0.0
@<TRIPOS>BOND
1 1 2 1
2 1 3 1
3 1 4 1
4 1 5 1
@<TRIPOS>MOLECULE
CH4
5 4
SMALL
USER_CHARGES


@<TRIPOS>ATOM
1 C 53.877 10.676 93.948 C 0.0 **** 0.0
2 H 53.775 11.357 94.793 H 0.0 **** 0.0
3 H 53.04 10.819 93.264 H 0.0 **** 0.0
4 H 53.881 9.648 94.309 H 0.0 **** 0.0
5 H 54.812 10.882 93.427 H 0.0 **** 0.0
@<TRIPOS>BOND
1 1 2 1
2 1 3 1
3 1 4 1
4 1 5 1
@<TRIPOS>MOLECULE
CH4
5 4
SMALL
USER_CHARGES


@<TRIPOS>ATOM
1 C 11.242 71.368 23.515 C 0.0 **** 0.0
2 H 11.534 71.211 22.476 H 0.0 **** 0.0
3 H 12.022 70.985 24.172 H 0.0 **** 0.0
4 H 10.308 70.84 23.713 H 0.0 **** 0.0
5 H 11.103 72.433 23.696 H 0.0 **** 0.0
@<TRIPOS>BOND
1 1 2 1
2 1 3 1
3 1 4 1
4 1 5 1
@<TRIPOS>MOLECULE
CH4
5 4
SMALL
USER_CHARGES


@<TRIPOS>ATOM
1 C 18.103 88.532 9.546 C 0.0 **** 0.0
2 H 18.135 89.42 10.177 H 0.0 **** 0.0
3 H 17.7 87.696 10.116 H 0.0 **** 0.0
4 H 19.111 88.291 9.208 H 0.0 **** 0.0
5 H 17.467 88.724 8.682 H 0.0 **** 0.0
@<TRIPOS>BOND
1 1 2 1
2 1 3 1
3 1 4 1
4 1 5 1
@<TRIPOS>MOLECULE
CH4
5 4
SMALL
USER_CHARGES


@<TRIPOS>ATOM
1 C 41.694 33.982 91.815 C 0.0 **** 0.0
2 H 41.675 33.806 92.89 H 0.0 **** 0.0
3 H 41.436 35.022 91.613 H 0.0 **** 0.0
4 H 40.973 33.327 91.327 H 0.0 **** 0.0
5 H 42.693 33.774 91.431 H 0.0 **** 0.0
@<TRIPOS>BOND
1 1 2 1
2 1 3 1
3 1 4 1
4 1 5 1
@<TRIPOS>MOLECULE
CH4
5 4
SMALL
USER_CHARGES


@<TRIPOS>ATOM
1 C 67.717 71.765 36.218 C 0.0 **** 0.0
2 H 67.858 72.147 35.207 H 0.0 **** 0.0
3 H 66.83 72.22 36.658 H 0.0 **** 0.0
4 H 68.59 72.011 36.824 H 0.0 **** 0.0
5 H 67.592 70.683 36.184 H 0.0 **** 0.0
@<TRIPOS>BOND
1 1 2 1
2 1 3 1
3 1 4 1
4 1 5 1
@<TRIPOS>MOLECULE
CH4
5 4
SMALL
USER_CHARGES


@<TRIPOS>ATOM
1 C 19.863 88.134 96.728 C 0.0 **** 0.0
2 H 19.691 88.569 97.713 H 0.0 **** 0.0
3 H 19.038 87.467 96.477 H 0.0 **** 0.0
4 H 20.796 87.571 96.738 H 0.0 **** 0.0
5 H 19.927 88.93 95.986 H 0.0 **** 0.0
@<TRIPOS>BOND
1 1 2 1
2 1 3 1
3 1 4 1
4 1 5 1
@<TRIPOS>MOLECULE
CH4
5 4
SMALL
USER_CHARGES


@<TRIPOS>ATOM
1 C 95.936 10.88 92.592 C 0.0 **** 0.0
2 H 95.448 10.085 92.029 H 0.0 **** 0.0
3 H 96.498 10.446 93.419 H 0.0 **** 0.0
4 H 95.182 11.563 92.983 H 0.0 **** 0.0
5 H 96.615 11.425 91.937 H 0.0 **** 0.0
@<TRIPOS>BOND
1 1 3 1
2 1 2 1
3 1 4 1
4 1 5 1
@<TRIPOS>MOLECULE
CH4
5 4
SMALL
USER_CHARGES


@<TRIPOS>ATOM
1 C 67.74 70.1 38.853 C 0.0 **** 0.0
2 H 67.144 69.385 38.286 H 0.0 **** 0.0
3 H 68.788 70.008 38.566 H 0.0 **** 0.0
4 H 67.636 69.895 39.919 H 0.0 **** 0.0
5 H 67.392 71.111 38.642 H 0.0 **** 0.0
@<TRIPOS>BOND
1 1 2 1
2 1 3 1
3 1 4 1
4 1 5 1
@<TRIPOS>MOLECULE
CH4
5 4
SMALL
USER_CHARGES


@<TRIPOS>ATOM
1 C 36.079 65.31 84.026 C 0.0 **** 0.0
2 H 35.796 64.266 83.89 H 0.0 **** 0.0
3 H 35.923 65.595 85.067 H 0.0 **** 0.0
4 H 35.466 65.94 83.381 H 0.0 **** 0.0
5 H 37.13 65.439 83.767 H 0.0 **** 0.0
@<TRIPOS>BOND
1 1 2 1
2 1 3 1
3 1 4 1
4 1 5 1
@<TRIPOS>MOLECULE
CH4
5 4
SMALL
USER_CHARGES


@<TRIPOS>ATOM
1 C 13.907 57.666 32.952 C 0.0 **** 0.0
2 H 13.987 57.474 34.022 H 0.0 **** 0.0
3 H 14.706 57.142 32.428 H 0.0 **** 0.0
4 H 13.992 58.737 32.768 H 0.0 **** 0.0
5 H 12.942 57.311 32.591 H 0.0 **** 0.0
@<TRIPOS>BOND
1 1 2 1
2 1 3 1
3 1 4 1
4 1 5 1
@<TRIPOS>MOLECULE
CH4
5 4
SMALL
USER_CHARGES


@<TRIPOS>ATOM
1 C 44.382 22.506 88.196 C 0.0 **** 0.0
2 H 43.978 22.912 89.123 H 0.0 **** 0.0
3 H 43.584 22.426 87.457 H 0.0 **** 0.0
4 H 44.804 21.519 88.384 H 0.0 **** 0.0
5 H 45.162 23.168 87.819 H 0.0 **** 0.0
@<TRIPOS>BOND
1 1 4 1
2 1 5 1
3 1 2 1
4 1 3 1
@<TRIPOS>MOLECULE
CH4
5 4
SMALL
USER_CHARGES


@<TRIPOS>ATOM
1 C 63.587 39.779 13.173 C 0.0 **** 0.0
2 H 63.077 40.074 14.09 H 0.0 **** 0.0
3 H 64.653 39.667 13.371 H 0.0 **** 0.0
4 H 63.436 40.544 12.411 H 0.0 **** 0.0
5 H 63.181 38.831 12.821 H 0.0 **** 0.0
@<TRIPOS>BOND
1 1 2 1
2 1 3 1
3 1 4 1
4 1 5 1
@<TRIPOS>MOLECULE
CH4
5 4
SMALL
USER_CHARGES


@<TRIPOS>ATOM
1 C 55.104 8.973 55.119 C 0.0 **** 0.0
2 H 54.822 9.374 56.093 H 0.0 **** 0.0
3 H 56.06 8.456 55.203 H 0.0 **** 0.0
4 H 55.192 9.789 54.402 H 0.0 **** 0.0
5 H 54.341 8.272 54.78 H 0.0 **** 0.0
@<TRIPOS>BOND
1 1 2 1
2 1 3 1
3 1 4 1
4 1 5 1
@<TRIPOS>MOLECULE
CH4
5 4
SMALL
USER_CHARGES


@<TRIPOS>ATOM
1 C 86.789 4.611 65.801 C 0.0 **** 0.0
2 H 85.814 4.126 65.837 H 0.0 **** 0.0
3 H 86.975 5.124 66.745 H 0.0 **** 0.0
4 H 86.805 5.334 64.985 H 0.0 **** 0.0
5 H 87.562 3.861 65.637 H 0.0 **** 0.0
@<TRIPOS>BOND
1 1 2 1
2 1 3 1
3 1 4 1
4 1 5 1
@<TRIPOS>MOLECULE
CH4
5 4
SMALL
USER_CHARGES


@<TRIPOS>ATOM
1 C 42.572 41.601 50.514 C 0.0 **** 0.0
2 H 42.129 40.782 51.08 H 0.0 **** 0.0
3 H 43.572 41.316 50.187 H 0.0 **** 0.0
4 H 42.635 42.487 51.145 H 0.0 **** 0.0
5 H 41.953 41.817 49.643 H 0.0 **** 0.0
@<TRIPOS>BOND
1 1 2 1
2 1 3 1
3 1 4 1
4 1 5 1
@<TRIPOS>MOLECULE
CH4
5 4
SMALL
USER_CHARGES


@<TRIPOS>ATOM
1 C 37.792 50.818 1.172 C 0.0 **** 0.0
2 H 37.751 51.437 2.068 H 0.0 **** 0.0
3 H 37.299 49.865 1.366 H 0.0 **** 0.0
4 H 38.833 50.64 0.901 H 0.0 **** 0.0
5 H 37.285 51.329 0.354 H 0.0 **** 0.0
@<TRIPOS>BOND
1 1 2 1
2 1 3 1
3 1 4 1
4 1 5 1
@<TRIPOS>MOLECULE
CH4
5 4
SMALL
USER_CHARGES


@<TRIPOS>ATOM
1 C 40.035 43.207 67.292 C 0.0 **** 0.0
2 H 39.737 44.22 67.563 H 0.0 **** 0.0
3 H 40.316 42.658 68.191 H 0.0 **** 0.0
4 H 40.886 43.249 66.611 H 0.0 **** 0.0
5 H 39.203 42.702 66.802 H 0.0 **** 0.0
@<TRIPOS>BOND
1 1 2 1
2 1 3 1
3 1 4 1
4 1 5 1
@<TRIPOS>MOLECULE
CH4
5 4
SMALL
USER_CHARGES


@<TRIPOS>ATOM
1 C 74.332 61.42 28.893 C 0.0 **** 0.0
2 H 73.269 61.42 28.652 H 0.0 **** 0.0
3 H 74.506 62.053 29.763 H 0.0 **** 0.0
4 H 74.897 61.805 28.044 H 0.0 **** 0.0
5 H 74.654 60.402 29.113 H 0.0 **** 0.0
@<TRIPOS>BOND
1 1 2 1
2 1 3 1
3 1 4 1
4 1 5 1
@<TRIPOS>MOLECULE
CH4
5 4
SMALL
USER_CHARGES


@<TRIPOS>ATOM
1 C 21.577 35.131 91.387 C 0.0 **** 0.0
2 H 21.647 35.047 92.471 H 0.0 **** 0.0
3 H 20.929 35.969 91.128 H 0.0 **** 0.0
4 H 21.163 34.21 90.977 H 0.0 **** 0.0
5 H 22.571 35.299 90.971 H 0.0 **** 0.0
@<TRIPOS>BOND
1 1 2 1
2 1 3 1
3 1 4 1
4 1 5 1
@<TRIPOS>MOLECULE
CH4
5 4
SMALL
USER_CHARGES


@<TRIPOS>ATOM
1 C 10.625 13.923 13.224 C 0.0 **** 0.0
2 H 10.606 13.706 12.156 H 0.0 **** 0.0
3 H 9.61 14.104 13.576 H 0.0 **** 0.0
4 H 11.236 14.808 13.404 H 0.0 **** 0.0
5 H 11.05 13.074 13.76 H 0.0 **** 0.0
@<TRIPOS>BOND
1 1 2 1
2 1 3 1
3 1 4 1
4 1 5 1
@<TRIPOS>MOLECULE
CH4
5 4
SMALL
USER_CHARGES


@<TRIPOS>ATOM
1 C 27.256 86.305 54.678 C 0.0 **** 0.0
2 H 26.876 86.458 55.688 H 0.0 **** 0.0
3 H 26.667 86.894 53.975 H 0.0 **** 0.0
4 H 27.184 85.249 54.419 H 0.0 **** 0.0
5 H 28.299 86.62 54.631 H 0.0 **** 0.0
@<TRIPOS>BOND
1 1 2 1
2 1 3 1
3 1 4 1
4 1 5 1
@<TRIPOS>MOLECULE
CH4
5 4
SMALL
USER_CHARGES


@<TRIPOS>ATOM
1 C 5.314 41.105 54.094 C 0.0 **** 0.0
2 H 5.44 40.342 53.326 H 0.0 **** 0.0
3 H 5.798 40.777 55.015 H 0.0 **** 0.0
4 H 4.252 41.263 54.278 H 0.0 **** 0.0
5 H 5.768 42.037 53.757 H 0.0 **** 0.0
@<TRIPOS>BOND
1 1 2 1
2 1 3 1
3 1 4 1
4 1 5 1
@<TRIPOS>MOLECULE
CH4
5 4
SMALL
USER_CHARGES


@<TRIPOS>ATOM
1 C 13.435 54.022 54.571 C 0.0 **** 0.0
2 H 12.695 54.422 53.877 H 0.0 **** 0.0
3 H 14.159 53.42 54.022 H 0.0 **** 0.0
4 H 12.936 53.403 55.316 H 0.0 **** 0.0
5 H 13.948 54.845 55.067 H 0.0 **** 0.0
@<TRIPOS>BOND
1 1 2 1
2 1 3 1
3 1 4 1
4 1 5 1
@<TRIPOS>MOLECULE
CH4
5 4
SMALL
USER_CHARGES


@<TRIPOS>ATOM
1 C 75.509 42.69 67.434 C 0.0 **** 0.0
2 H 74.686 42.869 66.742 H 0.0 **** 0.0
3 H 76.355 42.269 66.891 H 0.0 **** 0.0
4 H 75.188 41.992 68.207 H 0.0 **** 0.0
5 H 75.805 43.632 67.896 H 0.0 **** 0.0
@<TRIPOS>BOND
1 1 2 1
2 1 3 1
3 1 4 1
4 1 5 1
@<TRIPOS>MOLECULE
CH4
5 4
SMALL
USER_CHARGES


@<TRIPOS>ATOM
1 C 89.074 29.813 23.421 C 0.0 **** 0.0
2 H 89.497 28.817 23.547 H 0.0 **** 0.0
3 H 89.78 30.441 22.877 H 0.0 **** 0.0
4 H 88.878 30.251 24.4 H 0.0 **** 0.0
5 H 88.142 29.744 22.86 H 0.0 **** 0.0
@<TRIPOS>BOND
1 1 2 1
2 1 3 1
3 1 4 1
4 1 5 1
@<TRIPOS>MOLECULE
CH4
5 4
SMALL
USER_CHARGES


@<TRIPOS>ATOM
1 C 27.887 63.554 19.007 C 0.0 **** 0.0
2 H 26.91 63.181 19.315 H 0.0 **** 0.0
3 H 28.549 62.713 18.8 H 0.0 **** 0.0
4 H 28.312 64.162 19.806 H 0.0 **** 0.0
5 H 27.777 64.161 18.109 H 0.0 **** 0.0
@<TRIPOS>BOND
1 1 2 1
2 1 3 1
3 1 4 1
4 1 5 1
@<TRIPOS>MOLECULE
CH4
5 4
SMALL
USER_CHARGES


@<TRIPOS>ATOM
1 C 4.625 26.015 12.528 C 0.0 **** 0.0
2 H 4.867 25.714 11.508 H 0.0 **** 0.0
3 H 3.858 26.789 12.506 H 0.0 **** 0.0
4 H 5.521 26.404 13.013 H 0.0 **** 0.0
5 H 4.257 25.153 13.083 H 0.0 **** 0.0
@<TRIPOS>BOND
1 1 2 1
2 1 3 1
3 1 4 1
4 1 5 1
@<TRIPOS>MOLECULE
CH4
5 4
SMALL
USER_CHARGES


@<TRIPOS>ATOM
1 C 95.048 44.645 62.661 C 0.0 **** 0.0
2 H 95.037 44.611 61.572 H 0.0 **** 0.0
3 H 94.124 44.213 63.047 H 0.0 **** 0.0
4 H 95.131 45.681 62.991 H 0.0 **** 0.0
5 H 95.899 44.075 63.034 H 0.0 **** 0.0
@<TRIPOS>BOND
1 1 2 1
2 1 3 1
3 1 4 1
4 1 5 1
@<TRIPOS>MOLECULE
CH4
5 4
SMALL
USER_CHARGES


@<TRIPOS>ATOM
1 C 17.774 63.423 92.202 C 0.0 **** 0.0
2 H 16.927 62.754 92.354 H 0.0 **** 0.0
3 H 17.41 64.438 92.038 H 0.0 **** 0.0
4 H 18.343 63.096 91.333 H 0.0 **** 0.0
5 H 18.414 63.405 93.084 H 0.0 **** 0.0
@<TRIPOS>BOND
1 1 2 1
2 1 3 1
3 1 4 1
4 1 5 1
@<TRIPOS>MOLECULE
CH4
5 4
SMALL
USER_CHARGES


@<TRIPOS>ATOM
1 C 8.294 5.798 36.742 C 0.0 **** 0.0
2 H 7.84 4.952 36.226 H 0.0 **** 0.0
3 H 7.513 6.413 37.188 H 0.0 **** 0.0
4 H 8.864 6.394 36.029 H 0.0 **** 0.0
5 H 8.96 5.432 37.523 H 0.0 **** 0.0
@<TRIPOS>BOND
1 1 2 1
2 1 3 1
3 1 4 1
4 1 5 1
@<TRIPOS>MOLECULE
CH4
5 4
SMALL
USER_CHARGES


@<TRIPOS>ATOM
1 C 48.331 96.318 17.156 C 0.0 **** 0.0
2 H 49.182 96.551 17.796 H 0.0 **** 0.0
3 H 48.623 95.567 16.422 H 0.0 **** 0.0
4 H 48.006 97.222 16.642 H 0.0 **** 0.0
5 H 47.513 95.933 17.766 H 0.0 **** 0.0
@<TRIPOS>BOND
1 1 2 1
2 1 3 1
3 1 4 1
4 1 5 1
@<TRIPOS>MOLECULE
CH4
5 4
SMALL
USER_CHARGES


@<TRIPOS>ATOM
1 C 77.527 14.227 46.339 C 0.0 **** 0.0
2 H 76.957 13.982 47.235 H 0.0 **** 0.0
3 H 77.387 15.28 46.096 H 0.0 **** 0.0
4 H 77.18 13.613 45.508 H 0.0 **** 0.0
5 H 78.585 14.032 46.517 H 0.0 **** 0.0
@<TRIPOS>BOND
1 1 2 1
2 1 3 1
3 1 4 1
4 1 5 1
@<TRIPOS>MOLECULE
CH4
5 4
SMALL
USER_CHARGES


@<TRIPOS>ATOM
1 C 83.041 6.267 26.953 C 0.0 **** 0.0
2 H 83.125 6.128 25.875 H 0.0 **** 0.0
3 H 83.881 5.779 27.449 H 0.0 **** 0.0
4 H 82.107 5.828 27.304 H 0.0 **** 0.0
5 H 83.051 7.332 27.183 H 0.0 **** 0.0
@<TRIPOS>BOND
1 1 2 1
2 1 3 1
3 1 4 1
4 1 5 1
@<TRIPOS>MOLECULE
CH4
5 4
SMALL
USER_CHARGES


@<TRIPOS>ATOM
1 C 52.519 36.298 15.586 C 0.0 **** 0.0
2 H 52.87 35.386 15.103 H 0.0 **** 0.0
3 H 51.954 36.894 14.869 H 0.0 **** 0.0
4 H 53.375 36.873 15.941 H 0.0 **** 0.0
5 H 51.879 36.04 16.429 H 0.0 **** 0.0
@<TRIPOS>BOND
1 1 2 1
2 1 3 1
3 1 4 1
4 1 5 1
@<TRIPOS>MOLECULE
CH4
5 4
SMALL
USER_CHARGES


@<TRIPOS>ATOM
1 C 79.024 71.165 16.138 C 0.0 **** 0.0
2 H 78.806 70.575 17.028 H 0.0 **** 0.0
3 H 79.902 70.757 15.638 H 0.0 **** 0.0
4 H 79.218 72.198 16.427 H 0.0 **** 0.0
5 H 78.171 71.131 15.461 H 0.0 **** 0.0
@<TRIPOS>BOND
1 1 2 1
2 1 3 1
3 1 4 1
4 1 5 1
@<TRIPOS>MOLECULE
CH4
5 4
SMALL
USER_CHARGES


@<TRIPOS>ATOM
1 C 72.007 86.298 4.138 C 0.0 **** 0.0
2 H 72.777 87.067 4.067 H 0.0 **** 0.0
3 H 71.973 85.731 3.208 H 0.0 **** 0.0
4 H 71.04 86.769 4.313 H 0.0 **** 0.0
5 H 72.24 85.627 4.965 H 0.0 **** 0.0
@<TRIPOS>BOND
1 1 2 1
2 1 3 1
3 1 4 1
4 1 5 1
@<TRIPOS>MOLECULE
CH4
5 4
SMALL
USER_CHARGES


@<TRIPOS>ATOM
1 C 91.074 84.993 58.147 C 0.0 **** 0.0
2 H 91.983 84.756 58.699 H 0.0 **** 0.0
3 H 90.38 85.522 58.801 H 0.0 **** 0.0
4 H 90.611 84.07 57.796 H 0.0 **** 0.0
5 H 91.321 85.623 57.293 H 0.0 **** 0.0
@<TRIPOS>BOND
1 1 2 1
2 1 3 1
3 1 4 1
4 1 5 1
@<TRIPOS>MOLECULE
CH4
5 4
SMALL
USER_CHARGES


@<TRIPOS>ATOM
1 C 86.87 67.731 4.161 C 0.0 **** 0.0
2 H 87.652 68.041 4.854 H 0.0 **** 0.0
3 H 86.051 67.275 4.717 H 0.0 **** 0.0
4 H 87.277 67.007 3.455 H 0.0 **** 0.0
5 H 86.501 68.6 3.617 H 0.0 **** 0.0
@<TRIPOS>BOND
1 1 2 1
2 1 3 1
3 1 4 1
4 1 5 1
@<TRIPOS>MOLECULE
CH4
5 4
SMALL
USER_CHARGES


@<TRIPOS>ATOM
1 C 21.479 18.576 17.216 C 0.0 **** 0.0
2 H 21.434 18.574 18.305 H 0.0 **** 0.0
3 H 21.729 17.577 16.861 H 0.0 **** 0.0
4 H 22.242 19.282 16.886 H 0.0 **** 0.0
5 H 20.511 18.874 16.814 H 0.0 **** 0.0
@<TRIPOS>BOND
1 1 2 1
2 1 3 1
3 1 4 1
4 1 5 1
@<TRIPOS>MOLECULE
CH4
5 4
SMALL
USER_CHARGES


@<TRIPOS>ATOM
1 C 92.974 29.896 24.983 C 0.0 **** 0.0
2 H 92.489 29.093 24.429 H 0.0 **** 0.0
3 H 93.115 30.756 24.327 H 0.0 **** 0.0
4 H 93.943 29.553 25.346 H 0.0 **** 0.0
5 H 92.35 30.182 25.829 H 0.0 **** 0.0
@<TRIPOS>BOND
1 1 2 1
2 1 3 1
3 1 4 1
4 1 5 1
@<TRIPOS>MOLECULE
CH4
5 4
SMALL
USER_CHARGES


@<TRIPOS>ATOM
1 C 60.003 25.272 68.773 C 0.0 **** 0.0
2 H 60.948 24.732 68.828 H 0.0 **** 0.0
3 H 59.277 24.676 68.219 H 0.0 **** 0.0
4 H 60.156 26.223 68.264 H 0.0 **** 0.0
5 H 59.63 25.454 69.781 H 0.0 **** 0.0
@<TRIPOS>BOND
1 1 2 1
2 1 3 1
3 1 4 1
4 1 5 1
@<TRIPOS>MOLECULE
CH4
5 4
SMALL
USER_CHARGES


@<TRIPOS>ATOM
1 C 51.327 33.4 16.973 C 0.0 **** 0.0
2 H 51.442 33.051 15.947 H 0.0 **** 0.0
3 H 52.213 33.964 17.266 H 0.0 **** 0.0
4 H 51.205 32.544 17.636 H 0.0 **** 0.0
5 H 50.448 34.041 17.042 H 0.0 **** 0.0
@<TRIPOS>BOND
1 1 2 1
2 1 3 1
3 1 4 1
4 1 5 1
@<TRIPOS>MOLECULE
CH4
5 4
SMALL
USER_CHARGES


@<TRIPOS>ATOM
1 C 90.61 2.329 74.539 C 0.0 **** 0.0
2 H 90.725 2.401 75.62 H 0.0 **** 0.0
3 H 90.173 3.252 74.158 H 0.0 **** 0.0
4 H 89.956 1.491 74.299 H 0.0 **** 0.0
5 H 91.586 2.171 74.08 H 0.0 **** 0.0
@<TRIPOS>BOND
1 1 2 1
2 1 3 1
3 1 4 1
4 1 5 1
@<TRIPOS>MOLECULE
CH4
5 4
SMALL
USER_CHARGES


@<TRIPOS>ATOM
1 C 89.265 97.347 75.345 C 0.0 **** 0.0
2 H 89.866 97.616 74.477 H 0.0 **** 0.0
3 H 88.237 97.674 75.19 H 0.0 **** 0.0
4 H 89.672 97.832 76.232 H 0.0 **** 0.0
5 H 89.286 96.265 75.48 H 0.0 **** 0.0
@<TRIPOS>BOND
1 1 2 1
2 1 3 1
3 1 4 1
4 1 5 1
@<TRIPOS>MOLECULE
CH4
5 4
SMALL
USER_CHARGES


@<TRIPOS>ATOM
1 C 77.719 55.612 18.691 C 0.0 **** 0.0
2 H 76.704 55.22 18.627 H 0.0 **** 0.0
3 H 77.682 56.689 18.856 H 0.0 **** 0.0
4 H 78.249 55.404 17.762 H 0.0 **** 0.0
5 H 78.24 55.135 19.521 H 0.0 **** 0.0
@<TRIPOS>BOND
1 1 5 1
2 1 2 1
3 1 3 1
4 1 4 1
@<TRIPOS>MOLECULE
CH4
5 4
SMALL
USER_CHARGES


@<TRIPOS>ATOM
1 C 43.604 23.473 28.342 C 0.0 **** 0.0
2 H 44.153 24.164 28.981 H 0.0 **** 0.0
3 H 42.538 23.55 28.554 H 0.0 **** 0.0
4 H 43.941 22.455 28.535 H 0.0 **** 0.0
5 H 43.786 23.724 27.297 H 0.0 **** 0.0
@<TRIPOS>BOND
1 1 2 1
2 1 3 1
3 1 4 1
4 1 5 1
@<TRIPOS>MOLECULE
CH4
5 4
SMALL
USER_CHARGES


@<TRIPOS>ATOM
1 C 35.22 42.999 69.478 C 0.0 **** 0.0
2 H 36.131 43.042 68.881 H 0.0 **** 0.0
3 H 34.493 43.708 69.081 H 0.0 **** 0.0
4 H 35.451 43.254 70.512 H 0.0 **** 0.0
5 H 34.805 41.992 69.436 H 0.0 **** 0.0
@<TRIPOS>BOND
1 1 2 1
2 1 3 1
3 1 4 1
4 1 5 1
@<TRIPOS>MOLECULE
CH4
5 4
SMALL
USER_CHARGES


@<TRIPOS>ATOM
1 C 1.776 84.378 43.996 C 0.0 **** 0.0
2 H 1.034 84.368 43.197 H 0.0 **** 0.0
3 H 2.605 85.027 43.712 H 0.0 **** 0.0
4 H 2.145 83.367 44.162 H 0.0 **** 0.0
5 H 1.318 84.753 44.911 H 0.0 **** 0.0
@<TRIPOS>BOND
1 1 2 1
2 1 3 1
3 1 4 1
4 1 5 1
@<TRIPOS>MOLECULE
CH4
5 4
SMALL
USER_CHARGES


@<TRIPOS>ATOM
1 C 34.565 39.738 12.901 C 0.0 **** 0.0
2 H 35.506 39.396 13.329 H 0.0 **** 0.0
3 H 33.738 39.2 13.365 H 0.0 **** 0.0
4 H 34.564 39.55 11.827 H 0.0 **** 0.0
5 H 34.451 40.807 13.082 H 0.0 **** 0.0
@<TRIPOS>BOND
1 1 2 1
2 1 3 1
3 1 4 1
4 1 5 1
@<TRIPOS>MOLECULE
CH4
5 4
SMALL
USER_CHARGES


@<TRIPOS>ATOM
1 C 81.735 49.715 81.711 C 0.0 **** 0.0
2 H 82.617 49.988 81.132 H 0.0 **** 0.0
3 H 80.907 50.371 81.442 H 0.0 **** 0.0
4 H 81.952 49.82 82.774 H 0.0 **** 0.0
5 H 81.465 48.681 81.496 H 0.0 **** 0.0
@<TRIPOS>BOND
1 1 2 1
2 1 3 1
3 1 4 1
4 1 5 1
@<TRIPOS>MOLECULE
CH4
5 4
SMALL
USER_CHARGES


@<TRIPOS>ATOM
1 C 28.061 15.63 80.117 C 0.0 **** 0.0
2 H 28.122 15.633 81.205 H 0.0 **** 0.0
3 H 27.782 16.623 79.766 H 0.0 **** 0.0
4 H 27.31 14.907 79.797 H 0.0 **** 0.0
5 H 29.03 15.355 79.7 H 0.0 **** 0.0
@<TRIPOS>BOND
1 1 2 1
2 1 3 1
3 1 4 1
4 1 5 1
@<TRIPOS>MOLECULE
CH4
5 4
SMALL
USER_CHARGES


@<TRIPOS>ATOM
1 C 15.547 20.174 87.635 C 0.0 **** 0.0
2 H 14.997 20.517 88.51 H 0.0 **** 0.0
3 H 16.532 20.64 87.619 H 0.0 **** 0.0
4 H 15.001 20.448 86.732 H 0.0 **** 0.0
5 H 15.658 19.09 87.677 H 0.0 **** 0.0
@<TRIPOS>BOND
1 1 2 1
2 1 3 1
3 1 4 1
4 1 5 1
@<TRIPOS>MOLECULE
CH4
5 4
SMALL
USER_CHARGES


@<TRIPOS>ATOM
1 C 63.249 32.109 1.402 C 0.0 **** 0.0
2 H 63.37 31.742 0.383 H 0.0 **** 0.0
3 H 64.188 32.544 1.745 H 0.0 **** 0.0
4 H 62.972 31.281 2.055 H 0.0 **** 0.0
5 H 62.467 32.867 1.424 H 0.0 **** 0.0
@<TRIPOS>BOND
1 1 2 1
2 1 3 1
3 1 4 1
4 1 5 1
@<TRIPOS>MOLECULE
CH4
5 4
SMALL
USER_CHARGES


@<TRIPOS>ATOM
1 C 45.539 38.809 31.698 C 0.0 **** 0.0
2 H 45.761 39.821 32.039 H 0.0 **** 0.0
3 H 44.895 38.314 32.426 H 0.0 **** 0.0
4 H 46.468 38.249 31.594 H 0.0 **** 0.0
5 H 45.031 38.855 30.735 H 0.0 **** 0.0
@<TRIPOS>BOND
1 1 2 1
2 1 3 1
3 1 4 1
4 1 5 1
@<TRIPOS>MOLECULE
CH4
5 4
SMALL
USER_CHARGES


@<TRIPOS>ATOM
1 C 49.343 63.885 89.564 C 0.0 **** 0.0
2 H 49.626 64.376 88.633 H 0.0 **** 0.0
3 H 48.715 64.555 90.152 H 0.0 **** 0.0
4 H 50.241 63.638 90.131 H 0.0 **** 0.0
5 H 48.792 62.972 89.341 H 0.0 **** 0.0
@<TRIPOS>BOND
1 1 2 1
2 1 3 1
3 1 4 1
4 1 5 1
@<TRIPOS>MOLECULE
CH4
5 4
SMALL
USER_CHARGES


@<TRIPOS>ATOM
1 C 33.291 20.851 43.173 C 0.0 **** 0.0
2 H 33.6 20.761 44.214 H 0.0 **** 0.0
3 H 32.31 21.325 43.125 H 0.0 **** 0.0
4 H 33.237 19.859 42.723 H 0.0 **** 0.0
5 H 34.015 21.457 42.629 H 0.0 **** 0.0
@<TRIPOS>BOND
1 1 2 1
2 1 3 1
3 1 4 1
4 1 5 1
@<TRIPOS>MOLECULE
CH4
5 4
SMALL
USER_CHARGES


@<TRIPOS>ATOM
1 C 45.391 22.635 83.083 C 0.0 **** 0.0
2 H 44.415 22.345 83.474 H 0.0 **** 0.0
3 H 45.264 23.117 82.113 H 0.0 **** 0.0
4 H 46.014 21.749 82.969 H 0.0 **** 0.0
5 H 45.868 23.329 83.774 H 0.0 **** 0.0
@<TRIPOS>BOND
1 1 2 1
2 1 3 1
3 1 4 1
4 1 5 1
@<TRIPOS>MOLECULE
CH4
5 4
SMALL
USER_CHARGES


@<TRIPOS>ATOM
1 C 41.049 76.801 69.994 C 0.0 **** 0.0
2 H 41.709 76.758 70.861 H 0.0 **** 0.0
3 H 40.151 76.216 70.192 H 0.0 **** 0.0
4 H 41.565 76.394 69.125 H 0.0 **** 0.0
5 H 40.773 77.838 69.801 H 0.0 **** 0.0
@<TRIPOS>BOND
1 1 2 1
2 1 3 1
3 1 4 1
4 1 5 1
@<TRIPOS>MOLECULE
CH4
5 4
SMALL
USER_CHARGES


@<TRIPOS>ATOM
1 C 42.349 3.051 67.194 C 0.0 **** 0.0
2 H 42.199 2.073 67.651 H 0.0 **** 0.0
3 H 43.395 3.16 66.905 H 0.0 **** 0.0
4 H 42.086 3.831 67.909 H 0.0 **** 0.0
5 H 41.717 3.14 66.31 H 0.0 **** 0.0
@<TRIPOS>BOND
1 1 2 1
2 1 3 1
3 1 4 1
4 1 5 1
@<TRIPOS>MOLECULE
CH4
5 4
SMALL
USER_CHARGES


@<TRIPOS>ATOM
1 C 19.857 75.166 79.097 C 0.0 **** 0.0
2 H 19.62 74.182 79.503 H 0.0 **** 0.0
3 H 20.025 75.083 78.023 H 0.0 **** 0.0
4 H 20.756 75.55 79.577 H 0.0 **** 0.0
5 H 19.026 75.845 79.284 H 0.0 **** 0.0
@<TRIPOS>BOND
1 1 2 1
2 1 3 1
3 1 4 1
4 1 5 1
@<TRIPOS>MOLECULE
CH4
5 4
SMALL
USER_CHARGES


@<TRIPOS>ATOM
1 C 54.376 42.147 54.432 C 0.0 **** 0.0
2 H 54.312 42.216 55.518 H 0.0 **** 0.0
3 H 54.057 43.09 53.989 H 0.0 **** 0.0
4 H 53.73 41.342 54.081 H 0.0 **** 0.0
5 H 55.406 41.938 54.142 H 0.0 **** 0.0
@<TRIPOS>BOND
1 1 2 1
2 1 3 1
3 1 4 1
4 1 5 1
@<TRIPOS>MOLECULE
CH4
5 4
SMALL
USER_CHARGES


@<TRIPOS>ATOM
1 C 62.562 64.928 45.085 C 0.0 **** 0.0
2 H 62.535 65.082 44.006 H 0.0 **** 0.0
3 H 63.068 65.769 45.559 H 0.0 **** 0.0
4 H 63.101 64.007 45.307 H 0.0 **** 0.0
5 H 61.544 64.854 45.467 H 0.0 **** 0.0
@<TRIPOS>BOND
1 1 2 1
2 1 3 1
3 1 4 1
4 1 5 1
@<TRIPOS>MOLECULE
CH4
5 4
SMALL
USER_CHARGES


@<TRIPOS>ATOM
1 C 91.834 60.123 70.226 C 0.0 **** 0.0
2 H 91.868 59.034 70.188 H 0.0 **** 0.0
3 H 90.864 60.443 70.606 H 0.0 **** 0.0
4 H 91.983 60.526 69.224 H 0.0 **** 0.0
5 H 92.622 60.488 70.885 H 0.0 **** 0.0
@<TRIPOS>BOND
1 1 2 1
2 1 3 1
3 1 4 1
4 1 5 1
@<TRIPOS>MOLECULE
CH4
5 4
SMALL
USER_CHARGES


@<TRIPOS>ATOM
1 C 3.924 12.701 82.35 C 0.0 **** 0.0
2 H 4.928 13.094 82.506 H 0.0 **** 0.0
3 H 3.762 12.533 81.285 H 0.0 **** 0.0
4 H 3.191 13.417 82.721 H 0.0 **** 0.0
5 H 3.816 11.758 82.887 H 0.0 **** 0.0
@<TRIPOS>BOND
1 1 2 1
2 1 3 1
3 1 4 1
4 1 5 1
@<TRIPOS>MOLECULE
CH4
5 4
SMALL
USER_CHARGES


@<TRIPOS>ATOM
1 C 67.567 68.898 45.469 C 0.0 **** 0.0
2 H 67.5 68.943 44.382 H 0.0 **** 0.0
3 H 68.586 69.131 45.78 H 0.0 **** 0.0
4 H 67.304 67.896 45.808 H 0.0 **** 0.0
5 H 66.879 69.622 45.906 H 0.0 **** 0.0
@<TRIPOS>BOND
1 1 2 1
2 1 3 1
3 1 4 1
4 1 5 1
@<TRIPOS>MOLECULE
CH4
5 4
SMALL
USER_CHARGES


@<TRIPOS>ATOM
1 C 83.903 70.003 14.57 C 0.0 **** 0.0
2 H 83.489 69.301 13.846 H 0.0 **** 0.0
3 H 83.247 70.869 14.652 H 0.0 **** 0.0
4 H 84.891 70.324 14.24 H 0.0 **** 0.0
5 H 83.985 69.515 15.541 H 0.0 **** 0.0
@<TRIPOS>BOND
1 1 2 1
2 1 3 1
3 1 4 1
4 1 5 1
@<TRIPOS>MOLECULE
CH4
5 4
SMALL
USER_CHARGES


@<TRIPOS>ATOM
1 C 47.143 24.293 9.226 C 0.0 **** 0.0
2 H 47.65 24.888 9.986 H 0.0 **** 0.0
3 H 46.32 24.869 8.804 H 0.0 **** 0.0
4 H 46.755 23.381 9.68 H 0.0 **** 0.0
5 H 47.849 24.035 8.437 H 0.0 **** 0.0
@<TRIPOS>BOND
1 1 2 1
2 1 3 1
3 1 4 1
4 1 5 1
@<TRIPOS>MOLECULE
CH4
5 4
SMALL
USER_CHARGES


@<TRIPOS>ATOM
1 C 49.151 13.193 3.811 C 0.0 **** 0.0
2 H 48.098 13.457 3.714 H 0.0 **** 0.0
3 H 49.63 13.866 4.522 H 0.0 **** 0.0
4 H 49.639 13.283 2.84 H 0.0 **** 0.0
5 H 49.237 12.166 4.167 H 0.0 **** 0.0
@<TRIPOS>BOND
1 1 2 1
2 1 3 1
3 1 4 1
4 1 5 1
@<TRIPOS>MOLECULE
CH4
5 4
SMALL
USER_CHARGES


@<TRIPOS>ATOM
1 C 41.357 68.58 85.204 C 0.0 **** 0.0
2 H 42.166 67.981 85.62 H 0.0 **** 0.0
3 H 41.709 69.598 85.033 H 0.0 **** 0.0
4 H 40.521 68.598 85.904 H 0.0 **** 0.0
5 H 41.031 68.144 84.26 H 0.0 **** 0.0
@<TRIPOS>BOND
1 1 2 1
2 1 3 1
3 1 4 1
4 1 5 1
@<TRIPOS>MOLECULE
CH4
5 4
SMALL
USER_CHARGES


@<TRIPOS>ATOM
1 C 91.448 67.868 23.628 C 0.0 **** 0.0
2 H 91.606 67.794 22.552 H 0.0 **** 0.0
3 H 92.235 68.479 24.07 H 0.0 **** 0.0
4 H 91.471 66.87 24.068 H 0.0 **** 0.0
5 H 90.478 68.327 23.822 H 0.0 **** 0.0
@<TRIPOS>BOND
1 1 2 1
2 1 3 1
3 1 4 1
4 1 5 1
@<TRIPOS>MOLECULE
CH4
5 4
SMALL
USER_CHARGES


@<TRIPOS>ATOM
1 C 54.148 14.46 41.724 C 0.0 **** 0.0
2 H 54.143 14.801 42.759 H 0.0 **** 0.0
3 H 54.968 14.937 41.188 H 0.0 **** 0.0
4 H 53.202 14.723 41.25 H 0.0 **** 0.0
5 H 54.277 13.378 41.699 H 0.0 **** 0.0
@<TRIPOS>BOND
1 1 2 1
2 1 3 1
3 1 4 1
4 1 5 1
@<TRIPOS>MOLECULE
CH4
5 4
SMALL
USER_CHARGES


@<TRIPOS>ATOM
1 C 87.029 74.715 13.1 C 0.0 **** 0.0
2 H 87.274 74.595 12.045 H 0.0 **** 0.0
3 H 87.933 74.965 13.656 H 0.0 **** 0.0
4 H 86.612 73.783 13.483 H 0.0 **** 0.0
5 H 86.298 75.515 13.215 H 0.0 **** 0.0
@<TRIPOS>BOND
1 1 2 1
2 1 3 1
3 1 4 1
4 1 5 1
@<TRIPOS>MOLECULE
CH4
5 4
SMALL
USER_CHARGES


@<TRIPOS>ATOM
1 C 30.219 33.821 17.334 C 0.0 **** 0.0
2 H 30.11 33.799 18.419 H 0.0 **** 0.0
3 H 31.157 33.342 17.053 H 0.0 **** 0.0
4 H 30.222 34.856 16.991 H 0.0 **** 0.0
5 H 29.386 33.288 16.875 H 0.0 **** 0.0
@<TRIPOS>BOND
1 1 2 1
2 1 3 1
3 1 4 1
4 1 5 1
@<TRIPOS>MOLECULE
CH4
5 4
SMALL
USER_CHARGES


@<TRIPOS>ATOM
1 C 19.263 23.91 92.461 C 0.0 **** 0.0
2 H 19.948 24.186 91.659 H 0.0 **** 0.0
3 H 19.657 23.044 92.992 H 0.0 **** 0.0
4 H 18.289 23.666 92.038 H 0.0 **** 0.0
5 H 19.159 24.746 93.153 H 0.0 **** 0.0
@<TRIPOS>BOND
1 1 2 1
2 1 3 1
3 1 4 1
4 1 5 1
@<TRIPOS>MOLECULE
CH4
5 4
SMALL
USER_CHARGES


@<TRIPOS>ATOM
1 C 95.292 17.402 64.222 C 0.0 **** 0.0
2 H 94.296 17.2 64.616 H 0.0 **** 0.0
3 H 95.392 16.942 63.238 H 0.0 **** 0.0
4 H 96.04 16.986 64.896 H 0.0 **** 0.0
5 H 95.437 18.479 64.137 H 0.0 **** 0.0
@<TRIPOS>BOND
1 1 2 1
2 1 3 1
3 1 4 1
4 1 5 1
@<TRIPOS>MOLECULE
CH4
5 4
SMALL
USER_CHARGES


@<TRIPOS>ATOM
1 C 17.077 8.782 10.345 C 0.0 **** 0.0
2 H 16.684 8.911 9.336 H 0.0 **** 0.0
3 H 16.276 8.935 11.069 H 0.0 **** 0.0
4 H 17.87 9.507 10.521 H 0.0 **** 0.0
5 H 17.476 7.773 10.452 H 0.0 **** 0.0
@<TRIPOS>BOND
1 1 2 1
2 1 3 1
3 1 4 1
4 1 5 1
@<TRIPOS>MOLECULE
CH4
5 4
SMALL
USER_CHARGES


@<TRIPOS>ATOM
1 C 5.891 1.836 74.188 C 0.0 **** 0.0
2 H 4.956 1.292 74.057 H 0.0 **** 0.0
3 H 6.73 1.148 74.075 H 0.0 **** 0.0
4 H 5.917 2.281 75.182 H 0.0 **** 0.0
5 H 5.962 2.622 73.436 H 0.0 **** 0.0
@<TRIPOS>BOND
1 1 2 1
2 1 3 1
3 1 4 1
4 1 5 1
@<TRIPOS>MOLECULE
CH4
5 4
SMALL
USER_CHARGES


@<TRIPOS>ATOM
1 C 89.827 76.662 81.338 C 0.0 **** 0.0
2 H 89.791 76.656 82.427 H 0.0 **** 0.0
3 H 90.177 77.634 80.991 H 0.0 **** 0.0
4 H 88.83 76.471 80.941 H 0.0 **** 0.0
5 H 90.51 75.885 80.993 H 0.0 **** 0.0
@<TRIPOS>BOND
1 1 5 1
2 1 2 1
3 1 3 1
4 1 4 1
@<TRIPOS>MOLECULE
CH4
5 4
SMALL
USER_CHARGES


@<TRIPOS>ATOM
1 C 73.148 51.027 19.02 C 0.0 **** 0.0
2 H 72.137 51.022 18.612 H 0.0 **** 0.0
3 H 73.378 50.044 19.432 H 0.0 **** 0.0
4 H 73.218 51.777 19.807 H 0.0 **** 0.0
5 H 73.858 51.265 18.228 H 0.0 **** 0.0
@<TRIPOS>BOND
1 1 3 1
2 1 4 1
3 1 5 1
4 1 2 1
@<TRIPOS>MOLECULE
CH4
5 4
SMALL
USER_CHARGES


@<TRIPOS>ATOM
1 C 72.7 54.488 46.217 C 0.0 **** 0.0
2 H 72.333 54.395 45.195 H 0.0 **** 0.0
3 H 73.787 54.406 46.221 H 0.0 **** 0.0
4 H 72.273 53.694 46.83 H 0.0 **** 0.0
5 H 72.407 55.457 46.621 H 0.0 **** 0.0
@<TRIPOS>BOND
1 1 2 1
2 1 3 1
3 1 4 1
4 1 5 1
@<TRIPOS>MOLECULE
CH4
5 4
SMALL
USER_CHARGES


@<TRIPOS>ATOM
1 C 87.784 7.767 34.442 C 0.0 **** 0.0
2 H 87.697 8.124 33.416 H 0.0 **** 0.0
3 H 86.806 7.804 34.924 H 0.0 **** 0.0
4 H 88.483 8.4 34.989 H 0.0 **** 0.0
5 H 88.149 6.74 34.44 H 0.0 **** 0.0
@<TRIPOS>BOND
1 1 2 1
2 1 3 1
3 1 4 1
4 1 5 1
@<TRIPOS>MOLECULE
CH4
5 4
SMALL
USER_CHARGES


@<TRIPOS>ATOM
1 C 33.261 94.392 19.238 C 0.0 **** 0.0
2 H 33.717 94.614 20.203 H 0.0 **** 0.0
3 H 32.192 94.225 19.373 H 0.0 **** 0.0
4 H 33.719 93.498 18.817 H 0.0 **** 0.0
5 H 33.415 95.233 18.562 H 0.0 **** 0.0
@<TRIPOS>BOND
1 1 2 1
2 1 3 1
3 1 4 1
4 1 5 1
@<TRIPOS>MOLECULE
CH4
5 4
SMALL
USER_CHARGES


@<TRIPOS>ATOM
1 C 87.284 22.406 78.263 C 0.0 **** 0.0
2 H 87.415 22.69 77.219 H 0.0 **** 0.0
3 H 86.292 21.976 78.4 H 0.0 **** 0.0
4 H 87.389 23.287 78.896 H 0.0 **** 0.0
5 H 88.04 21.67 78.537 H 0.0 **** 0.0
@<TRIPOS>BOND
1 1 2 1
2 1 3 1
3 1 4 1
4 1 5 1
@<TRIPOS>MOLECULE
CH4
5 4
SMALL
USER_CHARGES


@<TRIPOS>ATOM
1 C 36.637 57.551 75.237 C 0.0 **** 0.0
2 H 36.619 58.587 74.898 H 0.0 **** 0.0
3 H 37.075 57.503 76.234 H 0.0 **** 0.0
4 H 37.234 56.954 74.547 H 0.0 **** 0.0
5 H 35.62 57.162 75.267 H 0.0 **** 0.0
@<TRIPOS>BOND
1 1 2 1
2 1 3 1
3 1 4 1
4 1 5 1
@<TRIPOS>MOLECULE
CH4
5 4
SMALL
USER_CHARGES


@<TRIPOS>ATOM
1 C 84.087 56.099 68.874 C 0.0 **** 0.0
2 H 84.075 56.146 69.963 H 0.0 **** 0.0
3 H 84.507 55.144 68.556 H 0.0 **** 0.0
4 H 84.696 56.913 68.482 H 0.0 **** 0.0
5 H 83.068 56.192 68.496 H 0.0 **** 0.0
@<TRIPOS>BOND
1 1 2 1
2 1 3 1
3 1 4 1
4 1 5 1
@<TRIPOS>MOLECULE
CH4
5 4
SMALL
USER_CHARGES


@<TRIPOS>ATOM
1 C 31.324 12.094 15.918 C 0.0 **** 0.0
2 H 32.057 12.001 15.117 H 0.0 **** 0.0
3 H 31.376 11.215 16.561 H 0.0 **** 0.0
4 H 30.325 12.172 15.489 H 0.0 **** 0.0
5 H 31.539 12.987 16.505 H 0.0 **** 0.0
@<TRIPOS>BOND
1 1 2 1
2 1 3 1
3 1 4 1
4 1 5 1
@<TRIPOS>MOLECULE
CH4
5 4
SMALL
USER_CHARGES


@<TRIPOS>ATOM
1 C 26.447 31.185 23.12 C 0.0 **** 0.0
2 H 26.412 31.383 24.192 H 0.0 **** 0.0
3 H 26.304 32.118 22.574 H 0.0 **** 0.0
4 H 25.657 30.483 22.854 H 0.0 **** 0.0
5 H 27.416 30.758 22.862 H 0.0 **** 0.0
@<TRIPOS>BOND
1 1 2 1
2 1 3 1
3 1 4 1
4 1 5 1
@<TRIPOS>MOLECULE
CH4
5 4
SMALL
USER_CHARGES


@<TRIPOS>ATOM
1 C 82.809 71.708 5.018 C 0.0 **** 0.0
2 H 82.695 70.63 5.131 H 0.0 **** 0.0
3 H 81.846 72.149 4.759 H 0.0 **** 0.0
4 H 83.529 71.916 4.227 H 0.0 **** 0.0
5 H 83.165 72.136 5.955 H 0.0 **** 0.0
@<TRIPOS>BOND
1 1 2 1
2 1 3 1
3 1 4 1
4 1 5 1
@<TRIPOS>MOLECULE
CH4
5 4
SMALL
USER_CHARGES


@<TRIPOS>ATOM
1 C 18.563 64.897 17.149 C 0.0 **** 0.0
2 H 18.573 64.937 16.06 H 0.0 **** 0.0
3 H 17.536 64.787 17.499 H 0.0 **** 0.0
4 H 18.988 65.816 17.551 H 0.0 **** 0.0
5 H 19.154 64.045 17.486 H 0.0 **** 0.0
@<TRIPOS>BOND
1 1 2 1
2 1 3 1
3 1 4 1
4 1 5 1
@<TRIPOS>MOLECULE
CH4
5 4
SMALL
USER_CHARGES


@<TRIPOS>ATOM
1 C 75.578 62.392 79.77 C 0.0 **** 0.0
2 H 76.238 63.207 80.068 H 0.0 **** 0.0
3 H 75.977 61.911 78.876 H 0.0 **** 0.0
4 H 74.585 62.789 79.557 H 0.0 **** 0.0
5 H 75.513 61.663 80.577 H 0.0 **** 0.0
@<TRIPOS>BOND
1 1 2 1
2 1 3 1
3 1 4 1
4 1 5 1
@<TRIPOS>MOLECULE
CH4
5 4
SMALL
USER_CHARGES


@<TRIPOS>ATOM
1 C 95.254 22.366 77.422 C 0.0 **** 0.0
2 H 95.977 22.971 76.875 H 0.0 **** 0.0
3 H 94.286 22.416 76.923 H 0.0 **** 0.0
4 H 95.159 22.745 78.439 H 0.0 **** 0.0
5 H 95.595 21.331 77.451 H 0.0 **** 0.0
@<TRIPOS>BOND
1 1 2 1
2 1 3 1
3 1 4 1
4 1 5 1
@<TRIPOS>MOLECULE
CH4
5 4
SMALL
USER_CHARGES


@<TRIPOS>ATOM
1 C 28.507 67.379 63.495 C 0.0 **** 0.0
2 H 29.44 67.63 64.001 H 0.0 **** 0.0
3 H 27.722 68.062 63.823 H 0.0 **** 0.0
4 H 28.225 66.356 63.741 H 0.0 **** 0.0
5 H 28.643 67.471 62.418 H 0.0 **** 0.0
@<TRIPOS>BOND
1 1 2 1
2 1 3 1
3 1 4 1
4 1 5 1
@<TRIPOS>MOLECULE
CH4
5 4
SMALL
USER_CHARGES


@<TRIPOS>ATOM
1 C 73.02 6.738 76.269 C 0.0 **** 0.0
2 H 72.212 6.96 75.572 H 0.0 **** 0.0
3 H 73.025 7.481 77.067 H 0.0 **** 0.0
4 H 73.973 6.765 75.741 H 0.0 **** 0.0
5 H 72.87 5.746 76.696 H 0.0 **** 0.0
@<TRIPOS>BOND
1 1 4 1
2 1 2 1
3 1 3 1
4 1 5 1
@<TRIPOS>MOLECULE
CH4
5 4
SMALL
USER_CHARGES


@<TRIPOS>ATOM
1 C 31.478 17.989 74.552 C 0.0 **** 0.0
2 H 31.506 17.774 73.483 H 0.0 **** 0.0
3 H 30.639 18.651 74.767 H 0.0 **** 0.0
4 H 32.409 18.473 74.849 H 0.0 **** 0.0
5 H 31.359 17.058 75.106 H 0.0 **** 0.0
@<TRIPOS>BOND
1 1 2 1
2 1 3 1
3 1 4 1
4 1 5 1
@<TRIPOS>MOLECULE
CH4
5 4
SMALL
USER_CHARGES


@<TRIPOS>ATOM
1 C 76.796 10.225 70.478 C 0.0 **** 0.0
2 H 75.812 10.004 70.064 H 0.0 **** 0.0
3 H 76.717 10.341 71.559 H 0.0 **** 0.0
4 H 77.175 11.148 70.04 H 0.0 **** 0.0
5 H 77.478 9.407 70.249 H 0.0 **** 0.0
@<TRIPOS>BOND
1 1 2 1
2 1 3 1
3 1 4 1
4 1 5 1
@<TRIPOS>MOLECULE
CH4
5 4
SMALL
USER_CHARGES


@<TRIPOS>ATOM
1 C 56.347 21.978 53.13 C 0.0 **** 0.0
2 H 55.765 22.306 53.991 H 0.0 **** 0.0
3 H 57.41 22.081 53.351 H 0.0 **** 0.0
4 H 56.094 22.592 52.266 H 0.0 **** 0.0
5 H 56.12 20.935 52.914 H 0.0 **** 0.0
@<TRIPOS>BOND
1 1 2 1
2 1 3 1
3 1 4 1
4 1 5 1
@<TRIPOS>MOLECULE
CH4
5 4
SMALL
USER_CHARGES


@<TRIPOS>ATOM
1 C 14.503 77.684 45.156 C 0.0 **** 0.0
2 H 14.807 77.716 46.202 H 0.0 **** 0.0
3 H 14.278 78.693 44.812 H 0.0 **** 0.0
4 H 13.615 77.059 45.055 H 0.0 **** 0.0
5 H 15.311 77.266 44.556 H 0.0 **** 0.0
@<TRIPOS>BOND
1 1 2 1
2 1 3 1
3 1 4 1
4 1 5 1
@<TRIPOS>MOLECULE
CH4
5 4
SMALL
USER_CHARGES


@<TRIPOS>ATOM
1 C 72.825 27.83 38.853 C 0.0 **** 0.0
2 H 72.435 27.13 39.592 H 0.0 **** 0.0
3 H 72.304 28.784 38.948 H 0.0 **** 0.0
4 H 72.667 27.428 37.853 H 0.0 **** 0.0
5 H 73.891 27.979 39.022 H 0.0 **** 0.0
@<TRIPOS>BOND
1 1 2 1
2 1 3 1
3 1 4 1
4 1 5 1
@<TRIPOS>MOLECULE
CH4
5 4
SMALL
USER_CHARGES


@<TRIPOS>ATOM
1 C 66.018 10.688 98.091 C 0.0 **** 0.0
2 H 66.544 11.61 97.843 H 0.0 **** 0.0
3 H 66.626 10.095 98.774 H 0.0 **** 0.0
4 H 65.835 10.119 97.179 H 0.0 **** 0.0
5 H 65.067 10.929 98.566 H 0.0 **** 0.0
@<TRIPOS>BOND
1 1 2 1
2 1 3 1
3 1 4 1
4 1 5 1
@<TRIPOS>MOLECULE
CH4
5 4
SMALL
USER_CHARGES


@<TRIPOS>ATOM
1 C 55.626 22.434 28.979 C 0.0 **** 0.0
2 H 55.615 22.23 27.909 H 0.0 **** 0.0
3 H 55.845 21.514 29.522 H 0.0 **** 0.0
4 H 54.652 22.815 29.286 H 0.0 **** 0.0
5 H 56.393 23.177 29.2 H 0.0 **** 0.0
@<TRIPOS>BOND
1 1 2 1
2 1 3 1
3 1 4 1
4 1 5 1
@<TRIPOS>MOLECULE
CH4
5 4
SMALL
USER_CHARGES


@<TRIPOS>ATOM
1 C 65.485 73.358 84.369 C 0.0 **** 0.0
2 H 65.617 72.95 85.371 H 0.0 **** 0.0
3 H 66.459 73.475 83.893 H 0.0 **** 0.0
4 H 64.994 74.329 84.434 H 0.0 **** 0.0
5 H 64.871 72.679 83.778 H 0.0 **** 0.0
@<TRIPOS>BOND
1 1 2 1
2 1 3 1
3 1 4 1
4 1 5 1
@<TRIPOS>MOLECULE
CH4
5 4
SMALL
USER_CHARGES


@<TRIPOS>ATOM
1 C 45.732 58.175 37.203 C 0.0 **** 0.0
2 H 46.015 57.765 36.233 H 0.0 **** 0.0
3 H 46.349 59.048 37.421 H 0.0 **** 0.0
4 H 45.884 57.42 37.975 H 0.0 **** 0.0
5 H 44.683 58.468 37.182 H 0.0 **** 0.0
@<TRIPOS>BOND
1 1 2 1
2 1 3 1
3 1 4 1
4 1 5 1
@<TRIPOS>MOLECULE
CH4
5 4
SMALL
USER_CHARGES


@<TRIPOS>ATOM
1 C 98.001 93.366 11.992 C 0.0 **** 0.0
2 H 97.316 93.984 11.409 H 0.0 **** 0.0
3 H 99.002 93.794 11.947 H 0.0 **** 0.0
4 H 98.018 92.357 11.581 H 0.0 **** 0.0
5 H 97.665 93.331 13.028 H 0.0 **** 0.0
@<TRIPOS>BOND
1 1 2 1
2 1 3 1
3 1 4 1
4 1 5 1
@<TRIPOS>MOLECULE
CH4
5 4
SMALL
USER_CHARGES


@<TRIPOS>ATOM
1 C 30.857 29.795 61.558 C 0.0 **** 0.0
2 H 30.593 30.786 61.926 H 0.0 **** 0.0
3 H 31.89 29.8 61.209 H 0.0 **** 0.0
4 H 30.197 29.525 60.734 H 0.0 **** 0.0
5 H 30.749 29.068 62.363 H 0.0 **** 0.0
@<TRIPOS>BOND
1 1 2 1
2 1 3 1
3 1 4 1
4 1 5 1
@<TRIPOS>MOLECULE
CH4
5 4
SMALL
USER_CHARGES


@<TRIPOS>ATOM
1 C 76.395 20.623 40.784 C 0.0 **** 0.0
2 H 76.203 21.642 40.45 H 0.0 **** 0.0
3 H 77.444 20.377 40.615 H 0.0 **** 0.0
4 H 75.765 19.932 40.223 H 0.0 **** 0.0
5 H 76.169 20.54 41.847 H 0.0 **** 0.0
@<TRIPOS>BOND
1 1 2 1
2 1 3 1
3 1 4 1
4 1 5 1
@<TRIPOS>MOLECULE
CH4
5 4
SMALL
USER_CHARGES


@<TRIPOS>ATOM
1 C 51.622 41.337 70.345 C 0.0 **** 0.0
2 H 51.49 42.002 71.198 H 0.0 **** 0.0
3 H 50.886 41.578 69.578 H 0.0 **** 0.0
4 H 51.489 40.304 70.665 H 0.0 **** 0.0
5 H 52.626 41.464 69.938 H 0.0 **** 0.0
@<TRIPOS>BOND
1 1 2 1
2 1 3 1
3 1 4 1
4 1 5 1
@<TRIPOS>MOLECULE
CH4
5 4
SMALL
USER_CHARGES


@<TRIPOS>ATOM
1 C 96.916 32.819 89.68 C 0.0 **** 0.0
2 H 97.116 33.869 89.89 H 0.0 **** 0.0
3 H 97.605 32.465 88.913 H 0.0 **** 0.0
4 H 95.891 32.708 89.327 H 0.0 **** 0.0
5 H 97.053 32.234 90.589 H 0.0 **** 0.0
@<TRIPOS>BOND
1 1 2 1
2 1 3 1
3 1 4 1
4 1 5 1
@<TRIPOS>MOLECULE
CH4
5 4
SMALL
USER_CHARGES


@<TRIPOS>ATOM
1 C 46.558 86.782 79.368 C 0.0 **** 0.0
2 H 46.439 85.747 79.689 H 0.0 **** 0.0
3 H 47.529 86.903 78.888 H 0.0 **** 0.0
4 H 46.496 87.44 80.234 H 0.0 **** 0.0
5 H 45.768 87.036 78.661 H 0.0 **** 0.0
@<TRIPOS>BOND
1 1 2 1
2 1 3 1
3 1 4 1
4 1 5 1
@<TRIPOS>MOLECULE
CH4
5 4
SMALL
USER_CHARGES


@<TRIPOS>ATOM
1 C 91.678 84.622 3.75 C 0.0 **** 0.0
2 H 91.105 84.454 2.839 H 0.0 **** 0.0
3 H 91.98 83.663 4.172 H 0.0 **** 0.0
4 H 91.063 85.16 4.472 H 0.0 **** 0.0
5 H 92.565 85.212 3.518 H 0.0 **** 0.0
@<TRIPOS>BOND
1 1 2 1
2 1 3 1
3 1 4 1
4 1 5 1
@<TRIPOS>MOLECULE
CH4
5 4
SMALL
USER_CHARGES


@<TRIPOS>ATOM
1 C 61.568 25.374 37.715 C 0.0 **** 0.0
2 H 61.475 24.346 37.364 H 0.0 **** 0.0
3 H 60.968 26.029 37.083 H 0.0 **** 0.0
4 H 62.613 25.68 37.669 H 0.0 **** 0.0
5 H 61.215 25.439 38.745 H 0.0 **** 0.0
@<TRIPOS>BOND
1 1 2 1
2 1 3 1
3 1 4 1
4 1 5 1
@<TRIPOS>MOLECULE
CH4
5 4
SMALL
USER_CHARGES


@<TRIPOS>ATOM
1 C 77.563 8.983 24.283 C 0.0 **** 0.0
2 H 77.647 9.211 23.221 H 0.0 **** 0.0
3 H 77.833 9.864 24.866 H 0.0 **** 0.0
4 H 78.235 8.161 24.532 H 0.0 **** 0.0
5 H 76.537 8.696 24.512 H 0.0 **** 0.0
@<TRIPOS>BOND
1 1 2 1
2 1 3 1
3 1 4 1
4 1 5 1
@<TRIPOS>MOLECULE
CH4
5 4
SMALL
USER_CHARGES


@<TRIPOS>ATOM
1 C 95.185 10.247 72.14 C 0.0 **** 0.0
2 H 94.262 10.369 72.707 H 0.0 **** 0.0
3 H 95.749 9.405 72.542 H 0.0 **** 0.0
4 H 95.782 11.156 72.22 H 0.0 **** 0.0
5 H 94.946 10.06 71.093 H 0.0 **** 0.0
@<TRIPOS>BOND
1 1 2 1
2 1 3 1
3 1 4 1
4 1 5 1
@<TRIPOS>MOLECULE
CH4
5 4
SMALL
USER_CHARGES


@<TRIPOS>ATOM
1 C 50.047 29.335 42.609 C 0.0 **** 0.0
2 H 50.058 28.577 41.826 H 0.0 **** 0.0
3 H 50.969 29.272 43.188 H 0.0 **** 0.0
4 H 49.193 29.167 43.265 H 0.0 **** 0.0
5 H 49.969 30.324 42.156 H 0.0 **** 0.0
@<TRIPOS>BOND
1 1 2 1
2 1 3 1
3 1 4 1
4 1 5 1
@<TRIPOS>MOLECULE
CH4
5 4
SMALL
USER_CHARGES


@<TRIPOS>ATOM
1 C 7.414 90.985 52.557 C 0.0 **** 0.0
2 H 7.732 91.373 51.589 H 0.0 **** 0.0
3 H 7.256 91.814 53.247 H 0.0 **** 0.0
4 H 8.184 90.323 52.953 H 0.0 **** 0.0
5 H 6.484 90.429 52.437 H 0.0 **** 0.0
@<TRIPOS>BOND
1 1 2 1
2 1 3 1
3 1 4 1
4 1 5 1
@<TRIPOS>MOLECULE
CH4
5 4
SMALL
USER_CHARGES


@<TRIPOS>ATOM
1 C 92.761 55.64 51.199 C 0.0 **** 0.0
2 H 92.614 54.755 51.819 H 0.0 **** 0.0
3 H 92.807 56.524 51.835 H 0.0 **** 0.0
4 H 91.928 55.736 50.502 H 0.0 **** 0.0
5 H 93.692 55.542 50.642 H 0.0 **** 0.0
@<TRIPOS>BOND
1 1 2 1
2 1 3 1
3 1 4 1
4 1 5 1
@<TRIPOS>MOLECULE
CH4
5 4
SMALL
USER_CHARGES


@<TRIPOS>ATOM
1 C 42.358 98.155 14.565 C 0.0 **** 0.0
2 H 42.154 97.813 15.58 H 0.0 **** 0.0
3 H 41.45 98.577 14.134 H 0.0 **** 0.0
4 H 42.692 97.313 13.959 H 0.0 **** 0.0
5 H 43.137 98.917 14.589 H 0.0 **** 0.0
@<TRIPOS>BOND
1 1 3 1
2 1 4 1
3 1 5 1
4 1 2 1
@<TRIPOS>MOLECULE
CH4
5 4
SMALL
USER_CHARGES


@<TRIPOS>ATOM
1 C 19.387 45.601 33.885 C 0.0 **** 0.0
2 H 19.416 45.776 32.809 H 0.0 **** 0.0
3 H 20.303 45.098 34.195 H 0.0 **** 0.0
4 H 18.528 44.975 34.128 H 0.0 **** 0.0
5 H 19.301 46.555 34.406 H 0.0 **** 0.0
@<TRIPOS>BOND
1 1 2 1
2 1 3 1
3 1 4 1
4 1 5 1
@<TRIPOS>MOLECULE
CH4
5 4
SMALL
USER_CHARGES


@<TRIPOS>ATOM
1 C 28.539 43.358 86.193 C 0.0 **** 0.0
2 H 28.977 43.119 85.224 H 0.0 **** 0.0
3 H 27.975 44.287 86.117 H 0.0 **** 0.0
4 H 29.332 43.473 86.932 H 0.0 **** 0.0
5 H 27.872 42.551 86.499 H 0.0 **** 0.0
@<TRIPOS>BOND
1 1 2 1
2 1 3 1
3 1 4 1
4 1 5 1
@<TRIPOS>MOLECULE
CH4
5 4
SMALL
USER_CHARGES


@<TRIPOS>ATOM
1 C 0.785 14.938 51.616 C 0.0 **** 0.0
2 H 1.571 14.922 52.371 H 0.0 **** 0.0
3 H 0.129 14.079 51.756 H 0.0 **** 0.0
4 H 1.233 14.896 50.623 H 0.0 **** 0.0
5 H 0.206 15.857 51.715 H 0.0 **** 0.0
@<TRIPOS>BOND
1 1 2 1
2 1 3 1
3 1 4 1
4 1 5 1
@<TRIPOS>MOLECULE
CH4
5 4
SMALL
USER_CHARGES


@<TRIPOS>ATOM
1 C 94.345 58.161 13.294 C 0.0 **** 0.0
2 H 94.833 59.121 13.127 H 0.0 **** 0.0
3 H 93.474 58.078 12.644 H 0.0 **** 0.0
4 H 94.03 58.09 14.335 H 0.0 **** 0.0
5 H 95.044 57.354 13.071 H 0.0 **** 0.0
@<TRIPOS>BOND
1 1 2 1
2 1 3 1
3 1 4 1
4 1 5 1
@<TRIPOS>MOLECULE
CH4
5 4
SMALL
USER_CHARGES


@<TRIPOS>ATOM
1 C 56.146 39.45 68.46 C 0.0 **** 0.0
2 H 55.599 38.912 69.234 H 0.0 **** 0.0
3 H 55.821 39.105 67.478 H 0.0 **** 0.0
4 H 57.214 39.264 68.575 H 0.0 **** 0.0
5 H 55.951 40.518 68.553 H 0.0 **** 0.0
@<TRIPOS>BOND
1 1 2 1
2 1 3 1
3 1 4 1
4 1 5 1
@<TRIPOS>MOLECULE
CH4
5 4
SMALL
USER_CHARGES


@<TRIPOS>ATOM
1 C 94.109 28.571 68.819 C 0.0 **** 0.0
2 H 93.33 29.33 68.75 H 0.0 **** 0.0
3 H 94.985 28.897 68.258 H 0.0 **** 0.0
4 H 93.74 27.633 68.403 H 0.0 **** 0.0
5 H 94.38 28.423 69.864 H 0.0 **** 0.0
@<TRIPOS>BOND
1 1 2 1
2 1 3 1
3 1 4 1
4 1 5 1
@<TRIPOS>MOLECULE
CH4
5 4
SMALL
USER_CHARGES


@<TRIPOS>ATOM
1 C 85.319 68.691 11.097 C 0.0 **** 0.0
2 H 84.458 69.217 10.686 H 0.0 **** 0.0
3 H 85.525 67.806 10.495 H 0.0 **** 0.0
4 H 85.105 68.391 12.123 H 0.0 **** 0.0
5 H 86.187 69.349 11.085 H 0.0 **** 0.0
@<TRIPOS>BOND
1 1 2 1
2 1 3 1
3 1 4 1
4 1 5 1
@<TRIPOS>MOLECULE
CH4
5 4
SMALL
USER_CHARGES


@<TRIPOS>ATOM
1 C 84.368 91.607 92.218 C 0.0 **** 0.0
2 H 84.279 90.945 91.356 H 0.0 **** 0.0
3 H 85.418 91.698 92.499 H 0.0 **** 0.0
4 H 83.803 91.192 93.053 H 0.0 **** 0.0
5 H 83.973 92.59 91.964 H 0.0 **** 0.0
@<TRIPOS>BOND
1 1 2 1
2 1 3 1
3 1 4 1
4 1 5 1
@<TRIPOS>MOLECULE
CH4
5 4
SMALL
USER_CHARGES


@<TRIPOS>ATOM
1 C 30.623 79.617 57.579 C 0.0 **** 0.0
2 H 30.813 80.092 58.541 H 0.0 **** 0.0
3 H 29.642 79.92 57.212 H 0.0 **** 0.0
4 H 30.648 78.533 57.697 H 0.0 **** 0.0
5 H 31.389 79.922 56.866 H 0.0 **** 0.0
@<TRIPOS>BOND
1 1 2 1
2 1 3 1
3 1 4 1
4 1 5 1
@<TRIPOS>MOLECULE
CH4
5 4
SMALL
USER_CHARGES


@<TRIPOS>ATOM
1 C 83.539 34.393 38.69 C 0.0 **** 0.0
2 H 84.327 34.7 39.378 H 0.0 **** 0.0
3 H 83.984 34.081 37.745 H 0.0 **** 0.0
4 H 82.863 35.229 38.515 H 0.0 **** 0.0
5 H 82.984 33.561 39.123 H 0.0 **** 0.0
@<TRIPOS>BOND
1 1 2 1
2 1 3 1
3 1 4 1
4 1 5 1
@<TRIPOS>MOLECULE
CH4
5 4
SMALL
USER_CHARGES


@<TRIPOS>ATOM
1 C 25.117 82.407 14.825 C 0.0 **** 0.0
2 H 24.335 83.02 14.375 H 0.0 **** 0.0
3 H 25.587 81.796 14.054 H 0.0 **** 0.0
4 H 24.679 81.761 15.585 H 0.0 **** 0.0
5 H 25.865 83.053 15.284 H 0.0 **** 0.0
@<TRIPOS>BOND
1 1 2 1
2 1 3 1
3 1 4 1
4 1 5 1
@<TRIPOS>MOLECULE
CH4
5 4
SMALL
USER_CHARGES


@<TRIPOS>ATOM
1 C 55.609 21.015 36.925 C 0.0 **** 0.0
2 H 55.595 21.009 35.835 H 0.0 **** 0.0
3 H 56.436 20.399 37.281 H 0.0 **** 0.0
4 H 54.669 20.614 37.303 H 0.0 **** 0.0
5 H 55.738 22.037 37.281 H 0.0 **** 0.0
@<TRIPOS>BOND
1 1 2 1
2 1 3 1
3 1 4 1
4 1 5 1
@<TRIPOS>MOLECULE
CH4
5 4
SMALL
USER_CHARGES


@<TRIPOS>ATOM
1 C 19.074 96.747 42.509 C 0.0 **** 0.0
2 H 18.97 96.82 41.426 H 0.0 **** 0.0
3 H 20.033 96.29 42.752 H 0.0 **** 0.0
4 H 18.267 96.133 42.91 H 0.0 **** 0.0
5 H 19.023 97.744 42.947 H 0.0 **** 0.0
@<TRIPOS>BOND
1 1 5 1
2 1 2 1
3 1 3 1
4 1 4 1
@<TRIPOS>MOLECULE
CH4
5 4
SMALL
USER_CHARGES


@<TRIPOS>ATOM
1 C 96.667 24.571 29.56 C 0.0 **** 0.0
2 H 97.626 24.392 30.046 H 0.0 **** 0.0
3 H 96.353 23.669 29.034 H 0.0 **** 0.0
4 H 96.767 25.39 28.848 H 0.0 **** 0.0
5 H 95.922 24.832 30.311 H 0.0 **** 0.0
@<TRIPOS>BOND
1 1 2 1
2 1 3 1
3 1 4 1
4 1 5 1
@<TRIPOS>MOLECULE
CH4
5 4
SMALL
USER_CHARGES


@<TRIPOS>ATOM
1 C 35.588 69.379 8.026 C 0.0 **** 0.0
2 H 35.747 68.736 7.16 H 0.0 **** 0.0
3 H 36.0 70.368 7.823 H 0.0 **** 0.0
4 H 36.085 68.949 8.895 H 0.0 **** 0.0
5 H 34.519 69.464 8.223 H 0.0 **** 0.0
@<TRIPOS>BOND
1 1 2 1
2 1 3 1
3 1 4 1
4 1 5 1
@<TRIPOS>MOLECULE
CH4
5 4
SMALL
USER_CHARGES


@<TRIPOS>ATOM
1 C 36.006 79.566 66.605 C 0.0 **** 0.0
2 H 36.42 79.225 67.554 H 0.0 **** 0.0
3 H 35.984 78.735 65.9 H 0.0 **** 0.0
4 H 36.628 80.366 66.205 H 0.0 **** 0.0
5 H 34.994 79.937 66.763 H 0.0 **** 0.0
@<TRIPOS>BOND
1 1 2 1
2 1 3 1
3 1 4 1
4 1 5 1
@<TRIPOS>MOLECULE
CH4
5 4
SMALL
USER_CHARGES


@<TRIPOS>ATOM
1 C 67.472 3.379 56.42 C 0.0 **** 0.0
2 H 67.389 3.451 55.335 H 0.0 **** 0.0
3 H 66.831 2.573 56.779 H 0.0 **** 0.0
4 H 67.16 4.32 56.872 H 0.0 **** 0.0
5 H 68.506 3.17 56.692 H 0.0 **** 0.0
@<TRIPOS>BOND
1 1 2 1
2 1 3 1
3 1 4 1
4 1 5 1
@<TRIPOS>MOLECULE
CH4
5 4
SMALL
USER_CHARGES


@<TRIPOS>ATOM
1 C 61.912 29.224 69.672 C 0.0 **** 0.0
2 H 61.826 29.541 70.711 H 0.0 **** 0.0
3 H 61.616 30.044 69.017 H 0.0 **** 0.0
4 H 61.26 28.367 69.499 H 0.0 **** 0.0
5 H 62.944 28.944 69.461 H 0.0 **** 0.0
@<TRIPOS>BOND
1 1 2 1
2 1 3 1
3 1 4 1
4 1 5 1
@<TRIPOS>MOLECULE
CH4
5 4
SMALL
USER_CHARGES


@<TRIPOS>ATOM
1 C 22.597 23.625 17.408 C 0.0 **** 0.0
2 H 22.167 23.75 18.402 H 0.0 **** 0.0
3 H 23.573 23.145 17.493 H 0.0 **** 0.0
4 H 22.712 24.601 16.937 H 0.0 **** 0.0
5 H 21.938 23.004 16.802 H 0.0 **** 0.0
@<TRIPOS>BOND
1 1 2 1
2 1 3 1
3 1 4 1
4 1 5 1
@<TRIPOS>MOLECULE
CH4
5 4
SMALL
USER_CHARGES


@<TRIPOS>ATOM
1 C 94.645 15.546 1.13 C 0.0 **** 0.0
2 H 95.375 16.311 0.868 H 0.0 **** 0.0
3 H 93.716 15.731 0.592 H 0.0 **** 0.0
4 H 94.457 15.577 2.203 H 0.0 **** 0.0
5 H 95.034 14.565 0.858 H 0.0 **** 0.0
@<TRIPOS>BOND
1 1 2 1
2 1 3 1
3 1 4 1
4 1 5 1
@<TRIPOS>MOLECULE
CH4
5 4
SMALL
USER_CHARGES


@<TRIPOS>ATOM
1 C 22.325 6.144 93.842 C 0.0 **** 0.0
2 H 22.934 6.667 93.105 H 0.0 **** 0.0
3 H 22.94 5.415 94.37 H 0.0 **** 0.0
4 H 21.505 5.632 93.338 H 0.0 **** 0.0
5 H 21.921 6.863 94.555 H 0.0 **** 0.0
@<TRIPOS>BOND
1 1 2 1
2 1 3 1
3 1 4 1
4 1 5 1
@<TRIPOS>MOLECULE
CH4
5 4
SMALL
USER_CHARGES


@<TRIPOS>ATOM
1 C 7.727 37.504 43.904 C 0.0 **** 0.0
2 H 8.174 36.548 43.632 H 0.0 **** 0.0
3 H 8.102 37.815 44.879 H 0.0 **** 0.0
4 H 6.643 37.398 43.947 H 0.0 **** 0.0
5 H 7.99 38.253 43.157 H 0.0 **** 0.0
@<TRIPOS>BOND
1 1 2 1
2 1 3 1
3 1 4 1
4 1 5 1
@<TRIPOS>MOLECULE
CH4
5 4
SMALL
USER_CHARGES


@<TRIPOS>ATOM
1 C 61.314 75.866 75.352 C 0.0 **** 0.0
2 H 62.394 75.976 75.254 H 0.0 **** 0.0
3 H 60.928 75.302 74.503 H 0.0 **** 0.0
4 H 60.849 76.852 75.376 H 0.0 **** 0.0
5 H 61.086 75.335 76.276 H 0.0 **** 0.0
@<TRIPOS>BOND
1 1 2 1
2 1 3 1
3 1 4 1
4 1 5 1
@<TRIPOS>MOLECULE
CH4
5 4
SMALL
USER_CHARGES


@<TRIPOS>ATOM
1 C 84.007 26.055 84.843 C 0.0 **** 0.0
2 H 84.6 26.516 84.053 H 0.0 **** 0.0
3 H 83.229 26.749 85.164 H 0.0 **** 0.0
4 H 84.652 25.816 85.689 H 0.0 **** 0.0
5 H 83.547 25.142 84.466 H 0.0 **** 0.0
@<TRIPOS>BOND
1 1 2 1
2 1 3 1
3 1 4 1
4 1 5 1
@<TRIPOS>MOLECULE
CH4
5 4
SMALL
USER_CHARGES


@<TRIPOS>ATOM
1 C 72.835 79.841 23.001 C 0.0 **** 0.0
2 H 72.064 79.711 22.242 H 0.0 **** 0.0
3 H 72.643 79.164 23.834 H 0.0 **** 0.0
4 H 72.824 80.87 23.358 H 0.0 **** 0.0
5 H 73.811 79.617 22.568 H 0.0 **** 0.0
@<TRIPOS>BOND
1 1 2 1
2 1 3 1
3 1 4 1
4 1 5 1
@<TRIPOS>MOLECULE
CH4
5 4
SMALL
USER_CHARGES


@<TRIPOS>ATOM
1 C 27.796 81.334 19.131 C 0.0 **** 0.0
2 H 28.699 80.759 19.335 H 0.0 **** 0.0
3 H 27.357 81.668 20.071 H 0.0 **** 0.0
4 H 27.08 80.708 18.597 H 0.0 **** 0.0
5 H 28.047 82.201 18.519 H 0.0 **** 0.0
@<TRIPOS>BOND
1 1 2 1
2 1 3 1
3 1 4 1
4 1 5 1
@<TRIPOS>MOLECULE
CH4
5 4
SMALL
USER_CHARGES


@<TRIPOS>ATOM
1 C 71.346 98.015 23.001 C 0.0 **** 0.0
2 H 71.667 97.423 23.858 H 0.0 **** 0.0
3 H 70.261 98.123 23.021 H 0.0 **** 0.0
4 H 71.645 97.514 22.081 H 0.0 **** 0.0
5 H 71.81 99.0 23.046 H 0.0 **** 0.0
@<TRIPOS>BOND
1 1 2 1
2 1 3 1
3 1 4 1
4 1 5 1
@<TRIPOS>MOLECULE
CH4
5 4
SMALL
USER_CHARGES


@<TRIPOS>ATOM
1 C 88.731 97.117 93.416 C 0.0 **** 0.0
2 H 89.501 97.888 93.444 H 0.0 **** 0.0
3 H 89.173 96.175 93.091 H 0.0 **** 0.0
4 H 87.948 97.411 92.717 H 0.0 **** 0.0
5 H 88.303 96.995 94.411 H 0.0 **** 0.0
@<TRIPOS>BOND
1 1 2 1
2 1 3 1
3 1 4 1
4 1 5 1
@<TRIPOS>MOLECULE
CH4
5 4
SMALL
USER_CHARGES


@<TRIPOS>ATOM
1 C 71.484 82.749 66.901 C 0.0 **** 0.0
2 H 71.552 81.683 67.113 H 0.0 **** 0.0
3 H 70.687 83.188 67.502 H 0.0 **** 0.0
4 H 71.264 82.896 65.843 H 0.0 **** 0.0
5 H 72.431 83.23 67.145 H 0.0 **** 0.0
@<TRIPOS>BOND
1 1 2 1
2 1 3 1
3 1 4 1
4 1 5 1
@<TRIPOS>MOLECULE
CH4
5 4
SMALL
USER_CHARGES


@<TRIPOS>ATOM
1 C 76.968 39.041 57.743 C 0.0 **** 0.0
2 H 77.305 39.355 58.731 H 0.0 **** 0.0
3 H 76.449 38.086 57.822 H 0.0 **** 0.0
4 H 77.829 38.935 57.083 H 0.0 **** 0.0
5 H 76.289 39.791 57.336 H 0.0 **** 0.0
@<TRIPOS>BOND
1 1 4 1
2 1 5 1
3 1 2 1
4 1 3 1
@<TRIPOS>MOLECULE
CH4
5 4
SMALL
USER_CHARGES


@<TRIPOS>ATOM
1 C 97.431 44.787 24.525 C 0.0 **** 0.0
2 H 98.039 44.625 23.635 H 0.0 **** 0.0
3 H 98.039 45.251 25.301 H 0.0 **** 0.0
4 H 97.051 43.83 24.884 H 0.0 **** 0.0
5 H 96.594 45.44 24.278 H 0.0 **** 0.0
@<TRIPOS>BOND
1 1 2 1
2 1 3 1
3 1 4 1
4 1 5 1
@<TRIPOS>MOLECULE
CH4
5 4
SMALL
USER_CHARGES


@<TRIPOS>ATOM
1 C 75.26 62.869 46.825 C 0.0 **** 0.0
2 H 74.284 62.76 47.298 H 0.0 **** 0.0
3 H 76.04 62.809 47.584 H 0.0 **** 0.0
4 H 75.314 63.835 46.323 H 0.0 **** 0.0
5 H 75.4 62.071 46.095 H 0.0 **** 0.0
@<TRIPOS>BOND
1 1 2 1
2 1 3 1
3 1 4 1
4 1 5 1
@<TRIPOS>MOLECULE
CH4
5 4
SMALL
USER_CHARGES


@<TRIPOS>ATOM
1 C 5.993 60.502 38.895 C 0.0 **** 0.0
2 H 6.037 61.531 38.54 H 0.0 **** 0.0
3 H 6.977 60.042 38.802 H 0.0 **** 0.0
4 H 5.272 59.942 38.299 H 0.0 **** 0.0
5 H 5.684 60.492 39.941 H 0.0 **** 0.0
@<TRIPOS>BOND
1 1 2 1
2 1 3 1
3 1 4 1
4 1 5 1
@<TRIPOS>MOLECULE
CH4
5 4
SMALL
USER_CHARGES


@<TRIPOS>ATOM
1 C 58.318 40.691 74.976 C 0.0 **** 0.0
2 H 58.125 40.806 76.043 H 0.0 **** 0.0
3 H 58.958 41.504 74.633 H 0.0 **** 0.0
4 H 57.374 40.717 74.432 H 0.0 **** 0.0
5 H 58.814 39.737 74.798 H 0.0 **** 0.0
@<TRIPOS>BOND
1 1 2 1
2 1 3 1
3 1 4 1
4 1 5 1
@<TRIPOS>MOLECULE
CH4
5 4
SMALL
USER_CHARGES


@<TRIPOS>ATOM
1 C 10.62 7.959 38.645 C 0.0 **** 0.0
2 H 10.484 7.658 37.606 H 0.0 **** 0.0
3 H 11.681 8.112 38.843 H 0.0 **** 0.0
4 H 10.236 7.178 39.301 H 0.0 **** 0.0
5 H 10.078 8.887 38.828 H 0.0 **** 0.0
@<TRIPOS>BOND
1 1 2 1
2 1 3 1
3 1 4 1
4 1 5 1
@<TRIPOS>MOLECULE
CH4
5 4
SMALL
USER_CHARGES


@<TRIPOS>ATOM
1 C 96.113 80.211 27.618 C 0.0 **** 0.0
2 H 96.072 80.095 26.535 H 0.0 **** 0.0
3 H 96.864 80.959 27.875 H 0.0 **** 0.0
4 H 96.377 79.258 28.075 H 0.0 **** 0.0
5 H 95.138 80.533 27.986 H 0.0 **** 0.0
@<TRIPOS>BOND
1 1 2 1
2 1 3 1
3 1 4 1
4 1 5 1
@<TRIPOS>MOLECULE
CH4
5 4
SMALL
USER_CHARGES


@<TRIPOS>ATOM
1 C 60.474 28.615 42.635 C 0.0 **** 0.0
2 H 60.388 28.578 43.721 H 0.0 **** 0.0
3 H 60.04 27.712 42.206 H 0.0 **** 0.0
4 H 61.526 28.681 42.356 H 0.0 **** 0.0
5 H 59.942 29.489 42.258 H 0.0 **** 0.0
@<TRIPOS>BOND
1 1 2 1
2 1 3 1
3 1 4 1
4 1 5 1
@<TRIPOS>MOLECULE
CH4
5 4
SMALL
USER_CHARGES


@<TRIPOS>ATOM
1 C 85.472 14.083 33.207 C 0.0 **** 0.0
2 H 85.975 13.419 32.503 H 0.0 **** 0.0
3 H 84.455 14.274 32.862 H 0.0 **** 0.0
4 H 86.017 15.024 33.271 H 0.0 **** 0.0
5 H 85.441 13.613 34.19 H 0.0 **** 0.0
@<TRIPOS>BOND
1 1 2 1
2 1 3 1
3 1 4 1
4 1 5 1
@<TRIPOS>MOLECULE
CH4
5 4
SMALL
USER_CHARGES


@<TRIPOS>ATOM
1 C 80.767 77.317 88.566 C 0.0 **** 0.0
2 H 81.433 76.476 88.76 H 0.0 **** 0.0
3 H 80.435 77.743 89.513 H 0.0 **** 0.0
4 H 79.903 76.972 87.999 H 0.0 **** 0.0
5 H 81.299 78.076 87.992 H 0.0 **** 0.0
@<TRIPOS>BOND
1 1 2 1
2 1 3 1
3 1 4 1
4 1 5 1
@<TRIPOS>MOLECULE
CH4
5 4
SMALL
USER_CHARGES


@<TRIPOS>ATOM
1 C 88.048 9.541 49.246 C 0.0 **** 0.0
2 H 88.889 9.945 48.683 H 0.0 **** 0.0
3 H 87.65 10.311 49.907 H 0.0 **** 0.0
4 H 88.384 8.69 49.84 H 0.0 **** 0.0
5 H 87.271 9.216 48.555 H 0.0 **** 0.0
@<TRIPOS>BOND
1 1 2 1
2 1 3 1
3 1 4 1
4 1 5 1
@<TRIPOS>MOLECULE
CH4
5 4
SMALL
USER_CHARGES


@<TRIPOS>ATOM
1 C 47.593 52.315 19.281 C 0.0 **** 0.0
2 H 47.638 52.459 20.36 H 0.0 **** 0.0
3 H 46.553 52.334 18.954 H 0.0 **** 0.0
4 H 48.037 51.353 19.024 H 0.0 **** 0.0
5 H 48.145 53.114 18.785 H 0.0 **** 0.0
@<TRIPOS>BOND
1 1 2 1
2 1 3 1
3 1 4 1
4 1 5 1
@<TRIPOS>MOLECULE
CH4
5 4
SMALL
USER_CHARGES


@<TRIPOS>ATOM
1 C 89.351 64.662 57.155 C 0.0 **** 0.0
2 H 90.286 64.336 57.61 H 0.0 **** 0.0
3 H 89.556 65.436 56.416 H 0.0 **** 0.0
4 H 88.692 65.061 57.927 H 0.0 **** 0.0
5 H 88.869 63.813 56.669 H 0.0 **** 0.0
@<TRIPOS>BOND
1 1 2 1
2 1 3 1
3 1 4 1
4 1 5 1
@<TRIPOS>MOLECULE
CH4
5 4
SMALL
USER_CHARGES


@<TRIPOS>ATOM
1 C 4.077 31.92 21.264 C 0.0 **** 0.0
2 H 4.852 31.39 21.817 H 0.0 **** 0.0
3 H 3.179 31.994 21.878 H 0.0 **** 0.0
4 H 3.848 31.375 20.348 H 0.0 **** 0.0
5 H 4.43 32.92 21.013 H 0.0 **** 0.0
@<TRIPOS>BOND
1 1 2 1
2 1 3 1
3 1 4 1
4 1 5 1
@<TRIPOS>MOLECULE
CH4
5 4
SMALL
USER_CHARGES


@<TRIPOS>ATOM
1 C 56.225 50.729 45.065 C 0.0 **** 0.0
2 H 56.135 50.716 46.151 H 0.0 **** 0.0
3 H 55.941 51.711 44.688 H 0.0 **** 0.0
4 H 55.569 49.971 44.637 H 0.0 **** 0.0
5 H 57.257 50.516 44.784 H 0.0 **** 0.0
@<TRIPOS>BOND
1 1 2 1
2 1 3 1
3 1 4 1
4 1 5 1
@<TRIPOS>MOLECULE
CH4
5 4
SMALL
USER_CHARGES


@<TRIPOS>ATOM
1 C 96.588 79.112 22.048 C 0.0 **** 0.0
2 H 95.577 79.024 22.447 H 0.0 **** 0.0
3 H 96.548 79.562 21.056 H 0.0 **** 0.0
4 H 97.039 78.122 21.981 H 0.0 **** 0.0
5 H 97.186 79.74 22.709 H 0.0 **** 0.0
@<TRIPOS>BOND
1 1 2 1
2 1 3 1
3 1 4 1
4 1 5 1
@<TRIPOS>MOLECULE
CH4
5 4
SMALL
USER_CHARGES


@<TRIPOS>ATOM
1 C 5.158 6.29 61.735 C 0.0 **** 0.0
2 H 4.461 6.653 60.979 H 0.0 **** 0.0
3 H 6.112 6.805 61.625 H 0.0 **** 0.0
4 H 5.306 5.218 61.607 H 0.0 **** 0.0
5 H 4.751 6.485 62.727 H 0.0 **** 0.0
@<TRIPOS>BOND
1 1 2 1
2 1 3 1
3 1 4 1
4 1 5 1
@<TRIPOS>MOLECULE
CH4
5 4
SMALL
USER_CHARGES


@<TRIPOS>ATOM
1 C 91.7 72.613 76.538 C 0.0 **** 0.0
2 H 92.644 72.622 75.992 H 0.0 **** 0.0
3 H 91.688 73.433 77.257 H 0.0 **** 0.0
4 H 91.596 71.665 77.066 H 0.0 **** 0.0
5 H 90.874 72.731 75.837 H 0.0 **** 0.0
@<TRIPOS>BOND
1 1 2 1
2 1 3 1
3 1 4 1
4 1 5 1
@<TRIPOS>MOLECULE
CH4
5 4
SMALL
USER_CHARGES


@<TRIPOS>ATOM
1 C 7.466 4.146 40.745 C 0.0 **** 0.0
2 H 7.776 3.264 41.305 H 0.0 **** 0.0
3 H 6.611 4.609 41.238 H 0.0 **** 0.0
4 H 7.188 3.853 39.732 H 0.0 **** 0.0
5 H 8.291 4.858 40.703 H 0.0 **** 0.0
@<TRIPOS>BOND
1 1 2 1
2 1 3 1
3 1 4 1
4 1 5 1
@<TRIPOS>MOLECULE
CH4
5 4
SMALL
USER_CHARGES


@<TRIPOS>ATOM
1 C 40.662 59.124 94.1 C 0.0 **** 0.0
2 H 39.641 59.02 93.732 H 0.0 **** 0.0
3 H 40.897 60.181 94.224 H 0.0 **** 0.0
4 H 41.352 58.68 93.383 H 0.0 **** 0.0
5 H 40.756 58.614 95.059 H 0.0 **** 0.0
@<TRIPOS>BOND
1 1 2 1
2 1 3 1
3 1 4 1
4 1 5 1
@<TRIPOS>MOLECULE
CH4
5 4
SMALL
USER_CHARGES


@<TRIPOS>ATOM
1 C 73.415 69.813 2.942 C 0.0 **** 0.0
2 H 74.172 69.592 2.189 H 0.0 **** 0.0
3 H 73.152 68.897 3.471 H 0.0 **** 0.0
4 H 72.528 70.22 2.456 H 0.0 **** 0.0
5 H 73.809 70.542 3.65 H 0.0 **** 0.0
@<TRIPOS>BOND
1 1 2 1
2 1 3 1
3 1 4 1
4 1 5 1
@<TRIPOS>MOLECULE
CH4
5 4
SMALL
USER_CHARGES


@<TRIPOS>ATOM
1 C 84.99 11.529 12.262 C 0.0 **** 0.0
2 H 85.331 10.502 12.394 H 0.0 **** 0.0
3 H 84.257 11.568 11.457 H 0.0 **** 0.0
4 H 85.84 12.163 12.011 H 0.0 **** 0.0
5 H 84.534 11.882 13.187 H 0.0 **** 0.0
@<TRIPOS>BOND
1 1 2 1
2 1 3 1
3 1 4 1
4 1 5 1
@<TRIPOS>MOLECULE
CH4
5 4
SMALL
USER_CHARGES


@<TRIPOS>ATOM
1 C 18.705 89.072 85.055 C 0.0 **** 0.0
2 H 18.104 89.408 84.21 H 0.0 **** 0.0
3 H 18.36 88.09 85.379 H 0.0 **** 0.0
4 H 18.605 89.782 85.877 H 0.0 **** 0.0
5 H 19.751 89.01 84.755 H 0.0 **** 0.0
@<TRIPOS>BOND
1 1 2 1
2 1 3 1
3 1 4 1
4 1 5 1
@<TRIPOS>MOLECULE
CH4
5 4
SMALL
USER_CHARGES


@<TRIPOS>ATOM
1 C 83.614 71.11 78.541 C 0.0 **** 0.0
2 H 82.999 71.725 79.199 H 0.0 **** 0.0
3 H 83.738 71.615 77.583 H 0.0 **** 0.0
4 H 83.129 70.147 78.385 H 0.0 **** 0.0
5 H 84.591 70.955 78.999 H 0.0 **** 0.0
@<TRIPOS>BOND
1 1 2 1
2 1 3 1
3 1 4 1
4 1 5 1
@<TRIPOS>MOLECULE
CH4
5 4
SMALL
USER_CHARGES


@<TRIPOS>ATOM
1 C 72.512 11.377 28.5 C 0.0 **** 0.0
2 H 71.793 10.656 28.112 H 0.0 **** 0.0
3 H 72.04 11.979 29.276 H 0.0 **** 0.0
4 H 72.848 12.026 27.691 H 0.0 **** 0.0
5 H 73.367 10.847 28.92 H 0.0 **** 0.0
@<TRIPOS>BOND
1 1 2 1
2 1 3 1
3 1 4 1
4 1 5 1
@<TRIPOS>MOLECULE
CH4
5 4
SMALL
USER_CHARGES


@<TRIPOS>ATOM
1 C 48.137 6.059 27.19 C 0.0 **** 0.0
2 H 48.815 6.387 26.402 H 0.0 **** 0.0
3 H 48.716 5.716 28.048 H 0.0 **** 0.0
4 H 47.518 5.242 26.819 H 0.0 **** 0.0
5 H 47.5 6.89 27.49 H 0.0 **** 0.0
@<TRIPOS>BOND
1 1 2 1
2 1 3 1
3 1 4 1
4 1 5 1
@<TRIPOS>MOLECULE
CH4
5 4
SMALL
USER_CHARGES


@<TRIPOS>ATOM
1 C 36.728 90.542 94.407 C 0.0 **** 0.0
2 H 36.159 90.086 93.597 H 0.0 **** 0.0
3 H 37.794 90.46 94.192 H 0.0 **** 0.0
4 H 36.504 90.028 95.342 H 0.0 **** 0.0
5 H 36.454 91.594 94.496 H 0.0 **** 0.0
@<TRIPOS>BOND
1 1 2 1
2 1 3 1
3 1 4 1
4 1 5 1
@<TRIPOS>MOLECULE
CH4
5 4
SMALL
USER_CHARGES


@<TRIPOS>ATOM
1 C 78.327 30.762 90.352 C 0.0 **** 0.0
2 H 79.194 30.376 90.888 H 0.0 **** 0.0
3 H 77.976 31.672 90.839 H 0.0 **** 0.0
4 H 77.533 30.015 90.36 H 0.0 **** 0.0
5 H 78.607 30.984 89.323 H 0.0 **** 0.0
@<TRIPOS>BOND
1 1 2 1
2 1 3 1
3 1 4 1
4 1 5 1
@<TRIPOS>MOLECULE
CH4
5 4
SMALL
USER_CHARGES


@<TRIPOS>ATOM
1 C 17.937 0.692 7.791 C 0.0 **** 0.0
2 H 18.89 0.388 8.223 H 0.0 **** 0.0
3 H 17.168 0.684 8.563 H 0.0 **** 0.0
4 H 17.661 0.0 6.995 H 0.0 **** 0.0
5 H 18.029 1.698 7.381 H 0.0 **** 0.0
@<TRIPOS>BOND
1 1 2 1
2 1 3 1
3 1 4 1
4 1 5 1
@<TRIPOS>MOLECULE
CH4
5 4
SMALL
USER_CHARGES


@<TRIPOS>ATOM
1 C 57.73 13.099 87.885 C 0.0 **** 0.0
2 H 58.41 13.381 87.081 H 0.0 **** 0.0
3 H 56.701 13.186 87.536 H 0.0 **** 0.0
4 H 57.882 13.76 88.738 H 0.0 **** 0.0
5 H 57.927 12.069 88.183 H 0.0 **** 0.0
@<TRIPOS>BOND
1 1 2 1
2 1 3 1
3 1 4 1
4 1 5 1
@<TRIPOS>MOLECULE
CH4
5 4
SMALL
USER_CHARGES


@<TRIPOS>ATOM
1 C 40.953 1.544 83.441 C 0.0 **** 0.0
2 H 42.02 1.651 83.243 H 0.0 **** 0.0
3 H 40.69 0.486 83.449 H 0.0 **** 0.0
4 H 40.387 2.054 82.661 H 0.0 **** 0.0
5 H 40.718 1.985 84.409 H 0.0 **** 0.0
@<TRIPOS>BOND
1 1 2 1
2 1 3 1
3 1 4 1
4 1 5 1
@<TRIPOS>MOLECULE
CH4
5 4
SMALL
USER_CHARGES


@<TRIPOS>ATOM
1 C 89.382 15.215 57.39 C 0.0 **** 0.0
2 H 90.278 15.805 57.2 H 0.0 **** 0.0
3 H 89.625 14.389 58.058 H 0.0 **** 0.0
4 H 89.0 14.821 56.448 H 0.0 **** 0.0
5 H 88.623 15.846 57.853 H 0.0 **** 0.0
@<TRIPOS>BOND
1 1 2 1
2 1 3 1
3 1 4 1
4 1 5 1
@<TRIPOS>MOLECULE
CH4
5 4
SMALL
USER_CHARGES


@<TRIPOS>ATOM
1 C 35.483 62.807 30.677 C 0.0 **** 0.0
2 H 36.242 63.426 31.155 H 0.0 **** 0.0
3 H 35.257 63.208 29.689 H 0.0 **** 0.0
4 H 34.578 62.807 31.285 H 0.0 **** 0.0
5 H 35.855 61.787 30.58 H 0.0 **** 0.0
@<TRIPOS>BOND
1 1 2 1
2 1 3 1
3 1 4 1
4 1 5 1
@<TRIPOS>MOLECULE
CH4
5 4
SMALL
USER_CHARGES


@<TRIPOS>ATOM
1 C 21.418 62.385 28.728 C 0.0 **** 0.0
2 H 20.778 62.64 29.573 H 0.0 **** 0.0
3 H 21.51 61.301 28.658 H 0.0 **** 0.0
4 H 22.404 62.825 28.873 H 0.0 **** 0.0
5 H 20.978 62.773 27.809 H 0.0 **** 0.0
@<TRIPOS>BOND
1 1 4 1
2 1 5 1
3 1 2 1
4 1 3 1
@<TRIPOS>MOLECULE
CH4
5 4
SMALL
USER_CHARGES


@<TRIPOS>ATOM
1 C 1.202 98.016 30.527 C 0.0 **** 0.0
2 H 1.171 99.0 30.06 H 0.0 **** 0.0
3 H 1.141 97.247 29.756 H 0.0 **** 0.0
4 H 0.361 97.912 31.212 H 0.0 **** 0.0
5 H 2.136 97.905 31.078 H 0.0 **** 0.0
@<TRIPOS>BOND
1 1 2 1
2 1 3 1
3 1 5 1
4 1 4 1
@<TRIPOS>MOLECULE
CH4
5 4
SMALL
USER_CHARGES


@<TRIPOS>ATOM
1 C 18.918 81.582 78.978 C 0.0 **** 0.0
2 H 19.002 82.664 78.871 H 0.0 **** 0.0
3 H 18.1 81.348 79.66 H 0.0 **** 0.0
4 H 19.851 81.183 79.377 H 0.0 **** 0.0
5 H 18.719 81.135 78.004 H 0.0 **** 0.0
@<TRIPOS>BOND
1 1 2 1
2 1 3 1
3 1 4 1
4 1 5 1
@<TRIPOS>MOLECULE
CH4
5 4
SMALL
USER_CHARGES


@<TRIPOS>ATOM
1 C 78.178 57.421 40.31 C 0.0 **** 0.0
2 H 77.968 56.429 40.71 H 0.0 **** 0.0
3 H 78.956 57.349 39.55 H 0.0 **** 0.0
4 H 78.515 58.074 41.115 H 0.0 **** 0.0
5 H 77.272 57.832 39.864 H 0.0 **** 0.0
@<TRIPOS>BOND
1 1 2 1
2 1 3 1
3 1 4 1
4 1 5 1
@<TRIPOS>MOLECULE
CH4
5 4
SMALL
USER_CHARGES


@<TRIPOS>ATOM
1 C 57.201 75.498 10.243 C 0.0 **** 0.0
2 H 57.789 75.135 9.4 H 0.0 **** 0.0
3 H 57.683 75.204 11.175 H 0.0 **** 0.0
4 H 56.2 75.069 10.199 H 0.0 **** 0.0
5 H 57.133 76.585 10.196 H 0.0 **** 0.0
@<TRIPOS>BOND
1 1 2 1
2 1 3 1
3 1 4 1
4 1 5 1
@<TRIPOS>MOLECULE
CH4
5 4
SMALL
USER_CHARGES


@<TRIPOS>ATOM
1 C 60.871 55.242 86.874 C 0.0 **** 0.0
2 H 60.994 55.245 85.791 H 0.0 **** 0.0
3 H 60.528 54.259 87.198 H 0.0 **** 0.0
4 H 60.135 55.995 87.158 H 0.0 **** 0.0
5 H 61.825 55.469 87.349 H 0.0 **** 0.0
@<TRIPOS>BOND
1 1 2 1
2 1 3 1
3 1 4 1
4 1 5 1
@<TRIPOS>MOLECULE
CH4
5 4
SMALL
USER_CHARGES


@<TRIPOS>ATOM
1 C 61.039 59.733 76.732 C 0.0 **** 0.0
2 H 62.064 59.817 77.094 H 0.0 **** 0.0
3 H 60.379 60.323 77.368 H 0.0 **** 0.0
4 H 60.73 58.688 76.757 H 0.0 **** 0.0
5 H 60.985 60.103 75.708 H 0.0 **** 0.0
@<TRIPOS>BOND
1 1 2 1
2 1 3 1
3 1 4 1
4 1 5 1
@<TRIPOS>MOLECULE
CH4
5 4
SMALL
USER_CHARGES


@<TRIPOS>ATOM
1 C 90.236 63.792 38.521 C 0.0 **** 0.0
2 H 91.081 64.221 37.982 H 0.0 **** 0.0
3 H 89.762 64.564 39.127 H 0.0 **** 0.0
4 H 90.589 62.988 39.167 H 0.0 **** 0.0
5 H 89.514 63.394 37.808 H 0.0 **** 0.0
@<TRIPOS>BOND
1 1 2 1
2 1 3 1
3 1 4 1
4 1 5 1
@<TRIPOS>MOLECULE
CH4
5 4
SMALL
USER_CHARGES


@<TRIPOS>ATOM
1 C 50.667 15.55 89.041 C 0.0 **** 0.0
2 H 50.224 16.42 88.558 H 0.0 **** 0.0
3 H 50.389 14.649 88.492 H 0.0 **** 0.0
4 H 50.303 15.478 90.066 H 0.0 **** 0.0
5 H 51.752 15.651 89.047 H 0.0 **** 0.0
@<TRIPOS>BOND
1 1 2 1
2 1 3 1
3 1 4 1
4 1 5 1
@<TRIPOS>MOLECULE
CH4
5 4
SMALL
USER_CHARGES


@<TRIPOS>ATOM
1 C 63.775 8.207 47.666 C 0.0 **** 0.0
2 H 63.702 8.638 48.664 H 0.0 **** 0.0
3 H 64.382 7.302 47.705 H 0.0 **** 0.0
4 H 64.239 8.927 46.991 H 0.0 **** 0.0
5 H 62.777 7.96 47.303 H 0.0 **** 0.0
@<TRIPOS>BOND
1 1 2 1
2 1 3 1
3 1 4 1
4 1 5 1
@<TRIPOS>MOLECULE
CH4
5 4
SMALL
USER_CHARGES


@<TRIPOS>ATOM
1 C 66.135 63.201 61.408 C 0.0 **** 0.0
2 H 66.027 62.834 60.387 H 0.0 **** 0.0
3 H 66.992 62.719 61.878 H 0.0 **** 0.0
4 H 65.232 62.969 61.973 H 0.0 **** 0.0
5 H 66.287 64.28 61.391 H 0.0 **** 0.0
@<TRIPOS>BOND
1 1 2 1
2 1 3 1
3 1 4 1
4 1 5 1
@<TRIPOS>MOLECULE
CH4
5 4
SMALL
USER_CHARGES


@<TRIPOS>ATOM
1 C 61.571 84.299 85.635 C 0.0 **** 0.0
2 H 60.511 84.141 85.434 H 0.0 **** 0.0
3 H 61.81 85.355 85.511 H 0.0 **** 0.0
4 H 62.165 83.707 84.939 H 0.0 **** 0.0
5 H 61.796 83.992 86.656 H 0.0 **** 0.0
@<TRIPOS>BOND
1 1 2 1
2 1 3 1
3 1 4 1
4 1 5 1
@<TRIPOS>MOLECULE
CH4
5 4
SMALL
USER_CHARGES


@<TRIPOS>ATOM
1 C 63.447 48.127 11.478 C 0.0 **** 0.0
2 H 62.954 47.386 10.848 H 0.0 **** 0.0
3 H 63.113 48.006 12.509 H 0.0 **** 0.0
4 H 63.192 49.127 11.128 H 0.0 **** 0.0
5 H 64.526 47.987 11.426 H 0.0 **** 0.0
@<TRIPOS>BOND
1 1 2 1
2 1 3 1
3 1 4 1
4 1 5 1
@<TRIPOS>MOLECULE
CH4
5 4
SMALL
USER_CHARGES


@<TRIPOS>ATOM
1 C 75.584 83.566 77.595 C 0.0 **** 0.0
2 H 75.936 84.596 77.649 H 0.0 **** 0.0
3 H 75.054 83.412 76.655 H 0.0 **** 0.0
4 H 74.911 83.368 78.429 H 0.0 **** 0.0
5 H 76.437 82.889 77.647 H 0.0 **** 0.0
@<TRIPOS>BOND
1 1 2 1
2 1 3 1
3 1 4 1
4 1 5 1
@<TRIPOS>MOLECULE
CH4
5 4
SMALL
USER_CHARGES


@<TRIPOS>ATOM
1 C 65.576 10.193 62.957 C 0.0 **** 0.0
2 H 65.537 10.196 61.867 H 0.0 **** 0.0
3 H 65.63 11.219 63.321 H 0.0 **** 0.0
4 H 66.458 9.643 63.287 H 0.0 **** 0.0
5 H 64.68 9.714 63.351 H 0.0 **** 0.0
@<TRIPOS>BOND
1 1 2 1
2 1 3 1
3 1 4 1
4 1 5 1
@<TRIPOS>MOLECULE
CH4
5 4
SMALL
USER_CHARGES


@<TRIPOS>ATOM
1 C 64.399 20.433 89.317 C 0.0 **** 0.0
2 H 65.027 19.795 88.695 H 0.0 **** 0.0
3 H 64.326 20.007 90.318 H 0.0 **** 0.0
4 H 63.403 20.501 88.878 H 0.0 **** 0.0
5 H 64.839 21.428 89.376 H 0.0 **** 0.0
@<TRIPOS>BOND
1 1 2 1
2 1 3 1
3 1 4 1
4 1 5 1
@<TRIPOS>MOLECULE
CH4
5 4
SMALL
USER_CHARGES


@<TRIPOS>ATOM
1 C 57.607 47.348 97.247 C 0.0 **** 0.0
2 H 56.637 47.763 97.523 H 0.0 **** 0.0
3 H 58.354 48.142 97.248 H 0.0 **** 0.0
4 H 57.544 46.909 96.251 H 0.0 **** 0.0
5 H 57.891 46.58 97.966 H 0.0 **** 0.0
@<TRIPOS>BOND
1 1 2 1
2 1 3 1
3 1 4 1
4 1 5 1
@<TRIPOS>MOLECULE
CH4
5 4
SMALL
USER_CHARGES


@<TRIPOS>ATOM
1 C 68.123 89.57 8.572 C 0.0 **** 0.0
2 H 68.383 90.609 8.369 H 0.0 **** 0.0
3 H 67.063 89.415 8.371 H 0.0 **** 0.0
4 H 68.333 89.34 9.616 H 0.0 **** 0.0
5 H 68.714 88.916 7.93 H 0.0 **** 0.0
@<TRIPOS>BOND
1 1 2 1
2 1 3 1
3 1 4 1
4 1 5 1
@<TRIPOS>MOLECULE
CH4
5 4
SMALL
USER_CHARGES


@<TRIPOS>ATOM
1 C 61.948 90.535 94.279 C 0.0 **** 0.0
2 H 62.716 89.976 94.813 H 0.0 **** 0.0
3 H 62.315 90.801 93.288 H 0.0 **** 0.0
4 H 61.707 91.442 94.834 H 0.0 **** 0.0
5 H 61.053 89.92 94.182 H 0.0 **** 0.0
@<TRIPOS>BOND
1 1 2 1
2 1 3 1
3 1 4 1
4 1 5 1
@<TRIPOS>MOLECULE
CH4
5 4
SMALL
USER_CHARGES


@<TRIPOS>ATOM
1 C 48.027 32.872 16.924 C 0.0 **** 0.0
2 H 47.048 32.413 17.066 H 0.0 **** 0.0
3 H 48.716 32.496 17.68 H 0.0 **** 0.0
4 H 47.937 33.954 17.019 H 0.0 **** 0.0
5 H 48.404 32.624 15.932 H 0.0 **** 0.0
@<TRIPOS>BOND
1 1 2 1
2 1 3 1
3 1 4 1
4 1 5 1
@<TRIPOS>MOLECULE
CH4
5 4
SMALL
USER_CHARGES


@<TRIPOS>ATOM
1 C 59.633 75.665 86.263 C 0.0 **** 0.0
2 H 60.705 75.836 86.363 H 0.0 **** 0.0
3 H 59.341 74.817 86.882 H 0.0 **** 0.0
4 H 59.395 75.454 85.22 H 0.0 **** 0.0
5 H 59.093 76.555 86.585 H 0.0 **** 0.0
@<TRIPOS>BOND
1 1 2 1
2 1 3 1
3 1 4 1
4 1 5 1
@<TRIPOS>MOLECULE
CH4
5 4
SMALL
USER_CHARGES


@<TRIPOS>ATOM
1 C 25.434 48.001 81.48 C 0.0 **** 0.0
2 H 26.211 47.745 80.759 H 0.0 **** 0.0
3 H 25.688 48.943 81.967 H 0.0 **** 0.0
4 H 25.358 47.213 82.228 H 0.0 **** 0.0
5 H 24.48 48.105 80.963 H 0.0 **** 0.0
@<TRIPOS>BOND
1 1 2 1
2 1 3 1
3 1 4 1
4 1 5 1
@<TRIPOS>MOLECULE
CH4
5 4
SMALL
USER_CHARGES


@<TRIPOS>ATOM
1 C 70.319 55.968 76.938 C 0.0 **** 0.0
2 H 69.247 55.808 77.055 H 0.0 **** 0.0
3 H 70.78 56.071 77.921 H 0.0 **** 0.0
4 H 70.49 56.875 76.359 H 0.0 **** 0.0
5 H 70.758 55.117 76.418 H 0.0 **** 0.0
@<TRIPOS>BOND
1 1 2 1
2 1 3 1
3 1 4 1
4 1 5 1
@<TRIPOS>MOLECULE
CH4
5 4
SMALL
USER_CHARGES


@<TRIPOS>ATOM
1 C 39.799 78.796 90.42 C 0.0 **** 0.0
2 H 38.812 78.673 89.973 H 0.0 **** 0.0
3 H 39.755 78.53 91.476 H 0.0 **** 0.0
4 H 40.117 79.833 90.319 H 0.0 **** 0.0
5 H 40.511 78.146 89.911 H 0.0 **** 0.0
@<TRIPOS>BOND
1 1 2 1
2 1 3 1
3 1 4 1
4 1 5 1
@<TRIPOS>MOLECULE
CH4
5 4
SMALL
USER_CHARGES


@<TRIPOS>ATOM
1 C 34.886 5.261 89.121 C 0.0 **** 0.0
2 H 34.856 5.193 88.034 H 0.0 **** 0.0
3 H 34.223 6.06 89.453 H 0.0 **** 0.0
4 H 35.905 5.476 89.443 H 0.0 **** 0.0
5 H 34.561 4.315 89.553 H 0.0 **** 0.0
@<TRIPOS>BOND
1 1 2 1
2 1 3 1
3 1 4 1
4 1 5 1
@<TRIPOS>MOLECULE
CH4
5 4
SMALL
USER_CHARGES


@<TRIPOS>ATOM
1 C 75.01 51.283 29.288 C 0.0 **** 0.0
2 H 75.026 51.248 28.199 H 0.0 **** 0.0
3 H 75.339 50.323 29.687 H 0.0 **** 0.0
4 H 73.997 51.491 29.63 H 0.0 **** 0.0
5 H 75.68 52.07 29.635 H 0.0 **** 0.0
@<TRIPOS>BOND
1 1 2 1
2 1 3 1
3 1 4 1
4 1 5 1
@<TRIPOS>MOLECULE
CH4
5 4
SMALL
USER_CHARGES


@<TRIPOS>ATOM
1 C 66.422 29.788 17.358 C 0.0 **** 0.0
2 H 66.987 30.001 18.265 H 0.0 **** 0.0
3 H 66.687 30.511 16.587 H 0.0 **** 0.0
4 H 65.355 29.857 17.571 H 0.0 **** 0.0
5 H 66.658 28.782 17.011 H 0.0 **** 0.0
@<TRIPOS>BOND
1 1 2 1
2 1 3 1
3 1 4 1
4 1 5 1
@<TRIPOS>MOLECULE
CH4
5 4
SMALL
USER_CHARGES


@<TRIPOS>ATOM
1 C 9.332 72.349 9.773 C 0.0 **** 0.0
2 H 8.72 73.103 10.267 H 0.0 **** 0.0
3 H 10.004 71.893 10.5 H 0.0 **** 0.0
4 H 9.917 72.818 8.981 H 0.0 **** 0.0
5 H 8.688 71.582 9.343 H 0.0 **** 0.0
@<TRIPOS>BOND
1 1 2 1
2 1 3 1
3 1 4 1
4 1 5 1
@<TRIPOS>MOLECULE
CH4
5 4
SMALL
USER_CHARGES


@<TRIPOS>ATOM
1 C 56.098 77.268 33.506 C 0.0 **** 0.0
2 H 56.075 76.344 32.929 H 0.0 **** 0.0
3 H 56.395 78.094 32.859 H 0.0 **** 0.0
4 H 56.816 77.169 34.321 H 0.0 **** 0.0
5 H 55.108 77.465 33.916 H 0.0 **** 0.0
@<TRIPOS>BOND
1 1 2 1
2 1 3 1
3 1 4 1
4 1 5 1
@<TRIPOS>MOLECULE
CH4
5 4
SMALL
USER_CHARGES


@<TRIPOS>ATOM
1 C 31.373 64.869 26.176 C 0.0 **** 0.0
2 H 32.088 64.264 26.736 H 0.0 **** 0.0
3 H 31.207 65.811 26.699 H 0.0 **** 0.0
4 H 30.43 64.329 26.09 H 0.0 **** 0.0
5 H 31.769 65.07 25.181 H 0.0 **** 0.0
@<TRIPOS>BOND
1 1 2 1
2 1 3 1
3 1 4 1
4 1 5 1
@<TRIPOS>MOLECULE
CH4
5 4
SMALL
USER_CHARGES


@<TRIPOS>ATOM
1 C 85.743 85.995 98.247 C 0.0 **** 0.0
2 H 86.363 86.674 98.833 H 0.0 **** 0.0
3 H 84.699 86.301 98.323 H 0.0 **** 0.0
4 H 85.854 84.981 98.629 H 0.0 **** 0.0
5 H 86.056 86.027 97.203 H 0.0 **** 0.0
@<TRIPOS>BOND
1 1 5 1
2 1 2 1
3 1 3 1
4 1 4 1
@<TRIPOS>MOLECULE
CH4
5 4
SMALL
USER_CHARGES


@<TRIPOS>ATOM
1 C 93.83 38.456 23.617 C 0.0 **** 0.0
2 H 94.071 38.106 22.613 H 0.0 **** 0.0
3 H 93.763 39.545 23.614 H 0.0 **** 0.0
4 H 94.61 38.141 24.309 H 0.0 **** 0.0
5 H 92.875 38.034 23.929 H 0.0 **** 0.0
@<TRIPOS>BOND
1 1 2 1
2 1 3 1
3 1 4 1
4 1 5 1
@<TRIPOS>MOLECULE
CH4
5 4
SMALL
USER_CHARGES


@<TRIPOS>ATOM
1 C 95.558 64.689 5.878 C 0.0 **** 0.0
2 H 95.572 64.604 4.792 H 0.0 **** 0.0
3 H 95.569 63.693 6.321 H 0.0 **** 0.0
4 H 94.656 65.216 6.19 H 0.0 **** 0.0
5 H 96.436 65.244 6.21 H 0.0 **** 0.0
@<TRIPOS>BOND
1 1 2 1
2 1 3 1
3 1 4 1
4 1 5 1
@<TRIPOS>MOLECULE
CH4
5 4
SMALL
USER_CHARGES


@<TRIPOS>ATOM
1 C 68.587 1.659 47.519 C 0.0 **** 0.0
2 H 68.288 2.343 46.725 H 0.0 **** 0.0
3 H 69.334 0.963 47.136 H 0.0 **** 0.0
4 H 67.716 1.103 47.866 H 0.0 **** 0.0
5 H 69.009 2.227 48.348 H 0.0 **** 0.0
@<TRIPOS>BOND
1 1 2 1
2 1 3 1
3 1 4 1
4 1 5 1
@<TRIPOS>MOLECULE
CH4
5 4
SMALL
USER_CHARGES


@<TRIPOS>ATOM
1 C 66.535 32.02 20.153 C 0.0 **** 0.0
2 H 66.382 32.716 20.977 H 0.0 **** 0.0
3 H 66.501 32.563 19.208 H 0.0 **** 0.0
4 H 65.75 31.264 20.166 H 0.0 **** 0.0
5 H 67.506 31.537 20.26 H 0.0 **** 0.0
@<TRIPOS>BOND
1 1 5 1
2 1 2 1
3 1 3 1
4 1 4 1
@<TRIPOS>MOLECULE
CH4
5 4
SMALL
USER_CHARGES


@<TRIPOS>ATOM
1 C 65.675 96.634 33.152 C 0.0 **** 0.0
2 H 65.82 96.695 32.074 H 0.0 **** 0.0
3 H 65.182 97.541 33.504 H 0.0 **** 0.0
4 H 66.643 96.533 33.643 H 0.0 **** 0.0
5 H 65.056 95.768 33.387 H 0.0 **** 0.0
@<TRIPOS>BOND
1 1 2 1
2 1 3 1
3 1 4 1
4 1 5 1
@<TRIPOS>MOLECULE
CH4
5 4
SMALL
USER_CHARGES


@<TRIPOS>ATOM
1 C 17.124 22.716 24.466 C 0.0 **** 0.0
2 H 17.855 23.473 24.18 H 0.0 **** 0.0
3 H 16.264 22.771 23.798 H 0.0 **** 0.0
4 H 16.8 22.895 25.492 H 0.0 **** 0.0
5 H 17.578 21.728 24.396 H 0.0 **** 0.0
@<TRIPOS>BOND
1 1 2 1
2 1 3 1
3 1 4 1
4 1 5 1
@<TRIPOS>MOLECULE
CH4
5 4
SMALL
USER_CHARGES


@<TRIPOS>ATOM
1 C 56.466 30.5 75.566 C 0.0 **** 0.0
2 H 56.495 30.193 76.612 H 0.0 **** 0.0
3 H 55.793 31.351 75.457 H 0.0 **** 0.0
4 H 56.108 29.672 74.955 H 0.0 **** 0.0
5 H 57.467 30.784 75.243 H 0.0 **** 0.0
@<TRIPOS>BOND
1 1 2 1
2 1 3 1
3 1 4 1
4 1 5 1
@<TRIPOS>MOLECULE
CH4
5 4
SMALL
USER_CHARGES


@<TRIPOS>ATOM
1 C 62.347 97.21 82.194 C 0.0 **** 0.0
2 H 62.297 97.275 81.107 H 0.0 **** 0.0
3 H 61.621 96.479 82.549 H 0.0 **** 0.0
4 H 62.123 98.185 82.626 H 0.0 **** 0.0
5 H 63.349 96.902 82.493 H 0.0 **** 0.0
@<TRIPOS>BOND
1 1 2 1
2 1 3 1
3 1 4 1
4 1 5 1
@<TRIPOS>MOLECULE
CH4
5 4
SMALL
USER_CHARGES


@<TRIPOS>ATOM
1 C 50.462 12.453 40.741 C 0.0 **** 0.0
2 H 50.485 11.586 40.081 H 0.0 **** 0.0
3 H 49.605 13.078 40.491 H 0.0 **** 0.0
4 H 51.38 13.028 40.618 H 0.0 **** 0.0
5 H 50.378 12.119 41.776 H 0.0 **** 0.0
@<TRIPOS>BOND
1 1 2 1
2 1 3 1
3 1 4 1
4 1 5 1
@<TRIPOS>MOLECULE
CH4
5 4
SMALL
USER_CHARGES


@<TRIPOS>ATOM
1 C 23.031 7.539 88.98 C 0.0 **** 0.0
2 H 23.428 6.528 88.886 H 0.0 **** 0.0
3 H 22.378 7.593 89.851 H 0.0 **** 0.0
4 H 22.465 7.792 88.084 H 0.0 **** 0.0
5 H 23.856 8.242 89.099 H 0.0 **** 0.0
@<TRIPOS>BOND
1 1 2 1
2 1 3 1
3 1 4 1
4 1 5 1
@<TRIPOS>MOLECULE
CH4
5 4
SMALL
USER_CHARGES


@<TRIPOS>ATOM
1 C 18.114 89.453 81.281 C 0.0 **** 0.0
2 H 17.161 88.937 81.4 H 0.0 **** 0.0
3 H 18.8 89.136 82.067 H 0.0 **** 0.0
4 H 17.956 90.529 81.348 H 0.0 **** 0.0
5 H 18.54 89.208 80.308 H 0.0 **** 0.0
@<TRIPOS>BOND
1 1 2 1
2 1 3 1
3 1 4 1
4 1 5 1
@<TRIPOS>MOLECULE
CH4
5 4
SMALL
USER_CHARGES


@<TRIPOS>ATOM
1 C 78.417 18.929 56.029 C 0.0 **** 0.0
2 H 78.095 19.91 55.68 H 0.0 **** 0.0
3 H 79.044 18.461 55.27 H 0.0 **** 0.0
4 H 77.543 18.305 56.215 H 0.0 **** 0.0
5 H 78.987 19.042 56.952 H 0.0 **** 0.0
@<TRIPOS>BOND
1 1 2 1
2 1 3 1
3 1 4 1
4 1 5 1
@<TRIPOS>MOLECULE
CH4
5 4
SMALL
USER_CHARGES


@<TRIPOS>ATOM
1 C 78.789 42.712 10.113 C 0.0 **** 0.0
2 H 78.799 42.705 11.202 H 0.0 **** 0.0
3 H 79.753 43.064 9.744 H 0.0 **** 0.0
4 H 78.0 43.377 9.761 H 0.0 **** 0.0
5 H 78.605 41.703 9.744 H 0.0 **** 0.0
@<TRIPOS>BOND
1 1 2 1
2 1 3 1
3 1 4 1
4 1 5 1
@<TRIPOS>MOLECULE
CH4
5 4
SMALL
USER_CHARGES


@<TRIPOS>ATOM
1 C 87.586 85.841 57.557 C 0.0 **** 0.0
2 H 88.494 86.439 57.64 H 0.0 **** 0.0
3 H 86.78 86.458 57.158 H 0.0 **** 0.0
4 H 87.305 85.47 58.543 H 0.0 **** 0.0
5 H 87.765 84.999 56.889 H 0.0 **** 0.0
@<TRIPOS>BOND
1 1 2 1
2 1 3 1
3 1 4 1
4 1 5 1
@<TRIPOS>MOLECULE
CH4
5 4
SMALL
USER_CHARGES


@<TRIPOS>ATOM
1 C 68.229 56.206 69.493 C 0.0 **** 0.0
2 H 67.605 55.767 68.716 H 0.0 **** 0.0
3 H 67.621 56.854 70.125 H 0.0 **** 0.0
4 H 69.025 56.791 69.033 H 0.0 **** 0.0
5 H 68.665 55.413 70.1 H 0.0 **** 0.0
@<TRIPOS>BOND
1 1 2 1
2 1 3 1
3 1 4 1
4 1 5 1
@<TRIPOS>MOLECULE
CH4
5 4
SMALL
USER_CHARGES


@<TRIPOS>ATOM
1 C 83.786 95.692 63.283 C 0.0 **** 0.0
2 H 82.817 95.267 63.024 H 0.0 **** 0.0
3 H 83.812 95.915 64.35 H 0.0 **** 0.0
4 H 83.942 96.61 62.716 H 0.0 **** 0.0
5 H 84.573 94.978 63.041 H 0.0 **** 0.0
@<TRIPOS>BOND
1 1 2 1
2 1 3 1
3 1 4 1
4 1 5 1
@<TRIPOS>MOLECULE
CH4
5 4
SMALL
USER_CHARGES


@<TRIPOS>ATOM
1 C 5.15 38.532 3.797 C 0.0 **** 0.0
2 H 5.155 38.134 4.812 H 0.0 **** 0.0
3 H 5.809 39.398 3.743 H 0.0 **** 0.0
4 H 4.136 38.828 3.529 H 0.0 **** 0.0
5 H 5.5 37.765 3.106 H 0.0 **** 0.0
@<TRIPOS>BOND
1 1 2 1
2 1 3 1
3 1 4 1
4 1 5 1
@<TRIPOS>MOLECULE
CH4
5 4
SMALL
USER_CHARGES


@<TRIPOS>ATOM
1 C 6.03 77.657 43.652 C 0.0 **** 0.0
2 H 6.87 77.793 44.332 H 0.0 **** 0.0
3 H 6.184 76.755 43.061 H 0.0 **** 0.0
4 H 5.956 78.519 42.989 H 0.0 **** 0.0
5 H 5.109 77.562 44.228 H 0.0 **** 0.0
@<TRIPOS>BOND
1 1 2 1
2 1 3 1
3 1 4 1
4 1 5 1
@<TRIPOS>MOLECULE
CH4
5 4
SMALL
USER_CHARGES


@<TRIPOS>ATOM
1 C 32.509 63.292 50.19 C 0.0 **** 0.0
2 H 32.494 64.196 49.581 H 0.0 **** 0.0
3 H 33.336 62.656 49.875 H 0.0 **** 0.0
4 H 31.569 62.755 50.067 H 0.0 **** 0.0
5 H 32.638 63.563 51.238 H 0.0 **** 0.0
@<TRIPOS>BOND
1 1 2 1
2 1 3 1
3 1 4 1
4 1 5 1
@<TRIPOS>MOLECULE
CH4
5 4
SMALL
USER_CHARGES


@<TRIPOS>ATOM
1 C 73.824 49.675 63.199 C 0.0 **** 0.0
2 H 73.224 49.928 62.324 H 0.0 **** 0.0
3 H 73.193 49.188 63.943 H 0.0 **** 0.0
4 H 74.249 50.586 63.622 H 0.0 **** 0.0
5 H 74.628 49.001 62.905 H 0.0 **** 0.0
@<TRIPOS>BOND
1 1 2 1
2 1 3 1
3 1 4 1
4 1 5 1
@<TRIPOS>MOLECULE
CH4
5 4
SMALL
USER_CHARGES


@<TRIPOS>ATOM
1 C 28.969 95.16 16.483 C 0.0 **** 0.0
2 H 29.613 95.974 16.151 H 0.0 **** 0.0
3 H 29.56 94.433 17.041 H 0.0 **** 0.0
4 H 28.521 94.674 15.615 H 0.0 **** 0.0
5 H 28.182 95.558 17.123 H 0.0 **** 0.0
@<TRIPOS>BOND
1 1 4 1
2 1 5 1
3 1 2 1
4 1 3 1
@<TRIPOS>MOLECULE
CH4
5 4
SMALL
USER_CHARGES


@<TRIPOS>ATOM
1 C 78.02 65.254 43.513 C 0.0 **** 0.0
2 H 77.301 65.613 42.776 H 0.0 **** 0.0
3 H 78.995 65.135 43.039 H 0.0 **** 0.0
4 H 77.688 64.294 43.907 H 0.0 **** 0.0
5 H 78.096 65.975 44.327 H 0.0 **** 0.0
@<TRIPOS>BOND
1 1 2 1
2 1 3 1
3 1 4 1
4 1 5 1
@<TRIPOS>MOLECULE
CH4
5 4
SMALL
USER_CHARGES


@<TRIPOS>ATOM
1 C 34.972 5.336 79.828 C 0.0 **** 0.0
2 H 34.904 5.349 80.915 H 0.0 **** 0.0
3 H 35.398 6.277 79.479 H 0.0 **** 0.0
4 H 33.976 5.21 79.403 H 0.0 **** 0.0
5 H 35.608 4.509 79.513 H 0.0 **** 0.0
@<TRIPOS>BOND
1 1 2 1
2 1 3 1
3 1 4 1
4 1 5 1
@<TRIPOS>MOLECULE
CH4
5 4
SMALL
USER_CHARGES


@<TRIPOS>ATOM
1 C 95.272 66.091 15.518 C 0.0 **** 0.0
2 H 95.251 66.719 14.627 H 0.0 **** 0.0
3 H 95.146 66.714 16.403 H 0.0 **** 0.0
4 H 96.227 65.569 15.572 H 0.0 **** 0.0
5 H 94.462 65.363 15.467 H 0.0 **** 0.0
@<TRIPOS>BOND
1 1 2 1
2 1 3 1
3 1 4 1
4 1 5 1
@<TRIPOS>MOLECULE
CH4
5 4
SMALL
USER_CHARGES


@<TRIPOS>ATOM
1 C 54.173 75.979 67.578 C 0.0 **** 0.0
2 H 54.618 75.979 68.574 H 0.0 **** 0.0
3 H 54.897 76.359 66.857 H 0.0 **** 0.0
4 H 53.288 76.615 67.576 H 0.0 **** 0.0
5 H 53.89 74.961 67.308 H 0.0 **** 0.0
@<TRIPOS>BOND
1 1 2 1
2 1 3 1
3 1 4 1
4 1 5 1
@<TRIPOS>MOLECULE
CH4
5 4
SMALL
USER_CHARGES


@<TRIPOS>ATOM
1 C 7.233 17.581 67.895 C 0.0 **** 0.0
2 H 6.601 16.706 67.744 H 0.0 **** 0.0
3 H 6.699 18.474 67.571 H 0.0 **** 0.0
4 H 8.148 17.473 67.312 H 0.0 **** 0.0
5 H 7.485 17.67 68.952 H 0.0 **** 0.0
@<TRIPOS>BOND
1 1 2 1
2 1 3 1
3 1 4 1
4 1 5 1
@<TRIPOS>MOLECULE
CH4
5 4
SMALL
USER_CHARGES


@<TRIPOS>ATOM
1 C 75.334 70.105 77.599 C 0.0 **** 0.0
2 H 75.014 70.155 76.559 H 0.0 **** 0.0
3 H 74.879 70.924 78.158 H 0.0 **** 0.0
4 H 76.42 70.189 77.65 H 0.0 **** 0.0
5 H 75.022 69.154 78.03 H 0.0 **** 0.0
@<TRIPOS>BOND
1 1 2 1
2 1 3 1
3 1 4 1
4 1 5 1
@<TRIPOS>MOLECULE
CH4
5 4
SMALL
USER_CHARGES


@<TRIPOS>ATOM
1 C 74.678 65.058 49.257 C 0.0 **** 0.0
2 H 74.398 64.217 49.891 H 0.0 **** 0.0
3 H 74.506 64.798 48.212 H 0.0 **** 0.0
4 H 75.732 65.29 49.406 H 0.0 **** 0.0
5 H 74.074 65.927 49.519 H 0.0 **** 0.0
@<TRIPOS>BOND
1 1 2 1
2 1 3 1
3 1 4 1
4 1 5 1
@<TRIPOS>MOLECULE
CH4
5 4
SMALL
USER_CHARGES


@<TRIPOS>ATOM
1 C 74.397 2.816 98.213 C 0.0 **** 0.0
2 H 73.643 2.827 99.0 H 0.0 **** 0.0
3 H 75.211 3.49 98.48 H 0.0 **** 0.0
4 H 73.947 3.143 97.275 H 0.0 **** 0.0
5 H 74.785 1.804 98.096 H 0.0 **** 0.0
@<TRIPOS>BOND
1 1 2 1
2 1 3 1
3 1 4 1
4 1 5 1
@<TRIPOS>MOLECULE
CH4
5 4
SMALL
USER_CHARGES


@<TRIPOS>ATOM
1 C 54.588 13.794 25.958 C 0.0 **** 0.0
2 H 55.311 12.981 25.895 H 0.0 **** 0.0
3 H 55.115 14.747 26.006 H 0.0 **** 0.0
4 H 53.979 13.67 26.854 H 0.0 **** 0.0
5 H 53.946 13.778 25.078 H 0.0 **** 0.0
@<TRIPOS>BOND
1 1 2 1
2 1 3 1
3 1 4 1
4 1 5 1
@<TRIPOS>MOLECULE
CH4
5 4
SMALL
USER_CHARGES


@<TRIPOS>ATOM
1 C 79.147 1.657 50.447 C 0.0 **** 0.0
2 H 80.176 1.426 50.17 H 0.0 **** 0.0
3 H 79.114 2.623 50.95 H 0.0 **** 0.0
4 H 78.77 0.884 51.117 H 0.0 **** 0.0
5 H 78.529 1.693 49.549 H 0.0 **** 0.0
@<TRIPOS>BOND
1 1 2 1
2 1 3 1
3 1 4 1
4 1 5 1
@<TRIPOS>MOLECULE
CH4
5 4
SMALL
USER_CHARGES


@<TRIPOS>ATOM
1 C 98.185 2.473 59.004 C 0.0 **** 0.0
2 H 98.732 1.73 58.424 H 0.0 **** 0.0
3 H 97.434 2.946 58.372 H 0.0 **** 0.0
4 H 98.879 3.228 59.373 H 0.0 **** 0.0
5 H 97.697 1.986 59.848 H 0.0 **** 0.0
@<TRIPOS>BOND
1 1 2 1
2 1 3 1
3 1 4 1
4 1 5 1
@<TRIPOS>MOLECULE
CH4
5 4
SMALL
USER_CHARGES


@<TRIPOS>ATOM
1 C 89.508 13.197 69.703 C 0.0 **** 0.0
2 H 90.052 12.725 68.885 H 0.0 **** 0.0
3 H 89.666 14.275 69.669 H 0.0 **** 0.0
4 H 89.87 12.806 70.653 H 0.0 **** 0.0
5 H 88.444 12.982 69.602 H 0.0 **** 0.0
@<TRIPOS>BOND
1 1 2 1
2 1 3 1
3 1 4 1
4 1 5 1
@<TRIPOS>MOLECULE
CH4
5 4
SMALL
USER_CHARGES


@<TRIPOS>ATOM
1 C 66.903 19.58 33.187 C 0.0 **** 0.0
2 H 67.328 19.26 34.138 H 0.0 **** 0.0
3 H 67.327 18.98 32.38 H 0.0 **** 0.0
4 H 67.137 20.631 33.02 H 0.0 **** 0.0
5 H 65.822 19.447 33.209 H 0.0 **** 0.0
@<TRIPOS>BOND
1 1 2 1
2 1 3 1
3 1 4 1
4 1 5 1
@<TRIPOS>MOLECULE
CH4
5 4
SMALL
USER_CHARGES


@<TRIPOS>ATOM
1 C 36.849 86.504 57.904 C 0.0 **** 0.0
2 H 36.439 85.535 57.618 H 0.0 **** 0.0
3 H 36.09 87.274 57.763 H 0.0 **** 0.0
4 H 37.716 86.729 57.284 H 0.0 **** 0.0
5 H 37.149 86.476 58.952 H 0.0 **** 0.0
@<TRIPOS>BOND
1 1 2 1
2 1 3 1
3 1 4 1
4 1 5 1
@<TRIPOS>MOLECULE
CH4
5 4
SMALL
USER_CHARGES


@<TRIPOS>ATOM
1 C 75.198 19.003 12.201 C 0.0 **** 0.0
2 H 74.609 19.531 11.451 H 0.0 **** 0.0
3 H 74.544 18.674 13.009 H 0.0 **** 0.0
4 H 75.962 19.67 12.599 H 0.0 **** 0.0
5 H 75.675 18.136 11.743 H 0.0 **** 0.0
@<TRIPOS>BOND
1 1 2 1
2 1 3 1
3 1 4 1
4 1 5 1
@<TRIPOS>MOLECULE
CH4
5 4
SMALL
USER_CHARGES


@<TRIPOS>ATOM
1 C 3.593 71.877 72.278 C 0.0 **** 0.0
2 H 3.095 72.324 73.139 H 0.0 **** 0.0
3 H 3.719 72.63 71.5 H 0.0 **** 0.0
4 H 2.989 71.055 71.895 H 0.0 **** 0.0
5 H 4.571 71.5 72.58 H 0.0 **** 0.0
@<TRIPOS>BOND
1 1 2 1
2 1 3 1
3 1 4 1
4 1 5 1
@<TRIPOS>MOLECULE
CH4
5 4
SMALL
USER_CHARGES


@<TRIPOS>ATOM
1 C 36.968 25.943 87.374 C 0.0 **** 0.0
2 H 37.352 25.894 88.393 H 0.0 **** 0.0
3 H 36.22 26.732 87.306 H 0.0 **** 0.0
4 H 36.514 24.987 87.111 H 0.0 **** 0.0
5 H 37.787 26.157 86.688 H 0.0 **** 0.0
@<TRIPOS>BOND
1 1 3 1
2 1 4 1
3 1 5 1
4 1 2 1
@<TRIPOS>MOLECULE
CH4
5 4
SMALL
USER_CHARGES


@<TRIPOS>ATOM
1 C 44.588 81.32 4.383 C 0.0 **** 0.0
2 H 44.342 81.152 3.334 H 0.0 **** 0.0
3 H 45.655 81.525 4.477 H 0.0 **** 0.0
4 H 44.335 80.433 4.962 H 0.0 **** 0.0
5 H 44.02 82.172 4.756 H 0.0 **** 0.0
@<TRIPOS>BOND
1 1 2 1
2 1 3 1
3 1 4 1
4 1 5 1
@<TRIPOS>MOLECULE
CH4
5 4
SMALL
USER_CHARGES


@<TRIPOS>ATOM
1 C 34.139 56.71 81.571 C 0.0 **** 0.0
2 H 34.63 57.4 80.885 H 0.0 **** 0.0
3 H 33.743 55.862 81.012 H 0.0 **** 0.0
4 H 33.323 57.224 82.08 H 0.0 **** 0.0
5 H 34.86 56.356 82.308 H 0.0 **** 0.0
@<TRIPOS>BOND
1 1 2 1
2 1 3 1
3 1 4 1
4 1 5 1
@<TRIPOS>MOLECULE
CH4
5 4
SMALL
USER_CHARGES


@<TRIPOS>ATOM
1 C 56.395 55.121 31.541 C 0.0 **** 0.0
2 H 56.793 56.012 31.056 H 0.0 **** 0.0
3 H 55.765 55.416 32.381 H 0.0 **** 0.0
4 H 57.218 54.505 31.903 H 0.0 **** 0.0
5 H 55.802 54.552 30.825 H 0.0 **** 0.0
@<TRIPOS>BOND
1 1 2 1
2 1 3 1
3 1 4 1
4 1 5 1
@<TRIPOS>MOLECULE
CH4
5 4
SMALL
USER_CHARGES


@<TRIPOS>ATOM
1 C 97.895 52.192 73.962 C 0.0 **** 0.0
2 H 98.902 52.389 74.331 H 0.0 **** 0.0
3 H 97.86 52.376 72.888 H 0.0 **** 0.0
4 H 97.188 52.85 74.467 H 0.0 **** 0.0
5 H 97.632 51.154 74.162 H 0.0 **** 0.0
@<TRIPOS>BOND
1 1 2 1
2 1 3 1
3 1 4 1
4 1 5 1
@<TRIPOS>MOLECULE
CH4
5 4
SMALL
USER_CHARGES


@<TRIPOS>ATOM
1 C 49.917 93.855 96.886 C 0.0 **** 0.0
2 H 49.469 94.171 97.828 H 0.0 **** 0.0
3 H 50.684 93.105 97.082 H 0.0 **** 0.0
4 H 50.367 94.715 96.391 H 0.0 **** 0.0
5 H 49.147 93.428 96.243 H 0.0 **** 0.0
@<TRIPOS>BOND
1 1 2 1
2 1 3 1
3 1 4 1
4 1 5 1
@<TRIPOS>MOLECULE
CH4
5 4
SMALL
USER_CHARGES


@<TRIPOS>ATOM
1 C 1.377 52.829 2.798 C 0.0 **** 0.0
2 H 2.17 52.224 2.359 H 0.0 **** 0.0
3 H 0.813 53.32 2.005 H 0.0 **** 0.0
4 H 1.815 53.582 3.453 H 0.0 **** 0.0
5 H 0.71 52.188 3.376 H 0.0 **** 0.0
@<TRIPOS>BOND
1 1 2 1
2 1 3 1
3 1 4 1
4 1 5 1
@<TRIPOS>MOLECULE
CH4
5 4
SMALL
USER_CHARGES


@<TRIPOS>ATOM
1 C 72.385 80.957 46.928 C 0.0 **** 0.0
2 H 72.322 80.579 45.907 H 0.0 **** 0.0
3 H 73.184 81.697 46.992 H 0.0 **** 0.0
4 H 72.597 80.133 47.608 H 0.0 **** 0.0
5 H 71.437 81.42 47.202 H 0.0 **** 0.0
@<TRIPOS>BOND
1 1 2 1
2 1 3 1
3 1 4 1
4 1 5 1
@<TRIPOS>MOLECULE
CH4
5 4
SMALL
USER_CHARGES


@<TRIPOS>ATOM
1 C 94.12 4.846 5.818 C 0.0 **** 0.0
2 H 93.917 4.816 6.889 H 0.0 **** 0.0
3 H 93.581 5.681 5.37 H 0.0 **** 0.0
4 H 93.79 3.913 5.361 H 0.0 **** 0.0
5 H 95.19 4.973 5.655 H 0.0 **** 0.0
@<TRIPOS>BOND
1 1 2 1
2 1 3 1
3 1 4 1
4 1 5 1
@<TRIPOS>MOLECULE
CH4
5 4
SMALL
USER_CHARGES


@<TRIPOS>ATOM
1 C 66.308 69.151 23.632 C 0.0 **** 0.0
2 H 66.261 69.136 24.721 H 0.0 **** 0.0
3 H 67.179 68.586 23.299 H 0.0 **** 0.0
4 H 66.389 70.182 23.287 H 0.0 **** 0.0
5 H 65.404 68.701 23.223 H 0.0 **** 0.0
@<TRIPOS>BOND
1 1 2 1
2 1 3 1
3 1 4 1
4 1 5 1
@<TRIPOS>MOLECULE
CH4
5 4
SMALL
USER_CHARGES


@<TRIPOS>ATOM
1 C 45.547 8.833 52.783 C 0.0 **** 0.0
2 H 45.115 9.054 51.807 H 0.0 **** 0.0
3 H 44.771 8.451 53.446 H 0.0 **** 0.0
4 H 45.971 9.744 53.206 H 0.0 **** 0.0
5 H 46.332 8.085 52.671 H 0.0 **** 0.0
@<TRIPOS>BOND
1 1 2 1
2 1 3 1
3 1 4 1
4 1 5 1
@<TRIPOS>MOLECULE
CH4
5 4
SMALL
USER_CHARGES


@<TRIPOS>ATOM
1 C 4.63 45.513 8.948 C 0.0 **** 0.0
2 H 5.511 45.864 8.41 H 0.0 **** 0.0
3 H 4.006 46.365 9.218 H 0.0 **** 0.0
4 H 4.942 44.989 9.851 H 0.0 **** 0.0
5 H 4.063 44.834 8.311 H 0.0 **** 0.0
@<TRIPOS>BOND
1 1 2 1
2 1 3 1
3 1 4 1
4 1 5 1
@<TRIPOS>MOLECULE
CH4
5 4
SMALL
USER_CHARGES


@<TRIPOS>ATOM
1 C 4.535 48.922 36.978 C 0.0 **** 0.0
2 H 5.19 48.254 36.419 H 0.0 **** 0.0
3 H 3.644 48.377 37.292 H 0.0 **** 0.0
4 H 4.244 49.76 36.345 H 0.0 **** 0.0
5 H 5.061 49.295 37.857 H 0.0 **** 0.0
@<TRIPOS>BOND
1 1 2 1
2 1 3 1
3 1 4 1
4 1 5 1
@<TRIPOS>MOLECULE
CH4
5 4
SMALL
USER_CHARGES


@<TRIPOS>ATOM
1 C 29.231 36.861 74.269 C 0.0 **** 0.0
2 H 28.732 37.126 73.337 H 0.0 **** 0.0
3 H 30.291 36.693 74.078 H 0.0 **** 0.0
4 H 28.786 35.952 74.673 H 0.0 **** 0.0
5 H 29.114 37.673 74.987 H 0.0 **** 0.0
@<TRIPOS>BOND
1 1 2 1
2 1 3 1
3 1 4 1
4 1 5 1
@<TRIPOS>MOLECULE
CH4
5 4
SMALL
USER_CHARGES


@<TRIPOS>ATOM
1 C 88.431 83.293 27.449 C 0.0 **** 0.0
2 H 88.649 82.821 28.407 H 0.0 **** 0.0
3 H 87.659 84.051 27.586 H 0.0 **** 0.0
4 H 88.08 82.54 26.744 H 0.0 **** 0.0
5 H 89.336 83.761 27.061 H 0.0 **** 0.0
@<TRIPOS>BOND
1 1 2 1
2 1 3 1
3 1 4 1
4 1 5 1
@<TRIPOS>MOLECULE
CH4
5 4
SMALL
USER_CHARGES


@<TRIPOS>ATOM
1 C 51.437 84.781 43.19 C 0.0 **** 0.0
2 H 51.577 85.751 42.713 H 0.0 **** 0.0
3 H 52.322 84.535 43.778 H 0.0 **** 0.0
4 H 51.285 84.019 42.426 H 0.0 **** 0.0
5 H 50.566 84.82 43.844 H 0.0 **** 0.0
@<TRIPOS>BOND
1 1 2 1
2 1 3 1
3 1 4 1
4 1 5 1
@<TRIPOS>MOLECULE
CH4
5 4
SMALL
USER_CHARGES


@<TRIPOS>ATOM
1 C 35.024 90.129 47.419 C 0.0 **** 0.0
2 H 34.988 89.173 46.897 H 0.0 **** 0.0
3 H 34.694 90.922 46.748 H 0.0 **** 0.0
4 H 36.046 90.327 47.742 H 0.0 **** 0.0
5 H 34.368 90.092 48.289 H 0.0 **** 0.0
@<TRIPOS>BOND
1 1 2 1
2 1 3 1
3 1 4 1
4 1 5 1
@<TRIPOS>MOLECULE
CH4
5 4
SMALL
USER_CHARGES


@<TRIPOS>ATOM
1 C 64.737 53.37 37.456 C 0.0 **** 0.0
2 H 64.652 54.192 38.168 H 0.0 **** 0.0
3 H 64.389 52.448 37.923 H 0.0 **** 0.0
4 H 65.778 53.256 37.156 H 0.0 **** 0.0
5 H 64.127 53.586 36.579 H 0.0 **** 0.0
@<TRIPOS>BOND
1 1 2 1
2 1 3 1
3 1 4 1
4 1 5 1
@<TRIPOS>MOLECULE
CH4
5 4
SMALL
USER_CHARGES


@<TRIPOS>ATOM
1 C 54.8 44.057 43.476 C 0.0 **** 0.0
2 H 54.74 44.05 44.565 H 0.0 **** 0.0
3 H 54.214 43.229 43.075 H 0.0 **** 0.0
4 H 55.84 43.95 43.169 H 0.0 **** 0.0
5 H 54.404 45.0 43.098 H 0.0 **** 0.0
@<TRIPOS>BOND
1 1 2 1
2 1 3 1
3 1 4 1
4 1 5 1
@<TRIPOS>MOLECULE
CH4
5 4
SMALL
USER_CHARGES


@<TRIPOS>ATOM
1 C 50.479 22.307 65.849 C 0.0 **** 0.0
2 H 50.55 23.203 66.465 H 0.0 **** 0.0
3 H 50.356 22.594 64.804 H 0.0 **** 0.0
4 H 49.621 21.715 66.167 H 0.0 **** 0.0
5 H 51.389 21.718 65.959 H 0.0 **** 0.0
@<TRIPOS>BOND
1 1 2 1
2 1 3 1
3 1 4 1
4 1 5 1
@<TRIPOS>MOLECULE
CH4
5 4
SMALL
USER_CHARGES


@<TRIPOS>ATOM
1 C 31.562 15.311 80.655 C 0.0 **** 0.0
2 H 32.607 15.621 80.65 H 0.0 **** 0.0
3 H 31.402 14.561 79.88 H 0.0 **** 0.0
4 H 30.926 16.174 80.462 H 0.0 **** 0.0
5 H 31.314 14.886 81.628 H 0.0 **** 0.0
@<TRIPOS>BOND
1 1 2 1
2 1 3 1
3 1 4 1
4 1 5 1
@<TRIPOS>MOLECULE
CH4
5 4
SMALL
USER_CHARGES


@<TRIPOS>ATOM
1 C 7.082 58.104 74.109 C 0.0 **** 0.0
2 H 7.563 58.079 75.087 H 0.0 **** 0.0
3 H 7.352 57.209 73.549 H 0.0 **** 0.0
4 H 7.413 58.988 73.564 H 0.0 **** 0.0
5 H 6.0 58.14 74.237 H 0.0 **** 0.0
@<TRIPOS>BOND
1 1 2 1
2 1 3 1
3 1 4 1
4 1 5 1
@<TRIPOS>MOLECULE
CH4
5 4
SMALL
USER_CHARGES


@<TRIPOS>ATOM
1 C 59.956 43.902 18.47 C 0.0 **** 0.0
2 H 60.284 44.704 19.131 H 0.0 **** 0.0
3 H 58.902 43.692 18.649 H 0.0 **** 0.0
4 H 60.544 43.006 18.666 H 0.0 **** 0.0
5 H 60.095 44.208 17.433 H 0.0 **** 0.0
@<TRIPOS>BOND
1 1 2 1
2 1 3 1
3 1 4 1
4 1 5 1
@<TRIPOS>MOLECULE
CH4
5 4
SMALL
USER_CHARGES


@<TRIPOS>ATOM
1 C 7.232 28.48 73.379 C 0.0 **** 0.0
2 H 7.569 27.521 72.985 H 0.0 **** 0.0
3 H 8.028 29.217 73.271 H 0.0 **** 0.0
4 H 6.978 28.37 74.433 H 0.0 **** 0.0
5 H 6.353 28.811 72.826 H 0.0 **** 0.0
@<TRIPOS>BOND
1 1 2 1
2 1 3 1
3 1 4 1
4 1 5 1
@<TRIPOS>MOLECULE
CH4
5 4
SMALL
USER_CHARGES


@<TRIPOS>ATOM
1 C 26.778 13.985 68.704 C 0.0 **** 0.0
2 H 25.93 14.53 69.118 H 0.0 **** 0.0
3 H 27.492 13.767 69.498 H 0.0 **** 0.0
4 H 27.26 14.592 67.937 H 0.0 **** 0.0
5 H 26.43 13.051 68.262 H 0.0 **** 0.0
@<TRIPOS>BOND
1 1 2 1
2 1 3 1
3 1 4 1
4 1 5 1
@<TRIPOS>MOLECULE
CH4
5 4
SMALL
USER_CHARGES


@<TRIPOS>ATOM
1 C 94.101 97.481 20.975 C 0.0 **** 0.0
2 H 93.552 98.111 21.674 H 0.0 **** 0.0
3 H 94.258 98.024 20.043 H 0.0 **** 0.0
4 H 93.529 96.575 20.777 H 0.0 **** 0.0
5 H 95.066 97.215 21.407 H 0.0 **** 0.0
@<TRIPOS>BOND
1 1 4 1
2 1 5 1
3 1 3 1
4 1 2 1
@<TRIPOS>MOLECULE
CH4
5 4
SMALL
USER_CHARGES


@<TRIPOS>ATOM
1 C 30.652 18.073 65.602 C 0.0 **** 0.0
2 H 30.833 19.11 65.886 H 0.0 **** 0.0
3 H 31.069 17.89 64.611 H 0.0 **** 0.0
4 H 29.578 17.884 65.585 H 0.0 **** 0.0
5 H 31.127 17.41 66.324 H 0.0 **** 0.0
@<TRIPOS>BOND
1 1 2 1
2 1 3 1
3 1 4 1
4 1 5 1
@<TRIPOS>MOLECULE
CH4
5 4
SMALL
USER_CHARGES


@<TRIPOS>ATOM
1 C 89.312 41.149 25.852 C 0.0 **** 0.0
2 H 89.335 41.168 26.941 H 0.0 **** 0.0
3 H 88.717 40.299 25.516 H 0.0 **** 0.0
4 H 90.328 41.056 25.468 H 0.0 **** 0.0
5 H 88.867 42.073 25.482 H 0.0 **** 0.0
@<TRIPOS>BOND
1 1 2 1
2 1 3 1
3 1 4 1
4 1 5 1
@<TRIPOS>MOLECULE
CH4
5 4
SMALL
USER_CHARGES


@<TRIPOS>ATOM
1 C 66.06 11.544 57.205 C 0.0 **** 0.0
2 H 66.672 12.087 57.926 H 0.0 **** 0.0
3 H 66.633 11.384 56.291 H 0.0 **** 0.0
4 H 65.166 12.124 56.978 H 0.0 **** 0.0
5 H 65.772 10.581 57.627 H 0.0 **** 0.0
@<TRIPOS>BOND
1 1 2 1
2 1 3 1
3 1 4 1
4 1 5 1
@<TRIPOS>MOLECULE
CH4
5 4
SMALL
USER_CHARGES


@<TRIPOS>ATOM
1 C 1.074 22.485 57.687 C 0.0 **** 0.0
2 H 1.157 22.774 56.64 H 0.0 **** 0.0
3 H 1.301 23.344 58.32 H 0.0 **** 0.0
4 H 1.779 21.681 57.899 H 0.0 **** 0.0
5 H 0.06 22.142 57.89 H 0.0 **** 0.0
@<TRIPOS>BOND
1 1 2 1
2 1 3 1
3 1 4 1
4 1 5 1
@<TRIPOS>MOLECULE
CH4
5 4
SMALL
USER_CHARGES


@<TRIPOS>ATOM
1 C 47.027 15.543 63.138 C 0.0 **** 0.0
2 H 48.075 15.389 63.392 H 0.0 **** 0.0
3 H 46.948 16.322 62.379 H 0.0 **** 0.0
4 H 46.478 15.847 64.029 H 0.0 **** 0.0
5 H 46.606 14.615 62.751 H 0.0 **** 0.0
@<TRIPOS>BOND
1 1 2 1
2 1 3 1
3 1 4 1
4 1 5 1
@<TRIPOS>MOLECULE
CH4
5 4
SMALL
USER_CHARGES


@<TRIPOS>ATOM
1 C 11.825 62.342 45.709 C 0.0 **** 0.0
2 H 11.832 62.403 44.621 H 0.0 **** 0.0
3 H 11.976 61.306 46.015 H 0.0 **** 0.0
4 H 10.865 62.696 46.086 H 0.0 **** 0.0
5 H 12.625 62.961 46.114 H 0.0 **** 0.0
@<TRIPOS>BOND
1 1 2 1
2 1 3 1
3 1 4 1
4 1 5 1
@<TRIPOS>MOLECULE
CH4
5 4
SMALL
USER_CHARGES


@<TRIPOS>ATOM
1 C 65.392 46.353 44.797 C 0.0 **** 0.0
2 H 64.857 46.096 45.712 H 0.0 **** 0.0
3 H 65.899 45.468 44.412 H 0.0 **** 0.0
4 H 66.127 47.129 45.012 H 0.0 **** 0.0
5 H 64.684 46.72 44.054 H 0.0 **** 0.0
@<TRIPOS>BOND
1 1 2 1
2 1 3 1
3 1 4 1
4 1 5 1
@<TRIPOS>MOLECULE
CH4
5 4
SMALL
USER_CHARGES


@<TRIPOS>ATOM
1 C 58.976 88.567 17.579 C 0.0 **** 0.0
2 H 58.534 87.576 17.475 H 0.0 **** 0.0
3 H 59.259 88.943 16.596 H 0.0 **** 0.0
4 H 59.86 88.506 18.214 H 0.0 **** 0.0
5 H 58.249 89.242 18.031 H 0.0 **** 0.0
@<TRIPOS>BOND
1 1 2 1
2 1 3 1
3 1 4 1
4 1 5 1
@<TRIPOS>MOLECULE
CH4
5 4
SMALL
USER_CHARGES


@<TRIPOS>ATOM
1 C 15.69 95.564 10.771 C 0.0 **** 0.0
2 H 15.652 96.292 9.961 H 0.0 **** 0.0
3 H 16.404 94.779 10.52 H 0.0 **** 0.0
4 H 14.702 95.126 10.913 H 0.0 **** 0.0
5 H 16.003 96.06 11.69 H 0.0 **** 0.0
@<TRIPOS>BOND
1 1 2 1
2 1 3 1
3 1 4 1
4 1 5 1
@<TRIPOS>MOLECULE
CH4
5 4
SMALL
USER_CHARGES


@<TRIPOS>ATOM
1 C 12.814 15.582 48.206 C 0.0 **** 0.0
2 H 12.059 15.981 47.529 H 0.0 **** 0.0
3 H 13.801 15.69 47.755 H 0.0 **** 0.0
4 H 12.613 14.527 48.393 H 0.0 **** 0.0
5 H 12.783 16.13 49.148 H 0.0 **** 0.0
@<TRIPOS>BOND
1 1 2 1
2 1 3 1
3 1 4 1
4 1 5 1
@<TRIPOS>MOLECULE
CH4
5 4
SMALL
USER_CHARGES


@<TRIPOS>ATOM
1 C 11.931 54.753 92.848 C 0.0 **** 0.0
2 H 11.339 54.722 93.763 H 0.0 **** 0.0
3 H 12.05 53.741 92.459 H 0.0 **** 0.0
4 H 12.912 55.177 93.064 H 0.0 **** 0.0
5 H 11.424 55.37 92.107 H 0.0 **** 0.0
@<TRIPOS>BOND
1 1 2 1
2 1 3 1
3 1 4 1
4 1 5 1
@<TRIPOS>MOLECULE
CH4
5 4
SMALL
USER_CHARGES


@<TRIPOS>ATOM
1 C 5.13 21.476 87.755 C 0.0 **** 0.0
2 H 5.67 21.144 88.641 H 0.0 **** 0.0
3 H 5.838 21.86 87.02 H 0.0 **** 0.0
4 H 4.428 22.263 88.031 H 0.0 **** 0.0
5 H 4.582 20.635 87.328 H 0.0 **** 0.0
@<TRIPOS>BOND
1 1 2 1
2 1 3 1
3 1 4 1
4 1 5 1
@<TRIPOS>MOLECULE
CH4
5 4
SMALL
USER_CHARGES


@<TRIPOS>ATOM
1 C 66.819 37.004 47.752 C 0.0 **** 0.0
2 H 67.225 37.753 48.431 H 0.0 **** 0.0
3 H 66.616 37.463 46.784 H 0.0 **** 0.0
4 H 65.894 36.603 48.165 H 0.0 **** 0.0
5 H 67.541 36.197 47.628 H 0.0 **** 0.0
@<TRIPOS>BOND
1 1 2 1
2 1 3 1
3 1 4 1
4 1 5 1
@<TRIPOS>MOLECULE
CH4
5 4
SMALL
USER_CHARGES


@<TRIPOS>ATOM
1 C 47.42 58.189 76.981 C 0.0 **** 0.0
2 H 48.077 59.027 76.744 H 0.0 **** 0.0
3 H 46.381 58.508 76.895 H 0.0 **** 0.0
4 H 47.615 57.852 77.999 H 0.0 **** 0.0
5 H 47.609 57.372 76.284 H 0.0 **** 0.0
@<TRIPOS>BOND
1 1 2 1
2 1 3 1
3 1 4 1
4 1 5 1
@<TRIPOS>MOLECULE
CH4
5 4
SMALL
USER_CHARGES


@<TRIPOS>ATOM
1 C 95.851 91.63 13.532 C 0.0 **** 0.0
2 H 96.461 91.626 14.435 H 0.0 **** 0.0
3 H 94.941 91.055 13.706 H 0.0 **** 0.0
4 H 96.413 91.182 12.712 H 0.0 **** 0.0
5 H 95.589 92.656 13.275 H 0.0 **** 0.0
@<TRIPOS>BOND
1 1 2 1
2 1 3 1
3 1 4 1
4 1 5 1
@<TRIPOS>MOLECULE
CH4
5 4
SMALL
USER_CHARGES


@<TRIPOS>ATOM
1 C 9.58 55.54 95.789 C 0.0 **** 0.0
2 H 9.74 55.648 96.862 H 0.0 **** 0.0
3 H 8.616 55.972 95.52 H 0.0 **** 0.0
4 H 9.592 54.483 95.524 H 0.0 **** 0.0
5 H 10.374 56.059 95.25 H 0.0 **** 0.0
@<TRIPOS>BOND
1 1 2 1
2 1 3 1
3 1 4 1
4 1 5 1
@<TRIPOS>MOLECULE
CH4
5 4
SMALL
USER_CHARGES


@<TRIPOS>ATOM
1 C 13.639 61.013 85.774 C 0.0 **** 0.0
2 H 13.062 60.34 86.408 H 0.0 **** 0.0
3 H 12.96 61.678 85.24 H 0.0 **** 0.0
4 H 14.216 60.429 85.056 H 0.0 **** 0.0
5 H 14.316 61.603 86.391 H 0.0 **** 0.0
@<TRIPOS>BOND
1 1 2 1
2 1 3 1
3 1 4 1
4 1 5 1
@<TRIPOS>MOLECULE
CH4
5 4
SMALL
USER_CHARGES


@<TRIPOS>ATOM
1 C 41.519 18.353 25.85 C 0.0 **** 0.0
2 H 41.326 17.364 26.267 H 0.0 **** 0.0
3 H 42.482 18.35 25.339 H 0.0 **** 0.0
4 H 41.536 19.088 26.655 H 0.0 **** 0.0
5 H 40.731 18.608 25.142 H 0.0 **** 0.0
@<TRIPOS>BOND
1 1 2 1
2 1 3 1
3 1 4 1
4 1 5 1
@<TRIPOS>MOLECULE
CH4
5 4
SMALL
USER_CHARGES


@<TRIPOS>ATOM
1 C 31.122 68.838 37.751 C 0.0 **** 0.0
2 H 31.441 68.848 36.709 H 0.0 **** 0.0
3 H 31.158 67.817 38.132 H 0.0 **** 0.0
4 H 30.102 69.216 37.821 H 0.0 **** 0.0
5 H 31.785 69.47 38.34 H 0.0 **** 0.0
@<TRIPOS>BOND
1 1 2 1
2 1 3 1
3 1 4 1
4 1 5 1
@<TRIPOS>MOLECULE
CH4
5 4
SMALL
USER_CHARGES


@<TRIPOS>ATOM
1 C 83.767 92.883 12.141 C 0.0 **** 0.0
2 H 83.416 93.048 13.159 H 0.0 **** 0.0
3 H 84.481 93.662 11.872 H 0.0 **** 0.0
4 H 82.92 92.914 11.456 H 0.0 **** 0.0
5 H 84.25 91.908 12.077 H 0.0 **** 0.0
@<TRIPOS>BOND
1 1 2 1
2 1 3 1
3 1 4 1
4 1 5 1
@<TRIPOS>MOLECULE
CH4
5 4
SMALL
USER_CHARGES


@<TRIPOS>ATOM
1 C 52.107 72.639 69.179 C 0.0 **** 0.0
2 H 51.535 72.354 68.295 H 0.0 **** 0.0
3 H 51.826 71.997 70.015 H 0.0 **** 0.0
4 H 51.894 73.678 69.43 H 0.0 **** 0.0
5 H 53.171 72.525 68.974 H 0.0 **** 0.0
@<TRIPOS>BOND
1 1 2 1
2 1 3 1
3 1 4 1
4 1 5 1
@<TRIPOS>MOLECULE
CH4
5 4
SMALL
USER_CHARGES


@<TRIPOS>ATOM
1 C 50.785 92.766 78.84 C 0.0 **** 0.0
2 H 50.401 92.886 79.854 H 0.0 **** 0.0
3 H 51.841 93.035 78.819 H 0.0 **** 0.0
4 H 50.23 93.416 78.163 H 0.0 **** 0.0
5 H 50.666 91.729 78.527 H 0.0 **** 0.0
@<TRIPOS>BOND
1 1 2 1
2 1 3 1
3 1 4 1
4 1 5 1
@<TRIPOS>MOLECULE
CH4
5 4
SMALL
USER_CHARGES


@<TRIPOS>ATOM
1 C 58.036 77.442 78.55 C 0.0 **** 0.0
2 H 58.04 78.207 77.774 H 0.0 **** 0.0
3 H 57.464 77.797 79.408 H 0.0 **** 0.0
4 H 59.06 77.231 78.858 H 0.0 **** 0.0
5 H 57.579 76.532 78.16 H 0.0 **** 0.0
@<TRIPOS>BOND
1 1 2 1
2 1 3 1
3 1 4 1
4 1 5 1
@<TRIPOS>MOLECULE
CH4
5 4
SMALL
USER_CHARGES


@<TRIPOS>ATOM
1 C 30.23 61.844 69.918 C 0.0 **** 0.0
2 H 30.016 62.318 70.876 H 0.0 **** 0.0
3 H 29.974 62.529 69.109 H 0.0 **** 0.0
4 H 29.639 60.933 69.824 H 0.0 **** 0.0
5 H 31.29 61.597 69.864 H 0.0 **** 0.0
@<TRIPOS>BOND
1 1 2 1
2 1 3 1
3 1 4 1
4 1 5 1
@<TRIPOS>MOLECULE
CH4
5 4
SMALL
USER_CHARGES


@<TRIPOS>ATOM
1 C 73.375 10.84 96.218 C 0.0 **** 0.0
2 H 73.215 10.13 97.03 H 0.0 **** 0.0
3 H 72.536 10.791 95.524 H 0.0 **** 0.0
4 H 74.297 10.589 95.693 H 0.0 **** 0.0
5 H 73.452 11.847 96.627 H 0.0 **** 0.0
@<TRIPOS>BOND
1 1 5 1
2 1 2 1
3 1 3 1
4 1 4 1
@<TRIPOS>MOLECULE
CH4
5 4
SMALL
USER_CHARGES


@<TRIPOS>ATOM
1 C 6.466 3.406 69.862 C 0.0 **** 0.0
2 H 5.6 3.184 69.238 H 0.0 **** 0.0
3 H 6.854 4.392 69.607 H 0.0 **** 0.0
4 H 7.238 2.656 69.693 H 0.0 **** 0.0
5 H 6.17 3.392 70.911 H 0.0 **** 0.0
@<TRIPOS>BOND
1 1 2 1
2 1 3 1
3 1 4 1
4 1 5 1
@<TRIPOS>MOLECULE
CH4
5 4
SMALL
USER_CHARGES


@<TRIPOS>ATOM
1 C 10.318 5.418 97.191 C 0.0 **** 0.0
2 H 9.744 6.319 97.407 H 0.0 **** 0.0
3 H 9.663 4.548 97.251 H 0.0 **** 0.0
4 H 11.123 5.317 97.919 H 0.0 **** 0.0
5 H 10.74 5.487 96.189 H 0.0 **** 0.0
@<TRIPOS>BOND
1 1 2 1
2 1 3 1
3 1 4 1
4 1 5 1
@<TRIPOS>MOLECULE
CH4
5 4
SMALL
USER_CHARGES


@<TRIPOS>ATOM
1 C 93.039 25.137 33.031 C 0.0 **** 0.0
2 H 92.418 25.727 33.705 H 0.0 **** 0.0
3 H 93.68 24.476 33.615 H 0.0 **** 0.0
4 H 93.656 25.803 32.429 H 0.0 **** 0.0
5 H 92.402 24.541 32.378 H 0.0 **** 0.0
@<TRIPOS>BOND
1 1 2 1
2 1 3 1
3 1 4 1
4 1 5 1
@<TRIPOS>MOLECULE
CH4
5 4
SMALL
USER_CHARGES


@<TRIPOS>ATOM
1 C 82.32 20.175 45.648 C 0.0 **** 0.0
2 H 81.516 20.803 45.263 H 0.0 **** 0.0
3 H 82.549 20.467 46.673 H 0.0 **** 0.0
4 H 83.207 20.3 45.028 H 0.0 **** 0.0
5 H 82.007 19.131 45.629 H 0.0 **** 0.0
@<TRIPOS>BOND
1 1 2 1
2 1 3 1
3 1 4 1
4 1 5 1
@<TRIPOS>MOLECULE
CH4
5 4
SMALL
USER_CHARGES


@<TRIPOS>ATOM
1 C 52.953 68.685 87.648 C 0.0 **** 0.0
2 H 53.865 68.356 88.146 H 0.0 **** 0.0
3 H 52.121 68.054 87.961 H 0.0 **** 0.0
4 H 53.082 68.61 86.568 H 0.0 **** 0.0
5 H 52.745 69.721 87.918 H 0.0 **** 0.0
@<TRIPOS>BOND
1 1 2 1
2 1 3 1
3 1 4 1
4 1 5 1
@<TRIPOS>MOLECULE
CH4
5 4
SMALL
USER_CHARGES


@<TRIPOS>ATOM
1 C 2.897 88.892 51.599 C 0.0 **** 0.0
2 H 2.464 88.719 52.585 H 0.0 **** 0.0
3 H 3.946 89.168 51.707 H 0.0 **** 0.0
4 H 2.358 89.698 51.102 H 0.0 **** 0.0
5 H 2.82 87.981 51.005 H 0.0 **** 0.0
@<TRIPOS>BOND
1 1 2 1
2 1 3 1
3 1 4 1
4 1 5 1
@<TRIPOS>MOLECULE
CH4
5 4
SMALL
USER_CHARGES


@<TRIPOS>ATOM
1 C 15.537 28.857 44.944 C 0.0 **** 0.0
2 H 15.712 28.309 44.017 H 0.0 **** 0.0
3 H 14.677 29.515 44.82 H 0.0 **** 0.0
4 H 16.418 29.451 45.186 H 0.0 **** 0.0
5 H 15.341 28.151 45.751 H 0.0 **** 0.0
@<TRIPOS>BOND
1 1 2 1
2 1 3 1
3 1 4 1
4 1 5 1
@<TRIPOS>MOLECULE
CH4
5 4
SMALL
USER_CHARGES


@<TRIPOS>ATOM
1 C 71.646 43.193 46.685 C 0.0 **** 0.0
2 H 72.47 43.411 47.365 H 0.0 **** 0.0
3 H 71.834 42.246 46.179 H 0.0 **** 0.0
4 H 71.564 43.99 45.946 H 0.0 **** 0.0
5 H 70.717 43.125 47.251 H 0.0 **** 0.0
@<TRIPOS>BOND
1 1 2 1
2 1 3 1
3 1 4 1
4 1 5 1
@<TRIPOS>MOLECULE
CH4
5 4
SMALL
USER_CHARGES


@<TRIPOS>ATOM
1 C 86.404 34.704 32.37 C 0.0 **** 0.0
2 H 86.458 35.082 31.349 H 0.0 **** 0.0
3 H 85.899 35.435 33.001 H 0.0 **** 0.0
4 H 87.412 34.532 32.746 H 0.0 **** 0.0
5 H 85.847 33.767 32.381 H 0.0 **** 0.0
@<TRIPOS>BOND
1 1 2 1
2 1 3 1
3 1 4 1
4 1 5 1
@<TRIPOS>MOLECULE
CH4
5 4
SMALL
USER_CHARGES


@<TRIPOS>ATOM
1 C 78.004 6.646 83.346 C 0.0 **** 0.0
2 H 78.65 5.777 83.223 H 0.0 **** 0.0
3 H 77.029 6.439 82.905 H 0.0 **** 0.0
4 H 78.453 7.506 82.849 H 0.0 **** 0.0
5 H 77.884 6.862 84.408 H 0.0 **** 0.0
@<TRIPOS>BOND
1 1 2 1
2 1 3 1
3 1 4 1
4 1 5 1
@<TRIPOS>MOLECULE
CH4
5 4
SMALL
USER_CHARGES


@<TRIPOS>ATOM
1 C 63.398 36.742 63.882 C 0.0 **** 0.0
2 H 63.624 36.577 62.828 H 0.0 **** 0.0
3 H 62.379 37.116 63.98 H 0.0 **** 0.0
4 H 64.095 37.473 64.292 H 0.0 **** 0.0
5 H 63.495 35.803 64.426 H 0.0 **** 0.0
@<TRIPOS>BOND
1 1 2 1
2 1 3 1
3 1 4 1
4 1 5 1
@<TRIPOS>MOLECULE
CH4
5 4
SMALL
USER_CHARGES


@<TRIPOS>ATOM
1 C 80.548 4.068 43.533 C 0.0 **** 0.0
2 H 81.14 3.534 44.277 H 0.0 **** 0.0
3 H 80.08 4.936 43.998 H 0.0 **** 0.0
4 H 79.777 3.405 43.14 H 0.0 **** 0.0
5 H 81.195 4.395 42.72 H 0.0 **** 0.0
@<TRIPOS>BOND
1 1 2 1
2 1 3 1
3 1 4 1
4 1 5 1
@<TRIPOS>MOLECULE
CH4
5 4
SMALL
USER_CHARGES


@<TRIPOS>ATOM
1 C 14.053 84.015 94.817 C 0.0 **** 0.0
2 H 14.601 83.115 94.537 H 0.0 **** 0.0
3 H 13.804 84.582 93.92 H 0.0 **** 0.0
4 H 14.672 84.627 95.473 H 0.0 **** 0.0
5 H 13.138 83.735 95.337 H 0.0 **** 0.0
@<TRIPOS>BOND
1 1 2 1
2 1 3 1
3 1 4 1
4 1 5 1
@<TRIPOS>MOLECULE
CH4
5 4
SMALL
USER_CHARGES


@<TRIPOS>ATOM
1 C 87.354 65.19 62.532 C 0.0 **** 0.0
2 H 87.163 65.395 61.479 H 0.0 **** 0.0
3 H 86.853 65.94 63.145 H 0.0 **** 0.0
4 H 88.427 65.224 62.72 H 0.0 **** 0.0
5 H 86.973 64.2 62.784 H 0.0 **** 0.0
@<TRIPOS>BOND
1 1 2 1
2 1 3 1
3 1 4 1
4 1 5 1
@<TRIPOS>MOLECULE
CH4
5 4
SMALL
USER_CHARGES


@<TRIPOS>ATOM
1 C 51.346 50.314 56.154 C 0.0 **** 0.0
2 H 50.716 49.642 56.736 H 0.0 **** 0.0
3 H 51.568 51.204 56.742 H 0.0 **** 0.0
4 H 50.823 50.602 55.242 H 0.0 **** 0.0
5 H 52.276 49.807 55.895 H 0.0 **** 0.0
@<TRIPOS>BOND
1 1 2 1
2 1 3 1
3 1 4 1
4 1 5 1
@<TRIPOS>MOLECULE
CH4
5 4
SMALL
USER_CHARGES


@<TRIPOS>ATOM
1 C 53.388 66.808 6.178 C 0.0 **** 0.0
2 H 54.339 67.34 6.14 H 0.0 **** 0.0
3 H 52.614 67.475 6.558 H 0.0 **** 0.0
4 H 53.481 65.946 6.838 H 0.0 **** 0.0
5 H 53.12 66.472 5.177 H 0.0 **** 0.0
@<TRIPOS>BOND
1 1 2 1
2 1 3 1
3 1 4 1
4 1 5 1
@<TRIPOS>MOLECULE
CH4
5 4
SMALL
USER_CHARGES


@<TRIPOS>ATOM
1 C 15.267 75.604 63.679 C 0.0 **** 0.0
2 H 15.554 75.323 62.665 H 0.0 **** 0.0
3 H 15.153 76.687 63.737 H 0.0 **** 0.0
4 H 16.038 75.28 64.377 H 0.0 **** 0.0
5 H 14.321 75.125 63.934 H 0.0 **** 0.0
@<TRIPOS>BOND
1 1 4 1
2 1 5 1
3 1 2 1
4 1 3 1
@<TRIPOS>MOLECULE
CH4
5 4
SMALL
USER_CHARGES


@<TRIPOS>ATOM
1 C 66.077 49.199 37.946 C 0.0 **** 0.0
2 H 65.704 49.783 37.105 H 0.0 **** 0.0
3 H 65.252 48.968 38.621 H 0.0 **** 0.0
4 H 66.834 49.773 38.48 H 0.0 **** 0.0
5 H 66.516 48.271 37.578 H 0.0 **** 0.0
@<TRIPOS>BOND
1 1 2 1
2 1 3 1
3 1 4 1
4 1 5 1
@<TRIPOS>MOLECULE
CH4
5 4
SMALL
USER_CHARGES


@<TRIPOS>ATOM
1 C 69.452 14.417 78.271 C 0.0 **** 0.0
2 H 69.377 14.314 77.188 H 0.0 **** 0.0
3 H 70.335 15.007 78.519 H 0.0 **** 0.0
4 H 69.534 13.43 78.725 H 0.0 **** 0.0
5 H 68.562 14.919 78.649 H 0.0 **** 0.0
@<TRIPOS>BOND
1 1 2 1
2 1 3 1
3 1 4 1
4 1 5 1
@<TRIPOS>MOLECULE
CH4
5 4
SMALL
USER_CHARGES


@<TRIPOS>ATOM
1 C 9.126 6.427 42.92 C 0.0 **** 0.0
2 H 8.101 6.169 42.656 H 0.0 **** 0.0
3 H 9.121 7.098 43.78 H 0.0 **** 0.0
4 H 9.606 6.922 42.075 H 0.0 **** 0.0
5 H 9.676 5.52 43.17 H 0.0 **** 0.0
@<TRIPOS>BOND
1 1 2 1
2 1 3 1
3 1 4 1
4 1 5 1
@<TRIPOS>MOLECULE
CH4
5 4
SMALL
USER_CHARGES


@<TRIPOS>ATOM
1 C 73.695 5.705 91.006 C 0.0 **** 0.0
2 H 73.106 6.51 91.446 H 0.0 **** 0.0
3 H 74.736 5.808 91.311 H 0.0 **** 0.0
4 H 73.627 5.757 89.92 H 0.0 **** 0.0
5 H 73.309 4.744 91.348 H 0.0 **** 0.0
@<TRIPOS>BOND
1 1 2 1
2 1 3 1
3 1 4 1
4 1 5 1
@<TRIPOS>MOLECULE
CH4
5 4
SMALL
USER_CHARGES


@<TRIPOS>ATOM
1 C 53.767 31.275 37.683 C 0.0 **** 0.0
2 H 53.272 31.248 36.713 H 0.0 **** 0.0
3 H 54.847 31.29 37.539 H 0.0 **** 0.0
4 H 53.489 30.391 38.257 H 0.0 **** 0.0
5 H 53.459 32.17 38.223 H 0.0 **** 0.0
@<TRIPOS>BOND
1 1 2 1
2 1 3 1
3 1 4 1
4 1 5 1
@<TRIPOS>MOLECULE
CH4
5 4
SMALL
USER_CHARGES


@<TRIPOS>ATOM
1 C 51.639 98.502 94.956 C 0.0 **** 0.0
2 H 51.659 98.559 96.044 H 0.0 **** 0.0
3 H 52.522 98.995 94.55 H 0.0 **** 0.0
4 H 50.742 98.997 94.582 H 0.0 **** 0.0
5 H 51.632 97.456 94.648 H 0.0 **** 0.0
@<TRIPOS>BOND
1 1 2 1
2 1 3 1
3 1 4 1
4 1 5 1
@<TRIPOS>MOLECULE
CH4
5 4
SMALL
USER_CHARGES


@<TRIPOS>ATOM
1 C 75.104 7.054 67.0 C 0.0 **** 0.0
2 H 75.485 6.418 66.201 H 0.0 **** 0.0
3 H 75.844 7.818 67.241 H 0.0 **** 0.0
4 H 74.906 6.448 67.884 H 0.0 **** 0.0
5 H 74.18 7.533 66.674 H 0.0 **** 0.0
@<TRIPOS>BOND
1 1 2 1
2 1 3 1
3 1 4 1
4 1 5 1
@<TRIPOS>MOLECULE
CH4
5 4
SMALL
USER_CHARGES


@<TRIPOS>ATOM
1 C 82.145 44.376 3.265 C 0.0 **** 0.0
2 H 81.149 43.932 3.274 H 0.0 **** 0.0
3 H 82.378 44.725 2.259 H 0.0 **** 0.0
4 H 82.878 43.629 3.57 H 0.0 **** 0.0
5 H 82.173 45.217 3.958 H 0.0 **** 0.0
@<TRIPOS>BOND
1 1 2 1
2 1 3 1
3 1 4 1
4 1 5 1
@<TRIPOS>MOLECULE
CH4
5 4
SMALL
USER_CHARGES


@<TRIPOS>ATOM
1 C 15.848 11.611 96.063 C 0.0 **** 0.0
2 H 15.691 11.786 94.999 H 0.0 **** 0.0
3 H 15.45 12.452 96.632 H 0.0 **** 0.0
4 H 16.915 11.51 96.261 H 0.0 **** 0.0
5 H 15.335 10.696 96.36 H 0.0 **** 0.0
@<TRIPOS>BOND
1 1 2 1
2 1 3 1
3 1 4 1
4 1 5 1
@<TRIPOS>MOLECULE
CH4
5 4
SMALL
USER_CHARGES


@<TRIPOS>ATOM
1 C 40.521 39.967 45.496 C 0.0 **** 0.0
2 H 40.569 40.679 46.32 H 0.0 **** 0.0
3 H 41.289 40.21 44.761 H 0.0 **** 0.0
4 H 39.538 40.021 45.026 H 0.0 **** 0.0
5 H 40.687 38.96 45.876 H 0.0 **** 0.0
@<TRIPOS>BOND
1 1 2 1
2 1 3 1
3 1 4 1
4 1 5 1
@<TRIPOS>MOLECULE
CH4
5 4
SMALL
USER_CHARGES


@<TRIPOS>ATOM
1 C 96.078 49.71 61.238 C 0.0 **** 0.0
2 H 96.397 49.482 62.255 H 0.0 **** 0.0
3 H 95.343 50.515 61.26 H 0.0 **** 0.0
4 H 95.633 48.822 60.789 H 0.0 **** 0.0
5 H 96.941 50.021 60.648 H 0.0 **** 0.0
@<TRIPOS>BOND
1 1 2 1
2 1 3 1
3 1 4 1
4 1 5 1
@<TRIPOS>MOLECULE
CH4
5 4
SMALL
USER_CHARGES


@<TRIPOS>ATOM
1 C 22.356 53.836 48.218 C 0.0 **** 0.0
2 H 22.337 52.761 48.398 H 0.0 **** 0.0
3 H 22.577 54.356 49.15 H 0.0 **** 0.0
4 H 21.385 54.158 47.843 H 0.0 **** 0.0
5 H 23.125 54.067 47.481 H 0.0 **** 0.0
@<TRIPOS>BOND
1 1 2 1
2 1 3 1
3 1 4 1
4 1 5 1
@<TRIPOS>MOLECULE
CH4
5 4
SMALL
USER_CHARGES


@<TRIPOS>ATOM
1 C 32.622 36.933 79.56 C 0.0 **** 0.0
2 H 33.38 37.557 80.034 H 0.0 **** 0.0
3 H 33.054 36.434 78.693 H 0.0 **** 0.0
4 H 31.786 37.556 79.242 H 0.0 **** 0.0
5 H 32.269 36.187 80.272 H 0.0 **** 0.0
@<TRIPOS>BOND
1 1 2 1
2 1 3 1
3 1 4 1
4 1 5 1
@<TRIPOS>MOLECULE
CH4
5 4
SMALL
USER_CHARGES


@<TRIPOS>ATOM
1 C 44.727 53.971 96.143 C 0.0 **** 0.0
2 H 45.422 53.57 96.88 H 0.0 **** 0.0
3 H 43.744 53.522 96.29 H 0.0 **** 0.0
4 H 45.087 53.738 95.141 H 0.0 **** 0.0
5 H 44.655 55.052 96.262 H 0.0 **** 0.0
@<TRIPOS>BOND
1 1 2 1
2 1 3 1
3 1 4 1
4 1 5 1
@<TRIPOS>MOLECULE
CH4
5 4
SMALL
USER_CHARGES


@<TRIPOS>ATOM
1 C 87.95 43.18 29.101 C 0.0 **** 0.0
2 H 88.558 43.437 28.234 H 0.0 **** 0.0
3 H 88.264 43.78 29.956 H 0.0 **** 0.0
4 H 88.076 42.122 29.333 H 0.0 **** 0.0
5 H 86.901 43.381 28.882 H 0.0 **** 0.0
@<TRIPOS>BOND
1 1 2 1
2 1 3 1
3 1 4 1
4 1 5 1
@<TRIPOS>MOLECULE
CH4
5 4
SMALL
USER_CHARGES


@<TRIPOS>ATOM
1 C 61.748 95.966 75.763 C 0.0 **** 0.0
2 H 61.839 96.001 74.678 H 0.0 **** 0.0
3 H 61.266 96.878 76.116 H 0.0 **** 0.0
4 H 62.74 95.884 76.208 H 0.0 **** 0.0
5 H 61.148 95.103 76.05 H 0.0 **** 0.0
@<TRIPOS>BOND
1 1 2 1
2 1 3 1
3 1 4 1
4 1 5 1
@<TRIPOS>MOLECULE
CH4
5 4
SMALL
USER_CHARGES


@<TRIPOS>ATOM
1 C 5.346 40.78 36.555 C 0.0 **** 0.0
2 H 4.859 40.485 37.484 H 0.0 **** 0.0
3 H 5.067 41.804 36.308 H 0.0 **** 0.0
4 H 5.03 40.113 35.752 H 0.0 **** 0.0
5 H 6.427 40.716 36.675 H 0.0 **** 0.0
@<TRIPOS>BOND
1 1 3 1
2 1 4 1
3 1 5 1
4 1 2 1
@<TRIPOS>MOLECULE
CH4
5 4
SMALL
USER_CHARGES


@<TRIPOS>ATOM
1 C 34.266 40.116 80.114 C 0.0 **** 0.0
2 H 34.44 39.319 80.837 H 0.0 **** 0.0
3 H 33.838 39.693 79.205 H 0.0 **** 0.0
4 H 35.211 40.605 79.878 H 0.0 **** 0.0
5 H 33.574 40.845 80.536 H 0.0 **** 0.0
@<TRIPOS>BOND
1 1 2 1
2 1 3 1
3 1 4 1
4 1 5 1
@<TRIPOS>MOLECULE
CH4
5 4
SMALL
USER_CHARGES


@<TRIPOS>ATOM
1 C 65.497 2.869 61.979 C 0.0 **** 0.0
2 H 65.845 2.151 62.721 H 0.0 **** 0.0
3 H 64.684 2.429 61.401 H 0.0 **** 0.0
4 H 66.319 3.129 61.311 H 0.0 **** 0.0
5 H 65.141 3.768 62.483 H 0.0 **** 0.0
@<TRIPOS>BOND
1 1 2 1
2 1 3 1
3 1 4 1
4 1 5 1
@<TRIPOS>MOLECULE
CH4
5 4
SMALL
USER_CHARGES


@<TRIPOS>ATOM
1 C 80.824 40.123 77.306 C 0.0 **** 0.0
2 H 79.941 40.405 76.732 H 0.0 **** 0.0
3 H 80.979 39.047 77.228 H 0.0 **** 0.0
4 H 80.678 40.394 78.351 H 0.0 **** 0.0
5 H 81.695 40.646 76.912 H 0.0 **** 0.0
@<TRIPOS>BOND
1 1 2 1
2 1 3 1
3 1 4 1
4 1 5 1
@<TRIPOS>MOLECULE
CH4
5 4
SMALL
USER_CHARGES


@<TRIPOS>ATOM
1 C 59.566 31.632 28.822 C 0.0 **** 0.0
2 H 59.19 32.236 27.997 H 0.0 **** 0.0
3 H 59.912 30.671 28.441 H 0.0 **** 0.0
4 H 58.768 31.47 29.547 H 0.0 **** 0.0
5 H 60.394 32.151 29.304 H 0.0 **** 0.0
@<TRIPOS>BOND
1 1 2 1
2 1 3 1
3 1 4 1
4 1 5 1
@<TRIPOS>MOLECULE
CH4
5 4
SMALL
USER_CHARGES


@<TRIPOS>ATOM
1 C 21.401 82.271 72.583 C 0.0 **** 0.0
2 H 21.302 83.036 73.352 H 0.0 **** 0.0
3 H 21.766 82.726 71.662 H 0.0 **** 0.0
4 H 20.429 81.811 72.4 H 0.0 **** 0.0
5 H 22.106 81.509 72.917 H 0.0 **** 0.0
@<TRIPOS>BOND
1 1 2 1
2 1 3 1
3 1 4 1
4 1 5 1
@<TRIPOS>MOLECULE
CH4
5 4
SMALL
USER_CHARGES


@<TRIPOS>ATOM
1 C 79.763 66.743 86.84 C 0.0 **** 0.0
2 H 80.602 66.96 86.179 H 0.0 **** 0.0
3 H 79.912 67.248 87.794 H 0.0 **** 0.0
4 H 79.698 65.667 87.004 H 0.0 **** 0.0
5 H 78.839 67.096 86.381 H 0.0 **** 0.0
@<TRIPOS>BOND
1 1 2 1
2 1 3 1
3 1 4 1
4 1 5 1
@<TRIPOS>MOLECULE
CH4
5 4
SMALL
USER_CHARGES


@<TRIPOS>ATOM
1 C 79.071 42.164 96.963 C 0.0 **** 0.0
2 H 78.356 41.676 97.625 H 0.0 **** 0.0
3 H 79.595 42.949 97.509 H 0.0 **** 0.0
4 H 78.543 42.6 96.115 H 0.0 **** 0.0
5 H 79.792 41.429 96.602 H 0.0 **** 0.0
@<TRIPOS>BOND
1 1 2 1
2 1 3 1
3 1 4 1
4 1 5 1
@<TRIPOS>MOLECULE
CH4
5 4
SMALL
USER_CHARGES


@<TRIPOS>ATOM
1 C 89.089 4.336 80.264 C 0.0 **** 0.0
2 H 89.982 4.867 80.595 H 0.0 **** 0.0
3 H 88.735 4.77 79.329 H 0.0 **** 0.0
4 H 88.312 4.425 81.023 H 0.0 **** 0.0
5 H 89.328 3.284 80.11 H 0.0 **** 0.0
@<TRIPOS>BOND
1 1 2 1
2 1 3 1
3 1 4 1
4 1 5 1
@<TRIPOS>MOLECULE
CH4
5 4
SMALL
USER_CHARGES


@<TRIPOS>ATOM
1 C 41.266 16.42 63.168 C 0.0 **** 0.0
2 H 41.137 15.346 63.034 H 0.0 **** 0.0
3 H 42.312 16.634 63.392 H 0.0 **** 0.0
4 H 40.64 16.762 63.991 H 0.0 **** 0.0
5 H 40.978 16.937 62.253 H 0.0 **** 0.0
@<TRIPOS>BOND
1 1 2 1
2 1 3 1
3 1 4 1
4 1 5 1
@<TRIPOS>MOLECULE
CH4
5 4
SMALL
USER_CHARGES


@<TRIPOS>ATOM
1 C 60.819 13.015 16.344 C 0.0 **** 0.0
2 H 60.9 12.126 16.969 H 0.0 **** 0.0
3 H 60.552 12.722 15.328 H 0.0 **** 0.0
4 H 61.774 13.539 16.332 H 0.0 **** 0.0
5 H 60.048 13.672 16.747 H 0.0 **** 0.0
@<TRIPOS>BOND
1 1 2 1
2 1 3 1
3 1 4 1
4 1 5 1
@<TRIPOS>MOLECULE
CH4
5 4
SMALL
USER_CHARGES


@<TRIPOS>ATOM
1 C 49.671 74.076 57.542 C 0.0 **** 0.0
2 H 50.176 74.795 56.898 H 0.0 **** 0.0
3 H 50.307 73.201 57.678 H 0.0 **** 0.0
4 H 48.73 73.774 57.082 H 0.0 **** 0.0
5 H 49.472 74.534 58.511 H 0.0 **** 0.0
@<TRIPOS>BOND
1 1 2 1
2 1 3 1
3 1 4 1
4 1 5 1
@<TRIPOS>MOLECULE
CH4
5 4
SMALL
USER_CHARGES


@<TRIPOS>ATOM
1 C 82.521 88.108 77.818 C 0.0 **** 0.0
2 H 82.335 87.446 78.665 H 0.0 **** 0.0
3 H 81.584 88.297 77.293 H 0.0 **** 0.0
4 H 83.231 87.636 77.139 H 0.0 **** 0.0
5 H 82.933 89.05 78.178 H 0.0 **** 0.0
@<TRIPOS>BOND
1 1 2 1
2 1 3 1
3 1 4 1
4 1 5 1
@<TRIPOS>MOLECULE
CH4
5 4
SMALL
USER_CHARGES


@<TRIPOS>ATOM
1 C 69.953 16.949 31.903 C 0.0 **** 0.0
2 H 70.355 16.013 32.29 H 0.0 **** 0.0
3 H 70.62 17.769 32.172 H 0.0 **** 0.0
4 H 68.968 17.126 32.334 H 0.0 **** 0.0
5 H 69.87 16.888 30.818 H 0.0 **** 0.0
@<TRIPOS>BOND
1 1 2 1
2 1 3 1
3 1 4 1
4 1 5 1
@<TRIPOS>MOLECULE
CH4
5 4
SMALL
USER_CHARGES


@<TRIPOS>ATOM
1 C 56.544 81.248 96.21 C 0.0 **** 0.0
2 H 56.667 81.596 97.236 H 0.0 **** 0.0
3 H 56.041 82.018 95.624 H 0.0 **** 0.0
4 H 55.944 80.338 96.206 H 0.0 **** 0.0
5 H 57.522 81.041 95.776 H 0.0 **** 0.0
@<TRIPOS>BOND
1 1 2 1
2 1 3 1
3 1 4 1
4 1 5 1
@<TRIPOS>MOLECULE
CH4
5 4
SMALL
USER_CHARGES


@<TRIPOS>ATOM
1 C 80.24 58.697 67.229 C 0.0 **** 0.0
2 H 80.629 59.501 67.854 H 0.0 **** 0.0
3 H 80.586 58.833 66.204 H 0.0 **** 0.0
4 H 79.15 58.715 67.25 H 0.0 **** 0.0
5 H 80.595 57.739 67.608 H 0.0 **** 0.0
@<TRIPOS>BOND
1 1 2 1
2 1 3 1
3 1 4 1
4 1 5 1
@<TRIPOS>MOLECULE
CH4
5 4
SMALL
USER_CHARGES


@<TRIPOS>ATOM
1 C 63.255 74.439 24.079 C 0.0 **** 0.0
2 H 62.753 74.904 24.927 H 0.0 **** 0.0
3 H 64.246 74.102 24.384 H 0.0 **** 0.0
4 H 63.35 75.164 23.27 H 0.0 **** 0.0
5 H 62.671 73.586 23.735 H 0.0 **** 0.0
@<TRIPOS>BOND
1 1 2 1
2 1 3 1
3 1 4 1
4 1 5 1
@<TRIPOS>MOLECULE
CH4
5 4
SMALL
USER_CHARGES


@<TRIPOS>ATOM
1 C 52.396 90.688 37.686 C 0.0 **** 0.0
2 H 53.16 91.445 37.504 H 0.0 **** 0.0
3 H 52.214 90.607 38.758 H 0.0 **** 0.0
4 H 52.738 89.728 37.302 H 0.0 **** 0.0
5 H 51.474 90.975 37.181 H 0.0 **** 0.0
@<TRIPOS>BOND
1 1 2 1
2 1 3 1
3 1 4 1
4 1 5 1
@<TRIPOS>MOLECULE
CH4
5 4
SMALL
USER_CHARGES


@<TRIPOS>ATOM
1 C 92.793 40.998 48.242 C 0.0 **** 0.0
2 H 93.757 41.504 48.275 H 0.0 **** 0.0
3 H 92.482 40.743 49.256 H 0.0 **** 0.0
4 H 92.881 40.087 47.649 H 0.0 **** 0.0
5 H 92.052 41.656 47.789 H 0.0 **** 0.0
@<TRIPOS>BOND
1 1 2 1
2 1 3 1
3 1 4 1
4 1 5 1
@<TRIPOS>MOLECULE
CH4
5 4
SMALL
USER_CHARGES


@<TRIPOS>ATOM
1 C 34.184 24.441 19.414 C 0.0 **** 0.0
2 H 33.938 23.807 20.266 H 0.0 **** 0.0
3 H 35.199 24.223 19.081 H 0.0 **** 0.0
4 H 34.115 25.488 19.709 H 0.0 **** 0.0
5 H 33.484 24.245 18.601 H 0.0 **** 0.0
@<TRIPOS>BOND
1 1 2 1
2 1 3 1
3 1 4 1
4 1 5 1
@<TRIPOS>MOLECULE
CH4
5 4
SMALL
USER_CHARGES


@<TRIPOS>ATOM
1 C 35.912 66.703 46.045 C 0.0 **** 0.0
2 H 36.304 66.478 47.037 H 0.0 **** 0.0
3 H 36.262 67.687 45.731 H 0.0 **** 0.0
4 H 34.822 66.698 46.076 H 0.0 **** 0.0
5 H 36.259 65.95 45.338 H 0.0 **** 0.0
@<TRIPOS>BOND
1 1 2 1
2 1 3 1
3 1 4 1
4 1 5 1
@<TRIPOS>MOLECULE
CH4
5 4
SMALL
USER_CHARGES


@<TRIPOS>ATOM
1 C 74.413 81.004 60.601 C 0.0 **** 0.0
2 H 75.419 80.586 60.645 H 0.0 **** 0.0
3 H 74.329 81.825 61.313 H 0.0 **** 0.0
4 H 73.687 80.23 60.851 H 0.0 **** 0.0
5 H 74.217 81.374 59.594 H 0.0 **** 0.0
@<TRIPOS>BOND
1 1 2 1
2 1 3 1
3 1 4 1
4 1 5 1
@<TRIPOS>MOLECULE
CH4
5 4
SMALL
USER_CHARGES


@<TRIPOS>ATOM
1 C 47.405 39.584 82.663 C 0.0 **** 0.0
2 H 48.364 39.427 82.168 H 0.0 **** 0.0
3 H 46.649 39.832 81.919 H 0.0 **** 0.0
4 H 47.496 40.403 83.377 H 0.0 **** 0.0
5 H 47.115 38.674 83.189 H 0.0 **** 0.0
@<TRIPOS>BOND
1 1 2 1
2 1 3 1
3 1 4 1
4 1 5 1
@<TRIPOS>MOLECULE
CH4
5 4
SMALL
USER_CHARGES


@<TRIPOS>ATOM
1 C 59.748 32.702 83.374 C 0.0 **** 0.0
2 H 58.925 32.795 84.083 H 0.0 **** 0.0
3 H 60.161 31.695 83.428 H 0.0 **** 0.0
4 H 60.523 33.427 83.62 H 0.0 **** 0.0
5 H 59.38 32.891 82.365 H 0.0 **** 0.0
@<TRIPOS>BOND
1 1 2 1
2 1 3 1
3 1 4 1
4 1 5 1
@<TRIPOS>MOLECULE
CH4
5 4
SMALL
USER_CHARGES


@<TRIPOS>ATOM
1 C 78.714 39.898 19.773 C 0.0 **** 0.0
2 H 78.782 39.903 18.685 H 0.0 **** 0.0
3 H 77.899 39.244 20.083 H 0.0 **** 0.0
4 H 78.523 40.911 20.128 H 0.0 **** 0.0
5 H 79.652 39.536 20.193 H 0.0 **** 0.0
@<TRIPOS>BOND
1 1 2 1
2 1 3 1
3 1 4 1
4 1 5 1
@<TRIPOS>MOLECULE
CH4
5 4
SMALL
USER_CHARGES


@<TRIPOS>ATOM
1 C 57.496 40.137 58.89 C 0.0 **** 0.0
2 H 58.337 40.792 58.661 H 0.0 **** 0.0
3 H 56.569 40.612 58.569 H 0.0 **** 0.0
4 H 57.46 39.956 59.964 H 0.0 **** 0.0
5 H 57.621 39.19 58.366 H 0.0 **** 0.0
@<TRIPOS>BOND
1 1 2 1
2 1 3 1
3 1 4 1
4 1 5 1
@<TRIPOS>MOLECULE
CH4
5 4
SMALL
USER_CHARGES


@<TRIPOS>ATOM
1 C 46.663 69.058 63.599 C 0.0 **** 0.0
2 H 47.645 68.699 63.291 H 0.0 **** 0.0
3 H 46.355 69.877 62.948 H 0.0 **** 0.0
4 H 46.713 69.412 64.629 H 0.0 **** 0.0
5 H 45.941 68.245 63.529 H 0.0 **** 0.0
@<TRIPOS>BOND
1 1 2 1
2 1 3 1
3 1 4 1
4 1 5 1
@<TRIPOS>MOLECULE
CH4
5 4
SMALL
USER_CHARGES


@<TRIPOS>ATOM
1 C 15.097 27.425 9.939 C 0.0 **** 0.0
2 H 15.933 26.745 9.775 H 0.0 **** 0.0
3 H 14.82 27.894 8.995 H 0.0 **** 0.0
4 H 15.39 28.193 10.655 H 0.0 **** 0.0
5 H 14.247 26.868 10.332 H 0.0 **** 0.0
@<TRIPOS>BOND
1 1 2 1
2 1 3 1
3 1 4 1
4 1 5 1
@<TRIPOS>MOLECULE
CH4
5 4
SMALL
USER_CHARGES


@<TRIPOS>ATOM
1 C 19.593 62.974 22.638 C 0.0 **** 0.0
2 H 19.593 63.933 22.121 H 0.0 **** 0.0
3 H 19.006 62.254 22.067 H 0.0 **** 0.0
4 H 19.155 63.096 23.629 H 0.0 **** 0.0
5 H 20.617 62.614 22.735 H 0.0 **** 0.0
@<TRIPOS>BOND
1 1 2 1
2 1 3 1
3 1 4 1
4 1 5 1
@<TRIPOS>MOLECULE
CH4
5 4
SMALL
USER_CHARGES


@<TRIPOS>ATOM
1 C 80.114 76.323 94.416 C 0.0 **** 0.0
2 H 79.478 76.537 95.274 H 0.0 **** 0.0
3 H 81.005 76.951 94.459 H 0.0 **** 0.0
4 H 79.567 76.531 93.497 H 0.0 **** 0.0
5 H 80.408 75.274 94.434 H 0.0 **** 0.0
@<TRIPOS>BOND
1 1 2 1
2 1 3 1
3 1 4 1
4 1 5 1
@<TRIPOS>MOLECULE
CH4
5 4
SMALL
USER_CHARGES


@<TRIPOS>ATOM
1 C 2.94 77.199 46.501 C 0.0 **** 0.0
2 H 2.691 76.693 47.433 H 0.0 **** 0.0
3 H 3.734 76.653 45.991 H 0.0 **** 0.0
4 H 3.277 78.213 46.716 H 0.0 **** 0.0
5 H 2.057 77.238 45.862 H 0.0 **** 0.0
@<TRIPOS>BOND
1 1 2 1
2 1 3 1
3 1 4 1
4 1 5 1
@<TRIPOS>MOLECULE
CH4
5 4
SMALL
USER_CHARGES


@<TRIPOS>ATOM
1 C 41.409 68.913 10.084 C 0.0 **** 0.0
2 H 41.578 68.804 9.013 H 0.0 **** 0.0
3 H 40.791 69.793 10.267 H 0.0 **** 0.0
4 H 42.366 69.028 10.593 H 0.0 **** 0.0
5 H 40.9 68.027 10.463 H 0.0 **** 0.0
@<TRIPOS>BOND
1 1 2 1
2 1 3 1
3 1 4 1
4 1 5 1
@<TRIPOS>MOLECULE
CH4
5 4
SMALL
USER_CHARGES


@<TRIPOS>ATOM
1 C 5.334 98.23 36.511 C 0.0 **** 0.0
2 H 4.91 97.526 37.227 H 0.0 **** 0.0
3 H 5.608 97.7 35.599 H 0.0 **** 0.0
4 H 6.22 98.696 36.941 H 0.0 **** 0.0
5 H 4.597 98.999 36.278 H 0.0 **** 0.0
@<TRIPOS>BOND
1 1 2 1
2 1 3 1
3 1 4 1
4 1 5 1
@<TRIPOS>MOLECULE
CH4
5 4
SMALL
USER_CHARGES


@<TRIPOS>ATOM
1 C 4.714 40.603 62.862 C 0.0 **** 0.0
2 H 4.497 41.213 61.985 H 0.0 **** 0.0
3 H 3.947 39.835 62.969 H 0.0 **** 0.0
4 H 4.723 41.235 63.75 H 0.0 **** 0.0
5 H 5.689 40.129 62.743 H 0.0 **** 0.0
@<TRIPOS>BOND
1 1 2 1
2 1 3 1
3 1 4 1
4 1 5 1
@<TRIPOS>MOLECULE
CH4
5 4
SMALL
USER_CHARGES


@<TRIPOS>ATOM
1 C 55.148 72.151 66.478 C 0.0 **** 0.0
2 H 54.381 72.915 66.609 H 0.0 **** 0.0
3 H 56.097 72.519 66.869 H 0.0 **** 0.0
4 H 55.255 71.923 65.418 H 0.0 **** 0.0
5 H 54.857 71.249 67.016 H 0.0 **** 0.0
@<TRIPOS>BOND
1 1 2 1
2 1 3 1
3 1 4 1
4 1 5 1
@<TRIPOS>MOLECULE
CH4
5 4
SMALL
USER_CHARGES


@<TRIPOS>ATOM
1 C 86.136 45.251 78.77 C 0.0 **** 0.0
2 H 85.859 45.276 79.824 H 0.0 **** 0.0
3 H 86.485 44.252 78.51 H 0.0 **** 0.0
4 H 86.932 45.974 78.587 H 0.0 **** 0.0
5 H 85.269 45.504 78.16 H 0.0 **** 0.0
@<TRIPOS>BOND
1 1 2 1
2 1 3 1
3 1 4 1
4 1 5 1
@<TRIPOS>MOLECULE
CH4
5 4
SMALL
USER_CHARGES


@<TRIPOS>ATOM
1 C 79.117 96.549 2.787 C 0.0 **** 0.0
2 H 79.799 97.323 2.436 H 0.0 **** 0.0
3 H 79.536 96.071 3.673 H 0.0 **** 0.0
4 H 78.977 95.804 2.004 H 0.0 **** 0.0
5 H 78.156 96.998 3.037 H 0.0 **** 0.0
@<TRIPOS>BOND
1 1 2 1
2 1 3 1
3 1 4 1
4 1 5 1
@<TRIPOS>MOLECULE
CH4
5 4
SMALL
USER_CHARGES


@<TRIPOS>ATOM
1 C 27.917 2.96 21.916 C 0.0 **** 0.0
2 H 27.791 3.091 22.991 H 0.0 **** 0.0
3 H 26.98 3.195 21.41 H 0.0 **** 0.0
4 H 28.193 1.926 21.706 H 0.0 **** 0.0
5 H 28.701 3.626 21.558 H 0.0 **** 0.0
@<TRIPOS>BOND
1 1 2 1
2 1 3 1
3 1 4 1
4 1 5 1
@<TRIPOS>MOLECULE
CH4
5 4
SMALL
USER_CHARGES


@<TRIPOS>ATOM
1 C 55.257 23.762 64.374 C 0.0 **** 0.0
2 H 54.84 23.985 65.356 H 0.0 **** 0.0
3 H 56.109 23.091 64.485 H 0.0 **** 0.0
4 H 55.584 24.688 63.9 H 0.0 **** 0.0
5 H 54.497 23.286 63.755 H 0.0 **** 0.0
@<TRIPOS>BOND
1 1 2 1
2 1 3 1
3 1 4 1
4 1 5 1
@<TRIPOS>MOLECULE
CH4
5 4
SMALL
USER_CHARGES


@<TRIPOS>ATOM
1 C 60.701 53.496 34.568 C 0.0 **** 0.0
2 H 60.607 54.548 34.298 H 0.0 **** 0.0
3 H 60.159 53.309 35.496 H 0.0 **** 0.0
4 H 61.753 53.249 34.705 H 0.0 **** 0.0
5 H 60.283 52.879 33.773 H 0.0 **** 0.0
@<TRIPOS>BOND
1 1 2 1
2 1 3 1
3 1 4 1
4 1 5 1
@<TRIPOS>MOLECULE
CH4
5 4
SMALL
USER_CHARGES


@<TRIPOS>ATOM
1 C 41.578 89.187 76.973 C 0.0 **** 0.0
2 H 42.059 90.136 76.739 H 0.0 **** 0.0
3 H 40.689 89.37 77.577 H 0.0 **** 0.0
4 H 42.272 88.556 77.529 H 0.0 **** 0.0
5 H 41.293 88.686 76.048 H 0.0 **** 0.0
@<TRIPOS>BOND
1 1 2 1
2 1 3 1
3 1 4 1
4 1 5 1
@<TRIPOS>MOLECULE
CH4
5 4
SMALL
USER_CHARGES


@<TRIPOS>ATOM
1 C 70.254 78.778 74.218 C 0.0 **** 0.0
2 H 69.224 78.452 74.071 H 0.0 **** 0.0
3 H 70.462 78.853 75.286 H 0.0 **** 0.0
4 H 70.396 79.752 73.751 H 0.0 **** 0.0
5 H 70.932 78.055 73.765 H 0.0 **** 0.0
@<TRIPOS>BOND
1 1 2 1
2 1 3 1
3 1 4 1
4 1 5 1
@<TRIPOS>MOLECULE
CH4
5 4
SMALL
USER_CHARGES


@<TRIPOS>ATOM
1 C 60.249 86.789 80.01 C 0.0 **** 0.0
2 H 60.606 86.793 81.04 H 0.0 **** 0.0
3 H 60.202 87.812 79.638 H 0.0 **** 0.0
4 H 59.256 86.342 79.972 H 0.0 **** 0.0
5 H 60.933 86.208 79.392 H 0.0 **** 0.0
@<TRIPOS>BOND
1 1 2 1
2 1 3 1
3 1 4 1
4 1 5 1
@<TRIPOS>MOLECULE
CH4
5 4
SMALL
USER_CHARGES


@<TRIPOS>ATOM
1 C 17.78 79.835 37.997 C 0.0 **** 0.0
2 H 17.507 79.167 37.181 H 0.0 **** 0.0
3 H 16.914 80.432 38.285 H 0.0 **** 0.0
4 H 18.585 80.495 37.673 H 0.0 **** 0.0
5 H 18.115 79.246 38.851 H 0.0 **** 0.0
@<TRIPOS>BOND
1 1 2 1
2 1 3 1
3 1 4 1
4 1 5 1
@<TRIPOS>MOLECULE
CH4
5 4
SMALL
USER_CHARGES


@<TRIPOS>ATOM
1 C 13.544 4.192 61.767 C 0.0 **** 0.0
2 H 13.689 4.221 62.847 H 0.0 **** 0.0
3 H 12.478 4.137 61.545 H 0.0 **** 0.0
4 H 14.047 3.316 61.357 H 0.0 **** 0.0
5 H 13.963 5.093 61.32 H 0.0 **** 0.0
@<TRIPOS>BOND
1 1 2 1
2 1 3 1
3 1 4 1
4 1 5 1
@<TRIPOS>MOLECULE
CH4
5 4
SMALL
USER_CHARGES


@<TRIPOS>ATOM
1 C 43.452 88.802 31.127 C 0.0 **** 0.0
2 H 43.264 89.471 30.288 H 0.0 **** 0.0
3 H 42.943 89.18 32.014 H 0.0 **** 0.0
4 H 44.524 88.751 31.318 H 0.0 **** 0.0
5 H 43.078 87.807 30.889 H 0.0 **** 0.0
@<TRIPOS>BOND
1 1 2 1
2 1 3 1
3 1 4 1
4 1 5 1
@<TRIPOS>MOLECULE
CH4
5 4
SMALL
USER_CHARGES


@<TRIPOS>ATOM
1 C 3.984 17.799 32.085 C 0.0 **** 0.0
2 H 4.209 17.635 33.139 H 0.0 **** 0.0
3 H 4.91 17.987 31.541 H 0.0 **** 0.0
4 H 3.322 18.659 31.985 H 0.0 **** 0.0
5 H 3.495 16.915 31.676 H 0.0 **** 0.0
@<TRIPOS>BOND
1 1 2 1
2 1 3 1
3 1 4 1
4 1 5 1
@<TRIPOS>MOLECULE
CH4
5 4
SMALL
USER_CHARGES


@<TRIPOS>ATOM
1 C 52.627 55.572 52.092 C 0.0 **** 0.0
2 H 51.566 55.32 52.08 H 0.0 **** 0.0
3 H 53.113 55.134 51.219 H 0.0 **** 0.0
4 H 53.084 55.177 52.999 H 0.0 **** 0.0
5 H 52.743 56.655 52.068 H 0.0 **** 0.0
@<TRIPOS>BOND
1 1 2 1
2 1 3 1
3 1 4 1
4 1 5 1
@<TRIPOS>MOLECULE
CH4
5 4
SMALL
USER_CHARGES


@<TRIPOS>ATOM
1 C 1.976 69.171 78.499 C 0.0 **** 0.0
2 H 0.985 68.987 78.912 H 0.0 **** 0.0
3 H 1.904 69.901 77.692 H 0.0 **** 0.0
4 H 2.386 68.238 78.11 H 0.0 **** 0.0
5 H 2.63 69.557 79.281 H 0.0 **** 0.0
@<TRIPOS>BOND
1 1 2 1
2 1 3 1
3 1 4 1
4 1 5 1
@<TRIPOS>MOLECULE
CH4
5 4
SMALL
USER_CHARGES


@<TRIPOS>ATOM
1 C 50.058 11.758 52.117 C 0.0 **** 0.0
2 H 49.733 11.198 52.994 H 0.0 **** 0.0
3 H 50.067 11.099 51.248 H 0.0 **** 0.0
4 H 51.06 12.15 52.287 H 0.0 **** 0.0
5 H 49.37 12.584 51.939 H 0.0 **** 0.0
@<TRIPOS>BOND
1 1 2 1
2 1 3 1
3 1 4 1
4 1 5 1
@<TRIPOS>MOLECULE
CH4
5 4
SMALL
USER_CHARGES


@<TRIPOS>ATOM
1 C 92.937 41.125 39.169 C 0.0 **** 0.0
2 H 93.193 40.696 38.201 H 0.0 **** 0.0
3 H 92.514 42.119 39.025 H 0.0 **** 0.0
4 H 93.835 41.198 39.783 H 0.0 **** 0.0
5 H 92.207 40.488 39.668 H 0.0 **** 0.0
@<TRIPOS>BOND
1 1 4 1
2 1 5 1
3 1 2 1
4 1 3 1
@<TRIPOS>MOLECULE
CH4
5 4
SMALL
USER_CHARGES


@<TRIPOS>ATOM
1 C 35.579 89.018 70.533 C 0.0 **** 0.0
2 H 36.069 88.53 69.691 H 0.0 **** 0.0
3 H 36.108 89.94 70.776 H 0.0 **** 0.0
4 H 35.593 88.353 71.396 H 0.0 **** 0.0
5 H 34.547 89.25 70.268 H 0.0 **** 0.0
@<TRIPOS>BOND
1 1 2 1
2 1 3 1
3 1 4 1
4 1 5 1
@<TRIPOS>MOLECULE
CH4
5 4
SMALL
USER_CHARGES


@<TRIPOS>ATOM
1 C 81.179 13.607 63.423 C 0.0 **** 0.0
2 H 81.581 14.0 62.49 H 0.0 **** 0.0
3 H 80.108 13.801 63.468 H 0.0 **** 0.0
4 H 81.673 14.093 64.265 H 0.0 **** 0.0
5 H 81.356 12.532 63.47 H 0.0 **** 0.0
@<TRIPOS>BOND
1 1 2 1
2 1 3 1
3 1 4 1
4 1 5 1
@<TRIPOS>MOLECULE
CH4
5 4
SMALL
USER_CHARGES


@<TRIPOS>ATOM
1 C 31.805 72.909 28.576 C 0.0 **** 0.0
2 H 32.433 72.019 28.61 H 0.0 **** 0.0
3 H 31.932 73.478 29.497 H 0.0 **** 0.0
4 H 30.761 72.612 28.473 H 0.0 **** 0.0
5 H 32.093 73.524 27.724 H 0.0 **** 0.0
@<TRIPOS>BOND
1 1 2 1
2 1 3 1
3 1 4 1
4 1 5 1
@<TRIPOS>MOLECULE
CH4
5 4
SMALL
USER_CHARGES


@<TRIPOS>ATOM
1 C 67.713 51.867 89.349 C 0.0 **** 0.0
2 H 68.442 51.888 88.54 H 0.0 **** 0.0
3 H 68.219 51.641 90.288 H 0.0 **** 0.0
4 H 66.965 51.101 89.145 H 0.0 **** 0.0
5 H 67.226 52.839 89.424 H 0.0 **** 0.0
@<TRIPOS>BOND
1 1 2 1
2 1 3 1
3 1 4 1
4 1 5 1
@<TRIPOS>MOLECULE
CH4
5 4
SMALL
USER_CHARGES


@<TRIPOS>ATOM
1 C 16.577 44.592 26.253 C 0.0 **** 0.0
2 H 16.533 44.764 25.177 H 0.0 **** 0.0
3 H 17.36 45.214 26.687 H 0.0 **** 0.0
4 H 16.798 43.542 26.444 H 0.0 **** 0.0
5 H 15.618 44.849 26.702 H 0.0 **** 0.0
@<TRIPOS>BOND
1 1 2 1
2 1 3 1
3 1 4 1
4 1 5 1
@<TRIPOS>MOLECULE
CH4
5 4
SMALL
USER_CHARGES


@<TRIPOS>ATOM
1 C 87.783 78.085 63.801 C 0.0 **** 0.0
2 H 87.321 77.49 63.013 H 0.0 **** 0.0
3 H 88.288 77.424 64.506 H 0.0 **** 0.0
4 H 87.015 78.655 64.323 H 0.0 **** 0.0
5 H 88.508 78.769 63.362 H 0.0 **** 0.0
@<TRIPOS>BOND
1 1 2 1
2 1 3 1
3 1 4 1
4 1 5 1
@<TRIPOS>MOLECULE
CH4
5 4
SMALL
USER_CHARGES


@<TRIPOS>ATOM
1 C 59.761 50.001 48.302 C 0.0 **** 0.0
2 H 60.849 50.003 48.236 H 0.0 **** 0.0
3 H 59.387 51.017 48.174 H 0.0 **** 0.0
4 H 59.458 49.621 49.278 H 0.0 **** 0.0
5 H 59.352 49.361 47.52 H 0.0 **** 0.0
@<TRIPOS>BOND
1 1 2 1
2 1 3 1
3 1 4 1
4 1 5 1
@<TRIPOS>MOLECULE
CH4
5 4
SMALL
USER_CHARGES


@<TRIPOS>ATOM
1 C 89.533 29.035 69.056 C 0.0 **** 0.0
2 H 89.505 29.03 67.966 H 0.0 **** 0.0
3 H 89.024 29.924 69.429 H 0.0 **** 0.0
4 H 90.569 29.041 69.393 H 0.0 **** 0.0
5 H 89.033 28.143 69.435 H 0.0 **** 0.0
@<TRIPOS>BOND
1 1 2 1
2 1 3 1
3 1 4 1
4 1 5 1
@<TRIPOS>MOLECULE
CH4
5 4
SMALL
USER_CHARGES


@<TRIPOS>ATOM
1 C 86.243 2.955 92.407 C 0.0 **** 0.0
2 H 85.299 2.868 92.946 H 0.0 **** 0.0
3 H 86.731 1.981 92.37 H 0.0 **** 0.0
4 H 86.889 3.668 92.919 H 0.0 **** 0.0
5 H 86.05 3.304 91.392 H 0.0 **** 0.0
@<TRIPOS>BOND
1 1 2 1
2 1 3 1
3 1 4 1
4 1 5 1
@<TRIPOS>MOLECULE
CH4
5 4
SMALL
USER_CHARGES


@<TRIPOS>ATOM
1 C 14.824 40.851 43.692 C 0.0 **** 0.0
2 H 13.98 40.197 43.915 H 0.0 **** 0.0
3 H 15.456 40.383 42.936 H 0.0 **** 0.0
4 H 15.405 41.015 44.6 H 0.0 **** 0.0
5 H 14.455 41.806 43.318 H 0.0 **** 0.0
@<TRIPOS>BOND
1 1 2 1
2 1 3 1
3 1 4 1
4 1 5 1
@<TRIPOS>MOLECULE
CH4
5 4
SMALL
USER_CHARGES


@<TRIPOS>ATOM
1 C 55.622 63.547 43.414 C 0.0 **** 0.0
2 H 55.055 63.816 44.306 H 0.0 **** 0.0
3 H 56.477 64.216 43.312 H 0.0 **** 0.0
4 H 54.982 63.637 42.537 H 0.0 **** 0.0
5 H 55.973 62.519 43.504 H 0.0 **** 0.0
@<TRIPOS>BOND
1 1 2 1
2 1 3 1
3 1 4 1
4 1 5 1
@<TRIPOS>MOLECULE
CH4
5 4
SMALL
USER_CHARGES


@<TRIPOS>ATOM
1 C 56.977 91.274 68.375 C 0.0 **** 0.0
2 H 57.496 91.146 69.325 H 0.0 **** 0.0
3 H 57.474 92.049 67.791 H 0.0 **** 0.0
4 H 55.944 91.566 68.563 H 0.0 **** 0.0
5 H 56.994 90.335 67.822 H 0.0 **** 0.0
@<TRIPOS>BOND
1 1 2 1
2 1 3 1
3 1 4 1
4 1 5 1
@<TRIPOS>MOLECULE
CH4
5 4
SMALL
USER_CHARGES


@<TRIPOS>ATOM
1 C 43.106 24.285 81.097 C 0.0 **** 0.0
2 H 44.066 24.776 81.255 H 0.0 **** 0.0
3 H 43.182 23.238 81.393 H 0.0 **** 0.0
4 H 42.836 24.346 80.043 H 0.0 **** 0.0
5 H 42.343 24.778 81.698 H 0.0 **** 0.0
@<TRIPOS>BOND
1 1 2 1
2 1 3 1
3 1 4 1
4 1 5 1
@<TRIPOS>MOLECULE
CH4
5 4
SMALL
USER_CHARGES


@<TRIPOS>ATOM
1 C 12.844 19.559 47.499 C 0.0 **** 0.0
2 H 12.536 19.731 48.531 H 0.0 **** 0.0
3 H 12.714 18.505 47.252 H 0.0 **** 0.0
4 H 13.892 19.834 47.383 H 0.0 **** 0.0
5 H 12.232 20.167 46.833 H 0.0 **** 0.0
@<TRIPOS>BOND
1 1 2 1
2 1 3 1
3 1 4 1
4 1 5 1
@<TRIPOS>MOLECULE
CH4
5 4
SMALL
USER_CHARGES


@<TRIPOS>ATOM
1 C 5.554 85.939 97.928 C 0.0 **** 0.0
2 H 5.43 86.058 99.004 H 0.0 **** 0.0
3 H 6.029 84.98 97.721 H 0.0 **** 0.0
4 H 6.178 86.745 97.543 H 0.0 **** 0.0
5 H 4.577 85.974 97.445 H 0.0 **** 0.0
@<TRIPOS>BOND
1 1 2 1
2 1 3 1
3 1 4 1
4 1 5 1
@<TRIPOS>MOLECULE
CH4
5 4
SMALL
USER_CHARGES


@<TRIPOS>ATOM
1 C 41.244 89.711 22.247 C 0.0 **** 0.0
2 H 41.163 89.479 23.309 H 0.0 **** 0.0
3 H 42.275 89.972 22.011 H 0.0 **** 0.0
4 H 40.592 90.551 22.009 H 0.0 **** 0.0
5 H 40.946 88.841 21.662 H 0.0 **** 0.0
@<TRIPOS>BOND
1 1 2 1
2 1 3 1
3 1 4 1
4 1 5 1
@<TRIPOS>MOLECULE
CH4
5 4
SMALL
USER_CHARGES


@<TRIPOS>ATOM
1 C 2.382 26.381 66.807 C 0.0 **** 0.0
2 H 1.721 26.549 67.658 H 0.0 **** 0.0
3 H 1.841 25.842 66.028 H 0.0 **** 0.0
4 H 3.241 25.792 67.127 H 0.0 **** 0.0
5 H 2.723 27.34 66.418 H 0.0 **** 0.0
@<TRIPOS>BOND
1 1 4 1
2 1 5 1
3 1 2 1
4 1 3 1
@<TRIPOS>MOLECULE
CH4
5 4
SMALL
USER_CHARGES


@<TRIPOS>ATOM
1 C 24.619 44.752 75.503 C 0.0 **** 0.0
2 H 24.612 44.752 76.593 H 0.0 **** 0.0
3 H 25.648 44.697 75.147 H 0.0 **** 0.0
4 H 24.155 45.667 75.136 H 0.0 **** 0.0
5 H 24.061 43.89 75.137 H 0.0 **** 0.0
@<TRIPOS>BOND
1 1 2 1
2 1 3 1
3 1 4 1
4 1 5 1
@<TRIPOS>MOLECULE
CH4
5 4
SMALL
USER_CHARGES


@<TRIPOS>ATOM
1 C 4.92 52.473 51.923 C 0.0 **** 0.0
2 H 5.65 53.245 51.679 H 0.0 **** 0.0
3 H 5.307 51.849 52.729 H 0.0 **** 0.0
4 H 4.736 51.858 51.042 H 0.0 **** 0.0
5 H 3.989 52.942 52.24 H 0.0 **** 0.0
@<TRIPOS>BOND
1 1 2 1
2 1 3 1
3 1 4 1
4 1 5 1
@<TRIPOS>MOLECULE
CH4
5 4
SMALL
USER_CHARGES


@<TRIPOS>ATOM
1 C 1.033 26.252 60.313 C 0.0 **** 0.0
2 H 2.103 26.05 60.371 H 0.0 **** 0.0
3 H 0.751 26.942 61.108 H 0.0 **** 0.0
4 H 0.481 25.319 60.429 H 0.0 **** 0.0
5 H 0.799 26.695 59.346 H 0.0 **** 0.0
@<TRIPOS>BOND
1 1 2 1
2 1 3 1
3 1 4 1
4 1 5 1
@<TRIPOS>MOLECULE
CH4
5 4
SMALL
USER_CHARGES


@<TRIPOS>ATOM
1 C 52.027 85.26 89.89 C 0.0 **** 0.0
2 H 52.606 84.38 89.613 H 0.0 **** 0.0
3 H 51.426 85.582 89.04 H 0.0 **** 0.0
4 H 52.704 86.064 90.182 H 0.0 **** 0.0
5 H 51.372 85.016 90.727 H 0.0 **** 0.0
@<TRIPOS>BOND
1 1 2 1
2 1 3 1
3 1 4 1
4 1 5 1
@<TRIPOS>MOLECULE
CH4
5 4
SMALL
USER_CHARGES


@<TRIPOS>ATOM
1 C 77.424 78.346 11.962 C 0.0 **** 0.0
2 H 78.502 78.261 12.095 H 0.0 **** 0.0
3 H 76.916 77.818 12.769 H 0.0 **** 0.0
4 H 77.14 77.908 11.006 H 0.0 **** 0.0
5 H 77.138 79.398 11.979 H 0.0 **** 0.0
@<TRIPOS>BOND
1 1 2 1
2 1 3 1
3 1 4 1
4 1 5 1
@<TRIPOS>MOLECULE
CH4
5 4
SMALL
USER_CHARGES


@<TRIPOS>ATOM
1 C 68.688 95.659 16.766 C 0.0 **** 0.0
2 H 69.248 96.573 16.569 H 0.0 **** 0.0
3 H 67.722 95.912 17.203 H 0.0 **** 0.0
4 H 69.248 95.033 17.462 H 0.0 **** 0.0
5 H 68.536 95.118 15.833 H 0.0 **** 0.0
@<TRIPOS>BOND
1 1 2 1
2 1 3 1
3 1 4 1
4 1 5 1
@<TRIPOS>MOLECULE
CH4
5 4
SMALL
USER_CHARGES


@<TRIPOS>ATOM
1 C 95.739 52.842 49.818 C 0.0 **** 0.0
2 H 96.319 53.227 50.657 H 0.0 **** 0.0
3 H 95.723 51.752 49.858 H 0.0 **** 0.0
4 H 96.196 53.165 48.883 H 0.0 **** 0.0
5 H 94.72 53.223 49.876 H 0.0 **** 0.0
@<TRIPOS>BOND
1 1 3 1
2 1 2 1
3 1 4 1
4 1 5 1
@<TRIPOS>MOLECULE
CH4
5 4
SMALL
USER_CHARGES


@<TRIPOS>ATOM
1 C 81.761 27.047 79.544 C 0.0 **** 0.0
2 H 81.14 26.181 79.775 H 0.0 **** 0.0
3 H 82.726 26.944 80.041 H 0.0 **** 0.0
4 H 81.266 27.953 79.895 H 0.0 **** 0.0
5 H 81.912 27.109 78.466 H 0.0 **** 0.0
@<TRIPOS>BOND
1 1 2 1
2 1 3 1
3 1 4 1
4 1 5 1
@<TRIPOS>MOLECULE
CH4
5 4
SMALL
USER_CHARGES


@<TRIPOS>ATOM
1 C 58.506 73.463 48.752 C 0.0 **** 0.0
2 H 58.392 72.619 48.071 H 0.0 **** 0.0
3 H 59.566 73.643 48.933 H 0.0 **** 0.0
4 H 58.008 73.239 49.695 H 0.0 **** 0.0
5 H 58.057 74.351 48.307 H 0.0 **** 0.0
@<TRIPOS>BOND
1 1 2 1
2 1 3 1
3 1 4 1
4 1 5 1
@<TRIPOS>MOLECULE
CH4
5 4
SMALL
USER_CHARGES


@<TRIPOS>ATOM
1 C 7.502 60.82 6.361 C 0.0 **** 0.0
2 H 7.387 60.847 7.445 H 0.0 **** 0.0
3 H 6.55 60.553 5.902 H 0.0 **** 0.0
4 H 8.255 60.079 6.094 H 0.0 **** 0.0
5 H 7.815 61.801 6.004 H 0.0 **** 0.0
@<TRIPOS>BOND
1 1 2 1
2 1 3 1
3 1 4 1
4 1 5 1
@<TRIPOS>MOLECULE
CH4
5 4
SMALL
USER_CHARGES


@<TRIPOS>ATOM
1 C 28.947 73.351 85.756 C 0.0 **** 0.0
2 H 29.946 73.753 85.924 H 0.0 **** 0.0
3 H 28.708 72.632 86.54 H 0.0 **** 0.0
4 H 28.914 72.855 84.786 H 0.0 **** 0.0
5 H 28.221 74.163 85.774 H 0.0 **** 0.0
@<TRIPOS>BOND
1 1 2 1
2 1 3 1
3 1 4 1
4 1 5 1
@<TRIPOS>MOLECULE
CH4
5 4
SMALL
USER_CHARGES


@<TRIPOS>ATOM
1 C 69.476 95.038 89.82 C 0.0 **** 0.0
2 H 69.179 95.82 90.519 H 0.0 **** 0.0
3 H 70.222 94.396 90.289 H 0.0 **** 0.0
4 H 69.899 95.493 88.924 H 0.0 **** 0.0
5 H 68.604 94.443 89.548 H 0.0 **** 0.0
@<TRIPOS>BOND
1 1 2 1
2 1 3 1
3 1 4 1
4 1 5 1
@<TRIPOS>MOLECULE
CH4
5 4
SMALL
USER_CHARGES


@<TRIPOS>ATOM
1 C 41.006 20.076 73.402 C 0.0 **** 0.0
2 H 40.925 18.996 73.279 H 0.0 **** 0.0
3 H 40.362 20.574 72.677 H 0.0 **** 0.0
4 H 42.039 20.383 73.242 H 0.0 **** 0.0
5 H 40.698 20.35 74.411 H 0.0 **** 0.0
@<TRIPOS>BOND
1 1 2 1
2 1 3 1
3 1 4 1
4 1 5 1
@<TRIPOS>MOLECULE
CH4
5 4
SMALL
USER_CHARGES


@<TRIPOS>ATOM
1 C 17.829 33.454 85.615 C 0.0 **** 0.0
2 H 18.217 33.683 84.622 H 0.0 **** 0.0
3 H 17.476 32.423 85.638 H 0.0 **** 0.0
4 H 17.003 34.127 85.846 H 0.0 **** 0.0
5 H 18.621 33.584 86.352 H 0.0 **** 0.0
@<TRIPOS>BOND
1 1 2 1
2 1 3 1
3 1 4 1
4 1 5 1
@<TRIPOS>MOLECULE
CH4
5 4
SMALL
USER_CHARGES


@<TRIPOS>ATOM
1 C 54.704 51.532 49.711 C 0.0 **** 0.0
2 H 54.746 51.546 50.8 H 0.0 **** 0.0
3 H 53.734 51.151 49.39 H 0.0 **** 0.0
4 H 55.494 50.888 49.324 H 0.0 **** 0.0
5 H 54.84 52.544 49.33 H 0.0 **** 0.0
@<TRIPOS>BOND
1 1 2 1
2 1 3 1
3 1 4 1
4 1 5 1
@<TRIPOS>MOLECULE
CH4
5 4
SMALL
USER_CHARGES


@<TRIPOS>ATOM
1 C 53.093 93.123 14.32 C 0.0 **** 0.0
2 H 53.303 92.984 15.381 H 0.0 **** 0.0
3 H 53.195 94.178 14.066 H 0.0 **** 0.0
4 H 52.077 92.793 14.105 H 0.0 **** 0.0
5 H 53.799 92.537 13.731 H 0.0 **** 0.0
@<TRIPOS>BOND
1 1 2 1
2 1 3 1
3 1 4 1
4 1 5 1
@<TRIPOS>MOLECULE
CH4
5 4
SMALL
USER_CHARGES


@<TRIPOS>ATOM
1 C 25.987 12.719 4.381 C 0.0 **** 0.0
2 H 25.389 12.845 3.479 H 0.0 **** 0.0
3 H 26.646 13.579 4.503 H 0.0 **** 0.0
4 H 26.585 11.812 4.297 H 0.0 **** 0.0
5 H 25.328 12.641 5.246 H 0.0 **** 0.0
@<TRIPOS>BOND
1 1 3 1
2 1 4 1
3 1 5 1
4 1 2 1
@<TRIPOS>MOLECULE
CH4
5 4
SMALL
USER_CHARGES


@<TRIPOS>ATOM
1 C 8.318 22.468 69.11 C 0.0 **** 0.0
2 H 8.394 22.554 68.026 H 0.0 **** 0.0
3 H 7.268 22.481 69.403 H 0.0 **** 0.0
4 H 8.836 23.306 69.577 H 0.0 **** 0.0
5 H 8.775 21.533 69.433 H 0.0 **** 0.0
@<TRIPOS>BOND
1 1 2 1
2 1 3 1
3 1 4 1
4 1 5 1
@<TRIPOS>MOLECULE
CH4
5 4
SMALL
USER_CHARGES


@<TRIPOS>ATOM
1 C 61.057 22.053 59.738 C 0.0 **** 0.0
2 H 60.158 21.876 59.147 H 0.0 **** 0.0
3 H 61.465 21.099 60.073 H 0.0 **** 0.0
4 H 60.807 22.667 60.603 H 0.0 **** 0.0
5 H 61.797 22.57 59.127 H 0.0 **** 0.0
@<TRIPOS>BOND
1 1 2 1
2 1 3 1
3 1 4 1
4 1 5 1
@<TRIPOS>MOLECULE
CH4
5 4
SMALL
USER_CHARGES


@<TRIPOS>ATOM
1 C 71.574 53.832 10.075 C 0.0 **** 0.0
2 H 71.944 53.097 10.79 H 0.0 **** 0.0
3 H 70.487 53.886 10.139 H 0.0 **** 0.0
4 H 71.865 53.537 9.067 H 0.0 **** 0.0
5 H 72.001 54.808 10.305 H 0.0 **** 0.0
@<TRIPOS>BOND
1 1 2 1
2 1 3 1
3 1 4 1
4 1 5 1
@<TRIPOS>MOLECULE
CH4
5 4
SMALL
USER_CHARGES


@<TRIPOS>ATOM
1 C 29.791 65.003 83.631 C 0.0 **** 0.0
2 H 29.924 64.221 84.378 H 0.0 **** 0.0
3 H 29.281 65.854 84.084 H 0.0 **** 0.0
4 H 29.194 64.619 82.804 H 0.0 **** 0.0
5 H 30.765 65.32 83.259 H 0.0 **** 0.0
@<TRIPOS>BOND
1 1 2 1
2 1 3 1
3 1 4 1
4 1 5 1
@<TRIPOS>MOLECULE
CH4
5 4
SMALL
USER_CHARGES


@<TRIPOS>ATOM
1 C 27.905 57.438 68.78 C 0.0 **** 0.0
2 H 28.289 58.246 69.403 H 0.0 **** 0.0
3 H 26.833 57.57 68.634 H 0.0 **** 0.0
4 H 28.091 56.482 69.271 H 0.0 **** 0.0
5 H 28.409 57.454 67.813 H 0.0 **** 0.0
@<TRIPOS>BOND
1 1 2 1
2 1 3 1
3 1 4 1
4 1 5 1
@<TRIPOS>MOLECULE
CH4
5 4
SMALL
USER_CHARGES


@<TRIPOS>ATOM
1 C 17.135 89.979 94.228 C 0.0 **** 0.0
2 H 16.302 90.662 94.059 H 0.0 **** 0.0
3 H 17.058 89.554 95.229 H 0.0 **** 0.0
4 H 18.075 90.524 94.136 H 0.0 **** 0.0
5 H 17.104 89.179 93.489 H 0.0 **** 0.0
@<TRIPOS>BOND
1 1 2 1
2 1 3 1
3 1 4 1
4 1 5 1
@<TRIPOS>MOLECULE
CH4
5 4
SMALL
USER_CHARGES


@<TRIPOS>ATOM
1 C 59.021 66.971 45.955 C 0.0 **** 0.0
2 H 58.491 66.353 46.68 H 0.0 **** 0.0
3 H 58.536 66.885 44.982 H 0.0 **** 0.0
4 H 60.054 66.633 45.878 H 0.0 **** 0.0
5 H 59.001 68.011 46.281 H 0.0 **** 0.0
@<TRIPOS>BOND
1 1 2 1
2 1 3 1
3 1 4 1
4 1 5 1
@<TRIPOS>MOLECULE
CH4
5 4
SMALL
USER_CHARGES


@<TRIPOS>ATOM
1 C 58.519 60.865 91.743 C 0.0 **** 0.0
2 H 58.177 60.973 90.714 H 0.0 **** 0.0
3 H 59.49 60.369 91.753 H 0.0 **** 0.0
4 H 57.801 60.267 92.304 H 0.0 **** 0.0
5 H 58.608 61.849 92.202 H 0.0 **** 0.0
@<TRIPOS>BOND
1 1 2 1
2 1 3 1
3 1 4 1
4 1 5 1
@<TRIPOS>MOLECULE
CH4
5 4
SMALL
USER_CHARGES


@<TRIPOS>ATOM
1 C 64.437 48.659 35.127 C 0.0 **** 0.0
2 H 65.157 48.03 35.651 H 0.0 **** 0.0
3 H 64.803 49.685 35.099 H 0.0 **** 0.0
4 H 63.481 48.628 35.65 H 0.0 **** 0.0
5 H 64.307 48.29 34.11 H 0.0 **** 0.0
@<TRIPOS>BOND
1 1 2 1
2 1 3 1
3 1 4 1
4 1 5 1
@<TRIPOS>MOLECULE
CH4
5 4
SMALL
USER_CHARGES


@<TRIPOS>ATOM
1 C 48.609 6.382 88.771 C 0.0 **** 0.0
2 H 49.164 6.638 89.673 H 0.0 **** 0.0
3 H 47.676 5.889 89.046 H 0.0 **** 0.0
4 H 49.207 5.71 88.155 H 0.0 **** 0.0
5 H 48.389 7.29 88.21 H 0.0 **** 0.0
@<TRIPOS>BOND
1 1 2 1
2 1 3 1
3 1 4 1
4 1 5 1
@<TRIPOS>MOLECULE
CH4
5 4
SMALL
USER_CHARGES


@<TRIPOS>ATOM
1 C 5.285 85.111 74.035 C 0.0 **** 0.0
2 H 5.205 85.151 72.949 H 0.0 **** 0.0
3 H 4.362 84.709 74.453 H 0.0 **** 0.0
4 H 5.453 86.116 74.424 H 0.0 **** 0.0
5 H 6.121 84.47 74.314 H 0.0 **** 0.0
@<TRIPOS>BOND
1 1 2 1
2 1 3 1
3 1 4 1
4 1 5 1
@<TRIPOS>MOLECULE
CH4
5 4
SMALL
USER_CHARGES


@<TRIPOS>ATOM
1 C 37.757 82.218 48.128 C 0.0 **** 0.0
2 H 38.17 82.631 49.049 H 0.0 **** 0.0
3 H 37.402 81.204 48.312 H 0.0 **** 0.0
4 H 38.53 82.2 47.36 H 0.0 **** 0.0
5 H 36.926 82.839 47.792 H 0.0 **** 0.0
@<TRIPOS>BOND
1 1 2 1
2 1 3 1
3 1 4 1
4 1 5 1
@<TRIPOS>MOLECULE
CH4
5 4
SMALL
USER_CHARGES


@<TRIPOS>ATOM
1 C 39.097 18.789 78.759 C 0.0 **** 0.0
2 H 39.781 18.603 79.587 H 0.0 **** 0.0
3 H 38.08 18.878 79.142 H 0.0 **** 0.0
4 H 39.148 17.961 78.052 H 0.0 **** 0.0
5 H 39.379 19.715 78.257 H 0.0 **** 0.0
@<TRIPOS>BOND
1 1 2 1
2 1 3 1
3 1 4 1
4 1 5 1
@<TRIPOS>MOLECULE
CH4
5 4
SMALL
USER_CHARGES


@<TRIPOS>ATOM
1 C 87.111 13.541 54.694 C 0.0 **** 0.0
2 H 88.074 13.19 54.323 H 0.0 **** 0.0
3 H 86.891 14.519 54.264 H 0.0 **** 0.0
4 H 87.148 13.622 55.781 H 0.0 **** 0.0
5 H 86.332 12.834 54.409 H 0.0 **** 0.0
@<TRIPOS>BOND
1 1 2 1
2 1 3 1
3 1 4 1
4 1 5 1
@<TRIPOS>MOLECULE
CH4
5 4
SMALL
USER_CHARGES


@<TRIPOS>ATOM
1 C 51.631 23.456 48.984 C 0.0 **** 0.0
2 H 50.884 22.9 49.55 H 0.0 **** 0.0
3 H 52.328 23.934 49.673 H 0.0 **** 0.0
4 H 51.137 24.217 48.38 H 0.0 **** 0.0
5 H 52.176 22.772 48.333 H 0.0 **** 0.0
@<TRIPOS>BOND
1 1 2 1
2 1 3 1
3 1 4 1
4 1 5 1
@<TRIPOS>MOLECULE
CH4
5 4
SMALL
USER_CHARGES


@<TRIPOS>ATOM
1 C 37.566 81.701 44.838 C 0.0 **** 0.0
2 H 37.512 81.868 43.762 H 0.0 **** 0.0
3 H 36.932 80.855 45.106 H 0.0 **** 0.0
4 H 37.221 82.593 45.361 H 0.0 **** 0.0
5 H 38.596 81.488 45.122 H 0.0 **** 0.0
@<TRIPOS>BOND
1 1 2 1
2 1 3 1
3 1 4 1
4 1 5 1
@<TRIPOS>MOLECULE
CH4
5 4
SMALL
USER_CHARGES


@<TRIPOS>ATOM
1 C 86.315 17.988 83.429 C 0.0 **** 0.0
2 H 87.118 18.722 83.366 H 0.0 **** 0.0
3 H 85.353 18.497 83.374 H 0.0 **** 0.0
4 H 86.388 17.45 84.375 H 0.0 **** 0.0
5 H 86.401 17.283 82.603 H 0.0 **** 0.0
@<TRIPOS>BOND
1 1 2 1
2 1 3 1
3 1 4 1
4 1 5 1
@<TRIPOS>MOLECULE
CH4
5 4
SMALL
USER_CHARGES


@<TRIPOS>ATOM
1 C 55.307 36.094 7.98 C 0.0 **** 0.0
2 H 54.957 36.282 6.965 H 0.0 **** 0.0
3 H 55.885 35.17 7.999 H 0.0 **** 0.0
4 H 54.451 36.002 8.648 H 0.0 **** 0.0
5 H 55.935 36.923 8.306 H 0.0 **** 0.0
@<TRIPOS>BOND
1 1 2 1
2 1 3 1
3 1 4 1
4 1 5 1
@<TRIPOS>MOLECULE
CH4
5 4
SMALL
USER_CHARGES


@<TRIPOS>ATOM
1 C 20.083 48.825 85.835 C 0.0 **** 0.0
2 H 19.613 49.281 84.963 H 0.0 **** 0.0
3 H 19.488 47.973 86.164 H 0.0 **** 0.0
4 H 20.145 49.558 86.639 H 0.0 **** 0.0
5 H 21.086 48.488 85.572 H 0.0 **** 0.0
@<TRIPOS>BOND
1 1 2 1
2 1 3 1
3 1 4 1
4 1 5 1
@<TRIPOS>MOLECULE
CH4
5 4
SMALL
USER_CHARGES


@<TRIPOS>ATOM
1 C 59.615 41.602 12.348 C 0.0 **** 0.0
2 H 60.689 41.572 12.532 H 0.0 **** 0.0
3 H 59.126 40.82 12.929 H 0.0 **** 0.0
4 H 59.424 41.441 11.288 H 0.0 **** 0.0
5 H 59.223 42.575 12.645 H 0.0 **** 0.0
@<TRIPOS>BOND
1 1 2 1
2 1 3 1
3 1 4 1
4 1 5 1
@<TRIPOS>MOLECULE
CH4
5 4
SMALL
USER_CHARGES


@<TRIPOS>ATOM
1 C 64.748 3.748 82.623 C 0.0 **** 0.0
2 H 65.1 3.547 83.635 H 0.0 **** 0.0
3 H 65.576 3.633 81.922 H 0.0 **** 0.0
4 H 64.364 4.767 82.568 H 0.0 **** 0.0
5 H 63.955 3.046 82.368 H 0.0 **** 0.0
@<TRIPOS>BOND
1 1 2 1
2 1 3 1
3 1 4 1
4 1 5 1
@<TRIPOS>MOLECULE
CH4
5 4
SMALL
USER_CHARGES


@<TRIPOS>ATOM
1 C 27.982 82.897 75.119 C 0.0 **** 0.0
2 H 27.617 82.323 74.267 H 0.0 **** 0.0
3 H 27.637 83.927 75.036 H 0.0 **** 0.0
4 H 29.072 82.877 75.13 H 0.0 **** 0.0
5 H 27.601 82.458 76.041 H 0.0 **** 0.0
@<TRIPOS>BOND
1 1 2 1
2 1 3 1
3 1 4 1
4 1 5 1
@<TRIPOS>MOLECULE
CH4
5 4
SMALL
USER_CHARGES


@<TRIPOS>ATOM
1 C 43.2 35.39 89.444 C 0.0 **** 0.0
2 H 43.901 35.187 90.253 H 0.0 **** 0.0
3 H 43.71 35.933 88.648 H 0.0 **** 0.0
4 H 42.373 35.992 89.822 H 0.0 **** 0.0
5 H 42.814 34.448 89.052 H 0.0 **** 0.0
@<TRIPOS>BOND
1 1 2 1
2 1 3 1
3 1 4 1
4 1 5 1
@<TRIPOS>MOLECULE
CH4
5 4
SMALL
USER_CHARGES


@<TRIPOS>ATOM
1 C 30.403 81.445 35.256 C 0.0 **** 0.0
2 H 30.805 81.368 34.246 H 0.0 **** 0.0
3 H 29.561 82.137 35.261 H 0.0 **** 0.0
4 H 31.179 81.811 35.928 H 0.0 **** 0.0
5 H 30.068 80.462 35.589 H 0.0 **** 0.0
@<TRIPOS>BOND
1 1 2 1
2 1 3 1
3 1 4 1
4 1 5 1
@<TRIPOS>MOLECULE
CH4
5 4
SMALL
USER_CHARGES


@<TRIPOS>ATOM
1 C 67.702 29.425 66.976 C 0.0 **** 0.0
2 H 66.845 29.383 66.304 H 0.0 **** 0.0
3 H 67.931 28.422 67.337 H 0.0 **** 0.0
4 H 67.468 30.071 67.822 H 0.0 **** 0.0
5 H 68.563 29.825 66.441 H 0.0 **** 0.0
@<TRIPOS>BOND
1 1 2 1
2 1 3 1
3 1 4 1
4 1 5 1
@<TRIPOS>MOLECULE
CH4
5 4
SMALL
USER_CHARGES


@<TRIPOS>ATOM
1 C 10.98 3.526 46.671 C 0.0 **** 0.0
2 H 10.741 3.902 45.676 H 0.0 **** 0.0
3 H 12.057 3.385 46.757 H 0.0 **** 0.0
4 H 10.474 2.573 46.83 H 0.0 **** 0.0
5 H 10.646 4.244 47.42 H 0.0 **** 0.0
@<TRIPOS>BOND
1 1 2 1
2 1 3 1
3 1 4 1
4 1 5 1
@<TRIPOS>MOLECULE
CH4
5 4
SMALL
USER_CHARGES


@<TRIPOS>ATOM
1 C 90.767 23.818 71.075 C 0.0 **** 0.0
2 H 90.224 23.129 71.722 H 0.0 **** 0.0
3 H 90.509 24.843 71.34 H 0.0 **** 0.0
4 H 90.494 23.631 70.036 H 0.0 **** 0.0
5 H 91.839 23.667 71.202 H 0.0 **** 0.0
@<TRIPOS>BOND
1 1 2 1
2 1 3 1
3 1 4 1
4 1 5 1
@<TRIPOS>MOLECULE
CH4
5 4
SMALL
USER_CHARGES


@<TRIPOS>ATOM
1 C 92.446 42.962 51.126 C 0.0 **** 0.0
2 H 92.002 41.967 51.107 H 0.0 **** 0.0
3 H 93.456 42.902 51.532 H 0.0 **** 0.0
4 H 91.84 43.617 51.753 H 0.0 **** 0.0
5 H 92.484 43.363 50.113 H 0.0 **** 0.0
@<TRIPOS>BOND
1 1 2 1
2 1 3 1
3 1 4 1
4 1 5 1
@<TRIPOS>MOLECULE
CH4
5 4
SMALL
USER_CHARGES


@<TRIPOS>ATOM
1 C 56.725 22.337 40.565 C 0.0 **** 0.0
2 H 55.963 22.016 41.275 H 0.0 **** 0.0
3 H 57.693 21.935 40.865 H 0.0 **** 0.0
4 H 56.772 23.426 40.552 H 0.0 **** 0.0
5 H 56.472 21.972 39.57 H 0.0 **** 0.0
@<TRIPOS>BOND
1 1 2 1
2 1 3 1
3 1 4 1
4 1 5 1
@<TRIPOS>MOLECULE
CH4
5 4
SMALL
USER_CHARGES


@<TRIPOS>ATOM
1 C 9.825 26.704 79.907 C 0.0 **** 0.0
2 H 10.878 26.928 79.737 H 0.0 **** 0.0
3 H 9.707 25.638 80.104 H 0.0 **** 0.0
4 H 9.248 26.976 79.023 H 0.0 **** 0.0
5 H 9.466 27.274 80.764 H 0.0 **** 0.0
@<TRIPOS>BOND
1 1 2 1
2 1 3 1
3 1 4 1
4 1 5 1
@<TRIPOS>MOLECULE
CH4
5 4
SMALL
USER_CHARGES


@<TRIPOS>ATOM
1 C 9.697 69.743 69.028 C 0.0 **** 0.0
2 H 10.148 69.351 69.939 H 0.0 **** 0.0
3 H 9.901 70.811 68.951 H 0.0 **** 0.0
4 H 8.619 69.58 69.057 H 0.0 **** 0.0
5 H 10.119 69.229 68.164 H 0.0 **** 0.0
@<TRIPOS>BOND
1 1 2 1
2 1 3 1
3 1 4 1
4 1 5 1
@<TRIPOS>MOLECULE
CH4
5 4
SMALL
USER_CHARGES


@<TRIPOS>ATOM
1 C 86.547 86.143 39.376 C 0.0 **** 0.0
2 H 86.458 87.227 39.3 H 0.0 **** 0.0
3 H 85.938 85.786 40.206 H 0.0 **** 0.0
4 H 87.589 85.876 39.548 H 0.0 **** 0.0
5 H 86.202 85.685 38.449 H 0.0 **** 0.0
@<TRIPOS>BOND
1 1 2 1
2 1 3 1
3 1 4 1
4 1 5 1
@<TRIPOS>MOLECULE
CH4
5 4
SMALL
USER_CHARGES


@<TRIPOS>ATOM
1 C 28.361 77.12 78.5 C 0.0 **** 0.0
2 H 29.387 76.763 78.595 H 0.0 **** 0.0
3 H 27.677 76.272 78.526 H 0.0 **** 0.0
4 H 28.248 77.65 77.553 H 0.0 **** 0.0
5 H 28.134 77.797 79.324 H 0.0 **** 0.0
@<TRIPOS>BOND
1 1 2 1
2 1 3 1
3 1 4 1
4 1 5 1
@<TRIPOS>MOLECULE
CH4
5 4
SMALL
USER_CHARGES


@<TRIPOS>ATOM
1 C 71.645 18.461 86.261 C 0.0 **** 0.0
2 H 71.796 17.588 86.896 H 0.0 **** 0.0
3 H 71.007 18.191 85.419 H 0.0 **** 0.0
4 H 72.608 18.812 85.891 H 0.0 **** 0.0
5 H 71.168 19.252 86.839 H 0.0 **** 0.0
@<TRIPOS>BOND
1 1 2 1
2 1 3 1
3 1 4 1
4 1 5 1
@<TRIPOS>MOLECULE
CH4
5 4
SMALL
USER_CHARGES


@<TRIPOS>ATOM
1 C 19.048 12.922 73.402 C 0.0 **** 0.0
2 H 19.348 13.281 72.418 H 0.0 **** 0.0
3 H 18.738 11.88 73.33 H 0.0 **** 0.0
4 H 18.217 13.524 73.77 H 0.0 **** 0.0
5 H 19.889 13.005 74.09 H 0.0 **** 0.0
@<TRIPOS>BOND
1 1 2 1
2 1 3 1
3 1 4 1
4 1 5 1
@<TRIPOS>MOLECULE
CH4
5 4
SMALL
USER_CHARGES


@<TRIPOS>ATOM
1 C 79.811 3.581 32.316 C 0.0 **** 0.0
2 H 80.288 3.708 31.344 H 0.0 **** 0.0
3 H 78.763 3.317 32.174 H 0.0 **** 0.0
4 H 79.879 4.512 32.878 H 0.0 **** 0.0
5 H 80.315 2.786 32.867 H 0.0 **** 0.0
@<TRIPOS>BOND
1 1 2 1
2 1 3 1
3 1 4 1
4 1 5 1
@<TRIPOS>MOLECULE
CH4
5 4
SMALL
USER_CHARGES


@<TRIPOS>ATOM
1 C 18.125 11.947 65.802 C 0.0 **** 0.0
2 H 18.307 11.834 66.87 H 0.0 **** 0.0
3 H 18.832 11.331 65.246 H 0.0 **** 0.0
4 H 18.254 12.992 65.52 H 0.0 **** 0.0
5 H 17.108 11.631 65.571 H 0.0 **** 0.0
@<TRIPOS>BOND
1 1 2 1
2 1 3 1
3 1 4 1
4 1 5 1
@<TRIPOS>MOLECULE
CH4
5 4
SMALL
USER_CHARGES


@<TRIPOS>ATOM
1 C 45.764 65.356 86.727 C 0.0 **** 0.0
2 H 44.787 65.019 86.381 H 0.0 **** 0.0
3 H 45.912 66.397 86.44 H 0.0 **** 0.0
4 H 46.541 64.739 86.276 H 0.0 **** 0.0
5 H 45.815 65.268 87.813 H 0.0 **** 0.0
@<TRIPOS>BOND
1 1 2 1
2 1 3 1
3 1 4 1
4 1 5 1
@<TRIPOS>MOLECULE
CH4
5 4
SMALL
USER_CHARGES


@<TRIPOS>ATOM
1 C 68.59 0.991 11.385 C 0.0 **** 0.0
2 H 69.386 1.124 10.652 H 0.0 **** 0.0
3 H 67.627 0.966 10.875 H 0.0 **** 0.0
4 H 68.606 1.821 12.092 H 0.0 **** 0.0
5 H 68.743 0.054 11.92 H 0.0 **** 0.0
@<TRIPOS>BOND
1 1 2 1
2 1 3 1
3 1 4 1
4 1 5 1
@<TRIPOS>MOLECULE
CH4
5 4
SMALL
USER_CHARGES


@<TRIPOS>ATOM
1 C 97.213 72.101 87.783 C 0.0 **** 0.0
2 H 97.842 71.346 87.313 H 0.0 **** 0.0
3 H 96.295 72.218 87.207 H 0.0 **** 0.0
4 H 97.747 73.051 87.814 H 0.0 **** 0.0
5 H 96.968 71.789 88.799 H 0.0 **** 0.0
@<TRIPOS>BOND
1 1 2 1
2 1 3 1
3 1 4 1
4 1 5 1
@<TRIPOS>MOLECULE
CH4
5 4
SMALL
USER_CHARGES


@<TRIPOS>ATOM
1 C 29.056 56.329 54.281 C 0.0 **** 0.0
2 H 29.088 55.704 53.388 H 0.0 **** 0.0
3 H 29.848 57.077 54.229 H 0.0 **** 0.0
4 H 29.2 55.708 55.164 H 0.0 **** 0.0
5 H 28.089 56.828 54.34 H 0.0 **** 0.0
@<TRIPOS>BOND
1 1 2 1
2 1 3 1
3 1 4 1
4 1 5 1
@<TRIPOS>MOLECULE
CH4
5 4
SMALL
USER_CHARGES


@<TRIPOS>ATOM
1 C 25.659 21.251 18.451 C 0.0 **** 0.0
2 H 25.484 21.216 17.376 H 0.0 **** 0.0
3 H 25.127 22.1 18.878 H 0.0 **** 0.0
4 H 26.727 21.358 18.641 H 0.0 **** 0.0
5 H 25.299 20.328 18.907 H 0.0 **** 0.0
@<TRIPOS>BOND
1 1 2 1
2 1 3 1
3 1 4 1
4 1 5 1
@<TRIPOS>MOLECULE
CH4
5 4
SMALL
USER_CHARGES


@<TRIPOS>ATOM
1 C 19.985 83.184 60.391 C 0.0 **** 0.0
2 H 19.112 83.781 60.655 H 0.0 **** 0.0
3 H 20.204 83.312 59.33 H 0.0 **** 0.0
4 H 19.783 82.133 60.597 H 0.0 **** 0.0
5 H 20.841 83.513 60.981 H 0.0 **** 0.0
@<TRIPOS>BOND
1 1 2 1
2 1 3 1
3 1 4 1
4 1 5 1
@<TRIPOS>MOLECULE
CH4
5 4
SMALL
USER_CHARGES


@<TRIPOS>ATOM
1 C 68.991 15.111 25.955 C 0.0 **** 0.0
2 H 68.525 15.867 26.588 H 0.0 **** 0.0
3 H 69.075 14.176 26.508 H 0.0 **** 0.0
4 H 69.984 15.449 25.658 H 0.0 **** 0.0
5 H 68.379 14.955 25.066 H 0.0 **** 0.0
@<TRIPOS>BOND
1 1 2 1
2 1 3 1
3 1 4 1
4 1 5 1
@<TRIPOS>MOLECULE
CH4
5 4
SMALL
USER_CHARGES


@<TRIPOS>ATOM
1 C 39.255 67.489 2.239 C 0.0 **** 0.0
2 H 38.548 66.88 2.802 H 0.0 **** 0.0
3 H 39.773 68.167 2.918 H 0.0 **** 0.0
4 H 38.718 68.067 1.487 H 0.0 **** 0.0
5 H 39.982 66.841 1.748 H 0.0 **** 0.0
@<TRIPOS>BOND
1 1 2 1
2 1 3 1
3 1 4 1
4 1 5 1
@<TRIPOS>MOLECULE
CH4
5 4
SMALL
USER_CHARGES


@<TRIPOS>ATOM
1 C 13.351 32.285 62.509 C 0.0 **** 0.0
2 H 12.979 31.634 63.3 H 0.0 **** 0.0
3 H 13.913 31.693 61.786 H 0.0 **** 0.0
4 H 14.001 33.046 62.939 H 0.0 **** 0.0
5 H 12.51 32.766 62.009 H 0.0 **** 0.0
@<TRIPOS>BOND
1 1 2 1
2 1 3 1
3 1 4 1
4 1 5 1
@<TRIPOS>MOLECULE
CH4
5 4
SMALL
USER_CHARGES


@<TRIPOS>ATOM
1 C 69.837 22.049 70.986 C 0.0 **** 0.0
2 H 70.152 23.028 71.346 H 0.0 **** 0.0
3 H 69.023 22.171 70.27 H 0.0 **** 0.0
4 H 69.494 21.446 71.827 H 0.0 **** 0.0
5 H 70.677 21.552 70.501 H 0.0 **** 0.0
@<TRIPOS>BOND
1 1 2 1
2 1 3 1
3 1 4 1
4 1 5 1
@<TRIPOS>MOLECULE
CH4
5 4
SMALL
USER_CHARGES


@<TRIPOS>ATOM
1 C 79.125 82.012 43.384 C 0.0 **** 0.0
2 H 79.309 81.333 42.551 H 0.0 **** 0.0
3 H 79.776 82.882 43.294 H 0.0 **** 0.0
4 H 79.332 81.498 44.323 H 0.0 **** 0.0
5 H 78.084 82.333 43.367 H 0.0 **** 0.0
@<TRIPOS>BOND
1 1 2 1
2 1 3 1
3 1 4 1
4 1 5 1
@<TRIPOS>MOLECULE
CH4
5 4
SMALL
USER_CHARGES


@<TRIPOS>ATOM
1 C 37.849 48.395 39.547 C 0.0 **** 0.0
2 H 37.918 48.899 38.583 H 0.0 **** 0.0
3 H 37.885 49.136 40.346 H 0.0 **** 0.0
4 H 38.683 47.702 39.655 H 0.0 **** 0.0
5 H 36.91 47.845 39.603 H 0.0 **** 0.0
@<TRIPOS>BOND
1 1 2 1
2 1 3 1
3 1 4 1
4 1 5 1
@<TRIPOS>MOLECULE
CH4
5 4
SMALL
USER_CHARGES


@<TRIPOS>ATOM
1 C 28.697 56.967 73.416 C 0.0 **** 0.0
2 H 28.607 56.954 72.329 H 0.0 **** 0.0
3 H 29.59 57.524 73.7 H 0.0 **** 0.0
4 H 28.773 55.944 73.786 H 0.0 **** 0.0
5 H 27.817 57.444 73.847 H 0.0 **** 0.0
@<TRIPOS>BOND
1 1 2 1
2 1 3 1
3 1 4 1
4 1 5 1
@<TRIPOS>MOLECULE
CH4
5 4
SMALL
USER_CHARGES


@<TRIPOS>ATOM
1 C 49.715 19.227 1.698 C 0.0 **** 0.0
2 H 50.75 19.002 1.956 H 0.0 **** 0.0
3 H 49.659 20.222 1.254 H 0.0 **** 0.0
4 H 49.101 19.196 2.598 H 0.0 **** 0.0
5 H 49.35 18.489 0.984 H 0.0 **** 0.0
@<TRIPOS>BOND
1 1 2 1
2 1 3 1
3 1 4 1
4 1 5 1
@<TRIPOS>MOLECULE
CH4
5 4
SMALL
USER_CHARGES


@<TRIPOS>ATOM
1 C 32.884 82.104 83.27 C 0.0 **** 0.0
2 H 32.884 82.104 84.36 H 0.0 **** 0.0
3 H 33.675 82.76 82.906 H 0.0 **** 0.0
4 H 31.92 82.462 82.907 H 0.0 **** 0.0
5 H 33.056 81.091 82.906 H 0.0 **** 0.0
@<TRIPOS>BOND
1 1 2 1
2 1 3 1
3 1 4 1
4 1 5 1
@<TRIPOS>MOLECULE
CH4
5 4
SMALL
USER_CHARGES


@<TRIPOS>ATOM
1 C 66.617 53.605 20.819 C 0.0 **** 0.0
2 H 65.72 53.345 21.38 H 0.0 **** 0.0
3 H 66.603 54.669 20.583 H 0.0 **** 0.0
4 H 66.647 53.028 19.894 H 0.0 **** 0.0
5 H 67.499 53.377 21.418 H 0.0 **** 0.0
@<TRIPOS>BOND
1 1 2 1
2 1 3 1
3 1 4 1
4 1 5 1
@<TRIPOS>MOLECULE
CH4
5 4
SMALL
USER_CHARGES


@<TRIPOS>ATOM
1 C 12.388 48.117 11.434 C 0.0 **** 0.0
2 H 11.516 48.568 10.961 H 0.0 **** 0.0
3 H 13.277 48.697 11.184 H 0.0 **** 0.0
4 H 12.508 47.095 11.075 H 0.0 **** 0.0
5 H 12.252 48.109 12.515 H 0.0 **** 0.0
@<TRIPOS>BOND
1 1 2 1
2 1 3 1
3 1 4 1
4 1 5 1
@<TRIPOS>MOLECULE
CH4
5 4
SMALL
USER_CHARGES


@<TRIPOS>ATOM
1 C 83.626 61.533 4.915 C 0.0 **** 0.0
2 H 82.936 60.914 4.343 H 0.0 **** 0.0
3 H 84.3 60.894 5.485 H 0.0 **** 0.0
4 H 83.062 62.168 5.599 H 0.0 **** 0.0
5 H 84.204 62.157 4.234 H 0.0 **** 0.0
@<TRIPOS>BOND
1 1 2 1
2 1 3 1
3 1 4 1
4 1 5 1
@<TRIPOS>MOLECULE
CH4
5 4
SMALL
USER_CHARGES


@<TRIPOS>ATOM
1 C 20.146 78.397 81.071 C 0.0 **** 0.0
2 H 20.57 77.533 80.56 H 0.0 **** 0.0
3 H 20.101 79.241 80.383 H 0.0 **** 0.0
4 H 20.772 78.657 81.925 H 0.0 **** 0.0
5 H 19.141 78.156 81.418 H 0.0 **** 0.0
@<TRIPOS>BOND
1 1 2 1
2 1 3 1
3 1 4 1
4 1 5 1
@<TRIPOS>MOLECULE
CH4
5 4
SMALL
USER_CHARGES


@<TRIPOS>ATOM
1 C 31.337 29.739 76.993 C 0.0 **** 0.0
2 H 30.572 30.515 77.017 H 0.0 **** 0.0
3 H 32.321 30.202 76.925 H 0.0 **** 0.0
4 H 31.176 29.097 76.127 H 0.0 **** 0.0
5 H 31.277 29.143 77.904 H 0.0 **** 0.0
@<TRIPOS>BOND
1 1 2 1
2 1 3 1
3 1 4 1
4 1 5 1
@<TRIPOS>MOLECULE
CH4
5 4
SMALL
USER_CHARGES


@<TRIPOS>ATOM
1 C 52.219 40.332 15.295 C 0.0 **** 0.0
2 H 51.921 41.367 15.13 H 0.0 **** 0.0
3 H 51.339 39.735 15.536 H 0.0 **** 0.0
4 H 52.928 40.286 16.122 H 0.0 **** 0.0
5 H 52.688 39.941 14.393 H 0.0 **** 0.0
@<TRIPOS>BOND
1 1 2 1
2 1 3 1
3 1 4 1
4 1 5 1
@<TRIPOS>MOLECULE
CH4
5 4
SMALL
USER_CHARGES


@<TRIPOS>ATOM
1 C 70.071 22.005 93.214 C 0.0 **** 0.0
2 H 69.337 22.14 94.008 H 0.0 **** 0.0
3 H 69.812 21.124 92.626 H 0.0 **** 0.0
4 H 71.06 21.872 93.652 H 0.0 **** 0.0
5 H 70.074 22.884 92.569 H 0.0 **** 0.0
@<TRIPOS>BOND
1 1 2 1
2 1 3 1
3 1 4 1
4 1 5 1
@<TRIPOS>MOLECULE
CH4
5 4
SMALL
USER_CHARGES


@<TRIPOS>ATOM
1 C 47.021 16.977 24.214 C 0.0 **** 0.0
2 H 46.089 17.25 24.709 H 0.0 **** 0.0
3 H 46.888 16.034 23.682 H 0.0 **** 0.0
4 H 47.809 16.866 24.959 H 0.0 **** 0.0
5 H 47.298 17.758 23.505 H 0.0 **** 0.0
@<TRIPOS>BOND
1 1 2 1
2 1 3 1
3 1 4 1
4 1 5 1
@<TRIPOS>MOLECULE
CH4
5 4
SMALL
USER_CHARGES


@<TRIPOS>ATOM
1 C 71.431 25.412 57.723 C 0.0 **** 0.0
2 H 71.422 25.509 56.637 H 0.0 **** 0.0
3 H 71.003 26.309 58.171 H 0.0 **** 0.0
4 H 72.458 25.288 58.067 H 0.0 **** 0.0
5 H 70.842 24.542 58.014 H 0.0 **** 0.0
@<TRIPOS>BOND
1 1 2 1
2 1 3 1
3 1 4 1
4 1 5 1
@<TRIPOS>MOLECULE
CH4
5 4
SMALL
USER_CHARGES


@<TRIPOS>ATOM
1 C 38.112 41.606 27.78 C 0.0 **** 0.0
2 H 38.452 42.476 28.342 H 0.0 **** 0.0
3 H 37.159 41.833 27.301 H 0.0 **** 0.0
4 H 37.986 40.762 28.458 H 0.0 **** 0.0
5 H 38.85 41.353 27.02 H 0.0 **** 0.0
@<TRIPOS>BOND
1 1 2 1
2 1 3 1
3 1 4 1
4 1 5 1
@<TRIPOS>MOLECULE
CH4
5 4
SMALL
USER_CHARGES


@<TRIPOS>ATOM
1 C 27.153 54.401 1.77 C 0.0 **** 0.0
2 H 26.576 55.016 2.461 H 0.0 **** 0.0
3 H 28.189 54.739 1.762 H 0.0 **** 0.0
4 H 26.733 54.492 0.768 H 0.0 **** 0.0
5 H 27.112 53.36 2.088 H 0.0 **** 0.0
@<TRIPOS>BOND
1 1 2 1
2 1 3 1
3 1 4 1
4 1 5 1
@<TRIPOS>MOLECULE
CH4
5 4
SMALL
USER_CHARGES


@<TRIPOS>ATOM
1 C 39.837 20.941 34.857 C 0.0 **** 0.0
2 H 40.213 20.057 34.341 H 0.0 **** 0.0
3 H 39.305 21.576 34.149 H 0.0 **** 0.0
4 H 40.673 21.493 35.286 H 0.0 **** 0.0
5 H 39.158 20.634 35.653 H 0.0 **** 0.0
@<TRIPOS>BOND
1 1 2 1
2 1 3 1
3 1 4 1
4 1 5 1
@<TRIPOS>MOLECULE
CH4
5 4
SMALL
USER_CHARGES


@<TRIPOS>ATOM
1 C 92.802 25.761 47.697 C 0.0 **** 0.0
2 H 93.852 26.026 47.573 H 0.0 **** 0.0
3 H 92.716 24.94 48.409 H 0.0 **** 0.0
4 H 92.39 25.454 46.736 H 0.0 **** 0.0
5 H 92.252 26.625 48.069 H 0.0 **** 0.0
@<TRIPOS>BOND
1 1 2 1
2 1 3 1
3 1 4 1
4 1 5 1
@<TRIPOS>MOLECULE
CH4
5 4
SMALL
USER_CHARGES


@<TRIPOS>ATOM
1 C 75.738 97.95 76.542 C 0.0 **** 0.0
2 H 74.861 98.371 77.033 H 0.0 **** 0.0
3 H 75.985 98.548 75.665 H 0.0 **** 0.0
4 H 75.525 96.926 76.235 H 0.0 **** 0.0
5 H 76.58 97.954 77.234 H 0.0 **** 0.0
@<TRIPOS>BOND
1 1 2 1
2 1 3 1
3 1 4 1
4 1 5 1
@<TRIPOS>MOLECULE
CH4
5 4
SMALL
USER_CHARGES


@<TRIPOS>ATOM
1 C 53.325 61.566 81.65 C 0.0 **** 0.0
2 H 54.339 61.172 81.732 H 0.0 **** 0.0
3 H 53.232 62.14 80.728 H 0.0 **** 0.0
4 H 53.117 62.211 82.503 H 0.0 **** 0.0
5 H 52.615 60.739 81.638 H 0.0 **** 0.0
@<TRIPOS>BOND
1 1 4 1
2 1 5 1
3 1 2 1
4 1 3 1
@<TRIPOS>MOLECULE
CH4
5 4
SMALL
USER_CHARGES


@<TRIPOS>ATOM
1 C 73.589 61.377 9.06 C 0.0 **** 0.0
2 H 73.341 61.101 8.035 H 0.0 **** 0.0
3 H 74.533 60.91 9.342 H 0.0 **** 0.0
4 H 72.8 61.035 9.729 H 0.0 **** 0.0
5 H 73.684 62.46 9.132 H 0.0 **** 0.0
@<TRIPOS>BOND
1 1 2 1
2 1 3 1
3 1 4 1
4 1 5 1
@<TRIPOS>MOLECULE
CH4
5 4
SMALL
USER_CHARGES


@<TRIPOS>ATOM
1 C 72.836 11.606 93.0 C 0.0 **** 0.0
2 H 72.638 12.287 93.828 H 0.0 **** 0.0
3 H 71.956 11.548 92.359 H 0.0 **** 0.0
4 H 73.067 10.616 93.391 H 0.0 **** 0.0
5 H 73.683 11.975 92.422 H 0.0 **** 0.0
@<TRIPOS>BOND
1 1 2 1
2 1 3 1
3 1 4 1
4 1 5 1
@<TRIPOS>MOLECULE
CH4
5 4
SMALL
USER_CHARGES


@<TRIPOS>ATOM
1 C 69.338 37.442 28.303 C 0.0 **** 0.0
2 H 70.076 37.748 29.044 H 0.0 **** 0.0
3 H 68.654 38.269 28.109 H 0.0 **** 0.0
4 H 68.777 36.588 28.682 H 0.0 **** 0.0
5 H 69.844 37.164 27.379 H 0.0 **** 0.0
@<TRIPOS>BOND
1 1 2 1
2 1 3 1
3 1 4 1
4 1 5 1
@<TRIPOS>MOLECULE
CH4
5 4
SMALL
USER_CHARGES


@<TRIPOS>ATOM
1 C 71.004 75.158 76.752 C 0.0 **** 0.0
2 H 70.845 74.844 75.721 H 0.0 **** 0.0
3 H 71.856 75.837 76.798 H 0.0 **** 0.0
4 H 71.203 74.283 77.372 H 0.0 **** 0.0
5 H 70.113 75.668 77.118 H 0.0 **** 0.0
@<TRIPOS>BOND
1 1 2 1
2 1 3 1
3 1 4 1
4 1 5 1
@<TRIPOS>MOLECULE
CH4
5 4
SMALL
USER_CHARGES


@<TRIPOS>ATOM
1 C 2.889 22.712 14.459 C 0.0 **** 0.0
2 H 3.825 22.231 14.744 H 0.0 **** 0.0
3 H 2.626 22.421 13.442 H 0.0 **** 0.0
4 H 3.007 23.794 14.509 H 0.0 **** 0.0
5 H 2.098 22.401 15.142 H 0.0 **** 0.0
@<TRIPOS>BOND
1 1 2 1
2 1 3 1
3 1 4 1
4 1 5 1
@<TRIPOS>MOLECULE
CH4
5 4
SMALL
USER_CHARGES


@<TRIPOS>ATOM
1 C 33.8 78.196 79.814 C 0.0 **** 0.0
2 H 32.995 78.289 79.085 H 0.0 **** 0.0
3 H 33.981 77.142 80.022 H 0.0 **** 0.0
4 H 33.516 78.706 80.735 H 0.0 **** 0.0
5 H 34.706 78.649 79.413 H 0.0 **** 0.0
@<TRIPOS>BOND
1 1 2 1
2 1 3 1
3 1 4 1
4 1 5 1
@<TRIPOS>MOLECULE
CH4
5 4
SMALL
USER_CHARGES


@<TRIPOS>ATOM
1 C 38.373 18.791 95.883 C 0.0 **** 0.0
2 H 38.033 19.232 94.946 H 0.0 **** 0.0
3 H 37.607 18.927 96.647 H 0.0 **** 0.0
4 H 39.294 19.28 96.201 H 0.0 **** 0.0
5 H 38.558 17.727 95.738 H 0.0 **** 0.0
@<TRIPOS>BOND
1 1 2 1
2 1 3 1
3 1 4 1
4 1 5 1
@<TRIPOS>MOLECULE
CH4
5 4
SMALL
USER_CHARGES


@<TRIPOS>ATOM
1 C 11.519 61.129 71.577 C 0.0 **** 0.0
2 H 12.193 60.391 71.141 H 0.0 **** 0.0
3 H 12.08 62.029 71.829 H 0.0 **** 0.0
4 H 11.065 60.718 72.478 H 0.0 **** 0.0
5 H 10.739 61.377 70.857 H 0.0 **** 0.0
@<TRIPOS>BOND
1 1 2 1
2 1 3 1
3 1 4 1
4 1 5 1
@<TRIPOS>MOLECULE
CH4
5 4
SMALL
USER_CHARGES


@<TRIPOS>ATOM
1 C 55.449 55.573 80.418 C 0.0 **** 0.0
2 H 55.662 55.702 79.357 H 0.0 **** 0.0
3 H 56.065 54.767 80.816 H 0.0 **** 0.0
4 H 54.396 55.325 80.549 H 0.0 **** 0.0
5 H 55.673 56.499 80.948 H 0.0 **** 0.0
@<TRIPOS>BOND
1 1 2 1
2 1 3 1
3 1 4 1
4 1 5 1
@<TRIPOS>MOLECULE
CH4
5 4
SMALL
USER_CHARGES


@<TRIPOS>ATOM
1 C 87.179 70.797 36.699 C 0.0 **** 0.0
2 H 87.263 71.255 35.714 H 0.0 **** 0.0
3 H 86.131 70.585 36.913 H 0.0 **** 0.0
4 H 87.573 71.48 37.452 H 0.0 **** 0.0
5 H 87.749 69.868 36.717 H 0.0 **** 0.0
@<TRIPOS>BOND
1 1 2 1
2 1 3 1
3 1 4 1
4 1 5 1
@<TRIPOS>MOLECULE
CH4
5 4
SMALL
USER_CHARGES


@<TRIPOS>ATOM
1 C 68.596 30.135 27.725 C 0.0 **** 0.0
2 H 69.624 30.476 27.602 H 0.0 **** 0.0
3 H 68.54 29.066 27.519 H 0.0 **** 0.0
4 H 67.95 30.674 27.032 H 0.0 **** 0.0
5 H 68.27 30.326 28.748 H 0.0 **** 0.0
@<TRIPOS>BOND
1 1 2 1
2 1 3 1
3 1 4 1
4 1 5 1
@<TRIPOS>MOLECULE
CH4
5 4
SMALL
USER_CHARGES


@<TRIPOS>ATOM
1 C 11.818 45.446 26.62 C 0.0 **** 0.0
2 H 11.834 45.917 27.603 H 0.0 **** 0.0
3 H 11.872 46.215 25.849 H 0.0 **** 0.0
4 H 10.895 44.879 26.505 H 0.0 **** 0.0
5 H 12.672 44.775 26.525 H 0.0 **** 0.0
@<TRIPOS>BOND
1 1 2 1
2 1 3 1
3 1 4 1
4 1 5 1
@<TRIPOS>MOLECULE
CH4
5 4
SMALL
USER_CHARGES


@<TRIPOS>ATOM
1 C 56.318 16.411 33.385 C 0.0 **** 0.0
2 H 56.502 16.482 32.313 H 0.0 **** 0.0
3 H 55.251 16.524 33.578 H 0.0 **** 0.0
4 H 56.867 17.2 33.9 H 0.0 **** 0.0
5 H 56.653 15.439 33.747 H 0.0 **** 0.0
@<TRIPOS>BOND
1 1 2 1
2 1 3 1
3 1 4 1
4 1 5 1
@<TRIPOS>MOLECULE
CH4
5 4
SMALL
USER_CHARGES


@<TRIPOS>ATOM
1 C 13.919 4.791 67.054 C 0.0 **** 0.0
2 H 13.857 4.755 68.141 H 0.0 **** 0.0
3 H 14.242 3.82 66.676 H 0.0 **** 0.0
4 H 14.638 5.555 66.756 H 0.0 **** 0.0
5 H 12.939 5.033 66.642 H 0.0 **** 0.0
@<TRIPOS>BOND
1 1 2 1
2 1 3 1
3 1 4 1
4 1 5 1
@<TRIPOS>MOLECULE
CH4
5 4
SMALL
USER_CHARGES


@<TRIPOS>ATOM
1 C 48.989 17.551 54.52 C 0.0 **** 0.0
2 H 48.951 17.808 53.461 H 0.0 **** 0.0
3 H 49.011 16.467 54.63 H 0.0 **** 0.0
4 H 48.108 17.95 55.022 H 0.0 **** 0.0
5 H 49.887 17.981 54.965 H 0.0 **** 0.0
@<TRIPOS>BOND
1 1 2 1
2 1 3 1
3 1 4 1
4 1 5 1
@<TRIPOS>MOLECULE
CH4
5 4
SMALL
USER_CHARGES


@<TRIPOS>ATOM
1 C 17.338 76.383 40.349 C 0.0 **** 0.0
2 H 16.965 76.841 41.265 H 0.0 **** 0.0
3 H 18.425 76.311 40.394 H 0.0 **** 0.0
4 H 17.049 76.994 39.494 H 0.0 **** 0.0
5 H 16.912 75.385 40.243 H 0.0 **** 0.0
@<TRIPOS>BOND
1 1 5 1
2 1 2 1
3 1 3 1
4 1 4 1
@<TRIPOS>MOLECULE
CH4
5 4
SMALL
USER_CHARGES


@<TRIPOS>ATOM
1 C 81.457 96.831 61.347 C 0.0 **** 0.0
2 H 80.854 97.002 60.455 H 0.0 **** 0.0
3 H 82.485 96.616 61.054 H 0.0 **** 0.0
4 H 81.052 95.984 61.901 H 0.0 **** 0.0
5 H 81.436 97.721 61.976 H 0.0 **** 0.0
@<TRIPOS>BOND
1 1 3 1
2 1 4 1
3 1 5 1
4 1 2 1
@<TRIPOS>MOLECULE
CH4
5 4
SMALL
USER_CHARGES


@<TRIPOS>ATOM
1 C 32.049 28.813 97.992 C 0.0 **** 0.0
2 H 32.15 28.529 96.945 H 0.0 **** 0.0
3 H 31.376 29.667 98.073 H 0.0 **** 0.0
4 H 33.027 29.081 98.392 H 0.0 **** 0.0
5 H 31.642 27.975 98.558 H 0.0 **** 0.0
@<TRIPOS>BOND
1 1 2 1
2 1 3 1
3 1 4 1
4 1 5 1
@<TRIPOS>MOLECULE
CH4
5 4
SMALL
USER_CHARGES


@<TRIPOS>ATOM
1 C 75.216 49.978 88.014 C 0.0 **** 0.0
2 H 74.518 50.213 88.818 H 0.0 **** 0.0
3 H 75.915 50.805 87.888 H 0.0 **** 0.0
4 H 74.664 49.823 87.087 H 0.0 **** 0.0
5 H 75.766 49.071 88.265 H 0.0 **** 0.0
@<TRIPOS>BOND
1 1 2 1
2 1 3 1
3 1 4 1
4 1 5 1
@<TRIPOS>MOLECULE
CH4
5 4
SMALL
USER_CHARGES


@<TRIPOS>ATOM
1 C 24.587 32.681 28.603 C 0.0 **** 0.0
2 H 25.656 32.475 28.645 H 0.0 **** 0.0
3 H 24.427 33.702 28.256 H 0.0 **** 0.0
4 H 24.154 32.562 29.596 H 0.0 **** 0.0
5 H 24.11 31.984 27.913 H 0.0 **** 0.0
@<TRIPOS>BOND
1 1 2 1
2 1 3 1
3 1 4 1
4 1 5 1
@<TRIPOS>MOLECULE
CH4
5 4
SMALL
USER_CHARGES


@<TRIPOS>ATOM
1 C 69.361 98.454 18.565 C 0.0 **** 0.0
2 H 68.363 98.871 18.702 H 0.0 **** 0.0
3 H 69.651 98.544 17.518 H 0.0 **** 0.0
4 H 69.358 97.403 18.853 H 0.0 **** 0.0
5 H 70.071 99.0 19.187 H 0.0 **** 0.0
@<TRIPOS>BOND
1 1 2 1
2 1 3 1
3 1 4 1
4 1 5 1
@<TRIPOS>MOLECULE
CH4
5 4
SMALL
USER_CHARGES


@<TRIPOS>ATOM
1 C 96.141 11.322 0.969 C 0.0 **** 0.0
2 H 96.841 11.567 1.768 H 0.0 **** 0.0
3 H 96.683 11.234 0.027 H 0.0 **** 0.0
4 H 95.394 12.111 0.887 H 0.0 **** 0.0
5 H 95.648 10.377 1.195 H 0.0 **** 0.0
@<TRIPOS>BOND
1 1 2 1
2 1 3 1
3 1 4 1
4 1 5 1
@<TRIPOS>MOLECULE
CH4
5 4
SMALL
USER_CHARGES


@<TRIPOS>ATOM
1 C 12.504 91.917 28.338 C 0.0 **** 0.0
2 H 12.257 91.106 29.023 H 0.0 **** 0.0
3 H 12.504 92.862 28.88 H 0.0 **** 0.0
4 H 11.763 91.955 27.539 H 0.0 **** 0.0
5 H 13.491 91.742 27.909 H 0.0 **** 0.0
@<TRIPOS>BOND
1 1 2 1
2 1 3 1
3 1 4 1
4 1 5 1
@<TRIPOS>MOLECULE
CH4
5 4
SMALL
USER_CHARGES


@<TRIPOS>ATOM
1 C 91.102 22.202 77.325 C 0.0 **** 0.0
2 H 91.894 21.501 77.586 H 0.0 **** 0.0
3 H 90.531 21.808 76.484 H 0.0 **** 0.0
4 H 91.542 23.16 77.049 H 0.0 **** 0.0
5 H 90.441 22.339 78.181 H 0.0 **** 0.0
@<TRIPOS>BOND
1 1 2 1
2 1 3 1
3 1 4 1
4 1 5 1
@<TRIPOS>MOLECULE
CH4
5 4
SMALL
USER_CHARGES


@<TRIPOS>ATOM
1 C 7.165 55.245 81.849 C 0.0 **** 0.0
2 H 6.186 54.982 81.449 H 0.0 **** 0.0
3 H 7.867 54.436 81.651 H 0.0 **** 0.0
4 H 7.087 55.404 82.925 H 0.0 **** 0.0
5 H 7.518 56.159 81.372 H 0.0 **** 0.0
@<TRIPOS>BOND
1 1 2 1
2 1 3 1
3 1 4 1
4 1 5 1
@<TRIPOS>MOLECULE
CH4
5 4
SMALL
USER_CHARGES


@<TRIPOS>ATOM
1 C 43.391 69.461 89.14 C 0.0 **** 0.0
2 H 43.69 70.498 89.29 H 0.0 **** 0.0
3 H 42.309 69.376 89.243 H 0.0 **** 0.0
4 H 43.878 68.831 89.885 H 0.0 **** 0.0
5 H 43.687 69.138 88.142 H 0.0 **** 0.0
@<TRIPOS>BOND
1 1 2 1
2 1 3 1
3 1 4 1
4 1 5 1
@<TRIPOS>MOLECULE
CH4
5 4
SMALL
USER_CHARGES


@<TRIPOS>ATOM
1 C 3.953 86.857 63.063 C 0.0 **** 0.0
2 H 4.684 87.627 62.818 H 0.0 **** 0.0
3 H 3.075 87.321 63.515 H 0.0 **** 0.0
4 H 4.393 86.149 63.766 H 0.0 **** 0.0
5 H 3.659 86.332 62.154 H 0.0 **** 0.0
@<TRIPOS>BOND
1 1 2 1
2 1 3 1
3 1 4 1
4 1 5 1
@<TRIPOS>MOLECULE
CH4
5 4
SMALL
USER_CHARGES


@<TRIPOS>ATOM
1 C 68.749 84.49 61.463 C 0.0 **** 0.0
2 H 67.896 85.075 61.119 H 0.0 **** 0.0
3 H 68.96 84.734 62.505 H 0.0 **** 0.0
4 H 69.62 84.724 60.851 H 0.0 **** 0.0
5 H 68.519 83.428 61.377 H 0.0 **** 0.0
@<TRIPOS>BOND
1 1 2 1
2 1 3 1
3 1 4 1
4 1 5 1
@<TRIPOS>MOLECULE
CH4
5 4
SMALL
USER_CHARGES


@<TRIPOS>ATOM
1 C 56.325 13.124 43.802 C 0.0 **** 0.0
2 H 55.942 13.238 44.816 H 0.0 **** 0.0
3 H 56.286 14.086 43.29 H 0.0 **** 0.0
4 H 55.716 12.399 43.263 H 0.0 **** 0.0
5 H 57.357 12.775 43.841 H 0.0 **** 0.0
@<TRIPOS>BOND
1 1 2 1
2 1 3 1
3 1 4 1
4 1 5 1
@<TRIPOS>MOLECULE
CH4
5 4
SMALL
USER_CHARGES


@<TRIPOS>ATOM
1 C 35.776 84.915 73.596 C 0.0 **** 0.0
2 H 36.036 85.327 74.571 H 0.0 **** 0.0
3 H 36.674 84.839 72.983 H 0.0 **** 0.0
4 H 35.055 85.569 73.106 H 0.0 **** 0.0
5 H 35.339 83.925 73.725 H 0.0 **** 0.0
@<TRIPOS>BOND
1 1 2 1
2 1 3 1
3 1 4 1
4 1 5 1
@<TRIPOS>MOLECULE
CH4
5 4
SMALL
USER_CHARGES


@<TRIPOS>ATOM
1 C 76.54 82.986 46.424 C 0.0 **** 0.0
2 H 76.355 84.037 46.649 H 0.0 **** 0.0
3 H 77.032 82.514 47.275 H 0.0 **** 0.0
4 H 77.181 82.91 45.545 H 0.0 **** 0.0
5 H 75.593 82.485 46.227 H 0.0 **** 0.0
@<TRIPOS>BOND
1 1 2 1
2 1 3 1
3 1 4 1
4 1 5 1
@<TRIPOS>MOLECULE
CH4
5 4
SMALL
USER_CHARGES


@<TRIPOS>ATOM
1 C 73.098 33.449 53.283 C 0.0 **** 0.0
2 H 74.088 33.618 52.86 H 0.0 **** 0.0
3 H 73.171 32.74 54.107 H 0.0 **** 0.0
4 H 72.439 33.047 52.514 H 0.0 **** 0.0
5 H 72.695 34.393 53.65 H 0.0 **** 0.0
@<TRIPOS>BOND
1 1 2 1
2 1 3 1
3 1 4 1
4 1 5 1
@<TRIPOS>MOLECULE
CH4
5 4
SMALL
USER_CHARGES


@<TRIPOS>ATOM
1 C 54.486 53.903 98.328 C 0.0 **** 0.0
2 H 54.317 54.439 97.393 H 0.0 **** 0.0
3 H 55.078 54.524 99.0 H 0.0 **** 0.0
4 H 55.02 52.975 98.123 H 0.0 **** 0.0
5 H 53.527 53.675 98.793 H 0.0 **** 0.0
@<TRIPOS>BOND
1 1 2 1
2 1 3 1
3 1 4 1
4 1 5 1
@<TRIPOS>MOLECULE
CH4
5 4
SMALL
USER_CHARGES


@<TRIPOS>ATOM
1 C 83.569 54.895 49.104 C 0.0 **** 0.0
2 H 84.64 54.741 49.235 H 0.0 **** 0.0
3 H 83.26 54.494 48.139 H 0.0 **** 0.0
4 H 83.348 55.962 49.143 H 0.0 **** 0.0
5 H 83.029 54.383 49.9 H 0.0 **** 0.0
@<TRIPOS>BOND
1 1 2 1
2 1 3 1
3 1 4 1
4 1 5 1
@<TRIPOS>MOLECULE
CH4
5 4
SMALL
USER_CHARGES


@<TRIPOS>ATOM
1 C 53.985 82.093 90.62 C 0.0 **** 0.0
2 H 53.15 82.691 90.984 H 0.0 **** 0.0
3 H 53.824 81.047 90.883 H 0.0 **** 0.0
4 H 54.91 82.444 91.077 H 0.0 **** 0.0
5 H 54.056 82.189 89.537 H 0.0 **** 0.0
@<TRIPOS>BOND
1 1 2 1
2 1 3 1
3 1 4 1
4 1 5 1
@<TRIPOS>MOLECULE
CH4
5 4
SMALL
USER_CHARGES


@<TRIPOS>ATOM
1 C 66.352 10.267 45.557 C 0.0 **** 0.0
2 H 67.159 10.873 45.145 H 0.0 **** 0.0
3 H 66.286 10.434 46.632 H 0.0 **** 0.0
4 H 66.554 9.213 45.364 H 0.0 **** 0.0
5 H 65.41 10.548 45.086 H 0.0 **** 0.0
@<TRIPOS>BOND
1 1 2 1
2 1 3 1
3 1 4 1
4 1 5 1
@<TRIPOS>MOLECULE
CH4
5 4
SMALL
USER_CHARGES


@<TRIPOS>ATOM
1 C 75.209 77.083 6.778 C 0.0 **** 0.0
2 H 76.246 77.224 7.082 H 0.0 **** 0.0
3 H 74.619 76.765 7.638 H 0.0 **** 0.0
4 H 75.159 76.322 6.0 H 0.0 **** 0.0
5 H 74.813 78.023 6.393 H 0.0 **** 0.0
@<TRIPOS>BOND
1 1 2 1
2 1 3 1
3 1 4 1
4 1 5 1
@<TRIPOS>MOLECULE
CH4
5 4
SMALL
USER_CHARGES


@<TRIPOS>ATOM
1 C 28.43 65.82 40.909 C 0.0 **** 0.0
2 H 29.025 65.452 40.073 H 0.0 **** 0.0
3 H 28.698 65.272 41.813 H 0.0 **** 0.0
4 H 27.372 65.673 40.695 H 0.0 **** 0.0
5 H 28.628 66.882 41.056 H 0.0 **** 0.0
@<TRIPOS>BOND
1 1 2 1
2 1 3 1
3 1 4 1
4 1 5 1
@<TRIPOS>MOLECULE
CH4
5 4
SMALL
USER_CHARGES


@<TRIPOS>ATOM
1 C 59.279 41.576 22.245 C 0.0 **** 0.0
2 H 58.315 41.086 22.109 H 0.0 **** 0.0
3 H 60.076 40.836 22.167 H 0.0 **** 0.0
4 H 59.312 42.044 23.229 H 0.0 **** 0.0
5 H 59.412 42.336 21.476 H 0.0 **** 0.0
@<TRIPOS>BOND
1 1 2 1
2 1 3 1
3 1 4 1
4 1 5 1
@<TRIPOS>MOLECULE
CH4
5 4
SMALL
USER_CHARGES


@<TRIPOS>ATOM
1 C 51.169 28.23 61.192 C 0.0 **** 0.0
2 H 51.15 28.24 62.282 H 0.0 **** 0.0
3 H 50.297 27.694 60.819 H 0.0 **** 0.0
4 H 52.076 27.731 60.85 H 0.0 **** 0.0
5 H 51.155 29.254 60.819 H 0.0 **** 0.0
@<TRIPOS>BOND
1 1 2 1
2 1 3 1
3 1 4 1
4 1 5 1
@<TRIPOS>MOLECULE
CH4
5 4
SMALL
USER_CHARGES


@<TRIPOS>ATOM
1 C 32.719 5.296 63.571 C 0.0 **** 0.0
2 H 32.796 5.22 62.486 H 0.0 **** 0.0
3 H 33.62 4.887 64.029 H 0.0 **** 0.0
4 H 31.849 4.734 63.913 H 0.0 **** 0.0
5 H 32.61 6.343 63.855 H 0.0 **** 0.0
@<TRIPOS>BOND
1 1 2 1
2 1 3 1
3 1 4 1
4 1 5 1
@<TRIPOS>MOLECULE
CH4
5 4
SMALL
USER_CHARGES


@<TRIPOS>ATOM
1 C 2.345 69.249 97.205 C 0.0 **** 0.0
2 H 1.429 69.556 96.701 H 0.0 **** 0.0
3 H 2.448 68.166 97.143 H 0.0 **** 0.0
4 H 2.303 69.552 98.251 H 0.0 **** 0.0
5 H 3.2 69.723 96.724 H 0.0 **** 0.0
@<TRIPOS>BOND
1 1 4 1
2 1 5 1
3 1 2 1
4 1 3 1
@<TRIPOS>MOLECULE
CH4
5 4
SMALL
USER_CHARGES


@<TRIPOS>ATOM
1 C 98.042 88.125 42.705 C 0.0 **** 0.0
2 H 97.337 88.099 41.873 H 0.0 **** 0.0
3 H 98.796 88.89 42.518 H 0.0 **** 0.0
4 H 98.525 87.153 42.802 H 0.0 **** 0.0
5 H 97.507 88.358 43.626 H 0.0 **** 0.0
@<TRIPOS>BOND
1 1 2 1
2 1 3 1
3 1 4 1
4 1 5 1
@<TRIPOS>MOLECULE
CH4
5 4
SMALL
USER_CHARGES


@<TRIPOS>ATOM
1 C 45.905 20.575 15.608 C 0.0 **** 0.0
2 H 46.474 19.692 15.318 H 0.0 **** 0.0
3 H 46.389 21.056 16.458 H 0.0 **** 0.0
4 H 44.893 20.28 15.884 H 0.0 **** 0.0
5 H 45.864 21.272 14.77 H 0.0 **** 0.0
@<TRIPOS>BOND
1 1 2 1
2 1 3 1
3 1 4 1
4 1 5 1
@<TRIPOS>MOLECULE
CH4
5 4
SMALL
USER_CHARGES


@<TRIPOS>ATOM
1 C 10.292 92.787 16.346 C 0.0 **** 0.0
2 H 9.583 93.593 16.536 H 0.0 **** 0.0
3 H 11.304 93.191 16.323 H 0.0 **** 0.0
4 H 10.063 92.322 15.387 H 0.0 **** 0.0
5 H 10.215 92.042 17.138 H 0.0 **** 0.0
@<TRIPOS>BOND
1 1 2 1
2 1 3 1
3 1 4 1
4 1 5 1
@<TRIPOS>MOLECULE
CH4
5 4
SMALL
USER_CHARGES


@<TRIPOS>ATOM
1 C 94.319 12.987 12.191 C 0.0 **** 0.0
2 H 93.484 12.437 11.757 H 0.0 **** 0.0
3 H 94.025 14.024 12.354 H 0.0 **** 0.0
4 H 95.17 12.952 11.511 H 0.0 **** 0.0
5 H 94.595 12.534 13.143 H 0.0 **** 0.0
@<TRIPOS>BOND
1 1 2 1
2 1 3 1
3 1 4 1
4 1 5 1
@<TRIPOS>MOLECULE
CH4
5 4
SMALL
USER_CHARGES


@<TRIPOS>ATOM
1 C 18.097 60.871 33.209 C 0.0 **** 0.0
2 H 17.711 61.813 33.596 H 0.0 **** 0.0
3 H 17.455 60.053 33.537 H 0.0 **** 0.0
4 H 19.109 60.711 33.583 H 0.0 **** 0.0
5 H 18.114 60.906 32.12 H 0.0 **** 0.0
@<TRIPOS>BOND
1 1 2 1
2 1 3 1
3 1 4 1
4 1 5 1
@<TRIPOS>MOLECULE
CH4
5 4
SMALL
USER_CHARGES


@<TRIPOS>ATOM
1 C 76.935 5.357 97.557 C 0.0 **** 0.0
2 H 77.213 4.316 97.725 H 0.0 **** 0.0
3 H 75.885 5.41 97.27 H 0.0 **** 0.0
4 H 77.551 5.773 96.76 H 0.0 **** 0.0
5 H 77.092 5.927 98.472 H 0.0 **** 0.0
@<TRIPOS>BOND
1 1 2 1
2 1 3 1
3 1 4 1
4 1 5 1
@<TRIPOS>MOLECULE
CH4
5 4
SMALL
USER_CHARGES


@<TRIPOS>ATOM
1 C 29.272 89.364 6.746 C 0.0 **** 0.0
2 H 30.079 89.856 7.291 H 0.0 **** 0.0
3 H 29.387 89.554 5.679 H 0.0 **** 0.0
4 H 28.314 89.757 7.085 H 0.0 **** 0.0
5 H 29.311 88.291 6.931 H 0.0 **** 0.0
@<TRIPOS>BOND
1 1 2 1
2 1 3 1
3 1 4 1
4 1 5 1
@<TRIPOS>MOLECULE
CH4
5 4
SMALL
USER_CHARGES


@<TRIPOS>ATOM
1 C 94.722 54.66 46.339 C 0.0 **** 0.0
2 H 94.381 54.931 45.34 H 0.0 **** 0.0
3 H 95.762 54.964 46.463 H 0.0 **** 0.0
4 H 94.641 53.581 46.47 H 0.0 **** 0.0
5 H 94.105 55.164 47.082 H 0.0 **** 0.0
@<TRIPOS>BOND
1 1 2 1
2 1 3 1
3 1 4 1
4 1 5 1
@<TRIPOS>MOLECULE
CH4
5 4
SMALL
USER_CHARGES


@<TRIPOS>ATOM
1 C 27.682 34.294 62.163 C 0.0 **** 0.0
2 H 27.99 35.123 62.801 H 0.0 **** 0.0
3 H 26.708 33.928 62.489 H 0.0 **** 0.0
4 H 28.414 33.49 62.234 H 0.0 **** 0.0
5 H 27.615 34.635 61.13 H 0.0 **** 0.0
@<TRIPOS>BOND
1 1 2 1
2 1 3 1
3 1 4 1
4 1 5 1
@<TRIPOS>MOLECULE
CH4
5 4
SMALL
USER_CHARGES


@<TRIPOS>ATOM
1 C 8.72 6.219 71.684 C 0.0 **** 0.0
2 H 9.651 6.507 71.196 H 0.0 **** 0.0
3 H 7.887 6.376 70.999 H 0.0 **** 0.0
4 H 8.575 6.828 72.577 H 0.0 **** 0.0
5 H 8.767 5.167 71.965 H 0.0 **** 0.0
@<TRIPOS>BOND
1 1 2 1
2 1 3 1
3 1 4 1
4 1 5 1
@<TRIPOS>MOLECULE
CH4
5 4
SMALL
USER_CHARGES


@<TRIPOS>ATOM
1 C 57.903 83.454 98.373 C 0.0 **** 0.0
2 H 58.137 83.253 97.328 H 0.0 **** 0.0
3 H 58.31 84.425 98.656 H 0.0 **** 0.0
4 H 58.343 82.678 99.0 H 0.0 **** 0.0
5 H 56.821 83.46 98.509 H 0.0 **** 0.0
@<TRIPOS>BOND
1 1 2 1
2 1 3 1
3 1 4 1
4 1 5 1
@<TRIPOS>MOLECULE
CH4
5 4
SMALL
USER_CHARGES


@<TRIPOS>ATOM
1 C 9.873 65.509 80.841 C 0.0 **** 0.0
2 H 9.241 65.667 81.715 H 0.0 **** 0.0
3 H 9.733 64.493 80.471 H 0.0 **** 0.0
4 H 10.917 65.655 81.117 H 0.0 **** 0.0
5 H 9.6 66.221 80.062 H 0.0 **** 0.0
@<TRIPOS>BOND
1 1 2 1
2 1 3 1
3 1 4 1
4 1 5 1
@<TRIPOS>MOLECULE
CH4
5 4
SMALL
USER_CHARGES


@<TRIPOS>ATOM
1 C 41.901 86.361 12.253 C 0.0 **** 0.0
2 H 41.696 85.379 12.679 H 0.0 **** 0.0
3 H 40.977 86.786 11.86 H 0.0 **** 0.0
4 H 42.628 86.263 11.448 H 0.0 **** 0.0
5 H 42.302 87.016 13.027 H 0.0 **** 0.0
@<TRIPOS>BOND
1 1 2 1
2 1 3 1
3 1 4 1
4 1 5 1
@<TRIPOS>MOLECULE
CH4
5 4
SMALL
USER_CHARGES


@<TRIPOS>ATOM
1 C 68.163 84.146 18.093 C 0.0 **** 0.0
2 H 68.783 84.859 17.55 H 0.0 **** 0.0
3 H 67.119 84.284 17.811 H 0.0 **** 0.0
4 H 68.274 84.309 19.165 H 0.0 **** 0.0
5 H 68.475 83.131 17.845 H 0.0 **** 0.0
@<TRIPOS>BOND
1 1 2 1
2 1 3 1
3 1 4 1
4 1 5 1
@<TRIPOS>MOLECULE
CH4
5 4
SMALL
USER_CHARGES


@<TRIPOS>ATOM
1 C 90.894 78.401 65.929 C 0.0 **** 0.0
2 H 90.354 77.889 65.133 H 0.0 **** 0.0
3 H 90.944 79.467 65.707 H 0.0 **** 0.0
4 H 91.904 77.997 66.001 H 0.0 **** 0.0
5 H 90.374 78.251 66.876 H 0.0 **** 0.0
@<TRIPOS>BOND
1 1 2 1
2 1 3 1
3 1 4 1
4 1 5 1
@<TRIPOS>MOLECULE
CH4
5 4
SMALL
USER_CHARGES


@<TRIPOS>ATOM
1 C 63.938 56.582 22.987 C 0.0 **** 0.0
2 H 64.561 56.048 23.704 H 0.0 **** 0.0
3 H 64.562 56.966 22.18 H 0.0 **** 0.0
4 H 63.438 57.411 23.487 H 0.0 **** 0.0
5 H 63.192 55.901 22.577 H 0.0 **** 0.0
@<TRIPOS>BOND
1 1 2 1
2 1 3 1
3 1 4 1
4 1 5 1
@<TRIPOS>MOLECULE
CH4
5 4
SMALL
USER_CHARGES


@<TRIPOS>ATOM
1 C 62.233 29.68 10.618 C 0.0 **** 0.0
2 H 62.235 29.677 9.528 H 0.0 **** 0.0
3 H 61.293 30.098 10.978 H 0.0 **** 0.0
4 H 63.064 30.284 10.981 H 0.0 **** 0.0
5 H 62.34 28.658 10.983 H 0.0 **** 0.0
@<TRIPOS>BOND
1 1 2 1
2 1 3 1
3 1 4 1
4 1 5 1
@<TRIPOS>MOLECULE
CH4
5 4
SMALL
USER_CHARGES


@<TRIPOS>ATOM
1 C 0.876 26.532 55.455 C 0.0 **** 0.0
2 H 1.46 26.569 56.375 H 0.0 **** 0.0
3 H 1.488 26.118 54.653 H 0.0 **** 0.0
4 H 0.557 27.539 55.187 H 0.0 **** 0.0
5 H 0.0 25.901 55.607 H 0.0 **** 0.0
@<TRIPOS>BOND
1 1 2 1
2 1 3 1
3 1 4 1
4 1 5 1
@<TRIPOS>MOLECULE
CH4
5 4
SMALL
USER_CHARGES


@<TRIPOS>ATOM
1 C 3.179 89.679 20.403 C 0.0 **** 0.0
2 H 3.495 89.486 21.428 H 0.0 **** 0.0
3 H 3.318 88.778 19.805 H 0.0 **** 0.0
4 H 3.777 90.488 19.985 H 0.0 **** 0.0
5 H 2.127 89.963 20.394 H 0.0 **** 0.0
@<TRIPOS>BOND
1 1 2 1
2 1 3 1
3 1 4 1
4 1 5 1
@<TRIPOS>MOLECULE
CH4
5 4
SMALL
USER_CHARGES


@<TRIPOS>ATOM
1 C 20.187 85.84 98.467 C 0.0 **** 0.0
2 H 20.165 84.887 98.996 H 0.0 **** 0.0
3 H 19.95 85.676 97.415 H 0.0 **** 0.0
4 H 21.182 86.278 98.551 H 0.0 **** 0.0
5 H 19.453 86.516 98.905 H 0.0 **** 0.0
@<TRIPOS>BOND
1 1 2 1
2 1 3 1
3 1 4 1
4 1 5 1
@<TRIPOS>MOLECULE
CH4
5 4
SMALL
USER_CHARGES


@<TRIPOS>ATOM
1 C 53.102 24.162 67.031 C 0.0 **** 0.0
2 H 53.235 25.221 66.813 H 0.0 **** 0.0
3 H 54.04 23.746 67.398 H 0.0 **** 0.0
4 H 52.802 23.639 66.123 H 0.0 **** 0.0
5 H 52.329 24.042 67.791 H 0.0 **** 0.0
@<TRIPOS>BOND
1 1 2 1
2 1 3 1
3 1 4 1
4 1 5 1
@<TRIPOS>MOLECULE
CH4
5 4
SMALL
USER_CHARGES


@<TRIPOS>ATOM
1 C 88.838 49.523 53.386 C 0.0 **** 0.0
2 H 88.921 49.147 52.366 H 0.0 **** 0.0
3 H 88.965 50.606 53.385 H 0.0 **** 0.0
4 H 89.61 49.067 54.006 H 0.0 **** 0.0
5 H 87.855 49.273 53.786 H 0.0 **** 0.0
@<TRIPOS>BOND
1 1 2 1
2 1 3 1
3 1 4 1
4 1 5 1
@<TRIPOS>MOLECULE
CH4
5 4
SMALL
USER_CHARGES


@<TRIPOS>ATOM
1 C 97.982 57.635 47.926 C 0.0 **** 0.0
2 H 98.453 57.267 48.838 H 0.0 **** 0.0
3 H 97.065 57.075 47.74 H 0.0 **** 0.0
4 H 98.665 57.505 47.087 H 0.0 **** 0.0
5 H 97.745 58.692 48.042 H 0.0 **** 0.0
@<TRIPOS>BOND
1 1 2 1
2 1 3 1
3 1 4 1
4 1 5 1
@<TRIPOS>MOLECULE
CH4
5 4
SMALL
USER_CHARGES


@<TRIPOS>ATOM
1 C 29.818 47.42 15.874 C 0.0 **** 0.0
2 H 29.08 47.167 16.636 H 0.0 **** 0.0
3 H 30.039 48.486 15.921 H 0.0 **** 0.0
4 H 29.422 47.173 14.889 H 0.0 **** 0.0
5 H 30.731 46.851 16.051 H 0.0 **** 0.0
@<TRIPOS>BOND
1 1 2 1
2 1 3 1
3 1 4 1
4 1 5 1
@<TRIPOS>MOLECULE
CH4
5 4
SMALL
USER_CHARGES


@<TRIPOS>ATOM
1 C 59.21 44.811 81.247 C 0.0 **** 0.0
2 H 58.593 45.348 81.968 H 0.0 **** 0.0
3 H 58.776 44.91 80.252 H 0.0 **** 0.0
4 H 59.254 43.757 81.522 H 0.0 **** 0.0
5 H 60.217 45.229 81.248 H 0.0 **** 0.0
@<TRIPOS>BOND
1 1 5 1
2 1 2 1
3 1 3 1
4 1 4 1
@<TRIPOS>MOLECULE
CH4
5 4
SMALL
USER_CHARGES


@<TRIPOS>ATOM
1 C 23.122 24.491 55.964 C 0.0 **** 0.0
2 H 23.264 24.614 54.891 H 0.0 **** 0.0
3 H 22.678 25.397 56.378 H 0.0 **** 0.0
4 H 24.086 24.309 56.439 H 0.0 **** 0.0
5 H 22.461 23.645 56.149 H 0.0 **** 0.0
@<TRIPOS>BOND
1 1 2 1
2 1 3 1
3 1 4 1
4 1 5 1
@<TRIPOS>MOLECULE
CH4
5 4
SMALL
USER_CHARGES


@<TRIPOS>ATOM
1 C 54.112 14.863 57.298 C 0.0 **** 0.0
2 H 53.076 15.152 57.474 H 0.0 **** 0.0
3 H 54.23 13.796 57.491 H 0.0 **** 0.0
4 H 54.765 15.428 57.963 H 0.0 **** 0.0
5 H 54.377 15.076 56.262 H 0.0 **** 0.0
@<TRIPOS>BOND
1 1 2 1
2 1 3 1
3 1 4 1
4 1 5 1
@<TRIPOS>MOLECULE
CH4
5 4
SMALL
USER_CHARGES


@<TRIPOS>ATOM
1 C 27.533 8.824 54.093 C 0.0 **** 0.0
2 H 27.245 8.321 55.016 H 0.0 **** 0.0
3 H 27.362 9.896 54.196 H 0.0 **** 0.0
4 H 26.936 8.438 53.267 H 0.0 **** 0.0
5 H 28.589 8.642 53.895 H 0.0 **** 0.0
@<TRIPOS>BOND
1 1 2 1
2 1 3 1
3 1 4 1
4 1 5 1
@<TRIPOS>MOLECULE
CH4
5 4
SMALL
USER_CHARGES


@<TRIPOS>ATOM
1 C 62.853 56.285 77.869 C 0.0 **** 0.0
2 H 63.077 55.909 78.867 H 0.0 **** 0.0
3 H 62.168 55.601 77.369 H 0.0 **** 0.0
4 H 63.776 56.362 77.294 H 0.0 **** 0.0
5 H 62.391 57.27 77.948 H 0.0 **** 0.0
@<TRIPOS>BOND
1 1 2 1
2 1 3 1
3 1 4 1
4 1 5 1
@<TRIPOS>MOLECULE
CH4
5 4
SMALL
USER_CHARGES


@<TRIPOS>ATOM
1 C 75.352 63.582 17.539 C 0.0 **** 0.0
2 H 75.207 63.452 18.612 H 0.0 **** 0.0
3 H 75.674 64.604 17.338 H 0.0 **** 0.0
4 H 74.414 63.387 17.02 H 0.0 **** 0.0
5 H 76.114 62.885 17.189 H 0.0 **** 0.0
@<TRIPOS>BOND
1 1 2 1
2 1 3 1
3 1 4 1
4 1 5 1
@<TRIPOS>MOLECULE
CH4
5 4
SMALL
USER_CHARGES


@<TRIPOS>ATOM
1 C 25.041 57.339 84.737 C 0.0 **** 0.0
2 H 24.519 58.029 85.401 H 0.0 **** 0.0
3 H 26.102 57.587 84.717 H 0.0 **** 0.0
4 H 24.628 57.422 83.731 H 0.0 **** 0.0
5 H 24.912 56.319 85.099 H 0.0 **** 0.0
@<TRIPOS>BOND
1 1 2 1
2 1 3 1
3 1 4 1
4 1 5 1
@<TRIPOS>MOLECULE
CH4
5 4
SMALL
USER_CHARGES


@<TRIPOS>ATOM
1 C 50.511 5.883 63.458 C 0.0 **** 0.0
2 H 50.794 5.062 64.118 H 0.0 **** 0.0
3 H 49.448 6.094 63.577 H 0.0 **** 0.0
4 H 50.714 5.604 62.424 H 0.0 **** 0.0
5 H 51.089 6.771 63.715 H 0.0 **** 0.0
@<TRIPOS>BOND
1 1 2 1
2 1 3 1
3 1 4 1
4 1 5 1
@<TRIPOS>MOLECULE
CH4
5 4
SMALL
USER_CHARGES


@<TRIPOS>ATOM
1 C 90.906 75.049 36.48 C 0.0 **** 0.0
2 H 90.885 75.05 35.391 H 0.0 **** 0.0
3 H 91.89 74.728 36.824 H 0.0 **** 0.0
4 H 90.148 74.363 36.857 H 0.0 **** 0.0
5 H 90.702 76.054 36.848 H 0.0 **** 0.0
@<TRIPOS>BOND
1 1 2 1
2 1 3 1
3 1 4 1
4 1 5 1
@<TRIPOS>MOLECULE
CH4
5 4
SMALL
USER_CHARGES


@<TRIPOS>ATOM
1 C 70.293 30.417 51.326 C 0.0 **** 0.0
2 H 70.406 30.303 52.404 H 0.0 **** 0.0
3 H 69.647 29.627 50.943 H 0.0 **** 0.0
4 H 71.271 30.35 50.85 H 0.0 **** 0.0
5 H 69.849 31.388 51.109 H 0.0 **** 0.0
@<TRIPOS>BOND
1 1 2 1
2 1 3 1
3 1 4 1
4 1 5 1
@<TRIPOS>MOLECULE
CH4
5 4
SMALL
USER_CHARGES


@<TRIPOS>ATOM
1 C 27.78 68.051 9.96 C 0.0 **** 0.0
2 H 27.889 67.552 8.998 H 0.0 **** 0.0
3 H 28.483 68.883 10.019 H 0.0 **** 0.0
4 H 27.986 67.343 10.762 H 0.0 **** 0.0
5 H 26.762 68.428 10.061 H 0.0 **** 0.0
@<TRIPOS>BOND
1 1 2 1
2 1 3 1
3 1 4 1
4 1 5 1
@<TRIPOS>MOLECULE
CH4
5 4
SMALL
USER_CHARGES


@<TRIPOS>ATOM
1 C 58.474 59.58 83.754 C 0.0 **** 0.0
2 H 59.187 59.258 84.513 H 0.0 **** 0.0
3 H 58.348 60.661 83.81 H 0.0 **** 0.0
4 H 57.514 59.093 83.928 H 0.0 **** 0.0
5 H 58.846 59.307 82.767 H 0.0 **** 0.0
@<TRIPOS>BOND
1 1 2 1
2 1 3 1
3 1 4 1
4 1 5 1
@<TRIPOS>MOLECULE
CH4
5 4
SMALL
USER_CHARGES


@<TRIPOS>ATOM
1 C 60.624 63.198 40.585 C 0.0 **** 0.0
2 H 61.204 62.351 40.949 H 0.0 **** 0.0
3 H 59.9 63.496 41.344 H 0.0 **** 0.0
4 H 60.099 62.914 39.673 H 0.0 **** 0.0
5 H 61.293 64.033 40.374 H 0.0 **** 0.0
@<TRIPOS>BOND
1 1 2 1
2 1 3 1
3 1 4 1
4 1 5 1
@<TRIPOS>MOLECULE
CH4
5 4
SMALL
USER_CHARGES


@<TRIPOS>ATOM
1 C 53.594 38.354 88.664 C 0.0 **** 0.0
2 H 53.697 37.957 87.655 H 0.0 **** 0.0
3 H 52.567 38.217 89.005 H 0.0 **** 0.0
4 H 53.838 39.417 88.663 H 0.0 **** 0.0
5 H 54.273 37.826 89.334 H 0.0 **** 0.0
@<TRIPOS>BOND
1 1 2 1
2 1 3 1
3 1 4 1
4 1 5 1
@<TRIPOS>MOLECULE
CH4
5 4
SMALL
USER_CHARGES


@<TRIPOS>ATOM
1 C 94.03 48.246 10.193 C 0.0 **** 0.0
2 H 94.164 48.249 11.274 H 0.0 **** 0.0
3 H 94.193 49.252 9.804 H 0.0 **** 0.0
4 H 93.017 47.923 9.953 H 0.0 **** 0.0
5 H 94.746 47.561 9.74 H 0.0 **** 0.0
@<TRIPOS>BOND
1 1 2 1
2 1 3 1
3 1 4 1
4 1 5 1
@<TRIPOS>MOLECULE
CH4
5 4
SMALL
USER_CHARGES


@<TRIPOS>ATOM
1 C 62.739 52.844 31.791 C 0.0 **** 0.0
2 H 63.034 52.762 30.745 H 0.0 **** 0.0
3 H 63.001 51.925 32.316 H 0.0 **** 0.0
4 H 61.662 53.003 31.853 H 0.0 **** 0.0
5 H 63.258 53.686 32.25 H 0.0 **** 0.0
@<TRIPOS>BOND
1 1 2 1
2 1 3 1
3 1 4 1
4 1 5 1
@<TRIPOS>MOLECULE
CH4
5 4
SMALL
USER_CHARGES


@<TRIPOS>ATOM
1 C 28.555 33.393 20.573 C 0.0 **** 0.0
2 H 28.507 34.312 19.989 H 0.0 **** 0.0
3 H 28.493 33.635 21.635 H 0.0 **** 0.0
4 H 29.496 32.883 20.37 H 0.0 **** 0.0
5 H 27.723 32.745 20.299 H 0.0 **** 0.0
@<TRIPOS>BOND
1 1 2 1
2 1 3 1
3 1 4 1
4 1 5 1
@<TRIPOS>MOLECULE
CH4
5 4
SMALL
USER_CHARGES


@<TRIPOS>ATOM
1 C 91.507 93.303 52.3 C 0.0 **** 0.0
2 H 91.36 93.784 51.333 H 0.0 **** 0.0
3 H 91.79 94.053 53.039 H 0.0 **** 0.0
4 H 92.298 92.558 52.218 H 0.0 **** 0.0
5 H 90.581 92.819 52.609 H 0.0 **** 0.0
@<TRIPOS>BOND
1 1 2 1
2 1 3 1
3 1 4 1
4 1 5 1
@<TRIPOS>MOLECULE
CH4
5 4
SMALL
USER_CHARGES


@<TRIPOS>ATOM
1 C 28.769 67.498 71.926 C 0.0 **** 0.0
2 H 29.45 67.129 71.159 H 0.0 **** 0.0
3 H 28.074 68.21 71.482 H 0.0 **** 0.0
4 H 29.341 67.989 72.713 H 0.0 **** 0.0
5 H 28.213 66.662 72.349 H 0.0 **** 0.0
@<TRIPOS>BOND
1 1 2 1
2 1 3 1
3 1 4 1
4 1 5 1
@<TRIPOS>MOLECULE
CH4
5 4
SMALL
USER_CHARGES


@<TRIPOS>ATOM
1 C 80.693 91.15 12.601 C 0.0 **** 0.0
2 H 81.256 90.886 13.496 H 0.0 **** 0.0
3 H 81.362 91.155 11.74 H 0.0 **** 0.0
4 H 80.256 92.141 12.727 H 0.0 **** 0.0
5 H 79.9 90.42 12.442 H 0.0 **** 0.0
@<TRIPOS>BOND
1 1 2 1
2 1 3 1
3 1 4 1
4 1 5 1
@<TRIPOS>MOLECULE
CH4
5 4
SMALL
USER_CHARGES


@<TRIPOS>ATOM
1 C 77.876 61.411 1.829 C 0.0 **** 0.0
2 H 77.912 61.336 2.916 H 0.0 **** 0.0
3 H 76.984 60.906 1.459 H 0.0 **** 0.0
4 H 78.763 60.941 1.404 H 0.0 **** 0.0
5 H 77.847 62.461 1.538 H 0.0 **** 0.0
@<TRIPOS>BOND
1 1 2 1
2 1 3 1
3 1 4 1
4 1 5 1
@<TRIPOS>MOLECULE
CH4
5 4
SMALL
USER_CHARGES


@<TRIPOS>ATOM
1 C 50.664 12.772 7.784 C 0.0 **** 0.0
2 H 51.405 13.493 8.128 H 0.0 **** 0.0
3 H 50.941 12.41 6.794 H 0.0 **** 0.0
4 H 49.686 13.25 7.737 H 0.0 **** 0.0
5 H 50.625 11.933 8.48 H 0.0 **** 0.0
@<TRIPOS>BOND
1 1 2 1
2 1 3 1
3 1 4 1
4 1 5 1
@<TRIPOS>MOLECULE
CH4
5 4
SMALL
USER_CHARGES


@<TRIPOS>ATOM
1 C 38.872 64.542 20.89 C 0.0 **** 0.0
2 H 39.864 64.915 21.142 H 0.0 **** 0.0
3 H 38.22 65.381 20.647 H 0.0 **** 0.0
4 H 38.462 63.996 21.739 H 0.0 **** 0.0
5 H 38.942 63.876 20.03 H 0.0 **** 0.0
@<TRIPOS>BOND
1 1 2 1
2 1 3 1
3 1 4 1
4 1 5 1
@<TRIPOS>MOLECULE
CH4
5 4
SMALL
USER_CHARGES


@<TRIPOS>ATOM
1 C 88.523 36.964 32.473 C 0.0 **** 0.0
2 H 89.33 36.259 32.672 H 0.0 **** 0.0
3 H 87.718 36.807 33.191 H 0.0 **** 0.0
4 H 88.145 36.807 31.463 H 0.0 **** 0.0
5 H 88.899 37.983 32.567 H 0.0 **** 0.0
@<TRIPOS>BOND
1 1 2 1
2 1 3 1
3 1 4 1
4 1 5 1
@<TRIPOS>MOLECULE
CH4
5 4
SMALL
USER_CHARGES


@<TRIPOS>ATOM
1 C 78.305 90.185 92.226 C 0.0 **** 0.0
2 H 77.3 89.852 92.486 H 0.0 **** 0.0
3 H 78.983 89.331 92.234 H 0.0 **** 0.0
4 H 78.642 90.924 92.952 H 0.0 **** 0.0
5 H 78.294 90.631 91.231 H 0.0 **** 0.0
@<TRIPOS>BOND
1 1 2 1
2 1 3 1
3 1 4 1
4 1 5 1
@<TRIPOS>MOLECULE
CH4
5 4
SMALL
USER_CHARGES


@<TRIPOS>ATOM
1 C 61.363 74.199 45.306 C 0.0 **** 0.0
2 H 61.485 73.874 46.339 H 0.0 **** 0.0
3 H 62.295 74.642 44.952 H 0.0 **** 0.0
4 H 60.565 74.939 45.25 H 0.0 **** 0.0
5 H 61.109 73.342 44.683 H 0.0 **** 0.0
@<TRIPOS>BOND
1 1 2 1
2 1 3 1
3 1 4 1
4 1 5 1
@<TRIPOS>MOLECULE
CH4
5 4
SMALL
USER_CHARGES


@<TRIPOS>ATOM
1 C 90.543 5.327 26.706 C 0.0 **** 0.0
2 H 90.567 5.488 25.628 H 0.0 **** 0.0
3 H 89.648 4.764 26.969 H 0.0 **** 0.0
4 H 90.53 6.291 27.216 H 0.0 **** 0.0
5 H 91.428 4.767 27.01 H 0.0 **** 0.0
@<TRIPOS>BOND
1 1 2 1
2 1 3 1
3 1 4 1
4 1 5 1
@<TRIPOS>MOLECULE
CH4
5 4
SMALL
USER_CHARGES


@<TRIPOS>ATOM
1 C 13.66 72.36 56.513 C 0.0 **** 0.0
2 H 14.722 72.406 56.756 H 0.0 **** 0.0
3 H 13.391 71.336 56.255 H 0.0 **** 0.0
4 H 13.454 73.015 55.666 H 0.0 **** 0.0
5 H 13.076 72.684 57.374 H 0.0 **** 0.0
@<TRIPOS>BOND
1 1 2 1
2 1 3 1
3 1 4 1
4 1 5 1
@<TRIPOS>MOLECULE
CH4
5 4
SMALL
USER_CHARGES


@<TRIPOS>ATOM
1 C 19.836 6.418 78.221 C 0.0 **** 0.0
2 H 20.11 6.148 79.241 H 0.0 **** 0.0
3 H 20.713 6.8 77.699 H 0.0 **** 0.0
4 H 19.064 7.187 78.245 H 0.0 **** 0.0
5 H 19.457 5.538 77.702 H 0.0 **** 0.0
@<TRIPOS>BOND
1 1 2 1
2 1 3 1
3 1 4 1
4 1 5 1
@<TRIPOS>MOLECULE
CH4
5 4
SMALL
USER_CHARGES


@<TRIPOS>ATOM
1 C 7.573 84.63 67.796 C 0.0 **** 0.0
2 H 7.41 83.775 67.139 H 0.0 **** 0.0
3 H 6.955 85.465 67.466 H 0.0 **** 0.0
4 H 8.623 84.919 67.761 H 0.0 **** 0.0
5 H 7.304 84.36 68.817 H 0.0 **** 0.0
@<TRIPOS>BOND
1 1 2 1
2 1 3 1
3 1 4 1
4 1 5 1
@<TRIPOS>MOLECULE
CH4
5 4
SMALL
USER_CHARGES


@<TRIPOS>ATOM
1 C 40.25 78.691 14.206 C 0.0 **** 0.0
2 H 41.086 78.784 13.513 H 0.0 **** 0.0
3 H 40.526 79.121 15.169 H 0.0 **** 0.0
4 H 40.001 77.637 14.336 H 0.0 **** 0.0
5 H 39.386 79.221 13.805 H 0.0 **** 0.0
@<TRIPOS>BOND
1 1 2 1
2 1 3 1
3 1 4 1
4 1 5 1
@<TRIPOS>MOLECULE
CH4
5 4
SMALL
USER_CHARGES


@<TRIPOS>ATOM
1 C 11.195 4.014 70.636 C 0.0 **** 0.0
2 H 10.408 3.767 71.349 H 0.0 **** 0.0
3 H 11.875 3.167 70.538 H 0.0 **** 0.0
4 H 11.746 4.885 70.991 H 0.0 **** 0.0
5 H 10.749 4.236 69.666 H 0.0 **** 0.0
@<TRIPOS>BOND
1 1 2 1
2 1 3 1
3 1 4 1
4 1 5 1
@<TRIPOS>MOLECULE
CH4
5 4
SMALL
USER_CHARGES


@<TRIPOS>ATOM
1 C 12.618 6.961 24.636 C 0.0 **** 0.0
2 H 12.536 7.881 25.215 H 0.0 **** 0.0
3 H 12.171 6.139 25.195 H 0.0 **** 0.0
4 H 13.668 6.744 24.445 H 0.0 **** 0.0
5 H 12.094 7.082 23.688 H 0.0 **** 0.0
@<TRIPOS>BOND
1 1 2 1
2 1 3 1
3 1 4 1
4 1 5 1
@<TRIPOS>MOLECULE
CH4
5 4
SMALL
USER_CHARGES


@<TRIPOS>ATOM
1 C 64.1 56.373 4.521 C 0.0 **** 0.0
2 H 64.669 55.65 5.106 H 0.0 **** 0.0
3 H 64.559 57.357 4.615 H 0.0 **** 0.0
4 H 63.075 56.412 4.89 H 0.0 **** 0.0
5 H 64.098 56.071 3.474 H 0.0 **** 0.0
@<TRIPOS>BOND
1 1 2 1
2 1 3 1
3 1 4 1
4 1 5 1
@<TRIPOS>MOLECULE
CH4
5 4
SMALL
USER_CHARGES


@<TRIPOS>ATOM
1 C 40.635 26.672 87.506 C 0.0 **** 0.0
2 H 39.852 27.297 87.934 H 0.0 **** 0.0
3 H 40.592 26.73 86.418 H 0.0 **** 0.0
4 H 40.489 25.64 87.822 H 0.0 **** 0.0
5 H 41.608 27.023 87.85 H 0.0 **** 0.0
@<TRIPOS>BOND
1 1 3 1
2 1 4 1
3 1 5 1
4 1 2 1
@<TRIPOS>MOLECULE
CH4
5 4
SMALL
USER_CHARGES


@<TRIPOS>ATOM
1 C 97.532 19.665 20.965 C 0.0 **** 0.0
2 H 97.468 19.214 19.975 H 0.0 **** 0.0
3 H 96.528 19.879 21.333 H 0.0 **** 0.0
4 H 98.103 20.592 20.906 H 0.0 **** 0.0
5 H 98.03 18.975 21.647 H 0.0 **** 0.0
@<TRIPOS>BOND
1 1 2 1
2 1 3 1
3 1 4 1
4 1 5 1
@<TRIPOS>MOLECULE
CH4
5 4
SMALL
USER_CHARGES


@<TRIPOS>ATOM
1 C 73.761 68.432 73.259 C 0.0 **** 0.0
2 H 74.63 67.996 72.765 H 0.0 **** 0.0
3 H 73.887 68.368 74.34 H 0.0 **** 0.0
4 H 72.865 67.886 72.964 H 0.0 **** 0.0
5 H 73.663 69.477 72.965 H 0.0 **** 0.0
@<TRIPOS>BOND
1 1 2 1
2 1 3 1
3 1 4 1
4 1 5 1
@<TRIPOS>MOLECULE
CH4
5 4
SMALL
USER_CHARGES


@<TRIPOS>ATOM
1 C 7.688 28.098 7.815 C 0.0 **** 0.0
2 H 6.931 28.591 8.425 H 0.0 **** 0.0
3 H 8.637 28.624 7.918 H 0.0 **** 0.0
4 H 7.377 28.11 6.77 H 0.0 **** 0.0
5 H 7.806 27.066 8.146 H 0.0 **** 0.0
@<TRIPOS>BOND
1 1 2 1
2 1 3 1
3 1 4 1
4 1 5 1
@<TRIPOS>MOLECULE
CH4
5 4
SMALL
USER_CHARGES


@<TRIPOS>ATOM
1 C 53.308 12.536 1.697 C 0.0 **** 0.0
2 H 54.28 12.471 2.187 H 0.0 **** 0.0
3 H 53.297 13.396 1.026 H 0.0 **** 0.0
4 H 52.529 12.653 2.45 H 0.0 **** 0.0
5 H 53.128 11.626 1.125 H 0.0 **** 0.0
@<TRIPOS>BOND
1 1 2 1
2 1 3 1
3 1 4 1
4 1 5 1
@<TRIPOS>MOLECULE
CH4
5 4
SMALL
USER_CHARGES


@<TRIPOS>ATOM
1 C 87.289 10.733 31.818 C 0.0 **** 0.0
2 H 87.061 10.819 32.88 H 0.0 **** 0.0
3 H 87.918 9.859 31.651 H 0.0 **** 0.0
4 H 87.815 11.628 31.486 H 0.0 **** 0.0
5 H 86.362 10.627 31.255 H 0.0 **** 0.0
@<TRIPOS>BOND
1 1 2 1
2 1 3 1
3 1 4 1
4 1 5 1
@<TRIPOS>MOLECULE
CH4
5 4
SMALL
USER_CHARGES


@<TRIPOS>ATOM
1 C 95.05 19.176 5.706 C 0.0 **** 0.0
2 H 95.103 19.206 6.794 H 0.0 **** 0.0
3 H 94.99 18.14 5.373 H 0.0 **** 0.0
4 H 95.941 19.642 5.287 H 0.0 **** 0.0
5 H 94.165 19.718 5.371 H 0.0 **** 0.0
@<TRIPOS>BOND
1 1 2 1
2 1 3 1
3 1 4 1
4 1 5 1
@<TRIPOS>MOLECULE
CH4
5 4
SMALL
USER_CHARGES


@<TRIPOS>ATOM
1 C 84.089 75.539 14.541 C 0.0 **** 0.0
2 H 85.052 75.654 15.037 H 0.0 **** 0.0
3 H 84.137 75.982 13.546 H 0.0 **** 0.0
4 H 83.317 76.04 15.126 H 0.0 **** 0.0
5 H 83.849 74.479 14.456 H 0.0 **** 0.0
@<TRIPOS>BOND
1 1 2 1
2 1 3 1
3 1 4 1
4 1 5 1
@<TRIPOS>MOLECULE
CH4
5 4
SMALL
USER_CHARGES


@<TRIPOS>ATOM
1 C 37.876 90.596 58.925 C 0.0 **** 0.0
2 H 38.878 90.771 58.533 H 0.0 **** 0.0
3 H 37.914 90.556 60.014 H 0.0 **** 0.0
4 H 37.496 89.649 58.539 H 0.0 **** 0.0
5 H 37.217 91.406 58.613 H 0.0 **** 0.0
@<TRIPOS>BOND
1 1 2 1
2 1 3 1
3 1 4 1
4 1 5 1
@<TRIPOS>MOLECULE
CH4
5 4
SMALL
USER_CHARGES


@<TRIPOS>ATOM
1 C 11.137 23.864 92.519 C 0.0 **** 0.0
2 H 11.964 24.574 92.512 H 0.0 **** 0.0
3 H 10.239 24.357 92.893 H 0.0 **** 0.0
4 H 11.386 23.023 93.165 H 0.0 **** 0.0
5 H 10.959 23.504 91.506 H 0.0 **** 0.0
@<TRIPOS>BOND
1 1 2 1
2 1 3 1
3 1 4 1
4 1 5 1
@<TRIPOS>MOLECULE
CH4
5 4
SMALL
USER_CHARGES


@<TRIPOS>ATOM
1 C 83.603 72.525 38.078 C 0.0 **** 0.0
2 H 83.874 73.575 38.191 H 0.0 **** 0.0
3 H 82.539 72.401 38.281 H 0.0 **** 0.0
4 H 84.179 71.924 38.782 H 0.0 **** 0.0
5 H 83.82 72.201 37.06 H 0.0 **** 0.0
@<TRIPOS>BOND
1 1 2 1
2 1 3 1
3 1 4 1
4 1 5 1
@<TRIPOS>MOLECULE
CH4
5 4
SMALL
USER_CHARGES


@<TRIPOS>ATOM
1 C 15.997 3.304 69.312 C 0.0 **** 0.0
2 H 15.631 4.318 69.477 H 0.0 **** 0.0
3 H 15.67 2.663 70.131 H 0.0 **** 0.0
4 H 17.086 3.314 69.27 H 0.0 **** 0.0
5 H 15.6 2.924 68.371 H 0.0 **** 0.0
@<TRIPOS>BOND
1 1 2 1
2 1 3 1
3 1 4 1
4 1 5 1
@<TRIPOS>MOLECULE
CH4
5 4
SMALL
USER_CHARGES


@<TRIPOS>ATOM
1 C 91.052 52.701 21.653 C 0.0 **** 0.0
2 H 91.225 53.28 20.746 H 0.0 **** 0.0
3 H 90.518 51.784 21.402 H 0.0 **** 0.0
4 H 90.456 53.289 22.351 H 0.0 **** 0.0
5 H 92.008 52.451 22.112 H 0.0 **** 0.0
@<TRIPOS>BOND
1 1 2 1
2 1 3 1
3 1 4 1
4 1 5 1
@<TRIPOS>MOLECULE
CH4
5 4
SMALL
USER_CHARGES


@<TRIPOS>ATOM
1 C 25.086 70.012 25.475 C 0.0 **** 0.0
2 H 24.489 69.537 24.697 H 0.0 **** 0.0
3 H 25.995 70.423 25.036 H 0.0 **** 0.0
4 H 25.35 69.272 26.231 H 0.0 **** 0.0
5 H 24.51 70.814 25.937 H 0.0 **** 0.0
@<TRIPOS>BOND
1 1 2 1
2 1 3 1
3 1 4 1
4 1 5 1
@<TRIPOS>MOLECULE
CH4
5 4
SMALL
USER_CHARGES


@<TRIPOS>ATOM
1 C 13.322 12.296 14.459 C 0.0 **** 0.0
2 H 14.301 11.892 14.715 H 0.0 **** 0.0
3 H 13.356 13.385 14.502 H 0.0 **** 0.0
4 H 12.58 11.928 15.168 H 0.0 **** 0.0
5 H 13.05 11.98 13.452 H 0.0 **** 0.0
@<TRIPOS>BOND
1 1 2 1
2 1 3 1
3 1 4 1
4 1 5 1
@<TRIPOS>MOLECULE
CH4
5 4
SMALL
USER_CHARGES


@<TRIPOS>ATOM
1 C 50.094 84.735 13.438 C 0.0 **** 0.0
2 H 50.309 83.889 12.785 H 0.0 **** 0.0
3 H 50.826 84.765 14.246 H 0.0 **** 0.0
4 H 49.094 84.626 13.857 H 0.0 **** 0.0
5 H 50.149 85.66 12.863 H 0.0 **** 0.0
@<TRIPOS>BOND
1 1 2 1
2 1 3 1
3 1 4 1
4 1 5 1
@<TRIPOS>MOLECULE
CH4
5 4
SMALL
USER_CHARGES


@<TRIPOS>ATOM
1 C 54.017 1.242 89.332 C 0.0 **** 0.0
2 H 54.528 1.291 90.294 H 0.0 **** 0.0
3 H 53.42 2.143 89.191 H 0.0 **** 0.0
4 H 53.367 0.367 89.311 H 0.0 **** 0.0
5 H 54.755 1.166 88.533 H 0.0 **** 0.0
@<TRIPOS>BOND
1 1 5 1
2 1 2 1
3 1 3 1
4 1 4 1
@<TRIPOS>MOLECULE
CH4
5 4
SMALL
USER_CHARGES


@<TRIPOS>ATOM
1 C 54.884 70.658 28.995 C 0.0 **** 0.0
2 H 54.261 70.772 29.882 H 0.0 **** 0.0
3 H 55.257 69.635 28.943 H 0.0 **** 0.0
4 H 55.725 71.349 29.051 H 0.0 **** 0.0
5 H 54.293 70.876 28.106 H 0.0 **** 0.0
@<TRIPOS>BOND
1 1 2 1
2 1 3 1
3 1 4 1
4 1 5 1
@<TRIPOS>MOLECULE
CH4
5 4
SMALL
USER_CHARGES


@<TRIPOS>ATOM
1 C 81.001 34.087 13.791 C 0.0 **** 0.0
2 H 82.043 33.79 13.67 H 0.0 **** 0.0
3 H 80.411 33.681 12.969 H 0.0 **** 0.0
4 H 80.931 35.175 13.787 H 0.0 **** 0.0
5 H 80.621 33.702 14.737 H 0.0 **** 0.0
@<TRIPOS>BOND
1 1 2 1
2 1 3 1
3 1 4 1
4 1 5 1
@<TRIPOS>MOLECULE
CH4
5 4
SMALL
USER_CHARGES


@<TRIPOS>ATOM
1 C 31.815 41.909 85.41 C 0.0 **** 0.0
2 H 31.762 41.961 84.322 H 0.0 **** 0.0
3 H 32.443 41.067 85.703 H 0.0 **** 0.0
4 H 30.813 41.773 85.816 H 0.0 **** 0.0
5 H 32.242 42.834 85.797 H 0.0 **** 0.0
@<TRIPOS>BOND
1 1 2 1
2 1 3 1
3 1 4 1
4 1 5 1
@<TRIPOS>MOLECULE
CH4
5 4
SMALL
USER_CHARGES


@<TRIPOS>ATOM
1 C 41.631 42.32 96.907 C 0.0 **** 0.0
2 H 42.279 41.545 97.315 H 0.0 **** 0.0
3 H 40.866 41.861 96.28 H 0.0 **** 0.0
4 H 42.223 43.013 96.309 H 0.0 **** 0.0
5 H 41.154 42.862 97.725 H 0.0 **** 0.0
@<TRIPOS>BOND
1 1 2 1
2 1 3 1
3 1 4 1
4 1 5 1
@<TRIPOS>MOLECULE
CH4
5 4
SMALL
USER_CHARGES


@<TRIPOS>ATOM
1 C 81.279 21.88 74.77 C 0.0 **** 0.0
2 H 80.416 22.451 74.429 H 0.0 **** 0.0
3 H 81.714 21.341 73.928 H 0.0 **** 0.0
4 H 80.965 21.169 75.534 H 0.0 **** 0.0
5 H 82.022 22.559 75.189 H 0.0 **** 0.0
@<TRIPOS>BOND
1 1 2 1
2 1 3 1
3 1 4 1
4 1 5 1
@<TRIPOS>MOLECULE
CH4
5 4
SMALL
USER_CHARGES


@<TRIPOS>ATOM
1 C 55.513 12.173 30.5 C 0.0 **** 0.0
2 H 54.616 11.556 30.537 H 0.0 **** 0.0
3 H 56.196 11.775 29.748 H 0.0 **** 0.0
4 H 56.001 12.164 31.474 H 0.0 **** 0.0
5 H 55.241 13.195 30.239 H 0.0 **** 0.0
@<TRIPOS>BOND
1 1 2 1
2 1 3 1
3 1 4 1
4 1 5 1
@<TRIPOS>MOLECULE
CH4
5 4
SMALL
USER_CHARGES


@<TRIPOS>ATOM
1 C 37.541 29.619 61.424 C 0.0 **** 0.0
2 H 37.505 28.812 62.157 H 0.0 **** 0.0
3 H 38.57 29.957 61.306 H 0.0 **** 0.0
4 H 36.922 30.448 61.767 H 0.0 **** 0.0
5 H 37.165 29.256 60.467 H 0.0 **** 0.0
@<TRIPOS>BOND
1 1 2 1
2 1 3 1
3 1 4 1
4 1 5 1
@<TRIPOS>MOLECULE
CH4
5 4
SMALL
USER_CHARGES


@<TRIPOS>ATOM
1 C 82.224 16.556 78.748 C 0.0 **** 0.0
2 H 82.735 16.243 77.838 H 0.0 **** 0.0
3 H 81.216 16.14 78.76 H 0.0 **** 0.0
4 H 82.168 17.645 78.777 H 0.0 **** 0.0
5 H 82.776 16.198 79.617 H 0.0 **** 0.0
@<TRIPOS>BOND
1 1 2 1
2 1 3 1
3 1 4 1
4 1 5 1
@<TRIPOS>MOLECULE
CH4
5 4
SMALL
USER_CHARGES


@<TRIPOS>ATOM
1 C 43.761 69.973 64.985 C 0.0 **** 0.0
2 H 44.443 70.472 65.675 H 0.0 **** 0.0
3 H 43.603 70.605 64.111 H 0.0 **** 0.0
4 H 42.808 69.795 65.483 H 0.0 **** 0.0
5 H 44.192 69.022 64.673 H 0.0 **** 0.0
@<TRIPOS>BOND
1 1 2 1
2 1 3 1
3 1 4 1
4 1 5 1
@<TRIPOS>MOLECULE
CH4
5 4
SMALL
USER_CHARGES


@<TRIPOS>ATOM
1 C 70.09 48.723 44.214 C 0.0 **** 0.0
2 H 69.743 47.858 44.781 H 0.0 **** 0.0
3 H 70.38 49.516 44.904 H 0.0 **** 0.0
4 H 69.287 49.079 43.568 H 0.0 **** 0.0
5 H 70.948 48.438 43.605 H 0.0 **** 0.0
@<TRIPOS>BOND
1 1 2 1
2 1 3 1
3 1 4 1
4 1 5 1
@<TRIPOS>MOLECULE
CH4
5 4
SMALL
USER_CHARGES


@<TRIPOS>ATOM
1 C 0.999 40.43 43.822 C 0.0 **** 0.0
2 H 0.679 40.42 42.78 H 0.0 **** 0.0
3 H 1.079 39.406 44.187 H 0.0 **** 0.0
4 H 0.268 40.974 44.42 H 0.0 **** 0.0
5 H 1.969 40.921 43.899 H 0.0 **** 0.0
@<TRIPOS>BOND
1 1 2 1
2 1 3 1
3 1 4 1
4 1 5 1
@<TRIPOS>MOLECULE
CH4
5 4
SMALL
USER_CHARGES


@<TRIPOS>ATOM
1 C 88.889 2.284 89.166 C 0.0 **** 0.0
2 H 89.278 2.817 88.298 H 0.0 **** 0.0
3 H 87.983 2.778 89.519 H 0.0 **** 0.0
4 H 89.637 2.287 89.959 H 0.0 **** 0.0
5 H 88.658 1.256 88.888 H 0.0 **** 0.0
@<TRIPOS>BOND
1 1 2 1
2 1 3 1
3 1 4 1
4 1 5 1
@<TRIPOS>MOLECULE
CH4
5 4
SMALL
USER_CHARGES


@<TRIPOS>ATOM
1 C 97.512 78.013 84.615 C 0.0 **** 0.0
2 H 97.619 78.797 83.865 H 0.0 **** 0.0
3 H 97.143 77.105 84.14 H 0.0 **** 0.0
4 H 96.806 78.337 85.38 H 0.0 **** 0.0
5 H 98.48 77.816 85.075 H 0.0 **** 0.0
@<TRIPOS>BOND
1 1 2 1
2 1 3 1
3 1 4 1
4 1 5 1
@<TRIPOS>MOLECULE
CH4
5 4
SMALL
USER_CHARGES


@<TRIPOS>ATOM
1 C 2.287 66.991 32.898 C 0.0 **** 0.0
2 H 1.776 67.71 33.538 H 0.0 **** 0.0
3 H 2.816 67.521 32.105 H 0.0 **** 0.0
4 H 1.557 66.313 32.457 H 0.0 **** 0.0
5 H 3.001 66.42 33.492 H 0.0 **** 0.0
@<TRIPOS>BOND
1 1 2 1
2 1 3 1
3 1 4 1
4 1 5 1
@<TRIPOS>MOLECULE
CH4
5 4
SMALL
USER_CHARGES


@<TRIPOS>ATOM
1 C 37.053 71.871 33.906 C 0.0 **** 0.0
2 H 37.797 72.126 33.151 H 0.0 **** 0.0
3 H 36.105 72.351 33.658 H 0.0 **** 0.0
4 H 37.392 72.219 34.882 H 0.0 **** 0.0
5 H 36.917 70.79 33.933 H 0.0 **** 0.0
@<TRIPOS>BOND
1 1 2 1
2 1 3 1
3 1 4 1
4 1 5 1
@<TRIPOS>MOLECULE
CH4
5 4
SMALL
USER_CHARGES


@<TRIPOS>ATOM
1 C 13.519 89.022 91.241 C 0.0 **** 0.0
2 H 14.283 89.742 91.535 H 0.0 **** 0.0
3 H 12.926 89.435 90.425 H 0.0 **** 0.0
4 H 12.871 88.813 92.092 H 0.0 **** 0.0
5 H 13.997 88.099 90.913 H 0.0 **** 0.0
@<TRIPOS>BOND
1 1 2 1
2 1 3 1
3 1 4 1
4 1 5 1
@<TRIPOS>MOLECULE
CH4
5 4
SMALL
USER_CHARGES


@<TRIPOS>ATOM
1 C 83.436 65.321 71.094 C 0.0 **** 0.0
2 H 84.342 65.09 70.534 H 0.0 **** 0.0
3 H 82.816 66.005 70.514 H 0.0 **** 0.0
4 H 83.705 65.789 72.042 H 0.0 **** 0.0
5 H 82.883 64.402 71.286 H 0.0 **** 0.0
@<TRIPOS>BOND
1 1 5 1
2 1 2 1
3 1 3 1
4 1 4 1
@<TRIPOS>MOLECULE
CH4
5 4
SMALL
USER_CHARGES


@<TRIPOS>ATOM
1 C 17.851 7.652 49.822 C 0.0 **** 0.0
2 H 17.521 7.432 50.837 H 0.0 **** 0.0
3 H 17.502 8.644 49.534 H 0.0 **** 0.0
4 H 17.44 6.909 49.138 H 0.0 **** 0.0
5 H 18.94 7.622 49.779 H 0.0 **** 0.0
@<TRIPOS>BOND
1 1 2 1
2 1 3 1
3 1 4 1
4 1 5 1
@<TRIPOS>MOLECULE
CH4
5 4
SMALL
USER_CHARGES


@<TRIPOS>ATOM
1 C 94.561 23.336 45.695 C 0.0 **** 0.0
2 H 94.646 23.972 44.814 H 0.0 **** 0.0
3 H 95.308 22.543 45.644 H 0.0 **** 0.0
4 H 93.565 22.895 45.73 H 0.0 **** 0.0
5 H 94.726 23.934 46.591 H 0.0 **** 0.0
@<TRIPOS>BOND
1 1 2 1
2 1 3 1
3 1 4 1
4 1 5 1
@<TRIPOS>MOLECULE
CH4
5 4
SMALL
USER_CHARGES


@<TRIPOS>ATOM
1 C 35.097 70.657 84.326 C 0.0 **** 0.0
2 H 35.474 70.111 85.191 H 0.0 **** 0.0
3 H 34.047 70.904 84.483 H 0.0 **** 0.0
4 H 35.196 70.038 83.434 H 0.0 **** 0.0
5 H 35.672 71.574 84.197 H 0.0 **** 0.0
@<TRIPOS>BOND
1 1 2 1
2 1 3 1
3 1 4 1
4 1 5 1
@<TRIPOS>MOLECULE
CH4
5 4
SMALL
USER_CHARGES


@<TRIPOS>ATOM
1 C 44.154 70.112 7.336 C 0.0 **** 0.0
2 H 43.606 70.185 8.275 H 0.0 **** 0.0
3 H 44.933 70.874 7.31 H 0.0 **** 0.0
4 H 43.468 70.263 6.503 H 0.0 **** 0.0
5 H 44.609 69.124 7.258 H 0.0 **** 0.0
@<TRIPOS>BOND
1 1 2 1
2 1 3 1
3 1 4 1
4 1 5 1
@<TRIPOS>MOLECULE
CH4
5 4
SMALL
USER_CHARGES


@<TRIPOS>ATOM
1 C 33.024 82.734 38.221 C 0.0 **** 0.0
2 H 33.834 83.264 37.719 H 0.0 **** 0.0
3 H 33.304 82.542 39.257 H 0.0 **** 0.0
4 H 32.839 81.788 37.713 H 0.0 **** 0.0
5 H 32.121 83.343 38.195 H 0.0 **** 0.0
@<TRIPOS>BOND
1 1 2 1
2 1 3 1
3 1 4 1
4 1 5 1
@<TRIPOS>MOLECULE
CH4
5 4
SMALL
USER_CHARGES


@<TRIPOS>ATOM
1 C 85.666 86.485 20.263 C 0.0 **** 0.0
2 H 85.782 86.629 21.337 H 0.0 **** 0.0
3 H 86.083 85.518 19.98 H 0.0 **** 0.0
4 H 86.191 87.278 19.731 H 0.0 **** 0.0
5 H 84.607 86.513 20.005 H 0.0 **** 0.0
@<TRIPOS>BOND
1 1 2 1
2 1 3 1
3 1 4 1
4 1 5 1
@<TRIPOS>MOLECULE
CH4
5 4
SMALL
USER_CHARGES


@<TRIPOS>ATOM
1 C 28.661 2.267 25.938 C 0.0 **** 0.0
2 H 28.182 3.05 25.349 H 0.0 **** 0.0
3 H 29.685 2.129 25.592 H 0.0 **** 0.0
4 H 28.108 1.335 25.82 H 0.0 **** 0.0
5 H 28.667 2.555 26.989 H 0.0 **** 0.0
@<TRIPOS>BOND
1 1 2 1
2 1 3 1
3 1 4 1
4 1 5 1
@<TRIPOS>MOLECULE
CH4
5 4
SMALL
USER_CHARGES


@<TRIPOS>ATOM
1 C 16.774 8.853 15.44 C 0.0 **** 0.0
2 H 16.518 9.889 15.659 H 0.0 **** 0.0
3 H 17.195 8.787 14.436 H 0.0 **** 0.0
4 H 15.877 8.237 15.5 H 0.0 **** 0.0
5 H 17.507 8.499 16.166 H 0.0 **** 0.0
@<TRIPOS>BOND
1 1 2 1
2 1 3 1
3 1 4 1
4 1 5 1
@<TRIPOS>MOLECULE
CH4
5 4
SMALL
USER_CHARGES


@<TRIPOS>ATOM
1 C 16.589 5.26 75.268 C 0.0 **** 0.0
2 H 16.313 4.982 74.251 H 0.0 **** 0.0
3 H 17.39 4.609 75.618 H 0.0 **** 0.0
4 H 15.722 5.153 75.921 H 0.0 **** 0.0
5 H 16.929 6.296 75.282 H 0.0 **** 0.0
@<TRIPOS>BOND
1 1 2 1
2 1 3 1
3 1 4 1
4 1 5 1
@<TRIPOS>MOLECULE
CH4
5 4
SMALL
USER_CHARGES


@<TRIPOS>ATOM
1 C 35.902 78.301 92.121 C 0.0 **** 0.0
2 H 35.288 77.543 91.635 H 0.0 **** 0.0
3 H 35.274 78.923 92.759 H 0.0 **** 0.0
4 H 36.378 78.923 91.362 H 0.0 **** 0.0
5 H 36.668 77.816 92.725 H 0.0 **** 0.0
@<TRIPOS>BOND
1 1 2 1
2 1 3 1
3 1 4 1
4 1 5 1
@<TRIPOS>MOLECULE
CH4
5 4
SMALL
USER_CHARGES


@<TRIPOS>ATOM
1 C 7.686 61.546 66.227 C 0.0 **** 0.0
2 H 7.18 60.969 67.001 H 0.0 **** 0.0
3 H 8.014 62.5 66.642 H 0.0 **** 0.0
4 H 6.998 61.726 65.401 H 0.0 **** 0.0
5 H 8.551 60.99 65.866 H 0.0 **** 0.0
@<TRIPOS>BOND
1 1 2 1
2 1 3 1
3 1 4 1
4 1 5 1
@<TRIPOS>MOLECULE
CH4
5 4
SMALL
USER_CHARGES


@<TRIPOS>ATOM
1 C 10.44 70.576 38.63 C 0.0 **** 0.0
2 H 10.44 70.263 37.586 H 0.0 **** 0.0
3 H 9.589 71.233 38.812 H 0.0 **** 0.0
4 H 11.365 71.11 38.849 H 0.0 **** 0.0
5 H 10.366 69.699 39.272 H 0.0 **** 0.0
@<TRIPOS>BOND
1 1 2 1
2 1 3 1
3 1 4 1
4 1 5 1
@<TRIPOS>MOLECULE
CH4
5 4
SMALL
USER_CHARGES


@<TRIPOS>ATOM
1 C 85.851 34.914 47.416 C 0.0 **** 0.0
2 H 86.555 35.537 46.864 H 0.0 **** 0.0
3 H 85.026 34.632 46.761 H 0.0 **** 0.0
4 H 85.465 35.471 48.269 H 0.0 **** 0.0
5 H 86.359 34.016 47.767 H 0.0 **** 0.0
@<TRIPOS>BOND
1 1 2 1
2 1 3 1
3 1 4 1
4 1 5 1
@<TRIPOS>MOLECULE
CH4
5 4
SMALL
USER_CHARGES


@<TRIPOS>ATOM
1 C 15.664 41.582 65.496 C 0.0 **** 0.0
2 H 16.47 41.265 66.159 H 0.0 **** 0.0
3 H 14.712 41.506 66.021 H 0.0 **** 0.0
4 H 15.647 40.942 64.614 H 0.0 **** 0.0
5 H 15.831 42.616 65.192 H 0.0 **** 0.0
@<TRIPOS>BOND
1 1 2 1
2 1 3 1
3 1 4 1
4 1 5 1
@<TRIPOS>MOLECULE
CH4
5 4
SMALL
USER_CHARGES


@<TRIPOS>ATOM
1 C 56.45 89.298 86.953 C 0.0 **** 0.0
2 H 56.925 89.948 86.218 H 0.0 **** 0.0
3 H 55.433 89.069 86.632 H 0.0 **** 0.0
4 H 56.421 89.803 87.919 H 0.0 **** 0.0
5 H 57.02 88.374 87.043 H 0.0 **** 0.0
@<TRIPOS>BOND
1 1 2 1
2 1 3 1
3 1 4 1
4 1 5 1
@<TRIPOS>MOLECULE
CH4
5 4
SMALL
USER_CHARGES


@<TRIPOS>ATOM
1 C 60.06 13.434 91.328 C 0.0 **** 0.0
2 H 60.019 12.546 90.698 H 0.0 **** 0.0
3 H 59.6 14.272 90.804 H 0.0 **** 0.0
4 H 61.1 13.673 91.552 H 0.0 **** 0.0
5 H 59.523 13.246 92.257 H 0.0 **** 0.0
@<TRIPOS>BOND
1 1 2 1
2 1 3 1
3 1 4 1
4 1 5 1
@<TRIPOS>MOLECULE
CH4
5 4
SMALL
USER_CHARGES


@<TRIPOS>ATOM
1 C 85.859 64.518 56.646 C 0.0 **** 0.0
2 H 85.746 64.431 55.566 H 0.0 **** 0.0
3 H 86.625 65.26 56.872 H 0.0 **** 0.0
4 H 86.154 63.554 57.059 H 0.0 **** 0.0
5 H 84.912 64.828 57.087 H 0.0 **** 0.0
@<TRIPOS>BOND
1 1 5 1
2 1 2 1
3 1 3 1
4 1 4 1
@<TRIPOS>MOLECULE
CH4
5 4
SMALL
USER_CHARGES


@<TRIPOS>ATOM
1 C 14.954 46.505 14.308 C 0.0 **** 0.0
2 H 14.772 45.471 14.013 H 0.0 **** 0.0
3 H 14.141 47.134 13.944 H 0.0 **** 0.0
4 H 15.897 46.844 13.879 H 0.0 **** 0.0
5 H 15.005 46.569 15.394 H 0.0 **** 0.0
@<TRIPOS>BOND
1 1 2 1
2 1 3 1
3 1 4 1
4 1 5 1
@<TRIPOS>MOLECULE
CH4
5 4
SMALL
USER_CHARGES


@<TRIPOS>ATOM
1 C 17.862 87.869 51.574 C 0.0 **** 0.0
2 H 17.461 88.835 51.88 H 0.0 **** 0.0
3 H 18.917 87.978 51.32 H 0.0 **** 0.0
4 H 17.314 87.509 50.703 H 0.0 **** 0.0
5 H 17.756 87.156 52.391 H 0.0 **** 0.0
@<TRIPOS>BOND
1 1 2 1
2 1 3 1
3 1 4 1
4 1 5 1
@<TRIPOS>MOLECULE
CH4
5 4
SMALL
USER_CHARGES


@<TRIPOS>ATOM
1 C 40.037 75.278 34.494 C 0.0 **** 0.0
2 H 39.622 75.393 33.492 H 0.0 **** 0.0
3 H 41.118 75.153 34.427 H 0.0 **** 0.0
4 H 39.598 74.401 34.97 H 0.0 **** 0.0
5 H 39.809 76.165 35.085 H 0.0 **** 0.0
@<TRIPOS>BOND
1 1 2 1
2 1 3 1
3 1 4 1
4 1 5 1
@<TRIPOS>MOLECULE
CH4
5 4
SMALL
USER_CHARGES


@<TRIPOS>ATOM
1 C 56.23 55.415 18.762 C 0.0 **** 0.0
2 H 56.456 56.394 19.186 H 0.0 **** 0.0
3 H 55.462 55.521 17.995 H 0.0 **** 0.0
4 H 55.869 54.753 19.549 H 0.0 **** 0.0
5 H 57.132 54.994 18.318 H 0.0 **** 0.0
@<TRIPOS>BOND
1 1 2 1
2 1 3 1
3 1 4 1
4 1 5 1
@<TRIPOS>MOLECULE
CH4
5 4
SMALL
USER_CHARGES


@<TRIPOS>ATOM
1 C 27.157 79.713 45.215 C 0.0 **** 0.0
2 H 26.867 79.969 44.196 H 0.0 **** 0.0
3 H 27.392 78.65 45.269 H 0.0 **** 0.0
4 H 26.336 79.94 45.895 H 0.0 **** 0.0
5 H 28.035 80.294 45.499 H 0.0 **** 0.0
@<TRIPOS>BOND
1 1 2 1
2 1 3 1
3 1 4 1
4 1 5 1
@<TRIPOS>MOLECULE
CH4
5 4
SMALL
USER_CHARGES


@<TRIPOS>ATOM
1 C 72.7 75.785 82.628 C 0.0 **** 0.0
2 H 73.318 76.609 82.986 H 0.0 **** 0.0
3 H 73.339 74.952 82.335 H 0.0 **** 0.0
4 H 72.117 76.116 81.768 H 0.0 **** 0.0
5 H 72.026 75.465 83.422 H 0.0 **** 0.0
@<TRIPOS>BOND
1 1 2 1
2 1 3 1
3 1 4 1
4 1 5 1
@<TRIPOS>MOLECULE
CH4
5 4
SMALL
USER_CHARGES


@<TRIPOS>ATOM
1 C 23.052 78.871 48.754 C 0.0 **** 0.0
2 H 22.526 79.489 49.482 H 0.0 **** 0.0
3 H 22.557 78.95 47.786 H 0.0 **** 0.0
4 H 23.04 77.832 49.085 H 0.0 **** 0.0
5 H 24.083 79.212 48.665 H 0.0 **** 0.0
@<TRIPOS>BOND
1 1 2 1
2 1 3 1
3 1 4 1
4 1 5 1
@<TRIPOS>MOLECULE
CH4
5 4
SMALL
USER_CHARGES


@<TRIPOS>ATOM
1 C 48.753 10.817 72.524 C 0.0 **** 0.0
2 H 47.664 10.858 72.518 H 0.0 **** 0.0
3 H 49.112 10.844 73.553 H 0.0 **** 0.0
4 H 49.151 11.672 71.978 H 0.0 **** 0.0
5 H 49.085 9.895 72.047 H 0.0 **** 0.0
@<TRIPOS>BOND
1 1 2 1
2 1 3 1
3 1 4 1
4 1 5 1
@<TRIPOS>MOLECULE
CH4
5 4
SMALL
USER_CHARGES


@<TRIPOS>ATOM
1 C 81.283 94.764 93.021 C 0.0 **** 0.0
2 H 81.144 94.412 91.999 H 0.0 **** 0.0
3 H 80.424 94.473 93.626 H 0.0 **** 0.0
4 H 81.377 95.85 93.021 H 0.0 **** 0.0
5 H 82.188 94.321 93.438 H 0.0 **** 0.0
@<TRIPOS>BOND
1 1 2 1
2 1 3 1
3 1 4 1
4 1 5 1
@<TRIPOS>MOLECULE
CH4
5 4
SMALL
USER_CHARGES


@<TRIPOS>ATOM
1 C 11.131 33.781 17.532 C 0.0 **** 0.0
2 H 10.553 34.309 16.773 H 0.0 **** 0.0
3 H 12.185 33.786 17.255 H 0.0 **** 0.0
4 H 10.778 32.753 17.607 H 0.0 **** 0.0
5 H 11.006 34.279 18.494 H 0.0 **** 0.0
@<TRIPOS>BOND
1 1 2 1
2 1 3 1
3 1 4 1
4 1 5 1
@<TRIPOS>MOLECULE
CH4
5 4
SMALL
USER_CHARGES


@<TRIPOS>ATOM
1 C 94.681 93.998 28.955 C 0.0 **** 0.0
2 H 94.427 94.854 28.33 H 0.0 **** 0.0
3 H 94.025 93.162 28.709 H 0.0 **** 0.0
4 H 94.554 94.264 30.004 H 0.0 **** 0.0
5 H 95.717 93.712 28.775 H 0.0 **** 0.0
@<TRIPOS>BOND
1 1 2 1
2 1 3 1
3 1 4 1
4 1 5 1
@<TRIPOS>MOLECULE
CH4
5 4
SMALL
USER_CHARGES


@<TRIPOS>ATOM
1 C 78.071 73.34 55.594 C 0.0 **** 0.0
2 H 78.319 73.099 56.627 H 0.0 **** 0.0
3 H 77.51 72.515 55.154 H 0.0 **** 0.0
4 H 78.989 73.498 55.027 H 0.0 **** 0.0
5 H 77.467 74.246 55.567 H 0.0 **** 0.0
@<TRIPOS>BOND
1 1 2 1
2 1 3 1
3 1 4 1
4 1 5 1
@<TRIPOS>MOLECULE
CH4
5 4
SMALL
USER_CHARGES


@<TRIPOS>ATOM
1 C 18.245 81.896 7.696 C 0.0 **** 0.0
2 H 18.859 81.574 6.854 H 0.0 **** 0.0
3 H 17.192 81.749 7.455 H 0.0 **** 0.0
4 H 18.429 82.952 7.896 H 0.0 **** 0.0
5 H 18.502 81.309 8.578 H 0.0 **** 0.0
@<TRIPOS>BOND
1 1 2 1
2 1 3 1
3 1 4 1
4 1 5 1
@<TRIPOS>MOLECULE
CH4
5 4
SMALL
USER_CHARGES


@<TRIPOS>ATOM
1 C 14.816 6.23 19.102 C 0.0 **** 0.0
2 H 14.436 5.759 20.01 H 0.0 **** 0.0
3 H 15.223 7.211 19.346 H 0.0 **** 0.0
4 H 14.003 6.34 18.384 H 0.0 **** 0.0
5 H 15.6 5.607 18.671 H 0.0 **** 0.0
@<TRIPOS>BOND
1 1 2 1
2 1 3 1
3 1 4 1
4 1 5 1
@<TRIPOS>MOLECULE
CH4
5 4
SMALL
USER_CHARGES


@<TRIPOS>ATOM
1 C 74.342 38.045 47.471 C 0.0 **** 0.0
2 H 74.377 37.89 48.549 H 0.0 **** 0.0
3 H 73.716 38.91 47.248 H 0.0 **** 0.0
4 H 73.924 37.161 46.99 H 0.0 **** 0.0
5 H 75.351 38.22 47.096 H 0.0 **** 0.0
@<TRIPOS>BOND
1 1 2 1
2 1 3 1
3 1 4 1
4 1 5 1
@<TRIPOS>MOLECULE
CH4
5 4
SMALL
USER_CHARGES


@<TRIPOS>ATOM
1 C 38.281 80.665 41.044 C 0.0 **** 0.0
2 H 38.138 80.176 42.008 H 0.0 **** 0.0
3 H 39.325 80.959 40.938 H 0.0 **** 0.0
4 H 37.646 81.549 40.988 H 0.0 **** 0.0
5 H 38.014 79.974 40.244 H 0.0 **** 0.0
@<TRIPOS>BOND
1 1 2 1
2 1 3 1
3 1 4 1
4 1 5 1
@<TRIPOS>MOLECULE
CH4
5 4
SMALL
USER_CHARGES


@<TRIPOS>ATOM
1 C 2.392 29.833 41.155 C 0.0 **** 0.0
2 H 1.972 29.756 42.158 H 0.0 **** 0.0
3 H 3.371 30.311 41.207 H 0.0 **** 0.0
4 H 1.729 30.428 40.527 H 0.0 **** 0.0
5 H 2.497 28.835 40.728 H 0.0 **** 0.0
@<TRIPOS>BOND
1 1 4 1
2 1 5 1
3 1 2 1
4 1 3 1
@<TRIPOS>MOLECULE
CH4
5 4
SMALL
USER_CHARGES


@<TRIPOS>ATOM
1 C 4.956 95.476 21.638 C 0.0 **** 0.0
2 H 6.037 95.484 21.502 H 0.0 **** 0.0
3 H 4.662 94.565 22.159 H 0.0 **** 0.0
4 H 4.467 95.513 20.665 H 0.0 **** 0.0
5 H 4.658 96.344 22.227 H 0.0 **** 0.0
@<TRIPOS>BOND
1 1 3 1
2 1 4 1
3 1 2 1
4 1 5 1
@<TRIPOS>MOLECULE
CH4
5 4
SMALL
USER_CHARGES


@<TRIPOS>ATOM
1 C 49.648 47.231 9.743 C 0.0 **** 0.0
2 H 49.81 47.13 10.816 H 0.0 **** 0.0
3 H 48.626 46.939 9.501 H 0.0 **** 0.0
4 H 50.346 46.586 9.209 H 0.0 **** 0.0
5 H 49.811 48.267 9.447 H 0.0 **** 0.0
@<TRIPOS>BOND
1 1 2 1
2 1 3 1
3 1 4 1
4 1 5 1
@<TRIPOS>MOLECULE
CH4
5 4
SMALL
USER_CHARGES


@<TRIPOS>ATOM
1 C 86.293 79.442 77.151 C 0.0 **** 0.0
2 H 86.589 79.619 78.185 H 0.0 **** 0.0
3 H 86.917 80.042 76.488 H 0.0 **** 0.0
4 H 85.248 79.723 77.02 H 0.0 **** 0.0
5 H 86.419 78.386 76.913 H 0.0 **** 0.0
@<TRIPOS>BOND
1 1 2 1
2 1 3 1
3 1 4 1
4 1 5 1
@<TRIPOS>MOLECULE
CH4
5 4
SMALL
USER_CHARGES


@<TRIPOS>ATOM
1 C 51.479 44.535 63.893 C 0.0 **** 0.0
2 H 51.411 44.446 64.977 H 0.0 **** 0.0
3 H 51.147 45.528 63.588 H 0.0 **** 0.0
4 H 50.846 43.78 63.426 H 0.0 **** 0.0
5 H 52.513 44.385 63.58 H 0.0 **** 0.0
@<TRIPOS>BOND
1 1 2 1
2 1 3 1
3 1 4 1
4 1 5 1
@<TRIPOS>MOLECULE
CH4
5 4
SMALL
USER_CHARGES


@<TRIPOS>ATOM
1 C 82.265 41.511 37.091 C 0.0 **** 0.0
2 H 81.465 41.847 36.432 H 0.0 **** 0.0
3 H 83.193 41.43 36.524 H 0.0 **** 0.0
4 H 82.008 40.537 37.508 H 0.0 **** 0.0
5 H 82.395 42.23 37.9 H 0.0 **** 0.0
@<TRIPOS>BOND
1 1 2 1
2 1 3 1
3 1 4 1
4 1 5 1
@<TRIPOS>MOLECULE
CH4
5 4
SMALL
USER_CHARGES


@<TRIPOS>ATOM
1 C 71.027 43.967 55.01 C 0.0 **** 0.0
2 H 71.318 44.155 53.976 H 0.0 **** 0.0
3 H 71.405 44.769 55.645 H 0.0 **** 0.0
4 H 71.447 43.016 55.338 H 0.0 **** 0.0
5 H 69.94 43.928 55.08 H 0.0 **** 0.0
@<TRIPOS>BOND
1 1 2 1
2 1 3 1
3 1 4 1
4 1 5 1
@<TRIPOS>MOLECULE
CH4
5 4
SMALL
USER_CHARGES


@<TRIPOS>ATOM
1 C 51.891 40.399 63.785 C 0.0 **** 0.0
2 H 51.875 40.585 64.859 H 0.0 **** 0.0
3 H 51.76 41.341 63.252 H 0.0 **** 0.0
4 H 51.084 39.716 63.522 H 0.0 **** 0.0
5 H 52.847 39.954 63.509 H 0.0 **** 0.0
@<TRIPOS>BOND
1 1 2 1
2 1 3 1
3 1 4 1
4 1 5 1
@<TRIPOS>MOLECULE
CH4
5 4
SMALL
USER_CHARGES


@<TRIPOS>ATOM
1 C 72.627 2.708 39.807 C 0.0 **** 0.0
2 H 71.601 2.395 40.002 H 0.0 **** 0.0
3 H 72.65 3.783 39.626 H 0.0 **** 0.0
4 H 73.006 2.183 38.931 H 0.0 **** 0.0
5 H 73.248 2.471 40.671 H 0.0 **** 0.0
@<TRIPOS>BOND
1 1 2 1
2 1 3 1
3 1 4 1
4 1 5 1
@<TRIPOS>MOLECULE
CH4
5 4
SMALL
USER_CHARGES


@<TRIPOS>ATOM
1 C 57.432 39.539 93.631 C 0.0 **** 0.0
2 H 57.229 39.935 92.637 H 0.0 **** 0.0
3 H 57.362 38.451 93.61 H 0.0 **** 0.0
4 H 56.703 39.937 94.337 H 0.0 **** 0.0
5 H 58.435 39.832 93.941 H 0.0 **** 0.0
@<TRIPOS>BOND
1 1 2 1
2 1 3 1
3 1 4 1
4 1 5 1
@<TRIPOS>MOLECULE
CH4
5 4
SMALL
USER_CHARGES


@<TRIPOS>ATOM
1 C 95.609 61.743 55.266 C 0.0 **** 0.0
2 H 94.831 62.492 55.119 H 0.0 **** 0.0
3 H 95.165 60.748 55.239 H 0.0 **** 0.0
4 H 96.088 61.902 56.233 H 0.0 **** 0.0
5 H 96.353 61.832 54.474 H 0.0 **** 0.0
@<TRIPOS>BOND
1 1 2 1
2 1 3 1
3 1 4 1
4 1 5 1
@<TRIPOS>MOLECULE
CH4
5 4
SMALL
USER_CHARGES


@<TRIPOS>ATOM
1 C 88.217 43.076 58.28 C 0.0 **** 0.0
2 H 89.193 42.914 57.821 H 0.0 **** 0.0
3 H 87.686 42.126 58.346 H 0.0 **** 0.0
4 H 87.641 43.774 57.673 H 0.0 **** 0.0
5 H 88.351 43.488 59.28 H 0.0 **** 0.0
@<TRIPOS>BOND
1 1 2 1
2 1 3 1
3 1 4 1
4 1 5 1
@<TRIPOS>MOLECULE
CH4
5 4
SMALL
USER_CHARGES


@<TRIPOS>ATOM
1 C 77.214 29.988 85.54 C 0.0 **** 0.0
2 H 77.207 31.071 85.666 H 0.0 **** 0.0
3 H 76.581 29.53 86.3 H 0.0 **** 0.0
4 H 78.234 29.618 85.645 H 0.0 **** 0.0
5 H 76.835 29.735 84.55 H 0.0 **** 0.0
@<TRIPOS>BOND
1 1 2 1
2 1 3 1
3 1 4 1
4 1 5 1
@<TRIPOS>MOLECULE
CH4
5 4
SMALL
USER_CHARGES


@<TRIPOS>ATOM
1 C 2.864 63.472 48.87 C 0.0 **** 0.0
2 H 1.949 63.671 49.427 H 0.0 **** 0.0
3 H 2.641 63.448 47.803 H 0.0 **** 0.0
4 H 3.275 62.511 49.178 H 0.0 **** 0.0
5 H 3.591 64.259 49.072 H 0.0 **** 0.0
@<TRIPOS>BOND
1 1 2 1
2 1 3 1
3 1 4 1
4 1 5 1
@<TRIPOS>MOLECULE
CH4
5 4
SMALL
USER_CHARGES


@<TRIPOS>ATOM
1 C 14.965 1.326 5.097 C 0.0 **** 0.0
2 H 14.936 1.101 4.031 H 0.0 **** 0.0
3 H 15.918 0.996 5.512 H 0.0 **** 0.0
4 H 14.15 0.805 5.6 H 0.0 **** 0.0
5 H 14.856 2.4 5.245 H 0.0 **** 0.0
@<TRIPOS>BOND
1 1 2 1
2 1 3 1
3 1 4 1
4 1 5 1
@<TRIPOS>MOLECULE
CH4
5 4
SMALL
USER_CHARGES


@<TRIPOS>ATOM
1 C 47.929 31.021 44.873 C 0.0 **** 0.0
2 H 47.889 31.081 43.786 H 0.0 **** 0.0
3 H 48.962 31.127 45.205 H 0.0 **** 0.0
4 H 47.539 30.057 45.198 H 0.0 **** 0.0
5 H 47.325 31.82 45.304 H 0.0 **** 0.0
@<TRIPOS>BOND
1 1 2 1
2 1 3 1
3 1 4 1
4 1 5 1
@<TRIPOS>MOLECULE
CH4
5 4
SMALL
USER_CHARGES


@<TRIPOS>ATOM
1 C 12.621 19.911 65.708 C 0.0 **** 0.0
2 H 12.261 19.975 66.735 H 0.0 **** 0.0
3 H 11.834 19.509 65.071 H 0.0 **** 0.0
4 H 13.492 19.256 65.669 H 0.0 **** 0.0
5 H 12.899 20.906 65.359 H 0.0 **** 0.0
@<TRIPOS>BOND
1 1 2 1
2 1 3 1
3 1 4 1
4 1 5 1
@<TRIPOS>MOLECULE
CH4
5 4
SMALL
USER_CHARGES


@<TRIPOS>ATOM
1 C 7.238 95.419 38.38 C 0.0 **** 0.0
2 H 6.301 95.737 38.837 H 0.0 **** 0.0
3 H 7.816 96.296 38.089 H 0.0 **** 0.0
4 H 7.025 94.815 37.498 H 0.0 **** 0.0
5 H 7.809 94.828 39.096 H 0.0 **** 0.0
@<TRIPOS>BOND
1 1 2 1
2 1 3 1
3 1 4 1
4 1 5 1
@<TRIPOS>MOLECULE
CH4
5 4
SMALL
USER_CHARGES


@<TRIPOS>ATOM
1 C 67.511 29.237 35.488 C 0.0 **** 0.0
2 H 66.538 29.454 35.047 H 0.0 **** 0.0
3 H 68.235 29.047 34.695 H 0.0 **** 0.0
4 H 67.432 28.358 36.127 H 0.0 **** 0.0
5 H 67.838 30.09 36.083 H 0.0 **** 0.0
@<TRIPOS>BOND
1 1 2 1
2 1 3 1
3 1 4 1
4 1 5 1
@<TRIPOS>MOLECULE
CH4
5 4
SMALL
USER_CHARGES


@<TRIPOS>ATOM
1 C 93.486 30.002 35.855 C 0.0 **** 0.0
2 H 93.373 29.953 36.938 H 0.0 **** 0.0
3 H 93.129 29.073 35.411 H 0.0 **** 0.0
4 H 94.538 30.144 35.606 H 0.0 **** 0.0
5 H 92.904 30.838 35.466 H 0.0 **** 0.0
@<TRIPOS>BOND
1 1 2 1
2 1 3 1
3 1 4 1
4 1 5 1
@<TRIPOS>MOLECULE
CH4
5 4
SMALL
USER_CHARGES


@<TRIPOS>ATOM
1 C 90.202 58.842 32.045 C 0.0 **** 0.0
2 H 89.433 58.099 32.254 H 0.0 **** 0.0
3 H 90.988 58.39 31.439 H 0.0 **** 0.0
4 H 90.627 59.198 32.984 H 0.0 **** 0.0
5 H 89.761 59.679 31.505 H 0.0 **** 0.0
@<TRIPOS>BOND
1 1 2 1
2 1 3 1
3 1 4 1
4 1 5 1
@<TRIPOS>MOLECULE
CH4
5 4
SMALL
USER_CHARGES


@<TRIPOS>ATOM
1 C 9.933 0.763 36.251 C 0.0 **** 0.0
2 H 10.357 0.001 36.906 H 0.0 **** 0.0
3 H 9.526 0.288 35.359 H 0.0 **** 0.0
4 H 10.713 1.469 35.965 H 0.0 **** 0.0
5 H 9.139 1.293 36.777 H 0.0 **** 0.0
@<TRIPOS>BOND
1 1 2 1
2 1 3 1
3 1 4 1
4 1 5 1
@<TRIPOS>MOLECULE
CH4
5 4
SMALL
USER_CHARGES


@<TRIPOS>ATOM
1 C 27.574 28.029 4.792 C 0.0 **** 0.0
2 H 28.356 28.132 5.544 H 0.0 **** 0.0
3 H 27.994 28.213 3.803 H 0.0 **** 0.0
4 H 26.781 28.75 4.99 H 0.0 **** 0.0
5 H 27.164 27.019 4.83 H 0.0 **** 0.0
@<TRIPOS>BOND
1 1 2 1
2 1 3 1
3 1 4 1
4 1 5 1
@<TRIPOS>MOLECULE
CH4
5 4
SMALL
USER_CHARGES


@<TRIPOS>ATOM
1 C 1.715 81.501 66.216 C 0.0 **** 0.0
2 H 2.03 80.897 65.365 H 0.0 **** 0.0
3 H 2.141 81.089 67.131 H 0.0 **** 0.0
4 H 0.627 81.492 66.285 H 0.0 **** 0.0
5 H 2.062 82.526 66.082 H 0.0 **** 0.0
@<TRIPOS>BOND
1 1 2 1
2 1 3 1
3 1 4 1
4 1 5 1
@<TRIPOS>MOLECULE
CH4
5 4
SMALL
USER_CHARGES


@<TRIPOS>ATOM
1 C 32.164 9.923 51.256 C 0.0 **** 0.0
2 H 32.324 10.854 51.8 H 0.0 **** 0.0
3 H 32.968 9.783 50.533 H 0.0 **** 0.0
4 H 31.209 9.967 50.734 H 0.0 **** 0.0
5 H 32.157 9.089 51.958 H 0.0 **** 0.0
@<TRIPOS>BOND
1 1 2 1
2 1 3 1
3 1 4 1
4 1 5 1
@<TRIPOS>MOLECULE
CH4
5 4
SMALL
USER_CHARGES


@<TRIPOS>ATOM
1 C 80.133 94.348 34.696 C 0.0 **** 0.0
2 H 80.031 94.422 35.779 H 0.0 **** 0.0
3 H 79.518 95.112 34.221 H 0.0 **** 0.0
4 H 79.806 93.361 34.368 H 0.0 **** 0.0
5 H 81.177 94.495 34.419 H 0.0 **** 0.0
@<TRIPOS>BOND
1 1 2 1
2 1 3 1
3 1 4 1
4 1 5 1
@<TRIPOS>MOLECULE
CH4
5 4
SMALL
USER_CHARGES


@<TRIPOS>ATOM
1 C 17.84 7.655 4.275 C 0.0 **** 0.0
2 H 17.014 7.925 3.618 H 0.0 **** 0.0
3 H 17.888 8.36 5.106 H 0.0 **** 0.0
4 H 18.775 7.689 3.716 H 0.0 **** 0.0
5 H 17.683 6.648 4.661 H 0.0 **** 0.0
@<TRIPOS>BOND
1 1 2 1
2 1 3 1
3 1 4 1
4 1 5 1
@<TRIPOS>MOLECULE
CH4
5 4
SMALL
USER_CHARGES


@<TRIPOS>ATOM
1 C 74.113 34.15 89.231 C 0.0 **** 0.0
2 H 74.706 34.566 90.046 H 0.0 **** 0.0
3 H 74.117 34.843 88.39 H 0.0 **** 0.0
4 H 73.088 33.996 89.57 H 0.0 **** 0.0
5 H 74.54 33.197 88.92 H 0.0 **** 0.0
@<TRIPOS>BOND
1 1 2 1
2 1 3 1
3 1 4 1
4 1 5 1
@<TRIPOS>MOLECULE
CH4
5 4
SMALL
USER_CHARGES


@<TRIPOS>ATOM
1 C 55.102 55.348 56.118 C 0.0 **** 0.0
2 H 55.059 56.433 56.214 H 0.0 **** 0.0
3 H 54.092 54.954 56.007 H 0.0 **** 0.0
4 H 55.564 54.923 57.009 H 0.0 **** 0.0
5 H 55.694 55.085 55.241 H 0.0 **** 0.0
@<TRIPOS>BOND
1 1 2 1
2 1 3 1
3 1 4 1
4 1 5 1
@<TRIPOS>MOLECULE
CH4
5 4
SMALL
USER_CHARGES


@<TRIPOS>ATOM
1 C 22.348 7.66 40.117 C 0.0 **** 0.0
2 H 22.267 8.138 39.14 H 0.0 **** 0.0
3 H 21.457 7.881 40.704 H 0.0 **** 0.0
4 H 23.229 8.04 40.635 H 0.0 **** 0.0
5 H 22.44 6.582 39.987 H 0.0 **** 0.0
@<TRIPOS>BOND
1 1 2 1
2 1 3 1
3 1 4 1
4 1 5 1
@<TRIPOS>MOLECULE
CH4
5 4
SMALL
USER_CHARGES


@<TRIPOS>ATOM
1 C 57.924 19.766 19.661 C 0.0 **** 0.0
2 H 57.983 20.057 20.71 H 0.0 **** 0.0
3 H 58.793 19.16 19.403 H 0.0 **** 0.0
4 H 57.904 20.659 19.037 H 0.0 **** 0.0
5 H 57.015 19.187 19.496 H 0.0 **** 0.0
@<TRIPOS>BOND
1 1 2 1
2 1 3 1
3 1 4 1
4 1 5 1
@<TRIPOS>MOLECULE
CH4
5 4
SMALL
USER_CHARGES


@<TRIPOS>ATOM
1 C 64.033 16.722 64.68 C 0.0 **** 0.0
2 H 63.253 15.97 64.558 H 0.0 **** 0.0
3 H 63.773 17.383 65.507 H 0.0 **** 0.0
4 H 64.122 17.304 63.763 H 0.0 **** 0.0
5 H 64.982 16.23 64.892 H 0.0 **** 0.0
@<TRIPOS>BOND
1 1 2 1
2 1 3 1
3 1 4 1
4 1 5 1
@<TRIPOS>MOLECULE
CH4
5 4
SMALL
USER_CHARGES


@<TRIPOS>ATOM
1 C 37.476 50.64 75.116 C 0.0 **** 0.0
2 H 37.977 51.065 75.986 H 0.0 **** 0.0
3 H 36.986 51.436 74.555 H 0.0 **** 0.0
4 H 36.731 49.914 75.444 H 0.0 **** 0.0
5 H 38.21 50.145 74.48 H 0.0 **** 0.0
@<TRIPOS>BOND
1 1 2 1
2 1 3 1
3 1 4 1
4 1 5 1
@<TRIPOS>MOLECULE
CH4
5 4
SMALL
USER_CHARGES


@<TRIPOS>ATOM
1 C 90.387 71.325 48.154 C 0.0 **** 0.0
2 H 90.243 71.156 49.221 H 0.0 **** 0.0
3 H 89.419 71.488 47.679 H 0.0 **** 0.0
4 H 90.869 70.454 47.71 H 0.0 **** 0.0
5 H 91.016 72.203 48.007 H 0.0 **** 0.0
@<TRIPOS>BOND
1 1 2 1
2 1 3 1
3 1 4 1
4 1 5 1
@<TRIPOS>MOLECULE
CH4
5 4
SMALL
USER_CHARGES


@<TRIPOS>ATOM
1 C 63.483 14.97 29.159 C 0.0 **** 0.0
2 H 63.578 14.344 28.272 H 0.0 **** 0.0
3 H 62.478 15.389 29.202 H 0.0 **** 0.0
4 H 64.213 15.779 29.112 H 0.0 **** 0.0
5 H 63.665 14.369 30.05 H 0.0 **** 0.0
@<TRIPOS>BOND
1 1 2 1
2 1 3 1
3 1 4 1
4 1 5 1
@<TRIPOS>MOLECULE
CH4
5 4
SMALL
USER_CHARGES


@<TRIPOS>ATOM
1 C 7.454 57.292 38.258 C 0.0 **** 0.0
2 H 7.221 56.241 38.428 H 0.0 **** 0.0
3 H 8.251 57.373 37.519 H 0.0 **** 0.0
4 H 7.778 57.748 39.194 H 0.0 **** 0.0
5 H 6.565 57.806 37.893 H 0.0 **** 0.0
@<TRIPOS>BOND
1 1 2 1
2 1 3 1
3 1 4 1
4 1 5 1
@<TRIPOS>MOLECULE
CH4
5 4
SMALL
USER_CHARGES


@<TRIPOS>ATOM
1 C 57.676 6.004 72.463 C 0.0 **** 0.0
2 H 57.926 6.347 73.467 H 0.0 **** 0.0
3 H 57.548 4.921 72.47 H 0.0 **** 0.0
4 H 58.48 6.271 71.777 H 0.0 **** 0.0
5 H 56.749 6.477 72.138 H 0.0 **** 0.0
@<TRIPOS>BOND
1 1 2 1
2 1 3 1
3 1 4 1
4 1 5 1
@<TRIPOS>MOLECULE
CH4
5 4
SMALL
USER_CHARGES


@<TRIPOS>ATOM
1 C 77.889 38.026 15.169 C 0.0 **** 0.0
2 H 78.617 38.451 14.478 H 0.0 **** 0.0
3 H 78.328 37.964 16.165 H 0.0 **** 0.0
4 H 77.609 37.028 14.833 H 0.0 **** 0.0
5 H 77.004 38.661 15.2 H 0.0 **** 0.0
@<TRIPOS>BOND
1 1 2 1
2 1 3 1
3 1 4 1
4 1 5 1
@<TRIPOS>MOLECULE
CH4
5 4
SMALL
USER_CHARGES


@<TRIPOS>ATOM
1 C 74.588 69.739 70.21 C 0.0 **** 0.0
2 H 74.851 68.96 69.495 H 0.0 **** 0.0
3 H 75.414 69.886 70.907 H 0.0 **** 0.0
4 H 73.696 69.44 70.761 H 0.0 **** 0.0
5 H 74.391 70.67 69.678 H 0.0 **** 0.0
@<TRIPOS>BOND
1 1 2 1
2 1 3 1
3 1 4 1
4 1 5 1
@<TRIPOS>MOLECULE
CH4
5 4
SMALL
USER_CHARGES


@<TRIPOS>ATOM
1 C 43.939 20.512 61.785 C 0.0 **** 0.0
2 H 43.602 19.541 62.147 H 0.0 **** 0.0
3 H 43.625 21.288 62.484 H 0.0 **** 0.0
4 H 43.503 20.706 60.806 H 0.0 **** 0.0
5 H 45.026 20.513 61.706 H 0.0 **** 0.0
@<TRIPOS>BOND
1 1 2 1
2 1 3 1
3 1 4 1
4 1 5 1
@<TRIPOS>MOLECULE
CH4
5 4
SMALL
USER_CHARGES


@<TRIPOS>ATOM
1 C 0.925 17.289 68.397 C 0.0 **** 0.0
2 H 0.365 17.395 67.468 H 0.0 **** 0.0
3 H 1.088 18.273 68.837 H 0.0 **** 0.0
4 H 1.887 16.82 68.189 H 0.0 **** 0.0
5 H 0.361 16.668 69.092 H 0.0 **** 0.0
@<TRIPOS>BOND
1 1 2 1
2 1 3 1
3 1 4 1
4 1 5 1
@<TRIPOS>MOLECULE
CH4
5 4
SMALL
USER_CHARGES


@<TRIPOS>ATOM
1 C 32.685 53.621 48.957 C 0.0 **** 0.0
2 H 32.712 53.386 50.021 H 0.0 **** 0.0
3 H 33.328 52.927 48.416 H 0.0 **** 0.0
4 H 33.037 54.64 48.801 H 0.0 **** 0.0
5 H 31.662 53.529 48.591 H 0.0 **** 0.0
@<TRIPOS>BOND
1 1 2 1
2 1 3 1
3 1 4 1
4 1 5 1
@<TRIPOS>MOLECULE
CH4
5 4
SMALL
USER_CHARGES


@<TRIPOS>ATOM
1 C 47.562 52.746 40.559 C 0.0 **** 0.0
2 H 46.893 52.576 39.715 H 0.0 **** 0.0
3 H 48.586 52.837 40.198 H 0.0 **** 0.0
4 H 47.493 51.908 41.252 H 0.0 **** 0.0
5 H 47.274 53.665 41.071 H 0.0 **** 0.0
@<TRIPOS>BOND
1 1 2 1
2 1 3 1
3 1 4 1
4 1 5 1
@<TRIPOS>MOLECULE
CH4
5 4
SMALL
USER_CHARGES


@<TRIPOS>ATOM
1 C 85.864 98.084 64.207 C 0.0 **** 0.0
2 H 86.137 98.104 65.262 H 0.0 **** 0.0
3 H 84.79 98.242 64.107 H 0.0 **** 0.0
4 H 86.131 97.117 63.781 H 0.0 **** 0.0
5 H 86.398 98.874 63.679 H 0.0 **** 0.0
@<TRIPOS>BOND
1 1 2 1
2 1 3 1
3 1 4 1
4 1 5 1
@<TRIPOS>MOLECULE
CH4
5 4
SMALL
USER_CHARGES


@<TRIPOS>ATOM
1 C 94.51 11.908 44.736 C 0.0 **** 0.0
2 H 94.251 11.941 43.678 H 0.0 **** 0.0
3 H 95.436 11.348 44.866 H 0.0 **** 0.0
4 H 93.709 11.419 45.291 H 0.0 **** 0.0
5 H 94.643 12.924 45.109 H 0.0 **** 0.0
@<TRIPOS>BOND
1 1 2 1
2 1 3 1
3 1 4 1
4 1 5 1
@<TRIPOS>MOLECULE
CH4
5 4
SMALL
USER_CHARGES


@<TRIPOS>ATOM
1 C 19.776 91.508 88.296 C 0.0 **** 0.0
2 H 20.483 91.287 89.095 H 0.0 **** 0.0
3 H 19.284 92.46 88.498 H 0.0 **** 0.0
4 H 19.029 90.717 88.242 H 0.0 **** 0.0
5 H 20.309 91.569 87.347 H 0.0 **** 0.0
@<TRIPOS>BOND
1 1 2 1
2 1 3 1
3 1 4 1
4 1 5 1
@<TRIPOS>MOLECULE
CH4
5 4
SMALL
USER_CHARGES


@<TRIPOS>ATOM
1 C 83.49 97.965 16.878 C 0.0 **** 0.0
2 H 84.019 97.67 17.785 H 0.0 **** 0.0
3 H 84.213 98.209 16.099 H 0.0 **** 0.0
4 H 82.871 98.838 17.087 H 0.0 **** 0.0
5 H 82.858 97.143 16.543 H 0.0 **** 0.0
@<TRIPOS>BOND
1 1 2 1
2 1 3 1
3 1 4 1
4 1 5 1
@<TRIPOS>MOLECULE
CH4
5 4
SMALL
USER_CHARGES


@<TRIPOS>ATOM
1 C 36.103 83.759 42.876 C 0.0 **** 0.0
2 H 35.611 83.024 43.514 H 0.0 **** 0.0
3 H 36.347 83.303 41.917 H 0.0 **** 0.0
4 H 37.017 84.104 43.359 H 0.0 **** 0.0
5 H 35.435 84.606 42.717 H 0.0 **** 0.0
@<TRIPOS>BOND
1 1 2 1
2 1 3 1
3 1 4 1
4 1 5 1
@<TRIPOS>MOLECULE
CH4
5 4
SMALL
USER_CHARGES


@<TRIPOS>ATOM
1 C 66.299 39.85 81.25 C 0.0 **** 0.0
2 H 66.217 39.883 82.337 H 0.0 **** 0.0
3 H 65.422 40.32 80.806 H 0.0 **** 0.0
4 H 66.361 38.812 80.923 H 0.0 **** 0.0
5 H 67.196 40.384 80.938 H 0.0 **** 0.0
@<TRIPOS>BOND
1 1 2 1
2 1 3 1
3 1 4 1
4 1 5 1
@<TRIPOS>MOLECULE
CH4
5 4
SMALL
USER_CHARGES


@<TRIPOS>ATOM
1 C 58.758 83.398 37.872 C 0.0 **** 0.0
2 H 58.702 84.296 37.257 H 0.0 **** 0.0
3 H 59.662 82.843 37.624 H 0.0 **** 0.0
4 H 57.884 82.774 37.683 H 0.0 **** 0.0
5 H 58.782 83.68 38.925 H 0.0 **** 0.0
@<TRIPOS>BOND
1 1 2 1
2 1 3 1
3 1 4 1
4 1 5 1
@<TRIPOS>MOLECULE
CH4
5 4
SMALL
USER_CHARGES


@<TRIPOS>ATOM
1 C 49.112 22.278 26.1 C 0.0 **** 0.0
2 H 48.856 22.842 25.203 H 0.0 **** 0.0
3 H 50.131 21.9 26.013 H 0.0 **** 0.0
4 H 48.422 21.442 26.213 H 0.0 **** 0.0
5 H 49.039 22.929 26.972 H 0.0 **** 0.0
@<TRIPOS>BOND
1 1 3 1
2 1 4 1
3 1 2 1
4 1 5 1
@<TRIPOS>MOLECULE
CH4
5 4
SMALL
USER_CHARGES


@<TRIPOS>ATOM
1 C 65.689 80.777 77.255 C 0.0 **** 0.0
2 H 66.484 80.854 76.514 H 0.0 **** 0.0
3 H 64.778 81.225 76.858 H 0.0 **** 0.0
4 H 65.987 81.302 78.163 H 0.0 **** 0.0
5 H 65.508 79.727 77.485 H 0.0 **** 0.0
@<TRIPOS>BOND
1 1 2 1
2 1 3 1
3 1 4 1
4 1 5 1
@<TRIPOS>MOLECULE
CH4
5 4
SMALL
USER_CHARGES


@<TRIPOS>ATOM
1 C 33.065 74.86 8.745 C 0.0 **** 0.0
2 H 32.938 74.263 9.648 H 0.0 **** 0.0
3 H 32.673 75.863 8.916 H 0.0 **** 0.0
4 H 32.524 74.393 7.922 H 0.0 **** 0.0
5 H 34.124 74.921 8.496 H 0.0 **** 0.0
@<TRIPOS>BOND
1 1 2 1
2 1 3 1
3 1 4 1
4 1 5 1
@<TRIPOS>MOLECULE
CH4
5 4
SMALL
USER_CHARGES


@<TRIPOS>ATOM
1 C 26.3 34.637 13.971 C 0.0 **** 0.0
2 H 26.315 34.65 12.881 H 0.0 **** 0.0
3 H 25.786 33.739 14.316 H 0.0 **** 0.0
4 H 25.777 35.52 14.338 H 0.0 **** 0.0
5 H 27.323 34.637 14.348 H 0.0 **** 0.0
@<TRIPOS>BOND
1 1 2 1
2 1 3 1
3 1 4 1
4 1 5 1
@<TRIPOS>MOLECULE
CH4
5 4
SMALL
USER_CHARGES


@<TRIPOS>ATOM
1 C 49.514 19.255 63.582 C 0.0 **** 0.0
2 H 49.135 18.235 63.652 H 0.0 **** 0.0
3 H 48.688 19.957 63.694 H 0.0 **** 0.0
4 H 49.987 19.401 62.611 H 0.0 **** 0.0
5 H 50.245 19.425 64.372 H 0.0 **** 0.0
@<TRIPOS>BOND
1 1 2 1
2 1 3 1
3 1 4 1
4 1 5 1
@<TRIPOS>MOLECULE
CH4
5 4
SMALL
USER_CHARGES


@<TRIPOS>ATOM
1 C 95.434 24.671 70.262 C 0.0 **** 0.0
2 H 95.242 23.693 69.819 H 0.0 **** 0.0
3 H 96.442 24.995 70.003 H 0.0 **** 0.0
4 H 95.342 24.602 71.346 H 0.0 **** 0.0
5 H 94.71 25.391 69.881 H 0.0 **** 0.0
@<TRIPOS>BOND
1 1 2 1
2 1 3 1
3 1 4 1
4 1 5 1
@<TRIPOS>MOLECULE
CH4
5 4
SMALL
USER_CHARGES


@<TRIPOS>ATOM
1 C 65.176 85.471 96.173 C 0.0 **** 0.0
2 H 65.054 85.421 97.255 H 0.0 **** 0.0
3 H 64.537 84.725 95.7 H 0.0 **** 0.0
4 H 66.217 85.274 95.916 H 0.0 **** 0.0
5 H 64.897 86.465 95.822 H 0.0 **** 0.0
@<TRIPOS>BOND
1 1 2 1
2 1 3 1
3 1 4 1
4 1 5 1
@<TRIPOS>MOLECULE
CH4
5 4
SMALL
USER_CHARGES


@<TRIPOS>ATOM
1 C 30.95 65.501 14.589 C 0.0 **** 0.0
2 H 30.545 66.443 14.22 H 0.0 **** 0.0
3 H 31.993 65.41 14.282 H 0.0 **** 0.0
4 H 30.376 64.672 14.175 H 0.0 **** 0.0
5 H 30.888 65.479 15.677 H 0.0 **** 0.0
@<TRIPOS>BOND
1 1 2 1
2 1 3 1
3 1 4 1
4 1 5 1
@<TRIPOS>MOLECULE
CH4
5 4
SMALL
USER_CHARGES


@<TRIPOS>ATOM
1 C 72.137 86.842 82.575 C 0.0 **** 0.0
2 H 71.761 85.962 82.053 H 0.0 **** 0.0
3 H 72.513 86.548 83.556 H 0.0 **** 0.0
4 H 71.33 87.565 82.696 H 0.0 **** 0.0
5 H 72.944 87.291 81.996 H 0.0 **** 0.0
@<TRIPOS>BOND
1 1 2 1
2 1 3 1
3 1 4 1
4 1 5 1
@<TRIPOS>MOLECULE
CH4
5 4
SMALL
USER_CHARGES


@<TRIPOS>ATOM
1 C 72.437 37.986 64.556 C 0.0 **** 0.0
2 H 73.009 37.487 65.339 H 0.0 **** 0.0
3 H 71.372 37.828 64.728 H 0.0 **** 0.0
4 H 72.715 37.575 63.586 H 0.0 **** 0.0
5 H 72.654 39.054 64.574 H 0.0 **** 0.0
@<TRIPOS>BOND
1 1 2 1
2 1 3 1
3 1 4 1
4 1 5 1
@<TRIPOS>MOLECULE
CH4
5 4
SMALL
USER_CHARGES


@<TRIPOS>ATOM
1 C 68.923 57.52 7.1 C 0.0 **** 0.0
2 H 68.269 58.385 6.996 H 0.0 **** 0.0
3 H 69.677 57.537 6.312 H 0.0 **** 0.0
4 H 68.333 56.607 7.02 H 0.0 **** 0.0
5 H 69.414 57.551 8.073 H 0.0 **** 0.0
@<TRIPOS>BOND
1 1 2 1
2 1 3 1
3 1 4 1
4 1 5 1
@<TRIPOS>MOLECULE
CH4
5 4
SMALL
USER_CHARGES


@<TRIPOS>ATOM
1 C 91.18 63.684 62.235 C 0.0 **** 0.0
2 H 91.139 63.651 61.146 H 0.0 **** 0.0
3 H 92.109 63.229 62.577 H 0.0 **** 0.0
4 H 90.333 63.136 62.647 H 0.0 **** 0.0
5 H 91.138 64.722 62.567 H 0.0 **** 0.0
@<TRIPOS>BOND
1 1 2 1
2 1 3 1
3 1 4 1
4 1 5 1
@<TRIPOS>MOLECULE
CH4
5 4
SMALL
USER_CHARGES


@<TRIPOS>ATOM
1 C 12.363 36.535 91.487 C 0.0 **** 0.0
2 H 11.682 36.358 92.32 H 0.0 **** 0.0
3 H 11.97 37.337 90.861 H 0.0 **** 0.0
4 H 12.456 35.625 90.895 H 0.0 **** 0.0
5 H 13.342 36.82 91.872 H 0.0 **** 0.0
@<TRIPOS>BOND
1 1 2 1
2 1 3 1
3 1 4 1
4 1 5 1
@<TRIPOS>MOLECULE
CH4
5 4
SMALL
USER_CHARGES


@<TRIPOS>ATOM
1 C 43.274 52.028 41.752 C 0.0 **** 0.0
2 H 43.302 51.872 40.674 H 0.0 **** 0.0
3 H 42.239 52.124 42.078 H 0.0 **** 0.0
4 H 43.82 52.938 42.001 H 0.0 **** 0.0
5 H 43.737 51.178 42.254 H 0.0 **** 0.0
@<TRIPOS>BOND
1 1 2 1
2 1 3 1
3 1 4 1
4 1 5 1
@<TRIPOS>MOLECULE
CH4
5 4
SMALL
USER_CHARGES


@<TRIPOS>ATOM
1 C 2.831 68.421 93.191 C 0.0 **** 0.0
2 H 1.917 67.891 93.46 H 0.0 **** 0.0
3 H 3.075 68.217 92.148 H 0.0 **** 0.0
4 H 3.647 68.084 93.829 H 0.0 **** 0.0
5 H 2.682 69.493 93.327 H 0.0 **** 0.0
@<TRIPOS>BOND
1 1 2 1
2 1 3 1
3 1 4 1
4 1 5 1
@<TRIPOS>MOLECULE
CH4
5 4
SMALL
USER_CHARGES


@<TRIPOS>ATOM
1 C 47.908 31.21 33.99 C 0.0 **** 0.0
2 H 47.711 31.069 35.053 H 0.0 **** 0.0
3 H 47.976 32.275 33.771 H 0.0 **** 0.0
4 H 47.098 30.77 33.409 H 0.0 **** 0.0
5 H 48.848 30.724 33.728 H 0.0 **** 0.0
@<TRIPOS>BOND
1 1 2 1
2 1 3 1
3 1 4 1
4 1 5 1
@<TRIPOS>MOLECULE
CH4
5 4
SMALL
USER_CHARGES


@<TRIPOS>ATOM
1 C 66.859 47.469 53.206 C 0.0 **** 0.0
2 H 66.51 46.439 53.272 H 0.0 **** 0.0
3 H 67.61 47.549 52.42 H 0.0 **** 0.0
4 H 67.298 47.766 54.159 H 0.0 **** 0.0
5 H 66.019 48.123 52.974 H 0.0 **** 0.0
@<TRIPOS>BOND
1 1 2 1
2 1 3 1
3 1 4 1
4 1 5 1
@<TRIPOS>MOLECULE
CH4
5 4
SMALL
USER_CHARGES


@<TRIPOS>ATOM
1 C 19.222 18.422 73.404 C 0.0 **** 0.0
2 H 19.796 18.52 74.325 H 0.0 **** 0.0
3 H 18.373 19.105 73.432 H 0.0 **** 0.0
4 H 18.862 17.398 73.308 H 0.0 **** 0.0
5 H 19.857 18.665 72.553 H 0.0 **** 0.0
@<TRIPOS>BOND
1 1 5 1
2 1 2 1
3 1 3 1
4 1 4 1
@<TRIPOS>MOLECULE
CH4
5 4
SMALL
USER_CHARGES


@<TRIPOS>ATOM
1 C 11.845 62.256 57.626 C 0.0 **** 0.0
2 H 12.858 62.198 58.025 H 0.0 **** 0.0
3 H 11.372 61.276 57.692 H 0.0 **** 0.0
4 H 11.883 62.573 56.584 H 0.0 **** 0.0
5 H 11.268 62.978 58.205 H 0.0 **** 0.0
@<TRIPOS>BOND
1 1 2 1
2 1 3 1
3 1 4 1
4 1 5 1
@<TRIPOS>MOLECULE
CH4
5 4
SMALL
USER_CHARGES


@<TRIPOS>ATOM
1 C 37.439 48.089 44.358 C 0.0 **** 0.0
2 H 37.605 48.143 45.434 H 0.0 **** 0.0
3 H 38.37 47.818 43.861 H 0.0 **** 0.0
4 H 37.1 49.059 43.994 H 0.0 **** 0.0
5 H 36.68 47.336 44.145 H 0.0 **** 0.0
@<TRIPOS>BOND
1 1 2 1
2 1 3 1
3 1 4 1
4 1 5 1
@<TRIPOS>MOLECULE
CH4
5 4
SMALL
USER_CHARGES


@<TRIPOS>ATOM
1 C 56.708 89.756 29.079 C 0.0 **** 0.0
2 H 56.379 90.256 29.99 H 0.0 **** 0.0
3 H 56.155 88.824 28.957 H 0.0 **** 0.0
4 H 57.774 89.54 29.149 H 0.0 **** 0.0
5 H 56.523 90.403 28.222 H 0.0 **** 0.0
@<TRIPOS>BOND
1 1 2 1
2 1 3 1
3 1 4 1
4 1 5 1
@<TRIPOS>MOLECULE
CH4
5 4
SMALL
USER_CHARGES


@<TRIPOS>ATOM
1 C 47.485 35.574 7.045 C 0.0 **** 0.0
2 H 47.043 35.07 7.904 H 0.0 **** 0.0
3 H 47.651 36.624 7.285 H 0.0 **** 0.0
4 H 46.809 35.498 6.193 H 0.0 **** 0.0
5 H 48.436 35.103 6.797 H 0.0 **** 0.0
@<TRIPOS>BOND
1 1 2 1
2 1 3 1
3 1 4 1
4 1 5 1
@<TRIPOS>MOLECULE
CH4
5 4
SMALL
USER_CHARGES


@<TRIPOS>ATOM
1 C 78.101 1.973 96.872 C 0.0 **** 0.0
2 H 77.942 2.607 95.999 H 0.0 **** 0.0
3 H 77.144 1.576 97.211 H 0.0 **** 0.0
4 H 78.554 2.561 97.67 H 0.0 **** 0.0
5 H 78.763 1.149 96.606 H 0.0 **** 0.0
@<TRIPOS>BOND
1 1 2 1
2 1 3 1
3 1 4 1
4 1 5 1
@<TRIPOS>MOLECULE
CH4
5 4
SMALL
USER_CHARGES


@<TRIPOS>ATOM
1 C 56.904 36.231 55.235 C 0.0 **** 0.0
2 H 56.528 35.243 54.97 H 0.0 **** 0.0
3 H 56.089 36.954 55.186 H 0.0 **** 0.0
4 H 57.689 36.521 54.536 H 0.0 **** 0.0
5 H 57.309 36.207 56.246 H 0.0 **** 0.0
@<TRIPOS>BOND
1 1 2 1
2 1 3 1
3 1 4 1
4 1 5 1
@<TRIPOS>MOLECULE
CH4
5 4
SMALL
USER_CHARGES


@<TRIPOS>ATOM
1 C 83.693 39.826 74.16 C 0.0 **** 0.0
2 H 83.679 39.311 73.2 H 0.0 **** 0.0
3 H 83.482 39.114 74.958 H 0.0 **** 0.0
4 H 82.935 40.61 74.162 H 0.0 **** 0.0
5 H 84.675 40.271 74.32 H 0.0 **** 0.0
@<TRIPOS>BOND
1 1 2 1
2 1 3 1
3 1 4 1
4 1 5 1
@<TRIPOS>MOLECULE
CH4
5 4
SMALL
USER_CHARGES


@<TRIPOS>ATOM
1 C 41.729 29.505 77.595 C 0.0 **** 0.0
2 H 42.487 29.687 78.357 H 0.0 **** 0.0
3 H 41.161 30.42 77.423 H 0.0 **** 0.0
4 H 41.055 28.718 77.933 H 0.0 **** 0.0
5 H 42.212 29.197 76.668 H 0.0 **** 0.0
@<TRIPOS>BOND
1 1 2 1
2 1 3 1
3 1 4 1
4 1 5 1
@<TRIPOS>MOLECULE
CH4
5 4
SMALL
USER_CHARGES


@<TRIPOS>ATOM
1 C 64.917 18.178 2.98 C 0.0 **** 0.0
2 H 65.824 18.018 2.397 H 0.0 **** 0.0
3 H 65.0 19.116 3.53 H 0.0 **** 0.0
4 H 64.787 17.355 3.681 H 0.0 **** 0.0
5 H 64.059 18.225 2.31 H 0.0 **** 0.0
@<TRIPOS>BOND
1 1 2 1
2 1 3 1
3 1 4 1
4 1 5 1
@<TRIPOS>MOLECULE
CH4
5 4
SMALL
USER_CHARGES


@<TRIPOS>ATOM
1 C 61.178 68.536 69.323 C 0.0 **** 0.0
2 H 60.287 68.961 69.784 H 0.0 **** 0.0
3 H 60.885 67.885 68.499 H 0.0 **** 0.0
4 H 61.731 67.958 70.064 H 0.0 **** 0.0
5 H 61.809 69.34 68.944 H 0.0 **** 0.0
@<TRIPOS>BOND
1 1 2 1
2 1 3 1
3 1 4 1
4 1 5 1
@<TRIPOS>MOLECULE
CH4
5 4
SMALL
USER_CHARGES


@<TRIPOS>ATOM
1 C 43.78 10.023 56.102 C 0.0 **** 0.0
2 H 44.06 10.857 56.745 H 0.0 **** 0.0
3 H 42.815 9.627 56.422 H 0.0 **** 0.0
4 H 44.535 9.24 56.173 H 0.0 **** 0.0
5 H 43.708 10.367 55.071 H 0.0 **** 0.0
@<TRIPOS>BOND
1 1 2 1
2 1 3 1
3 1 4 1
4 1 5 1
@<TRIPOS>MOLECULE
CH4
5 4
SMALL
USER_CHARGES


@<TRIPOS>ATOM
1 C 70.635 21.764 19.069 C 0.0 **** 0.0
2 H 70.803 21.865 20.141 H 0.0 **** 0.0
3 H 69.677 21.273 18.896 H 0.0 **** 0.0
4 H 71.435 21.166 18.631 H 0.0 **** 0.0
5 H 70.626 22.751 18.608 H 0.0 **** 0.0
@<TRIPOS>BOND
1 1 2 1
2 1 3 1
3 1 4 1
4 1 5 1
@<TRIPOS>MOLECULE
CH4
5 4
SMALL
USER_CHARGES


@<TRIPOS>ATOM
1 C 26.211 91.455 86.075 C 0.0 **** 0.0
2 H 25.808 91.922 85.176 H 0.0 **** 0.0
3 H 27.128 91.966 86.369 H 0.0 **** 0.0
4 H 26.426 90.406 85.875 H 0.0 **** 0.0
5 H 25.48 91.529 86.88 H 0.0 **** 0.0
@<TRIPOS>BOND
1 1 2 1
2 1 3 1
3 1 4 1
4 1 5 1
@<TRIPOS>MOLECULE
CH4
5 4
SMALL
USER_CHARGES


@<TRIPOS>ATOM
1 C 87.657 33.023 18.687 C 0.0 **** 0.0
2 H 87.756 32.59 19.682 H 0.0 **** 0.0
3 H 88.214 33.959 18.641 H 0.0 **** 0.0
4 H 86.604 33.216 18.479 H 0.0 **** 0.0
5 H 88.052 32.328 17.947 H 0.0 **** 0.0
@<TRIPOS>BOND
1 1 2 1
2 1 3 1
3 1 4 1
4 1 5 1
@<TRIPOS>MOLECULE
CH4
5 4
SMALL
USER_CHARGES


@<TRIPOS>ATOM
1 C 91.5 97.166 91.55 C 0.0 **** 0.0
2 H 91.431 96.472 92.388 H 0.0 **** 0.0
3 H 90.63 97.822 91.549 H 0.0 **** 0.0
4 H 91.534 96.605 90.616 H 0.0 **** 0.0
5 H 92.406 97.764 91.648 H 0.0 **** 0.0
@<TRIPOS>BOND
1 1 2 1
2 1 3 1
3 1 4 1
4 1 5 1
@<TRIPOS>MOLECULE
CH4
5 4
SMALL
USER_CHARGES


@<TRIPOS>ATOM
1 C 6.307 51.014 14.932 C 0.0 **** 0.0
2 H 6.803 51.33 15.85 H 0.0 **** 0.0
3 H 5.561 51.757 14.649 H 0.0 **** 0.0
4 H 5.82 50.053 15.094 H 0.0 **** 0.0
5 H 7.044 50.918 14.135 H 0.0 **** 0.0
@<TRIPOS>BOND
1 1 2 1
2 1 3 1
3 1 4 1
4 1 5 1
@<TRIPOS>MOLECULE
CH4
5 4
SMALL
USER_CHARGES


@<TRIPOS>ATOM
1 C 37.365 35.699 31.865 C 0.0 **** 0.0
2 H 36.63 34.906 31.73 H 0.0 **** 0.0
3 H 36.958 36.638 31.489 H 0.0 **** 0.0
4 H 38.273 35.45 31.317 H 0.0 **** 0.0
5 H 37.597 35.803 32.925 H 0.0 **** 0.0
@<TRIPOS>BOND
1 1 4 1
2 1 5 1
3 1 2 1
4 1 3 1
@<TRIPOS>MOLECULE
CH4
5 4
SMALL
USER_CHARGES


@<TRIPOS>ATOM
1 C 98.51 37.006 75.039 C 0.0 **** 0.0
2 H 98.581 37.052 76.126 H 0.0 **** 0.0
3 H 98.999 37.879 74.607 H 0.0 **** 0.0
4 H 97.461 36.994 74.744 H 0.0 **** 0.0
5 H 98.999 36.101 74.681 H 0.0 **** 0.0
@<TRIPOS>BOND
1 1 2 1
2 1 3 1
3 1 4 1
4 1 5 1
@<TRIPOS>MOLECULE
CH4
5 4
SMALL
USER_CHARGES


@<TRIPOS>ATOM
1 C 92.411 44.56 37.93 C 0.0 **** 0.0
2 H 92.516 44.734 36.859 H 0.0 **** 0.0
3 H 91.568 43.892 38.109 H 0.0 **** 0.0
4 H 92.237 45.509 38.437 H 0.0 **** 0.0
5 H 93.324 44.105 38.315 H 0.0 **** 0.0
@<TRIPOS>BOND
1 1 2 1
2 1 3 1
3 1 4 1
4 1 5 1
@<TRIPOS>MOLECULE
CH4
5 4
SMALL
USER_CHARGES


@<TRIPOS>ATOM
1 C 39.469 87.732 65.985 C 0.0 **** 0.0
2 H 38.859 88.617 65.803 H 0.0 **** 0.0
3 H 40.518 87.972 65.807 H 0.0 **** 0.0
4 H 39.159 86.932 65.313 H 0.0 **** 0.0
5 H 39.34 87.409 67.018 H 0.0 **** 0.0
@<TRIPOS>BOND
1 1 2 1
2 1 3 1
3 1 4 1
4 1 5 1
@<TRIPOS>MOLECULE
CH4
5 4
SMALL
USER_CHARGES


@<TRIPOS>ATOM
1 C 66.283 85.686 5.886 C 0.0 **** 0.0
2 H 66.176 84.626 5.654 H 0.0 **** 0.0
3 H 66.989 86.141 5.192 H 0.0 **** 0.0
4 H 66.651 85.799 6.906 H 0.0 **** 0.0
5 H 65.314 86.177 5.794 H 0.0 **** 0.0
@<TRIPOS>BOND
1 1 2 1
2 1 3 1
3 1 4 1
4 1 5 1
@<TRIPOS>MOLECULE
CH4
5 4
SMALL
USER_CHARGES


@<TRIPOS>ATOM
1 C 72.208 24.729 80.54 C 0.0 **** 0.0
2 H 71.986 25.736 80.187 H 0.0 **** 0.0
3 H 72.735 24.178 79.761 H 0.0 **** 0.0
4 H 71.277 24.216 80.782 H 0.0 **** 0.0
5 H 72.833 24.786 81.431 H 0.0 **** 0.0
@<TRIPOS>BOND
1 1 2 1
2 1 3 1
3 1 4 1
4 1 5 1
@<TRIPOS>MOLECULE
CH4
5 4
SMALL
USER_CHARGES


@<TRIPOS>ATOM
1 C 72.034 3.179 30.011 C 0.0 **** 0.0
2 H 72.086 2.891 31.06 H 0.0 **** 0.0
3 H 71.34 2.522 29.487 H 0.0 **** 0.0
4 H 73.024 3.094 29.561 H 0.0 **** 0.0
5 H 71.688 4.21 29.934 H 0.0 **** 0.0
@<TRIPOS>BOND
1 1 2 1
2 1 3 1
3 1 4 1
4 1 5 1
@<TRIPOS>MOLECULE
CH4
5 4
SMALL
USER_CHARGES


@<TRIPOS>ATOM
1 C 83.281 50.543 33.64 C 0.0 **** 0.0
2 H 83.279 50.666 32.557 H 0.0 **** 0.0
3 H 84.094 51.129 34.07 H 0.0 **** 0.0
4 H 83.422 49.491 33.886 H 0.0 **** 0.0
5 H 82.33 50.887 34.046 H 0.0 **** 0.0
@<TRIPOS>BOND
1 1 2 1
2 1 3 1
3 1 4 1
4 1 5 1
@<TRIPOS>MOLECULE
CH4
5 4
SMALL
USER_CHARGES


@<TRIPOS>ATOM
1 C 60.531 4.114 95.733 C 0.0 **** 0.0
2 H 61.344 3.45 95.441 H 0.0 **** 0.0
3 H 59.631 3.526 95.915 H 0.0 **** 0.0
4 H 60.342 4.83 94.933 H 0.0 **** 0.0
5 H 60.806 4.648 96.642 H 0.0 **** 0.0
@<TRIPOS>BOND
1 1 2 1
2 1 3 1
3 1 4 1
4 1 5 1
@<TRIPOS>MOLECULE
CH4
5 4
SMALL
USER_CHARGES


@<TRIPOS>ATOM
1 C 95.546 65.869 87.479 C 0.0 **** 0.0
2 H 96.214 66.305 88.222 H 0.0 **** 0.0
3 H 94.798 66.606 87.187 H 0.0 **** 0.0
4 H 95.051 64.996 87.905 H 0.0 **** 0.0
5 H 96.122 65.569 86.604 H 0.0 **** 0.0
@<TRIPOS>BOND
1 1 2 1
2 1 3 1
3 1 4 1
4 1 5 1
@<TRIPOS>MOLECULE
CH4
5 4
SMALL
USER_CHARGES


@<TRIPOS>ATOM
1 C 67.134 34.774 36.594 C 0.0 **** 0.0
2 H 66.093 35.056 36.754 H 0.0 **** 0.0
3 H 67.677 34.838 37.537 H 0.0 **** 0.0
4 H 67.585 35.45 35.868 H 0.0 **** 0.0
5 H 67.179 33.753 36.217 H 0.0 **** 0.0
@<TRIPOS>BOND
1 1 2 1
2 1 3 1
3 1 4 1
4 1 5 1
@<TRIPOS>MOLECULE
CH4
5 4
SMALL
USER_CHARGES


@<TRIPOS>ATOM
1 C 61.851 5.029 43.553 C 0.0 **** 0.0
2 H 61.698 5.857 42.86 H 0.0 **** 0.0
3 H 61.578 5.344 44.561 H 0.0 **** 0.0
4 H 62.899 4.731 43.536 H 0.0 **** 0.0
5 H 61.228 4.186 43.254 H 0.0 **** 0.0
@<TRIPOS>BOND
1 1 2 1
2 1 3 1
3 1 4 1
4 1 5 1
@<TRIPOS>MOLECULE
CH4
5 4
SMALL
USER_CHARGES


@<TRIPOS>ATOM
1 C 15.261 77.511 29.978 C 0.0 **** 0.0
2 H 15.245 77.752 28.915 H 0.0 **** 0.0
3 H 14.332 77.845 30.441 H 0.0 **** 0.0
4 H 16.105 78.012 30.452 H 0.0 **** 0.0
5 H 15.362 76.433 30.104 H 0.0 **** 0.0
@<TRIPOS>BOND
1 1 2 1
2 1 3 1
3 1 4 1
4 1 5 1
@<TRIPOS>MOLECULE
CH4
5 4
SMALL
USER_CHARGES


@<TRIPOS>ATOM
1 C 63.393 48.895 19.566 C 0.0 **** 0.0
2 H 64.348 49.378 19.772 H 0.0 **** 0.0
3 H 63.187 48.937 18.496 H 0.0 **** 0.0
4 H 62.601 49.412 20.109 H 0.0 **** 0.0
5 H 63.435 47.855 19.888 H 0.0 **** 0.0
@<TRIPOS>BOND
1 1 2 1
2 1 3 1
3 1 4 1
4 1 5 1
@<TRIPOS>MOLECULE
CH4
5 4
SMALL
USER_CHARGES


@<TRIPOS>ATOM
1 C 41.202 31.205 94.054 C 0.0 **** 0.0
2 H 40.414 31.944 93.906 H 0.0 **** 0.0
3 H 41.356 31.048 95.122 H 0.0 **** 0.0
4 H 42.126 31.564 93.602 H 0.0 **** 0.0
5 H 40.91 30.265 93.587 H 0.0 **** 0.0
@<TRIPOS>BOND
1 1 2 1
2 1 3 1
3 1 4 1
4 1 5 1
@<TRIPOS>MOLECULE
CH4
5 4
SMALL
USER_CHARGES


@<TRIPOS>ATOM
1 C 47.442 61.328 65.692 C 0.0 **** 0.0
2 H 48.455 61.474 66.067 H 0.0 **** 0.0
3 H 46.789 61.038 66.515 H 0.0 **** 0.0
4 H 47.445 60.544 64.935 H 0.0 **** 0.0
5 H 47.081 62.257 65.251 H 0.0 **** 0.0
@<TRIPOS>BOND
1 1 2 1
2 1 3 1
3 1 4 1
4 1 5 1
@<TRIPOS>MOLECULE
CH4
5 4
SMALL
USER_CHARGES


@<TRIPOS>ATOM
1 C 67.043 29.814 54.775 C 0.0 **** 0.0
2 H 67.614 28.894 54.644 H 0.0 **** 0.0
3 H 67.665 30.668 54.508 H 0.0 **** 0.0
4 H 66.732 29.902 55.816 H 0.0 **** 0.0
5 H 66.163 29.79 54.133 H 0.0 **** 0.0
@<TRIPOS>BOND
1 1 2 1
2 1 3 1
3 1 4 1
4 1 5 1
@<TRIPOS>MOLECULE
CH4
5 4
SMALL
USER_CHARGES


@<TRIPOS>ATOM
1 C 43.104 38.021 87.096 C 0.0 **** 0.0
2 H 43.085 38.061 88.185 H 0.0 **** 0.0
3 H 43.917 38.646 86.725 H 0.0 **** 0.0
4 H 42.156 38.386 86.703 H 0.0 **** 0.0
5 H 43.26 36.992 86.773 H 0.0 **** 0.0
@<TRIPOS>BOND
1 1 3 1
2 1 4 1
3 1 5 1
4 1 2 1
@<TRIPOS>MOLECULE
CH4
5 4
SMALL
USER_CHARGES


@<TRIPOS>ATOM
1 C 70.79 71.514 44.588 C 0.0 **** 0.0
2 H 70.207 72.352 44.971 H 0.0 **** 0.0
3 H 70.946 70.786 45.385 H 0.0 **** 0.0
4 H 71.754 71.876 44.231 H 0.0 **** 0.0
5 H 70.252 71.043 43.765 H 0.0 **** 0.0
@<TRIPOS>BOND
1 1 2 1
2 1 3 1
3 1 4 1
4 1 5 1
@<TRIPOS>MOLECULE
CH4
5 4
SMALL
USER_CHARGES


@<TRIPOS>ATOM
1 C 14.576 14.885 80.894 C 0.0 **** 0.0
2 H 15.032 15.134 81.853 H 0.0 **** 0.0
3 H 15.358 14.662 80.168 H 0.0 **** 0.0
4 H 13.983 15.729 80.543 H 0.0 **** 0.0
5 H 13.932 14.014 81.014 H 0.0 **** 0.0
@<TRIPOS>BOND
1 1 2 1
2 1 3 1
3 1 4 1
4 1 5 1
@<TRIPOS>MOLECULE
CH4
5 4
SMALL
USER_CHARGES


@<TRIPOS>ATOM
1 C 44.293 75.751 64.727 C 0.0 **** 0.0
2 H 44.145 75.832 65.803 H 0.0 **** 0.0
3 H 43.976 74.764 64.39 H 0.0 **** 0.0
4 H 45.348 75.894 64.493 H 0.0 **** 0.0
5 H 43.702 76.515 64.221 H 0.0 **** 0.0
@<TRIPOS>BOND
1 1 2 1
2 1 3 1
3 1 4 1
4 1 5 1
@<TRIPOS>MOLECULE
CH4
5 4
SMALL
USER_CHARGES


@<TRIPOS>ATOM
1 C 92.988 73.279 15.034 C 0.0 **** 0.0
2 H 92.858 73.419 13.961 H 0.0 **** 0.0
3 H 92.801 72.235 15.289 H 0.0 **** 0.0
4 H 92.285 73.916 15.571 H 0.0 **** 0.0
5 H 94.007 73.545 15.315 H 0.0 **** 0.0
@<TRIPOS>BOND
1 1 2 1
2 1 3 1
3 1 4 1
4 1 5 1
@<TRIPOS>MOLECULE
CH4
5 4
SMALL
USER_CHARGES


@<TRIPOS>ATOM
1 C 97.213 73.898 19.212 C 0.0 **** 0.0
2 H 96.289 74.014 18.646 H 0.0 **** 0.0
3 H 97.453 72.839 19.304 H 0.0 **** 0.0
4 H 97.087 74.33 20.205 H 0.0 **** 0.0
5 H 98.024 74.411 18.693 H 0.0 **** 0.0
@<TRIPOS>BOND
1 1 2 1
2 1 3 1
3 1 4 1
4 1 5 1
@<TRIPOS>MOLECULE
CH4
5 4
SMALL
USER_CHARGES


@<TRIPOS>ATOM
1 C 16.83 2.445 22.989 C 0.0 **** 0.0
2 H 16.673 3.135 22.16 H 0.0 **** 0.0
3 H 17.819 2.608 23.416 H 0.0 **** 0.0
4 H 16.755 1.42 22.625 H 0.0 **** 0.0
5 H 16.071 2.615 23.752 H 0.0 **** 0.0
@<TRIPOS>BOND
1 1 2 1
2 1 3 1
3 1 4 1
4 1 5 1
@<TRIPOS>MOLECULE
CH4
5 4
SMALL
USER_CHARGES


@<TRIPOS>ATOM
1 C 38.857 44.247 7.772 C 0.0 **** 0.0
2 H 39.189 44.583 6.789 H 0.0 **** 0.0
3 H 39.665 44.377 8.492 H 0.0 **** 0.0
4 H 38.581 43.194 7.721 H 0.0 **** 0.0
5 H 37.994 44.835 8.084 H 0.0 **** 0.0
@<TRIPOS>BOND
1 1 2 1
2 1 3 1
3 1 4 1
4 1 5 1
@<TRIPOS>MOLECULE
CH4
5 4
SMALL
USER_CHARGES


@<TRIPOS>ATOM
1 C 87.658 9.092 41.333 C 0.0 **** 0.0
2 H 86.958 9.244 40.512 H 0.0 **** 0.0
3 H 88.679 9.168 40.958 H 0.0 **** 0.0
4 H 87.503 8.104 41.765 H 0.0 **** 0.0
5 H 87.494 9.853 42.096 H 0.0 **** 0.0
@<TRIPOS>BOND
1 1 2 1
2 1 3 1
3 1 4 1
4 1 5 1
@<TRIPOS>MOLECULE
CH4
5 4
SMALL
USER_CHARGES


@<TRIPOS>ATOM
1 C 24.166 2.801 58.264 C 0.0 **** 0.0
2 H 24.44 2.166 59.106 H 0.0 **** 0.0
3 H 23.515 2.247 57.588 H 0.0 **** 0.0
4 H 25.067 3.107 57.732 H 0.0 **** 0.0
5 H 23.643 3.684 58.631 H 0.0 **** 0.0
@<TRIPOS>BOND
1 1 2 1
2 1 3 1
3 1 4 1
4 1 5 1
@<TRIPOS>MOLECULE
CH4
5 4
SMALL
USER_CHARGES


@<TRIPOS>ATOM
1 C 16.771 35.132 23.248 C 0.0 **** 0.0
2 H 16.986 35.368 22.206 H 0.0 **** 0.0
3 H 16.691 36.056 23.821 H 0.0 **** 0.0
4 H 17.575 34.519 23.656 H 0.0 **** 0.0
5 H 15.83 34.584 23.309 H 0.0 **** 0.0
@<TRIPOS>BOND
1 1 2 1
2 1 3 1
3 1 4 1
4 1 5 1
@<TRIPOS>MOLECULE
CH4
5 4
SMALL
USER_CHARGES


@<TRIPOS>ATOM
1 C 56.003 75.527 62.04 C 0.0 **** 0.0
2 H 55.367 76.322 61.65 H 0.0 **** 0.0
3 H 56.438 74.97 61.21 H 0.0 **** 0.0
4 H 55.405 74.854 62.656 H 0.0 **** 0.0
5 H 56.799 75.962 62.644 H 0.0 **** 0.0
@<TRIPOS>BOND
1 1 2 1
2 1 3 1
3 1 4 1
4 1 5 1
@<TRIPOS>MOLECULE
CH4
5 4
SMALL
USER_CHARGES


@<TRIPOS>ATOM
1 C 89.997 51.787 91.785 C 0.0 **** 0.0
2 H 90.35 51.204 90.935 H 0.0 **** 0.0
3 H 88.967 51.509 92.014 H 0.0 **** 0.0
4 H 90.041 52.848 91.541 H 0.0 **** 0.0
5 H 90.628 51.586 92.651 H 0.0 **** 0.0
@<TRIPOS>BOND
1 1 2 1
2 1 3 1
3 1 4 1
4 1 5 1
@<TRIPOS>MOLECULE
CH4
5 4
SMALL
USER_CHARGES


@<TRIPOS>ATOM
1 C 13.319 76.629 56.696 C 0.0 **** 0.0
2 H 12.873 77.292 57.438 H 0.0 **** 0.0
3 H 12.74 76.675 55.774 H 0.0 **** 0.0
4 H 13.319 75.607 57.076 H 0.0 **** 0.0
5 H 14.344 76.943 56.499 H 0.0 **** 0.0
@<TRIPOS>BOND
1 1 2 1
2 1 3 1
3 1 4 1
4 1 5 1
@<TRIPOS>MOLECULE
CH4
5 4
SMALL
USER_CHARGES


@<TRIPOS>ATOM
1 C 78.655 54.709 43.938 C 0.0 **** 0.0
2 H 79.042 54.107 44.76 H 0.0 **** 0.0
3 H 78.627 54.108 43.029 H 0.0 **** 0.0
4 H 79.304 55.572 43.784 H 0.0 **** 0.0
5 H 77.649 55.05 44.181 H 0.0 **** 0.0
@<TRIPOS>BOND
1 1 2 1
2 1 3 1
3 1 4 1
4 1 5 1
@<TRIPOS>MOLECULE
CH4
5 4
SMALL
USER_CHARGES


@<TRIPOS>ATOM
1 C 1.545 65.052 42.833 C 0.0 **** 0.0
2 H 1.866 64.576 41.907 H 0.0 **** 0.0
3 H 1.451 64.298 43.615 H 0.0 **** 0.0
4 H 0.582 65.537 42.678 H 0.0 **** 0.0
5 H 2.283 65.797 43.133 H 0.0 **** 0.0
@<TRIPOS>BOND
1 1 2 1
2 1 3 1
3 1 4 1
4 1 5 1
@<TRIPOS>MOLECULE
CH4
5 4
SMALL
USER_CHARGES


@<TRIPOS>ATOM
1 C 79.832 60.625 50.411 C 0.0 **** 0.0
2 H 79.851 59.536 50.448 H 0.0 **** 0.0
3 H 80.854 61.006 50.399 H 0.0 **** 0.0
4 H 79.311 61.009 51.287 H 0.0 **** 0.0
5 H 79.314 60.949 49.508 H 0.0 **** 0.0
@<TRIPOS>BOND
1 1 2 1
2 1 3 1
3 1 4 1
4 1 5 1
@<TRIPOS>MOLECULE
CH4
5 4
SMALL
USER_CHARGES


@<TRIPOS>ATOM
1 C 54.834 72.532 88.981 C 0.0 **** 0.0
2 H 55.492 72.227 89.794 H 0.0 **** 0.0
3 H 53.843 72.752 89.378 H 0.0 **** 0.0
4 H 54.762 71.727 88.25 H 0.0 **** 0.0
5 H 55.239 73.423 88.501 H 0.0 **** 0.0
@<TRIPOS>BOND
1 1 2 1
2 1 3 1
3 1 4 1
4 1 5 1
@<TRIPOS>MOLECULE
CH4
5 4
SMALL
USER_CHARGES


@<TRIPOS>ATOM
1 C 12.435 88.76 58.588 C 0.0 **** 0.0
2 H 12.677 89.823 58.582 H 0.0 **** 0.0
3 H 13.024 88.258 59.356 H 0.0 **** 0.0
4 H 12.667 88.329 57.614 H 0.0 **** 0.0
5 H 11.374 88.629 58.8 H 0.0 **** 0.0
@<TRIPOS>BOND
1 1 2 1
2 1 3 1
3 1 4 1
4 1 5 1
@<TRIPOS>MOLECULE
CH4
5 4
SMALL
USER_CHARGES


@<TRIPOS>ATOM
1 C 75.963 97.371 22.87 C 0.0 **** 0.0
2 H 75.405 97.589 23.781 H 0.0 **** 0.0
3 H 75.518 96.511 22.369 H 0.0 **** 0.0
4 H 76.999 97.149 23.123 H 0.0 **** 0.0
5 H 75.928 98.236 22.207 H 0.0 **** 0.0
@<TRIPOS>BOND
1 1 2 1
2 1 3 1
3 1 4 1
4 1 5 1
@<TRIPOS>MOLECULE
CH4
5 4
SMALL
USER_CHARGES


@<TRIPOS>ATOM
1 C 92.73 82.39 32.644 C 0.0 **** 0.0
2 H 93.133 82.662 33.62 H 0.0 **** 0.0
3 H 93.077 83.104 31.896 H 0.0 **** 0.0
4 H 91.641 82.405 32.684 H 0.0 **** 0.0
5 H 93.07 81.389 32.377 H 0.0 **** 0.0
@<TRIPOS>BOND
1 1 2 1
2 1 3 1
3 1 4 1
4 1 5 1
@<TRIPOS>MOLECULE
CH4
5 4
SMALL
USER_CHARGES


@<TRIPOS>ATOM
1 C 82.614 67.758 80.044 C 0.0 **** 0.0
2 H 82.159 67.771 79.053 H 0.0 **** 0.0
3 H 83.326 68.58 80.127 H 0.0 **** 0.0
4 H 83.132 66.811 80.194 H 0.0 **** 0.0
5 H 81.838 67.872 80.801 H 0.0 **** 0.0
@<TRIPOS>BOND
1 1 2 1
2 1 3 1
3 1 4 1
4 1 5 1
@<TRIPOS>MOLECULE
CH4
5 4
SMALL
USER_CHARGES


@<TRIPOS>ATOM
1 C 24.982 54.198 78.705 C 0.0 **** 0.0
2 H 25.082 55.227 78.36 H 0.0 **** 0.0
3 H 25.776 53.975 79.418 H 0.0 **** 0.0
4 H 25.056 53.521 77.854 H 0.0 **** 0.0
5 H 24.013 54.07 79.187 H 0.0 **** 0.0
@<TRIPOS>BOND
1 1 2 1
2 1 3 1
3 1 4 1
4 1 5 1
@<TRIPOS>MOLECULE
CH4
5 4
SMALL
USER_CHARGES


@<TRIPOS>ATOM
1 C 36.588 70.746 15.825 C 0.0 **** 0.0
2 H 37.227 70.453 16.659 H 0.0 **** 0.0
3 H 36.626 71.829 15.703 H 0.0 **** 0.0
4 H 35.563 70.438 16.028 H 0.0 **** 0.0
5 H 36.939 70.265 14.913 H 0.0 **** 0.0
@<TRIPOS>BOND
1 1 2 1
2 1 3 1
3 1 4 1
4 1 5 1
@<TRIPOS>MOLECULE
CH4
5 4
SMALL
USER_CHARGES


@<TRIPOS>ATOM
1 C 17.015 12.876 52.391 C 0.0 **** 0.0
2 H 16.937 12.76 51.309 H 0.0 **** 0.0
3 H 16.626 11.983 52.88 H 0.0 **** 0.0
4 H 16.437 13.744 52.706 H 0.0 **** 0.0
5 H 18.06 13.015 52.666 H 0.0 **** 0.0
@<TRIPOS>BOND
1 1 2 1
2 1 3 1
3 1 4 1
4 1 5 1
@<TRIPOS>MOLECULE
CH4
5 4
SMALL
USER_CHARGES


@<TRIPOS>ATOM
1 C 28.436 16.257 74.661 C 0.0 **** 0.0
2 H 28.413 16.368 75.745 H 0.0 **** 0.0
3 H 27.416 16.234 74.277 H 0.0 **** 0.0
4 H 28.943 15.327 74.402 H 0.0 **** 0.0
5 H 28.972 17.098 74.221 H 0.0 **** 0.0
@<TRIPOS>BOND
1 1 2 1
2 1 3 1
3 1 4 1
4 1 5 1
@<TRIPOS>MOLECULE
CH4
5 4
SMALL
USER_CHARGES


@<TRIPOS>ATOM
1 C 97.271 63.946 44.224 C 0.0 **** 0.0
2 H 97.667 63.474 45.123 H 0.0 **** 0.0
3 H 97.408 63.277 43.373 H 0.0 **** 0.0
4 H 97.801 64.88 44.04 H 0.0 **** 0.0
5 H 96.209 64.15 44.358 H 0.0 **** 0.0
@<TRIPOS>BOND
1 1 2 1
2 1 3 1
3 1 4 1
4 1 5 1
@<TRIPOS>MOLECULE
CH4
5 4
SMALL
USER_CHARGES


@<TRIPOS>ATOM
1 C 9.742 87.531 8.454 C 0.0 **** 0.0
2 H 8.815 87.418 7.893 H 0.0 **** 0.0
3 H 9.933 88.59 8.629 H 0.0 **** 0.0
4 H 10.566 87.103 7.883 H 0.0 **** 0.0
5 H 9.654 87.015 9.41 H 0.0 **** 0.0
@<TRIPOS>BOND
1 1 2 1
2 1 3 1
3 1 4 1
4 1 5 1
@<TRIPOS>MOLECULE
CH4
5 4
SMALL
USER_CHARGES


@<TRIPOS>ATOM
1 C 90.199 75.619 44.879 C 0.0 **** 0.0
2 H 91.224 75.39 44.59 H 0.0 **** 0.0
3 H 89.601 74.708 44.851 H 0.0 **** 0.0
4 H 89.781 76.35 44.187 H 0.0 **** 0.0
5 H 90.189 76.029 45.889 H 0.0 **** 0.0
@<TRIPOS>BOND
1 1 2 1
2 1 3 1
3 1 4 1
4 1 5 1
@<TRIPOS>MOLECULE
CH4
5 4
SMALL
USER_CHARGES


@<TRIPOS>ATOM
1 C 64.967 29.471 13.486 C 0.0 **** 0.0
2 H 65.696 29.259 14.268 H 0.0 **** 0.0
3 H 65.328 30.291 12.865 H 0.0 **** 0.0
4 H 64.017 29.751 13.942 H 0.0 **** 0.0
5 H 64.826 28.583 12.87 H 0.0 **** 0.0
@<TRIPOS>BOND
1 1 2 1
2 1 3 1
3 1 4 1
4 1 5 1
@<TRIPOS>MOLECULE
CH4
5 4
SMALL
USER_CHARGES


@<TRIPOS>ATOM
1 C 73.794 57.511 98.024 C 0.0 **** 0.0
2 H 73.913 56.427 98.048 H 0.0 **** 0.0
3 H 74.458 57.932 97.268 H 0.0 **** 0.0
4 H 74.045 57.925 99.0 H 0.0 **** 0.0
5 H 72.761 57.757 97.778 H 0.0 **** 0.0
@<TRIPOS>BOND
1 1 2 1
2 1 4 1
3 1 5 1
4 1 3 1
@<TRIPOS>MOLECULE
CH4
5 4
SMALL
USER_CHARGES


@<TRIPOS>ATOM
1 C 45.212 25.657 75.505 C 0.0 **** 0.0
2 H 44.643 26.318 76.159 H 0.0 **** 0.0
3 H 45.617 26.231 74.671 H 0.0 **** 0.0
4 H 44.558 24.873 75.123 H 0.0 **** 0.0
5 H 46.03 25.206 76.067 H 0.0 **** 0.0
@<TRIPOS>BOND
1 1 2 1
2 1 3 1
3 1 4 1
4 1 5 1
@<TRIPOS>MOLECULE
CH4
5 4
SMALL
USER_CHARGES


@<TRIPOS>ATOM
1 C 33.459 43.216 11.409 C 0.0 **** 0.0
2 H 33.51 43.038 10.335 H 0.0 **** 0.0
3 H 34.468 43.225 11.823 H 0.0 **** 0.0
4 H 32.879 42.423 11.881 H 0.0 **** 0.0
5 H 32.98 44.177 11.595 H 0.0 **** 0.0
@<TRIPOS>BOND
1 1 2 1
2 1 3 1
3 1 4 1
4 1 5 1
@<TRIPOS>MOLECULE
CH4
5 4
SMALL
USER_CHARGES


@<TRIPOS>ATOM
1 C 18.689 19.036 39.175 C 0.0 **** 0.0
2 H 17.948 18.87 38.393 H 0.0 **** 0.0
3 H 19.689 18.985 38.743 H 0.0 **** 0.0
4 H 18.585 18.269 39.942 H 0.0 **** 0.0
5 H 18.534 20.019 39.619 H 0.0 **** 0.0
@<TRIPOS>BOND
1 1 3 1
2 1 4 1
3 1 2 1
4 1 5 1
@<TRIPOS>MOLECULE
CH4
5 4
SMALL
USER_CHARGES


@<TRIPOS>ATOM
1 C 18.75 6.193 93.35 C 0.0 **** 0.0
2 H 18.685 6.023 92.275 H 0.0 **** 0.0
3 H 18.851 5.236 93.863 H 0.0 **** 0.0
4 H 17.847 6.696 93.694 H 0.0 **** 0.0
5 H 19.618 6.815 93.568 H 0.0 **** 0.0
@<TRIPOS>BOND
1 1 2 1
2 1 3 1
3 1 4 1
4 1 5 1
@<TRIPOS>MOLECULE
CH4
5 4
SMALL
USER_CHARGES


@<TRIPOS>ATOM
1 C 33.471 11.158 45.642 C 0.0 **** 0.0
2 H 33.465 11.112 44.553 H 0.0 **** 0.0
3 H 32.541 11.608 45.991 H 0.0 **** 0.0
4 H 34.315 11.761 45.975 H 0.0 **** 0.0
5 H 33.561 10.15 46.047 H 0.0 **** 0.0
@<TRIPOS>BOND
1 1 2 1
2 1 3 1
3 1 4 1
4 1 5 1
@<TRIPOS>MOLECULE
CH4
5 4
SMALL
USER_CHARGES


@<TRIPOS>ATOM
1 C 92.455 39.912 52.807 C 0.0 **** 0.0
2 H 92.838 39.779 51.795 H 0.0 **** 0.0
3 H 92.256 38.936 53.251 H 0.0 **** 0.0
4 H 91.532 40.491 52.773 H 0.0 **** 0.0
5 H 93.194 40.441 53.409 H 0.0 **** 0.0
@<TRIPOS>BOND
1 1 2 1
2 1 3 1
3 1 4 1
4 1 5 1
@<TRIPOS>MOLECULE
CH4
5 4
SMALL
USER_CHARGES


@<TRIPOS>ATOM
1 C 12.307 8.859 16.337 C 0.0 **** 0.0
2 H 12.645 9.04 15.316 H 0.0 **** 0.0
3 H 11.349 8.338 16.316 H 0.0 **** 0.0
4 H 12.192 9.811 16.855 H 0.0 **** 0.0
5 H 13.042 8.247 16.859 H 0.0 **** 0.0
@<TRIPOS>BOND
1 1 2 1
2 1 3 1
3 1 4 1
4 1 5 1
@<TRIPOS>MOLECULE
CH4
5 4
SMALL
USER_CHARGES


@<TRIPOS>ATOM
1 C 95.291 94.706 53.692 C 0.0 **** 0.0
2 H 95.0 95.275 52.81 H 0.0 **** 0.0
3 H 95.38 95.379 54.545 H 0.0 **** 0.0
4 H 96.249 94.219 53.511 H 0.0 **** 0.0
5 H 94.534 93.95 53.903 H 0.0 **** 0.0
@<TRIPOS>BOND
1 1 2 1
2 1 3 1
3 1 4 1
4 1 5 1
@<TRIPOS>MOLECULE
CH4
5 4
SMALL
USER_CHARGES


@<TRIPOS>ATOM
1 C 81.798 57.555 32.968 C 0.0 **** 0.0
2 H 81.172 56.68 32.789 H 0.0 **** 0.0
3 H 81.213 58.459 32.798 H 0.0 **** 0.0
4 H 82.648 57.538 32.287 H 0.0 **** 0.0
5 H 82.156 57.541 33.997 H 0.0 **** 0.0
@<TRIPOS>BOND
1 1 2 1
2 1 3 1
3 1 4 1
4 1 5 1
@<TRIPOS>MOLECULE
CH4
5 4
SMALL
USER_CHARGES


@<TRIPOS>ATOM
1 C 90.354 11.342 59.878 C 0.0 **** 0.0
2 H 91.127 11.277 59.113 H 0.0 **** 0.0
3 H 89.879 12.322 59.832 H 0.0 **** 0.0
4 H 90.804 11.202 60.861 H 0.0 **** 0.0
5 H 89.607 10.567 59.706 H 0.0 **** 0.0
@<TRIPOS>BOND
1 1 2 1
2 1 3 1
3 1 4 1
4 1 5 1
@<TRIPOS>MOLECULE
CH4
5 4
SMALL
USER_CHARGES


@<TRIPOS>ATOM
1 C 74.291 38.832 1.536 C 0.0 **** 0.0
2 H 73.206 38.83 1.64 H 0.0 **** 0.0
3 H 74.751 38.828 2.525 H 0.0 **** 0.0
4 H 74.602 39.725 0.994 H 0.0 **** 0.0
5 H 74.604 37.945 0.986 H 0.0 **** 0.0
@<TRIPOS>BOND
1 1 5 1
2 1 2 1
3 1 3 1
4 1 4 1
@<TRIPOS>MOLECULE
CH4
5 4
SMALL
USER_CHARGES


@<TRIPOS>ATOM
1 C 72.126 5.927 18.493 C 0.0 **** 0.0
2 H 71.313 6.319 17.882 H 0.0 **** 0.0
3 H 72.186 6.492 19.423 H 0.0 **** 0.0
4 H 73.067 6.02 17.95 H 0.0 **** 0.0
5 H 71.938 4.877 18.717 H 0.0 **** 0.0
@<TRIPOS>BOND
1 1 2 1
2 1 3 1
3 1 4 1
4 1 5 1
@<TRIPOS>MOLECULE
CH4
5 4
SMALL
USER_CHARGES


@<TRIPOS>ATOM
1 C 70.038 9.42 17.622 C 0.0 **** 0.0
2 H 69.094 9.69 17.148 H 0.0 **** 0.0
3 H 70.839 9.46 16.883 H 0.0 **** 0.0
4 H 69.966 8.411 18.026 H 0.0 **** 0.0
5 H 70.252 10.121 18.429 H 0.0 **** 0.0
@<TRIPOS>BOND
1 1 2 1
2 1 3 1
3 1 4 1
4 1 5 1
@<TRIPOS>MOLECULE
CH4
5 4
SMALL
USER_CHARGES


@<TRIPOS>ATOM
1 C 31.6 47.098 83.579 C 0.0 **** 0.0
2 H 31.973 46.907 82.573 H 0.0 **** 0.0
3 H 31.783 48.14 83.842 H 0.0 **** 0.0
4 H 32.116 46.449 84.287 H 0.0 **** 0.0
5 H 30.53 46.896 83.614 H 0.0 **** 0.0
@<TRIPOS>BOND
1 1 2 1
2 1 3 1
3 1 4 1
4 1 5 1
@<TRIPOS>MOLECULE
CH4
5 4
SMALL
USER_CHARGES


@<TRIPOS>ATOM
1 C 92.124 64.215 5.555 C 0.0 **** 0.0
2 H 91.244 63.585 5.684 H 0.0 **** 0.0
3 H 92.419 64.217 4.506 H 0.0 **** 0.0
4 H 92.942 63.826 6.162 H 0.0 **** 0.0
5 H 91.891 65.233 5.869 H 0.0 **** 0.0
@<TRIPOS>BOND
1 1 2 1
2 1 3 1
3 1 4 1
4 1 5 1
@<TRIPOS>MOLECULE
CH4
5 4
SMALL
USER_CHARGES


@<TRIPOS>ATOM
1 C 76.262 32.056 45.428 C 0.0 **** 0.0
2 H 75.419 32.617 45.832 H 0.0 **** 0.0
3 H 76.707 32.614 44.604 H 0.0 **** 0.0
4 H 75.914 31.089 45.067 H 0.0 **** 0.0
5 H 77.006 31.906 46.21 H 0.0 **** 0.0
@<TRIPOS>BOND
1 1 2 1
2 1 3 1
3 1 4 1
4 1 5 1
@<TRIPOS>MOLECULE
CH4
5 4
SMALL
USER_CHARGES


@<TRIPOS>ATOM
1 C 1.545 61.614 45.196 C 0.0 **** 0.0
2 H 2.284 61.56 44.397 H 0.0 **** 0.0
3 H 0.867 62.447 45.007 H 0.0 **** 0.0
4 H 2.05 61.765 46.149 H 0.0 **** 0.0
5 H 0.977 60.683 45.228 H 0.0 **** 0.0
@<TRIPOS>BOND
1 1 2 1
2 1 3 1
3 1 4 1
4 1 5 1
@<TRIPOS>MOLECULE
CH4
5 4
SMALL
USER_CHARGES


@<TRIPOS>ATOM
1 C 1.945 69.109 82.726 C 0.0 **** 0.0
2 H 2.241 68.103 83.021 H 0.0 **** 0.0
3 H 0.999 69.066 82.186 H 0.0 **** 0.0
4 H 2.712 69.538 82.081 H 0.0 **** 0.0
5 H 1.829 69.729 83.615 H 0.0 **** 0.0
@<TRIPOS>BOND
1 1 2 1
2 1 3 1
3 1 4 1
4 1 5 1
@<TRIPOS>MOLECULE
CH4
5 4
SMALL
USER_CHARGES


@<TRIPOS>ATOM
1 C 51.397 26.549 50.817 C 0.0 **** 0.0
2 H 51.245 26.119 49.827 H 0.0 **** 0.0
3 H 51.952 25.845 51.437 H 0.0 **** 0.0
4 H 50.429 26.753 51.276 H 0.0 **** 0.0
5 H 51.96 27.477 50.727 H 0.0 **** 0.0
@<TRIPOS>BOND
1 1 2 1
2 1 3 1
3 1 4 1
4 1 5 1
@<TRIPOS>MOLECULE
CH4
5 4
SMALL
USER_CHARGES


@<TRIPOS>ATOM
1 C 17.372 60.657 88.266 C 0.0 **** 0.0
2 H 17.451 60.763 87.184 H 0.0 **** 0.0
3 H 16.609 59.915 88.503 H 0.0 **** 0.0
4 H 17.098 61.615 88.707 H 0.0 **** 0.0
5 H 18.332 60.333 88.67 H 0.0 **** 0.0
@<TRIPOS>BOND
1 1 5 1
2 1 2 1
3 1 3 1
4 1 4 1
@<TRIPOS>MOLECULE
CH4
5 4
SMALL
USER_CHARGES


@<TRIPOS>ATOM
1 C 19.104 55.653 36.746 C 0.0 **** 0.0
2 H 18.494 56.552 36.66 H 0.0 **** 0.0
3 H 18.495 54.837 37.137 H 0.0 **** 0.0
4 H 19.937 55.842 37.422 H 0.0 **** 0.0
5 H 19.488 55.381 35.763 H 0.0 **** 0.0
@<TRIPOS>BOND
1 1 2 1
2 1 3 1
3 1 4 1
4 1 5 1
@<TRIPOS>MOLECULE
CH4
5 4
SMALL
USER_CHARGES


@<TRIPOS>ATOM
1 C 84.362 82.723 5.326 C 0.0 **** 0.0
2 H 84.592 82.799 6.389 H 0.0 **** 0.0
3 H 83.801 81.807 5.141 H 0.0 **** 0.0
4 H 85.29 82.703 4.754 H 0.0 **** 0.0
5 H 83.766 83.583 5.022 H 0.0 **** 0.0
@<TRIPOS>BOND
1 1 2 1
2 1 3 1
3 1 4 1
4 1 5 1
@<TRIPOS>MOLECULE
CH4
5 4
SMALL
USER_CHARGES


@<TRIPOS>ATOM
1 C 21.184 6.737 15.041 C 0.0 **** 0.0
2 H 20.295 6.972 15.626 H 0.0 **** 0.0
3 H 20.931 6.002 14.276 H 0.0 **** 0.0
4 H 21.953 6.328 15.698 H 0.0 **** 0.0
5 H 21.557 7.644 14.566 H 0.0 **** 0.0
@<TRIPOS>BOND
1 1 2 1
2 1 3 1
3 1 4 1
4 1 5 1
@<TRIPOS>MOLECULE
CH4
5 4
SMALL
USER_CHARGES


@<TRIPOS>ATOM
1 C 24.23 29.87 44.889 C 0.0 **** 0.0
2 H 24.397 28.882 44.46 H 0.0 **** 0.0
3 H 25.189 30.363 45.049 H 0.0 **** 0.0
4 H 23.71 29.769 45.842 H 0.0 **** 0.0
5 H 23.625 30.465 44.205 H 0.0 **** 0.0
@<TRIPOS>BOND
1 1 2 1
2 1 3 1
3 1 4 1
4 1 5 1
@<TRIPOS>MOLECULE
CH4
5 4
SMALL
USER_CHARGES


@<TRIPOS>ATOM
1 C 11.483 17.486 19.719 C 0.0 **** 0.0
2 H 11.316 18.23 18.94 H 0.0 **** 0.0
3 H 12.407 17.717 20.249 H 0.0 **** 0.0
4 H 11.561 16.498 19.266 H 0.0 **** 0.0
5 H 10.648 17.5 20.42 H 0.0 **** 0.0
@<TRIPOS>BOND
1 1 2 1
2 1 3 1
3 1 4 1
4 1 5 1
@<TRIPOS>MOLECULE
CH4
5 4
SMALL
USER_CHARGES


@<TRIPOS>ATOM
1 C 12.46 61.816 65.779 C 0.0 **** 0.0
2 H 13.402 62.247 66.117 H 0.0 **** 0.0
3 H 12.461 60.743 65.975 H 0.0 **** 0.0
4 H 12.344 61.99 64.709 H 0.0 **** 0.0
5 H 11.634 62.283 66.315 H 0.0 **** 0.0
@<TRIPOS>BOND
1 1 2 1
2 1 3 1
3 1 4 1
4 1 5 1
@<TRIPOS>MOLECULE
CH4
5 4
SMALL
USER_CHARGES


@<TRIPOS>ATOM
1 C 1.682 70.296 31.709 C 0.0 **** 0.0
2 H 2.032 70.484 30.693 H 0.0 **** 0.0
3 H 2.535 70.271 32.387 H 0.0 **** 0.0
4 H 1.163 69.338 31.742 H 0.0 **** 0.0
5 H 1.0 71.09 32.011 H 0.0 **** 0.0
@<TRIPOS>BOND
1 1 2 1
2 1 3 1
3 1 4 1
4 1 5 1
@<TRIPOS>MOLECULE
CH4
5 4
SMALL
USER_CHARGES


@<TRIPOS>ATOM
1 C 24.06 59.467 41.332 C 0.0 **** 0.0
2 H 23.108 58.936 41.331 H 0.0 **** 0.0
3 H 24.115 60.113 42.209 H 0.0 **** 0.0
4 H 24.14 60.071 40.429 H 0.0 **** 0.0
5 H 24.877 58.746 41.361 H 0.0 **** 0.0
@<TRIPOS>BOND
1 1 2 1
2 1 3 1
3 1 4 1
4 1 5 1
@<TRIPOS>MOLECULE
CH4
5 4
SMALL
USER_CHARGES


@<TRIPOS>ATOM
1 C 91.937 22.241 73.976 C 0.0 **** 0.0
2 H 91.86 22.213 72.889 H 0.0 **** 0.0
3 H 91.658 23.232 74.335 H 0.0 **** 0.0
4 H 92.963 22.023 74.273 H 0.0 **** 0.0
5 H 91.269 21.496 74.407 H 0.0 **** 0.0
@<TRIPOS>BOND
1 1 2 1
2 1 3 1
3 1 4 1
4 1 5 1
@<TRIPOS>MOLECULE
CH4
5 4
SMALL
USER_CHARGES


@<TRIPOS>ATOM
1 C 78.636 67.965 41.357 C 0.0 **** 0.0
2 H 78.749 68.472 40.398 H 0.0 **** 0.0
3 H 79.065 68.583 42.146 H 0.0 **** 0.0
4 H 79.153 67.006 41.324 H 0.0 **** 0.0
5 H 77.578 67.801 41.558 H 0.0 **** 0.0
@<TRIPOS>BOND
1 1 2 1
2 1 3 1
3 1 4 1
4 1 5 1
@<TRIPOS>MOLECULE
CH4
5 4
SMALL
USER_CHARGES


@<TRIPOS>ATOM
1 C 36.567 41.947 95.539 C 0.0 **** 0.0
2 H 37.228 41.696 94.71 H 0.0 **** 0.0
3 H 36.923 42.856 96.025 H 0.0 **** 0.0
4 H 36.562 41.129 96.259 H 0.0 **** 0.0
5 H 35.557 42.107 95.163 H 0.0 **** 0.0
@<TRIPOS>BOND
1 1 2 1
2 1 3 1
3 1 4 1
4 1 5 1
@<TRIPOS>MOLECULE
CH4
5 4
SMALL
USER_CHARGES


@<TRIPOS>ATOM
1 C 84.458 60.062 36.374 C 0.0 **** 0.0
2 H 84.161 60.169 35.331 H 0.0 **** 0.0
3 H 85.461 59.638 36.424 H 0.0 **** 0.0
4 H 83.757 59.401 36.884 H 0.0 **** 0.0
5 H 84.451 61.039 36.855 H 0.0 **** 0.0
@<TRIPOS>BOND
1 1 2 1
2 1 3 1
3 1 4 1
4 1 5 1
@<TRIPOS>MOLECULE
CH4
5 4
SMALL
USER_CHARGES


@<TRIPOS>ATOM
1 C 95.083 95.231 39.654 C 0.0 **** 0.0
2 H 94.736 94.685 38.777 H 0.0 **** 0.0
3 H 94.886 94.642 40.55 H 0.0 **** 0.0
4 H 94.556 96.183 39.722 H 0.0 **** 0.0
5 H 96.154 95.414 39.567 H 0.0 **** 0.0
@<TRIPOS>BOND
1 1 2 1
2 1 3 1
3 1 4 1
4 1 5 1
@<TRIPOS>MOLECULE
CH4
5 4
SMALL
USER_CHARGES


@<TRIPOS>ATOM
1 C 92.814 65.341 35.1 C 0.0 **** 0.0
2 H 92.471 66.05 34.347 H 0.0 **** 0.0
3 H 93.793 65.649 35.469 H 0.0 **** 0.0
4 H 92.889 64.348 34.655 H 0.0 **** 0.0
5 H 92.105 65.316 35.927 H 0.0 **** 0.0
@<TRIPOS>BOND
1 1 2 1
2 1 3 1
3 1 4 1
4 1 5 1
@<TRIPOS>MOLECULE
CH4
5 4
SMALL
USER_CHARGES


@<TRIPOS>ATOM
1 C 48.973 46.852 2.666 C 0.0 **** 0.0
2 H 48.91 47.271 3.67 H 0.0 **** 0.0
3 H 49.991 46.959 2.291 H 0.0 **** 0.0
4 H 48.285 47.382 2.007 H 0.0 **** 0.0
5 H 48.706 45.795 2.696 H 0.0 **** 0.0
@<TRIPOS>BOND
1 1 2 1
2 1 3 1
3 1 4 1
4 1 5 1
@<TRIPOS>MOLECULE
CH4
5 4
SMALL
USER_CHARGES


@<TRIPOS>ATOM
1 C 95.396 79.763 5.509 C 0.0 **** 0.0
2 H 95.131 78.715 5.37 H 0.0 **** 0.0
3 H 95.536 79.964 6.571 H 0.0 **** 0.0
4 H 94.595 80.394 5.122 H 0.0 **** 0.0
5 H 96.32 79.979 4.972 H 0.0 **** 0.0
@<TRIPOS>BOND
1 1 2 1
2 1 3 1
3 1 4 1
4 1 5 1
@<TRIPOS>MOLECULE
CH4
5 4
SMALL
USER_CHARGES


@<TRIPOS>ATOM
1 C 49.589 51.938 9.41 C 0.0 **** 0.0
2 H 50.176 52.546 10.099 H 0.0 **** 0.0
3 H 49.161 51.092 9.947 H 0.0 **** 0.0
4 H 50.232 51.574 8.609 H 0.0 **** 0.0
5 H 48.787 52.543 8.986 H 0.0 **** 0.0
@<TRIPOS>BOND
1 1 4 1
2 1 5 1
3 1 2 1
4 1 3 1
@<TRIPOS>MOLECULE
CH4
5 4
SMALL
USER_CHARGES


@<TRIPOS>ATOM
1 C 69.201 92.344 41.343 C 0.0 **** 0.0
2 H 69.135 91.784 42.276 H 0.0 **** 0.0
3 H 68.21 92.697 41.06 H 0.0 **** 0.0
4 H 69.594 91.696 40.558 H 0.0 **** 0.0
5 H 69.867 93.196 41.477 H 0.0 **** 0.0
@<TRIPOS>BOND
1 1 2 1
2 1 3 1
3 1 4 1
4 1 5 1
@<TRIPOS>MOLECULE
CH4
5 4
SMALL
USER_CHARGES


@<TRIPOS>ATOM
1 C 46.372 47.391 51.334 C 0.0 **** 0.0
2 H 47.182 47.93 51.826 H 0.0 **** 0.0
3 H 46.243 47.774 50.321 H 0.0 **** 0.0
4 H 45.449 47.531 51.895 H 0.0 **** 0.0
5 H 46.615 46.329 51.293 H 0.0 **** 0.0
@<TRIPOS>BOND
1 1 2 1
2 1 3 1
3 1 4 1
4 1 5 1
@<TRIPOS>MOLECULE
CH4
5 4
SMALL
USER_CHARGES


@<TRIPOS>ATOM
1 C 76.03 4.695 18.663 C 0.0 **** 0.0
2 H 75.504 4.376 19.563 H 0.0 **** 0.0
3 H 75.84 5.755 18.489 H 0.0 **** 0.0
4 H 75.674 4.117 17.81 H 0.0 **** 0.0
5 H 77.1 4.534 18.792 H 0.0 **** 0.0
@<TRIPOS>BOND
1 1 2 1
2 1 3 1
3 1 4 1
4 1 5 1
@<TRIPOS>MOLECULE
CH4
5 4
SMALL
USER_CHARGES


@<TRIPOS>ATOM
1 C 50.62 45.208 81.906 C 0.0 **** 0.0
2 H 50.355 45.504 80.892 H 0.0 **** 0.0
3 H 49.955 44.411 82.238 H 0.0 **** 0.0
4 H 50.52 46.065 82.573 H 0.0 **** 0.0
5 H 51.65 44.853 81.923 H 0.0 **** 0.0
@<TRIPOS>BOND
1 1 2 1
2 1 3 1
3 1 4 1
4 1 5 1
@<TRIPOS>MOLECULE
CH4
5 4
SMALL
USER_CHARGES


@<TRIPOS>ATOM
1 C 40.931 50.282 80.777 C 0.0 **** 0.0
2 H 40.663 50.117 79.733 H 0.0 **** 0.0
3 H 41.299 49.352 81.209 H 0.0 **** 0.0
4 H 40.052 50.617 81.328 H 0.0 **** 0.0
5 H 41.709 51.044 80.836 H 0.0 **** 0.0
@<TRIPOS>BOND
1 1 2 1
2 1 3 1
3 1 4 1
4 1 5 1
@<TRIPOS>MOLECULE
CH4
5 4
SMALL
USER_CHARGES


@<TRIPOS>ATOM
1 C 3.49 92.313 65.778 C 0.0 **** 0.0
2 H 3.459 93.351 65.449 H 0.0 **** 0.0
3 H 4.443 91.869 65.488 H 0.0 **** 0.0
4 H 2.675 91.76 65.312 H 0.0 **** 0.0
5 H 3.385 92.272 66.862 H 0.0 **** 0.0
@<TRIPOS>BOND
1 1 2 1
2 1 3 1
3 1 4 1
4 1 5 1
@<TRIPOS>MOLECULE
CH4
5 4
SMALL
USER_CHARGES


@<TRIPOS>ATOM
1 C 76.832 91.9 3.857 C 0.0 **** 0.0
2 H 76.994 92.652 4.63 H 0.0 **** 0.0
3 H 77.78 91.673 3.368 H 0.0 **** 0.0
4 H 76.125 92.282 3.121 H 0.0 **** 0.0
5 H 76.43 90.994 4.311 H 0.0 **** 0.0
@<TRIPOS>BOND
1 1 2 1
2 1 3 1
3 1 4 1
4 1 5 1
@<TRIPOS>MOLECULE
CH4
5 4
SMALL
USER_CHARGES


@<TRIPOS>ATOM
1 C 64.24 60.696 86.735 C 0.0 **** 0.0
2 H 64.328 61.314 87.629 H 0.0 **** 0.0
3 H 64.96 61.033 85.989 H 0.0 **** 0.0
4 H 63.231 60.783 86.332 H 0.0 **** 0.0
5 H 64.441 59.656 86.991 H 0.0 **** 0.0
@<TRIPOS>BOND
1 1 2 1
2 1 3 1
3 1 4 1
4 1 5 1
@<TRIPOS>MOLECULE
CH4
5 4
SMALL
USER_CHARGES


@<TRIPOS>ATOM
1 C 36.756 12.955 97.818 C 0.0 **** 0.0
2 H 36.664 13.866 98.409 H 0.0 **** 0.0
3 H 37.357 13.157 96.931 H 0.0 **** 0.0
4 H 35.765 12.617 97.516 H 0.0 **** 0.0
5 H 37.238 12.181 98.416 H 0.0 **** 0.0
@<TRIPOS>BOND
1 1 2 1
2 1 3 1
3 1 4 1
4 1 5 1
@<TRIPOS>MOLECULE
CH4
5 4
SMALL
USER_CHARGES


@<TRIPOS>ATOM
1 C 10.271 88.64 50.654 C 0.0 **** 0.0
2 H 10.258 88.642 49.564 H 0.0 **** 0.0
3 H 10.295 89.667 51.019 H 0.0 **** 0.0
4 H 11.156 88.108 51.004 H 0.0 **** 0.0
5 H 9.377 88.141 51.026 H 0.0 **** 0.0
@<TRIPOS>BOND
1 1 2 1
2 1 3 1
3 1 4 1
4 1 5 1
@<TRIPOS>MOLECULE
CH4
5 4
SMALL
USER_CHARGES


@<TRIPOS>ATOM
1 C 89.385 23.013 81.619 C 0.0 **** 0.0
2 H 88.384 23.032 82.05 H 0.0 **** 0.0
3 H 89.359 22.486 80.665 H 0.0 **** 0.0
4 H 90.064 22.501 82.3 H 0.0 **** 0.0
5 H 89.731 24.035 81.461 H 0.0 **** 0.0
@<TRIPOS>BOND
1 1 2 1
2 1 3 1
3 1 4 1
4 1 5 1
@<TRIPOS>MOLECULE
CH4
5 4
SMALL
USER_CHARGES


@<TRIPOS>ATOM
1 C 47.558 46.664 37.397 C 0.0 **** 0.0
2 H 47.631 46.75 38.481 H 0.0 **** 0.0
3 H 48.422 46.117 37.017 H 0.0 **** 0.0
4 H 47.535 47.66 36.954 H 0.0 **** 0.0
5 H 46.645 46.129 37.136 H 0.0 **** 0.0
@<TRIPOS>BOND
1 1 2 1
2 1 3 1
3 1 4 1
4 1 5 1
@<TRIPOS>MOLECULE
CH4
5 4
SMALL
USER_CHARGES


@<TRIPOS>ATOM
1 C 16.705 55.437 88.479 C 0.0 **** 0.0
2 H 16.716 55.419 87.389 H 0.0 **** 0.0
3 H 17.683 55.75 88.847 H 0.0 **** 0.0
4 H 16.477 54.44 88.856 H 0.0 **** 0.0
5 H 15.945 56.139 88.823 H 0.0 **** 0.0
@<TRIPOS>BOND
1 1 2 1
2 1 3 1
3 1 4 1
4 1 5 1
@<TRIPOS>MOLECULE
CH4
5 4
SMALL
USER_CHARGES


@<TRIPOS>ATOM
1 C 24.853 50.044 24.198 C 0.0 **** 0.0
2 H 25.614 50.502 24.83 H 0.0 **** 0.0
3 H 24.522 49.108 24.649 H 0.0 **** 0.0
4 H 25.272 49.844 23.212 H 0.0 **** 0.0
5 H 24.004 50.721 24.102 H 0.0 **** 0.0
@<TRIPOS>BOND
1 1 2 1
2 1 3 1
3 1 4 1
4 1 5 1
@<TRIPOS>MOLECULE
CH4
5 4
SMALL
USER_CHARGES


@<TRIPOS>ATOM
1 C 56.835 84.173 40.992 C 0.0 **** 0.0
2 H 57.762 84.645 40.665 H 0.0 **** 0.0
3 H 56.907 83.094 40.848 H 0.0 **** 0.0
4 H 56.003 84.563 40.407 H 0.0 **** 0.0
5 H 56.671 84.389 42.048 H 0.0 **** 0.0
@<TRIPOS>BOND
1 1 2 1
2 1 3 1
3 1 4 1
4 1 5 1
@<TRIPOS>MOLECULE
CH4
5 4
SMALL
USER_CHARGES


@<TRIPOS>ATOM
1 C 90.494 76.276 53.781 C 0.0 **** 0.0
2 H 90.258 76.41 52.725 H 0.0 **** 0.0
3 H 90.228 77.179 54.33 H 0.0 **** 0.0
4 H 91.561 76.084 53.892 H 0.0 **** 0.0
5 H 89.929 75.431 54.174 H 0.0 **** 0.0
@<TRIPOS>BOND
1 1 2 1
2 1 3 1
3 1 4 1
4 1 5 1
@<TRIPOS>MOLECULE
CH4
5 4
SMALL
USER_CHARGES


@<TRIPOS>ATOM
1 C 43.007 75.745 49.174 C 0.0 **** 0.0
2 H 43.816 75.593 49.888 H 0.0 **** 0.0
3 H 43.172 76.675 48.63 H 0.0 **** 0.0
4 H 42.058 75.799 49.707 H 0.0 **** 0.0
5 H 42.981 74.912 48.471 H 0.0 **** 0.0
@<TRIPOS>BOND
1 1 3 1
2 1 4 1
3 1 5 1
4 1 2 1
@<TRIPOS>MOLECULE
CH4
5 4
SMALL
USER_CHARGES


@<TRIPOS>ATOM
1 C 12.067 95.024 21.737 C 0.0 **** 0.0
2 H 13.098 95.085 21.389 H 0.0 **** 0.0
3 H 11.39 95.21 20.903 H 0.0 **** 0.0
4 H 11.901 95.772 22.513 H 0.0 **** 0.0
5 H 11.878 94.031 22.144 H 0.0 **** 0.0
@<TRIPOS>BOND
1 1 2 1
2 1 3 1
3 1 4 1
4 1 5 1
@<TRIPOS>MOLECULE
CH4
5 4
SMALL
USER_CHARGES


@<TRIPOS>ATOM
1 C 75.089 9.585 15.467 C 0.0 **** 0.0
2 H 75.893 8.961 15.858 H 0.0 **** 0.0
3 H 75.489 10.259 14.71 H 0.0 **** 0.0
4 H 74.655 10.167 16.28 H 0.0 **** 0.0
5 H 74.321 8.952 15.023 H 0.0 **** 0.0
@<TRIPOS>BOND
1 1 2 1
2 1 3 1
3 1 4 1
4 1 5 1
@<TRIPOS>MOLECULE
CH4
5 4
SMALL
USER_CHARGES


@<TRIPOS>ATOM
1 C 41.64 75.656 97.475 C 0.0 **** 0.0
2 H 41.923 76.085 96.514 H 0.0 **** 0.0
3 H 41.246 76.442 98.121 H 0.0 **** 0.0
4 H 42.515 75.205 97.943 H 0.0 **** 0.0
5 H 40.876 74.894 97.322 H 0.0 **** 0.0
@<TRIPOS>BOND
1 1 2 1
2 1 3 1
3 1 4 1
4 1 5 1
@<TRIPOS>MOLECULE
CH4
5 4
SMALL
USER_CHARGES


@<TRIPOS>ATOM
1 C 17.106 69.802 76.24 C 0.0 **** 0.0
2 H 17.478 70.75 76.628 H 0.0 **** 0.0
3 H 17.9 69.301 75.685 H 0.0 **** 0.0
4 H 16.261 69.988 75.577 H 0.0 **** 0.0
5 H 16.786 69.171 77.069 H 0.0 **** 0.0
@<TRIPOS>BOND
1 1 2 1
2 1 3 1
3 1 4 1
4 1 5 1
@<TRIPOS>MOLECULE
CH4
5 4
SMALL
USER_CHARGES


@<TRIPOS>ATOM
1 C 17.464 57.885 77.638 C 0.0 **** 0.0
2 H 17.103 58.897 77.823 H 0.0 **** 0.0
3 H 17.095 57.539 76.672 H 0.0 **** 0.0
4 H 17.102 57.222 78.424 H 0.0 **** 0.0
5 H 18.554 57.883 77.634 H 0.0 **** 0.0
@<TRIPOS>BOND
1 1 2 1
2 1 3 1
3 1 4 1
4 1 5 1
@<TRIPOS>MOLECULE
CH4
5 4
SMALL
USER_CHARGES


@<TRIPOS>ATOM
1 C 53.192 45.785 74.664 C 0.0 **** 0.0
2 H 52.574 44.986 74.255 H 0.0 **** 0.0
3 H 53.042 46.695 74.082 H 0.0 **** 0.0
4 H 54.241 45.493 74.617 H 0.0 **** 0.0
5 H 52.912 45.966 75.702 H 0.0 **** 0.0
@<TRIPOS>BOND
1 1 2 1
2 1 3 1
3 1 4 1
4 1 5 1
@<TRIPOS>MOLECULE
CH4
5 4
SMALL
USER_CHARGES


@<TRIPOS>ATOM
1 C 90.224 6.967 37.484 C 0.0 **** 0.0
2 H 91.025 6.273 37.229 H 0.0 **** 0.0
3 H 89.735 6.636 38.4 H 0.0 **** 0.0
4 H 89.497 6.996 36.673 H 0.0 **** 0.0
5 H 90.641 7.963 37.634 H 0.0 **** 0.0
@<TRIPOS>BOND
1 1 2 1
2 1 3 1
3 1 4 1
4 1 5 1
@<TRIPOS>MOLECULE
CH4
5 4
SMALL
USER_CHARGES


@<TRIPOS>ATOM
1 C 67.768 7.38 19.936 C 0.0 **** 0.0
2 H 67.981 7.049 18.919 H 0.0 **** 0.0
3 H 68.557 7.035 20.603 H 0.0 **** 0.0
4 H 66.812 6.966 20.258 H 0.0 **** 0.0
5 H 67.72 8.468 19.961 H 0.0 **** 0.0
@<TRIPOS>BOND
1 1 2 1
2 1 3 1
3 1 4 1
4 1 5 1
@<TRIPOS>MOLECULE
CH4
5 4
SMALL
USER_CHARGES


@<TRIPOS>ATOM
1 C 57.705 46.078 44.623 C 0.0 **** 0.0
2 H 57.835 45.566 43.669 H 0.0 **** 0.0
3 H 58.083 45.448 45.428 H 0.0 **** 0.0
4 H 56.646 46.279 44.785 H 0.0 **** 0.0
5 H 58.255 47.019 44.608 H 0.0 **** 0.0
@<TRIPOS>BOND
1 1 2 1
2 1 3 1
3 1 4 1
4 1 5 1
@<TRIPOS>MOLECULE
CH4
5 4
SMALL
USER_CHARGES


@<TRIPOS>ATOM
1 C 25.133 21.906 52.816 C 0.0 **** 0.0
2 H 24.84 22.699 52.129 H 0.0 **** 0.0
3 H 26.064 21.453 52.473 H 0.0 **** 0.0
4 H 24.35 21.147 52.849 H 0.0 **** 0.0
5 H 25.277 22.323 53.813 H 0.0 **** 0.0
@<TRIPOS>BOND
1 1 2 1
2 1 3 1
3 1 4 1
4 1 5 1
@<TRIPOS>MOLECULE
CH4
5 4
SMALL
USER_CHARGES


@<TRIPOS>ATOM
1 C 14.681 1.842 97.162 C 0.0 **** 0.0
2 H 14.674 1.842 96.073 H 0.0 **** 0.0
3 H 15.085 0.896 97.523 H 0.0 **** 0.0
4 H 13.663 1.967 97.532 H 0.0 **** 0.0
5 H 15.301 2.663 97.521 H 0.0 **** 0.0
@<TRIPOS>BOND
1 1 2 1
2 1 3 1
3 1 4 1
4 1 5 1
@<TRIPOS>MOLECULE
CH4
5 4
SMALL
USER_CHARGES


@<TRIPOS>ATOM
1 C 92.881 29.432 28.345 C 0.0 **** 0.0
2 H 92.824 28.734 27.51 H 0.0 **** 0.0
3 H 92.208 30.27 28.165 H 0.0 **** 0.0
4 H 93.903 29.8 28.44 H 0.0 **** 0.0
5 H 92.592 28.923 29.264 H 0.0 **** 0.0
@<TRIPOS>BOND
1 1 2 1
2 1 3 1
3 1 4 1
4 1 5 1
@<TRIPOS>MOLECULE
CH4
5 4
SMALL
USER_CHARGES


@<TRIPOS>ATOM
1 C 8.838 12.58 43.513 C 0.0 **** 0.0
2 H 8.836 12.58 42.423 H 0.0 **** 0.0
3 H 8.087 11.878 43.877 H 0.0 **** 0.0
4 H 8.607 13.581 43.876 H 0.0 **** 0.0
5 H 9.821 12.28 43.874 H 0.0 **** 0.0
@<TRIPOS>BOND
1 1 2 1
2 1 3 1
3 1 4 1
4 1 5 1
@<TRIPOS>MOLECULE
CH4
5 4
SMALL
USER_CHARGES


@<TRIPOS>ATOM
1 C 81.113 53.079 68.595 C 0.0 **** 0.0
2 H 81.735 53.608 69.317 H 0.0 **** 0.0
3 H 81.04 52.029 68.879 H 0.0 **** 0.0
4 H 81.562 53.157 67.604 H 0.0 **** 0.0
5 H 80.118 53.522 68.579 H 0.0 **** 0.0
@<TRIPOS>BOND
1 1 2 1
2 1 3 1
3 1 4 1
4 1 5 1
@<TRIPOS>MOLECULE
CH4
5 4
SMALL
USER_CHARGES


@<TRIPOS>ATOM
1 C 58.705 80.537 57.984 C 0.0 **** 0.0
2 H 59.396 81.27 57.567 H 0.0 **** 0.0
3 H 57.687 80.923 57.923 H 0.0 **** 0.0
4 H 58.961 80.349 59.027 H 0.0 **** 0.0
5 H 58.776 79.608 57.419 H 0.0 **** 0.0
@<TRIPOS>BOND
1 1 2 1
2 1 3 1
3 1 4 1
4 1 5 1
@<TRIPOS>MOLECULE
CH4
5 4
SMALL
USER_CHARGES


@<TRIPOS>ATOM
1 C 73.218 9.884 22.089 C 0.0 **** 0.0
2 H 73.232 9.948 21.001 H 0.0 **** 0.0
3 H 72.944 10.852 22.507 H 0.0 **** 0.0
4 H 74.208 9.6 22.448 H 0.0 **** 0.0
5 H 72.49 9.134 22.399 H 0.0 **** 0.0
@<TRIPOS>BOND
1 1 2 1
2 1 3 1
3 1 4 1
4 1 5 1
@<TRIPOS>MOLECULE
CH4
5 4
SMALL
USER_CHARGES


@<TRIPOS>ATOM
1 C 43.142 49.547 95.116 C 0.0 **** 0.0
2 H 43.277 50.042 94.154 H 0.0 **** 0.0
3 H 43.921 48.797 95.251 H 0.0 **** 0.0
4 H 42.165 49.064 95.141 H 0.0 **** 0.0
5 H 43.203 50.284 95.916 H 0.0 **** 0.0
@<TRIPOS>BOND
1 1 2 1
2 1 3 1
3 1 4 1
4 1 5 1
@<TRIPOS>MOLECULE
CH4
5 4
SMALL
USER_CHARGES


@<TRIPOS>ATOM
1 C 97.435 68.322 84.383 C 0.0 **** 0.0
2 H 97.771 67.364 84.78 H 0.0 **** 0.0
3 H 96.345 68.353 84.383 H 0.0 **** 0.0
4 H 97.803 68.442 83.364 H 0.0 **** 0.0
5 H 97.822 69.129 85.006 H 0.0 **** 0.0
@<TRIPOS>BOND
1 1 2 1
2 1 3 1
3 1 4 1
4 1 5 1
@<TRIPOS>MOLECULE
CH4
5 4
SMALL
USER_CHARGES


@<TRIPOS>ATOM
1 C 43.174 16.546 92.154 C 0.0 **** 0.0
2 H 43.06 16.536 91.07 H 0.0 **** 0.0
3 H 42.933 15.56 92.553 H 0.0 **** 0.0
4 H 42.499 17.287 92.583 H 0.0 **** 0.0
5 H 44.202 16.8 92.409 H 0.0 **** 0.0
@<TRIPOS>BOND
1 1 2 1
2 1 3 1
3 1 4 1
4 1 5 1
@<TRIPOS>MOLECULE
CH4
5 4
SMALL
USER_CHARGES


@<TRIPOS>ATOM
1 C 80.382 75.882 48.027 C 0.0 **** 0.0
2 H 80.813 76.21 48.972 H 0.0 **** 0.0
3 H 80.62 74.83 47.865 H 0.0 **** 0.0
4 H 80.794 76.478 47.213 H 0.0 **** 0.0
5 H 79.3 76.008 48.058 H 0.0 **** 0.0
@<TRIPOS>BOND
1 1 2 1
2 1 3 1
3 1 4 1
4 1 5 1
@<TRIPOS>MOLECULE
CH4
5 4
SMALL
USER_CHARGES


@<TRIPOS>ATOM
1 C 0.671 35.664 79.555 C 0.0 **** 0.0
2 H 0.094 34.789 79.852 H 0.0 **** 0.0
3 H 1.442 35.366 78.844 H 0.0 **** 0.0
4 H 1.138 36.107 80.434 H 0.0 **** 0.0
5 H 0.009 36.394 79.089 H 0.0 **** 0.0
@<TRIPOS>BOND
1 1 2 1
2 1 3 1
3 1 4 1
4 1 5 1
@<TRIPOS>MOLECULE
CH4
5 4
SMALL
USER_CHARGES


@<TRIPOS>ATOM
1 C 57.01 95.476 90.618 C 0.0 **** 0.0
2 H 56.607 94.641 90.044 H 0.0 **** 0.0
3 H 56.875 95.284 91.682 H 0.0 **** 0.0
4 H 56.485 96.391 90.344 H 0.0 **** 0.0
5 H 58.072 95.588 90.4 H 0.0 **** 0.0
@<TRIPOS>BOND
1 1 2 1
2 1 3 1
3 1 4 1
4 1 5 1
@<TRIPOS>MOLECULE
CH4
5 4
SMALL
USER_CHARGES


@<TRIPOS>ATOM
1 C 94.186 88.898 61.77 C 0.0 **** 0.0
2 H 94.141 89.353 60.781 H 0.0 **** 0.0
3 H 93.348 89.252 62.371 H 0.0 **** 0.0
4 H 95.123 89.172 62.254 H 0.0 **** 0.0
5 H 94.131 87.813 61.674 H 0.0 **** 0.0
@<TRIPOS>BOND
1 1 2 1
2 1 3 1
3 1 4 1
4 1 5 1
@<TRIPOS>MOLECULE
CH4
5 4
SMALL
USER_CHARGES


@<TRIPOS>ATOM
1 C 95.979 33.09 27.159 C 0.0 **** 0.0
2 H 95.562 32.715 28.094 H 0.0 **** 0.0
3 H 95.192 33.571 26.578 H 0.0 **** 0.0
4 H 96.395 32.259 26.589 H 0.0 **** 0.0
5 H 96.765 33.812 27.376 H 0.0 **** 0.0
@<TRIPOS>BOND
1 1 2 1
2 1 3 1
3 1 4 1
4 1 5 1
@<TRIPOS>MOLECULE
CH4
5 4
SMALL
USER_CHARGES


@<TRIPOS>ATOM
1 C 32.958 70.719 21.096 C 0.0 **** 0.0
2 H 33.275 70.516 22.119 H 0.0 **** 0.0
3 H 31.969 70.292 20.931 H 0.0 **** 0.0
4 H 33.668 70.273 20.4 H 0.0 **** 0.0
5 H 32.921 71.797 20.936 H 0.0 **** 0.0
@<TRIPOS>BOND
1 1 2 1
2 1 3 1
3 1 4 1
4 1 5 1
@<TRIPOS>MOLECULE
CH4
5 4
SMALL
USER_CHARGES


@<TRIPOS>ATOM
1 C 13.494 1.676 1.701 C 0.0 **** 0.0
2 H 13.405 1.924 0.644 H 0.0 **** 0.0
3 H 14.371 1.047 1.854 H 0.0 **** 0.0
4 H 12.601 1.141 2.025 H 0.0 **** 0.0
5 H 13.599 2.593 2.281 H 0.0 **** 0.0
@<TRIPOS>BOND
1 1 2 1
2 1 3 1
3 1 4 1
4 1 5 1
@<TRIPOS>MOLECULE
CH4
5 4
SMALL
USER_CHARGES


@<TRIPOS>ATOM
1 C 59.458 69.264 39.212 C 0.0 **** 0.0
2 H 59.828 68.535 38.492 H 0.0 **** 0.0
3 H 58.376 69.167 39.303 H 0.0 **** 0.0
4 H 59.705 70.269 38.872 H 0.0 **** 0.0
5 H 59.922 69.084 40.182 H 0.0 **** 0.0
@<TRIPOS>BOND
1 1 2 1
2 1 3 1
3 1 4 1
4 1 5 1
@<TRIPOS>MOLECULE
CH4
5 4
SMALL
USER_CHARGES


@<TRIPOS>ATOM
1 C 76.977 8.751 79.715 C 0.0 **** 0.0
2 H 77.512 8.901 80.653 H 0.0 **** 0.0
3 H 76.294 9.585 79.549 H 0.0 **** 0.0
4 H 76.41 7.821 79.764 H 0.0 **** 0.0
5 H 77.692 8.698 78.894 H 0.0 **** 0.0
@<TRIPOS>BOND
1 1 2 1
2 1 3 1
3 1 4 1
4 1 5 1
@<TRIPOS>MOLECULE
CH4
5 4
SMALL
USER_CHARGES


@<TRIPOS>ATOM
1 C 67.266 82.105 40.063 C 0.0 **** 0.0
2 H 67.355 81.434 39.209 H 0.0 **** 0.0
3 H 66.359 82.702 39.963 H 0.0 **** 0.0
4 H 68.133 82.764 40.098 H 0.0 **** 0.0
5 H 67.217 81.52 40.981 H 0.0 **** 0.0
@<TRIPOS>BOND
1 1 2 1
2 1 3 1
3 1 4 1
4 1 5 1
@<TRIPOS>MOLECULE
CH4
5 4
SMALL
USER_CHARGES


@<TRIPOS>ATOM
1 C 91.145 90.602 3.168 C 0.0 **** 0.0
2 H 90.833 91.386 3.859 H 0.0 **** 0.0
3 H 90.64 89.67 3.425 H 0.0 **** 0.0
4 H 92.224 90.464 3.24 H 0.0 **** 0.0
5 H 90.882 90.89 2.15 H 0.0 **** 0.0
@<TRIPOS>BOND
1 1 2 1
2 1 3 1
3 1 4 1
4 1 5 1
@<TRIPOS>MOLECULE
CH4
5 4
SMALL
USER_CHARGES


@<TRIPOS>ATOM
1 C 23.779 72.97 1.385 C 0.0 **** 0.0
2 H 24.437 73.342 2.171 H 0.0 **** 0.0
3 H 22.742 73.046 1.713 H 0.0 **** 0.0
4 H 24.019 71.928 1.174 H 0.0 **** 0.0
5 H 23.92 73.565 0.482 H 0.0 **** 0.0
@<TRIPOS>BOND
1 1 2 1
2 1 3 1
3 1 4 1
4 1 5 1
@<TRIPOS>MOLECULE
CH4
5 4
SMALL
USER_CHARGES


@<TRIPOS>ATOM
1 C 41.692 9.087 9.348 C 0.0 **** 0.0
2 H 42.138 8.242 8.823 H 0.0 **** 0.0
3 H 41.186 9.734 8.631 H 0.0 **** 0.0
4 H 42.473 9.65 9.858 H 0.0 **** 0.0
5 H 40.972 8.72 10.079 H 0.0 **** 0.0
@<TRIPOS>BOND
1 1 2 1
2 1 3 1
3 1 4 1
4 1 5 1
@<TRIPOS>MOLECULE
CH4
5 4
SMALL
USER_CHARGES


@<TRIPOS>ATOM
1 C 76.288 57.553 8.321 C 0.0 **** 0.0
2 H 75.604 57.157 7.571 H 0.0 **** 0.0
3 H 76.336 56.868 9.167 H 0.0 **** 0.0
4 H 75.931 58.526 8.66 H 0.0 **** 0.0
5 H 77.281 57.663 7.885 H 0.0 **** 0.0
@<TRIPOS>BOND
1 1 2 1
2 1 3 1
3 1 4 1
4 1 5 1
@<TRIPOS>MOLECULE
CH4
5 4
SMALL
USER_CHARGES


@<TRIPOS>ATOM
1 C 48.505 77.37 20.298 C 0.0 **** 0.0
2 H 48.348 76.953 21.293 H 0.0 **** 0.0
3 H 47.876 76.843 19.58 H 0.0 **** 0.0
4 H 49.552 77.255 20.018 H 0.0 **** 0.0
5 H 48.244 78.428 20.303 H 0.0 **** 0.0
@<TRIPOS>BOND
1 1 2 1
2 1 3 1
3 1 4 1
4 1 5 1
@<TRIPOS>MOLECULE
CH4
5 4
SMALL
USER_CHARGES


@<TRIPOS>ATOM
1 C 85.539 62.054 65.863 C 0.0 **** 0.0
2 H 84.555 62.265 66.28 H 0.0 **** 0.0
3 H 85.433 61.403 64.995 H 0.0 **** 0.0
4 H 86.154 61.56 66.615 H 0.0 **** 0.0
5 H 86.014 62.988 65.561 H 0.0 **** 0.0
@<TRIPOS>BOND
1 1 2 1
2 1 3 1
3 1 4 1
4 1 5 1
@<TRIPOS>MOLECULE
CH4
5 4
SMALL
USER_CHARGES


@<TRIPOS>ATOM
1 C 93.186 74.319 25.404 C 0.0 **** 0.0
2 H 92.904 74.936 24.551 H 0.0 **** 0.0
3 H 94.267 74.36 25.541 H 0.0 **** 0.0
4 H 92.881 73.288 25.225 H 0.0 **** 0.0
5 H 92.692 74.693 26.301 H 0.0 **** 0.0
@<TRIPOS>BOND
1 1 2 1
2 1 3 1
3 1 4 1
4 1 5 1
@<TRIPOS>MOLECULE
CH4
5 4
SMALL
USER_CHARGES


@<TRIPOS>ATOM
1 C 31.606 65.857 63.994 C 0.0 **** 0.0
2 H 31.994 66.575 64.717 H 0.0 **** 0.0
3 H 32.432 65.29 63.565 H 0.0 **** 0.0
4 H 31.08 66.39 63.202 H 0.0 **** 0.0
5 H 30.917 65.176 64.493 H 0.0 **** 0.0
@<TRIPOS>BOND
1 1 2 1
2 1 3 1
3 1 4 1
4 1 5 1
@<TRIPOS>MOLECULE
CH4
5 4
SMALL
USER_CHARGES


@<TRIPOS>ATOM
1 C 77.651 73.286 94.037 C 0.0 **** 0.0
2 H 78.638 73.243 94.5 H 0.0 **** 0.0
3 H 77.3 74.318 94.027 H 0.0 **** 0.0
4 H 76.956 72.671 94.608 H 0.0 **** 0.0
5 H 77.713 72.913 93.015 H 0.0 **** 0.0
@<TRIPOS>BOND
1 1 2 1
2 1 3 1
3 1 4 1
4 1 5 1
@<TRIPOS>MOLECULE
CH4
5 4
SMALL
USER_CHARGES


@<TRIPOS>ATOM
1 C 60.527 40.842 17.015 C 0.0 **** 0.0
2 H 60.35 39.831 16.649 H 0.0 **** 0.0
3 H 60.731 40.81 18.085 H 0.0 **** 0.0
4 H 59.644 41.454 16.831 H 0.0 **** 0.0
5 H 61.382 41.272 16.494 H 0.0 **** 0.0
@<TRIPOS>BOND
1 1 2 1
2 1 3 1
3 1 4 1
4 1 5 1
@<TRIPOS>MOLECULE
CH4
5 4
SMALL
USER_CHARGES


@<TRIPOS>ATOM
1 C 48.039 10.822 26.06 C 0.0 **** 0.0
2 H 48.081 11.909 25.992 H 0.0 **** 0.0
3 H 47.024 10.484 25.851 H 0.0 **** 0.0
4 H 48.326 10.511 27.065 H 0.0 **** 0.0
5 H 48.724 10.386 25.334 H 0.0 **** 0.0
@<TRIPOS>BOND
1 1 2 1
2 1 3 1
3 1 4 1
4 1 5 1
@<TRIPOS>MOLECULE
CH4
5 4
SMALL
USER_CHARGES


@<TRIPOS>ATOM
1 C 51.897 32.572 73.756 C 0.0 **** 0.0
2 H 51.77 32.714 72.683 H 0.0 **** 0.0
3 H 52.958 32.601 74.003 H 0.0 **** 0.0
4 H 51.482 31.606 74.045 H 0.0 **** 0.0
5 H 51.377 33.366 74.292 H 0.0 **** 0.0
@<TRIPOS>BOND
1 1 2 1
2 1 3 1
3 1 4 1
4 1 5 1
@<TRIPOS>MOLECULE
CH4
5 4
SMALL
USER_CHARGES


@<TRIPOS>ATOM
1 C 61.34 92.252 26.447 C 0.0 **** 0.0
2 H 61.355 92.297 25.358 H 0.0 **** 0.0
3 H 60.981 93.202 26.844 H 0.0 **** 0.0
4 H 62.347 92.059 26.816 H 0.0 **** 0.0
5 H 60.675 91.45 26.767 H 0.0 **** 0.0
@<TRIPOS>BOND
1 1 2 1
2 1 3 1
3 1 4 1
4 1 5 1
@<TRIPOS>MOLECULE
CH4
5 4
SMALL
USER_CHARGES


@<TRIPOS>ATOM
1 C 52.823 67.258 73.109 C 0.0 **** 0.0
2 H 52.626 67.043 72.058 H 0.0 **** 0.0
3 H 52.98 68.329 73.237 H 0.0 **** 0.0
4 H 53.715 66.719 73.428 H 0.0 **** 0.0
5 H 51.972 66.94 73.71 H 0.0 **** 0.0
@<TRIPOS>BOND
1 1 2 1
2 1 3 1
3 1 4 1
4 1 5 1
@<TRIPOS>MOLECULE
CH4
5 4
SMALL
USER_CHARGES


@<TRIPOS>ATOM
1 C 2.899 96.2 47.154 C 0.0 **** 0.0
2 H 3.061 96.063 46.085 H 0.0 **** 0.0
3 H 2.207 97.028 47.313 H 0.0 **** 0.0
4 H 3.849 96.422 47.639 H 0.0 **** 0.0
5 H 2.478 95.288 47.577 H 0.0 **** 0.0
@<TRIPOS>BOND
1 1 2 1
2 1 3 1
3 1 4 1
4 1 5 1
@<TRIPOS>MOLECULE
CH4
5 4
SMALL
USER_CHARGES


@<TRIPOS>ATOM
1 C 31.264 53.388 95.637 C 0.0 **** 0.0
2 H 32.025 53.106 96.364 H 0.0 **** 0.0
3 H 31.298 54.466 95.477 H 0.0 **** 0.0
4 H 30.28 53.107 96.014 H 0.0 **** 0.0
5 H 31.452 52.874 94.695 H 0.0 **** 0.0
@<TRIPOS>BOND
1 1 2 1
2 1 3 1
3 1 4 1
4 1 5 1
@<TRIPOS>MOLECULE
CH4
5 4
SMALL
USER_CHARGES


@<TRIPOS>ATOM
1 C 92.123 78.733 8.791 C 0.0 **** 0.0
2 H 92.219 77.992 7.997 H 0.0 **** 0.0
3 H 91.192 79.284 8.663 H 0.0 **** 0.0
4 H 92.965 79.424 8.745 H 0.0 **** 0.0
5 H 92.119 78.23 9.758 H 0.0 **** 0.0
@<TRIPOS>BOND
1 1 2 1
2 1 3 1
3 1 4 1
4 1 5 1
@<TRIPOS>MOLECULE
CH4
5 4
SMALL
USER_CHARGES


@<TRIPOS>ATOM
1 C 85.53 94.195 16.465 C 0.0 **** 0.0
2 H 86.274 93.412 16.612 H 0.0 **** 0.0
3 H 84.801 94.16 17.275 H 0.0 **** 0.0
4 H 85.023 94.041 15.513 H 0.0 **** 0.0
5 H 86.023 95.167 16.461 H 0.0 **** 0.0
@<TRIPOS>BOND
1 1 2 1
2 1 3 1
3 1 4 1
4 1 5 1
@<TRIPOS>MOLECULE
CH4
5 4
SMALL
USER_CHARGES


@<TRIPOS>ATOM
1 C 95.534 58.768 49.324 C 0.0 **** 0.0
2 H 94.533 58.734 49.753 H 0.0 **** 0.0
3 H 96.001 59.722 49.567 H 0.0 **** 0.0
4 H 95.469 58.661 48.241 H 0.0 **** 0.0
5 H 96.133 57.955 49.734 H 0.0 **** 0.0
@<TRIPOS>BOND
1 1 2 1
2 1 3 1
3 1 4 1
4 1 5 1
@<TRIPOS>MOLECULE
CH4
5 4
SMALL
USER_CHARGES


@<TRIPOS>ATOM
1 C 80.578 7.058 93.056 C 0.0 **** 0.0
2 H 80.284 8.085 93.277 H 0.0 **** 0.0
3 H 80.077 6.724 92.147 H 0.0 **** 0.0
4 H 80.293 6.413 93.887 H 0.0 **** 0.0
5 H 81.658 7.013 92.914 H 0.0 **** 0.0
@<TRIPOS>BOND
1 1 2 1
2 1 3 1
3 1 4 1
4 1 5 1
@<TRIPOS>MOLECULE
CH4
5 4
SMALL
USER_CHARGES


@<TRIPOS>ATOM
1 C 3.921 72.477 34.075 C 0.0 **** 0.0
2 H 3.751 72.481 32.998 H 0.0 **** 0.0
3 H 4.934 72.82 34.284 H 0.0 **** 0.0
4 H 3.792 71.465 34.459 H 0.0 **** 0.0
5 H 3.205 73.143 34.557 H 0.0 **** 0.0
@<TRIPOS>BOND
1 1 3 1
2 1 5 1
3 1 2 1
4 1 4 1
@<TRIPOS>MOLECULE
CH4
5 4
SMALL
USER_CHARGES


@<TRIPOS>ATOM
1 C 87.758 81.753 45.975 C 0.0 **** 0.0
2 H 87.752 81.783 47.064 H 0.0 **** 0.0
3 H 88.328 80.886 45.639 H 0.0 **** 0.0
4 H 88.218 82.662 45.588 H 0.0 **** 0.0
5 H 86.734 81.679 45.608 H 0.0 **** 0.0
@<TRIPOS>BOND
1 1 2 1
2 1 3 1
3 1 4 1
4 1 5 1
@<TRIPOS>MOLECULE
CH4
5 4
SMALL
USER_CHARGES


@<TRIPOS>ATOM
1 C 94.227 94.209 76.218 C 0.0 **** 0.0
2 H 93.28 94.653 75.91 H 0.0 **** 0.0
3 H 94.624 94.756 77.073 H 0.0 **** 0.0
4 H 94.936 94.259 75.392 H 0.0 **** 0.0
5 H 94.066 93.167 76.496 H 0.0 **** 0.0
@<TRIPOS>BOND
1 1 2 1
2 1 3 1
3 1 4 1
4 1 5 1
@<TRIPOS>MOLECULE
CH4
5 4
SMALL
USER_CHARGES


@<TRIPOS>ATOM
1 C 36.015 14.256 21.798 C 0.0 **** 0.0
2 H 35.348 14.047 22.634 H 0.0 **** 0.0
3 H 35.806 15.252 21.406 H 0.0 **** 0.0
4 H 35.858 13.516 21.013 H 0.0 **** 0.0
5 H 37.05 14.21 22.139 H 0.0 **** 0.0
@<TRIPOS>BOND
1 1 2 1
2 1 3 1
3 1 4 1
4 1 5 1
@<TRIPOS>MOLECULE
CH4
5 4
SMALL
USER_CHARGES


@<TRIPOS>ATOM
1 C 6.233 39.725 73.901 C 0.0 **** 0.0
2 H 5.874 39.274 74.827 H 0.0 **** 0.0
3 H 6.554 40.748 74.096 H 0.0 **** 0.0
4 H 5.43 39.729 73.165 H 0.0 **** 0.0
5 H 7.074 39.146 73.519 H 0.0 **** 0.0
@<TRIPOS>BOND
1 1 2 1
2 1 3 1
3 1 4 1
4 1 5 1
@<TRIPOS>MOLECULE
CH4
5 4
SMALL
USER_CHARGES


@<TRIPOS>ATOM
1 C 57.743 75.015 81.653 C 0.0 **** 0.0
2 H 57.907 75.394 80.644 H 0.0 **** 0.0
3 H 57.065 75.683 82.186 H 0.0 **** 0.0
4 H 58.695 74.966 82.181 H 0.0 **** 0.0
5 H 57.305 74.019 81.599 H 0.0 **** 0.0
@<TRIPOS>BOND
1 1 2 1
2 1 3 1
3 1 4 1
4 1 5 1
@<TRIPOS>MOLECULE
CH4
5 4
SMALL
USER_CHARGES


@<TRIPOS>ATOM
1 C 91.035 74.329 41.559 C 0.0 **** 0.0
2 H 90.68 73.983 40.589 H 0.0 **** 0.0
3 H 90.183 74.505 42.217 H 0.0 **** 0.0
4 H 91.593 75.257 41.432 H 0.0 **** 0.0
5 H 91.684 73.572 41.999 H 0.0 **** 0.0
@<TRIPOS>BOND
1 1 2 1
2 1 3 1
3 1 4 1
4 1 5 1
@<TRIPOS>MOLECULE
CH4
5 4
SMALL
USER_CHARGES


@<TRIPOS>ATOM
1 C 88.477 93.479 79.819 C 0.0 **** 0.0
2 H 87.907 93.489 78.89 H 0.0 **** 0.0
3 H 89.535 93.34 79.595 H 0.0 **** 0.0
4 H 88.129 92.662 80.45 H 0.0 **** 0.0
5 H 88.338 94.426 80.341 H 0.0 **** 0.0
@<TRIPOS>BOND
1 1 2 1
2 1 3 1
3 1 4 1
4 1 5 1
@<TRIPOS>MOLECULE
CH4
5 4
SMALL
USER_CHARGES


@<TRIPOS>ATOM
1 C 56.97 17.641 39.457 C 0.0 **** 0.0
2 H 56.556 17.519 38.456 H 0.0 **** 0.0
3 H 56.158 17.794 40.169 H 0.0 **** 0.0
4 H 57.635 18.505 39.473 H 0.0 **** 0.0
5 H 57.53 16.747 39.73 H 0.0 **** 0.0
@<TRIPOS>BOND
1 1 2 1
2 1 3 1
3 1 4 1
4 1 5 1
@<TRIPOS>MOLECULE
CH4
5 4
SMALL
USER_CHARGES


@<TRIPOS>ATOM
1 C 74.785 34.768 66.118 C 0.0 **** 0.0
2 H 75.05 35.814 65.969 H 0.0 **** 0.0
3 H 74.705 34.563 67.186 H 0.0 **** 0.0
4 H 75.557 34.133 65.683 H 0.0 **** 0.0
5 H 73.83 34.562 65.635 H 0.0 **** 0.0
@<TRIPOS>BOND
1 1 2 1
2 1 3 1
3 1 4 1
4 1 5 1
@<TRIPOS>MOLECULE
CH4
5 4
SMALL
USER_CHARGES


@<TRIPOS>ATOM
1 C 69.537 3.753 67.455 C 0.0 **** 0.0
2 H 68.915 3.296 66.685 H 0.0 **** 0.0
3 H 70.371 4.274 66.986 H 0.0 **** 0.0
4 H 69.92 2.978 68.119 H 0.0 **** 0.0
5 H 68.942 4.462 68.03 H 0.0 **** 0.0
@<TRIPOS>BOND
1 1 2 1
2 1 3 1
3 1 4 1
4 1 5 1
@<TRIPOS>MOLECULE
CH4
5 4
SMALL
USER_CHARGES


@<TRIPOS>ATOM
1 C 87.58 64.238 28.984 C 0.0 **** 0.0
2 H 87.518 64.39 27.907 H 0.0 **** 0.0
3 H 87.465 63.177 29.208 H 0.0 **** 0.0
4 H 86.787 64.801 29.476 H 0.0 **** 0.0
5 H 88.549 64.583 29.345 H 0.0 **** 0.0
@<TRIPOS>BOND
1 1 2 1
2 1 3 1
3 1 4 1
4 1 5 1
@<TRIPOS>MOLECULE
CH4
5 4
SMALL
USER_CHARGES


@<TRIPOS>ATOM
1 C 19.409 89.333 42.555 C 0.0 **** 0.0
2 H 18.901 88.846 43.388 H 0.0 **** 0.0
3 H 20.314 89.822 42.918 H 0.0 **** 0.0
4 H 18.747 90.077 42.111 H 0.0 **** 0.0
5 H 19.674 88.588 41.805 H 0.0 **** 0.0
@<TRIPOS>BOND
1 1 2 1
2 1 3 1
3 1 4 1
4 1 5 1
@<TRIPOS>MOLECULE
CH4
5 4
SMALL
USER_CHARGES


@<TRIPOS>ATOM
1 C 20.83 70.184 84.345 C 0.0 **** 0.0
2 H 20.444 71.022 83.765 H 0.0 **** 0.0
3 H 20.928 70.48 85.39 H 0.0 **** 0.0
4 H 21.807 69.893 83.957 H 0.0 **** 0.0
5 H 20.143 69.342 84.268 H 0.0 **** 0.0
@<TRIPOS>BOND
1 1 2 1
2 1 3 1
3 1 4 1
4 1 5 1
@<TRIPOS>MOLECULE
CH4
5 4
SMALL
USER_CHARGES


@<TRIPOS>ATOM
1 C 51.783 23.921 6.145 C 0.0 **** 0.0
2 H 51.635 23.549 7.158 H 0.0 **** 0.0
3 H 52.755 24.41 6.076 H 0.0 **** 0.0
4 H 50.998 24.637 5.902 H 0.0 **** 0.0
5 H 51.744 23.088 5.443 H 0.0 **** 0.0
@<TRIPOS>BOND
1 1 2 1
2 1 3 1
3 1 4 1
4 1 5 1
@<TRIPOS>MOLECULE
CH4
5 4
SMALL
USER_CHARGES


@<TRIPOS>ATOM
1 C 20.167 14.375 51.098 C 0.0 **** 0.0
2 H 19.447 14.828 50.418 H 0.0 **** 0.0
3 H 19.975 14.721 52.114 H 0.0 **** 0.0
4 H 21.177 14.66 50.802 H 0.0 **** 0.0
5 H 20.07 13.29 51.059 H 0.0 **** 0.0
@<TRIPOS>BOND
1 1 2 1
2 1 3 1
3 1 4 1
4 1 5 1
@<TRIPOS>MOLECULE
CH4
5 4
SMALL
USER_CHARGES


@<TRIPOS>ATOM
1 C 72.525 56.937 43.689 C 0.0 **** 0.0
2 H 72.532 56.962 44.779 H 0.0 **** 0.0
3 H 71.898 57.745 43.312 H 0.0 **** 0.0
4 H 72.128 55.98 43.351 H 0.0 **** 0.0
5 H 73.542 57.06 43.317 H 0.0 **** 0.0
@<TRIPOS>BOND
1 1 2 1
2 1 3 1
3 1 4 1
4 1 5 1
@<TRIPOS>MOLECULE
CH4
5 4
SMALL
USER_CHARGES


@<TRIPOS>ATOM
1 C 30.68 69.564 76.692 C 0.0 **** 0.0
2 H 29.848 70.085 76.217 H 0.0 **** 0.0
3 H 30.313 69.006 77.553 H 0.0 **** 0.0
4 H 31.423 70.291 77.019 H 0.0 **** 0.0
5 H 31.133 68.877 75.978 H 0.0 **** 0.0
@<TRIPOS>BOND
1 1 4 1
2 1 5 1
3 1 2 1
4 1 3 1
@<TRIPOS>MOLECULE
CH4
5 4
SMALL
USER_CHARGES


@<TRIPOS>ATOM
1 C 50.231 81.22 22.638 C 0.0 **** 0.0
2 H 49.222 81.576 22.43 H 0.0 **** 0.0
3 H 50.702 80.901 21.708 H 0.0 **** 0.0
4 H 50.184 80.378 23.329 H 0.0 **** 0.0
5 H 50.815 82.024 23.085 H 0.0 **** 0.0
@<TRIPOS>BOND
1 1 2 1
2 1 3 1
3 1 4 1
4 1 5 1
@<TRIPOS>MOLECULE
CH4
5 4
SMALL
USER_CHARGES


@<TRIPOS>ATOM
1 C 53.009 36.632 4.987 C 0.0 **** 0.0
2 H 52.874 37.713 5.011 H 0.0 **** 0.0
3 H 54.074 36.4 4.953 H 0.0 **** 0.0
4 H 52.519 36.224 4.103 H 0.0 **** 0.0
5 H 52.569 36.192 5.882 H 0.0 **** 0.0
@<TRIPOS>BOND
1 1 2 1
2 1 3 1
3 1 4 1
4 1 5 1
@<TRIPOS>MOLECULE
CH4
5 4
SMALL
USER_CHARGES


@<TRIPOS>ATOM
1 C 42.678 22.281 6.567 C 0.0 **** 0.0
2 H 43.083 21.441 6.003 H 0.0 **** 0.0
3 H 42.929 23.213 6.06 H 0.0 **** 0.0
4 H 43.107 22.285 7.569 H 0.0 **** 0.0
5 H 41.595 22.185 6.636 H 0.0 **** 0.0
@<TRIPOS>BOND
1 1 2 1
2 1 3 1
3 1 4 1
4 1 5 1
@<TRIPOS>MOLECULE
CH4
5 4
SMALL
USER_CHARGES


@<TRIPOS>ATOM
1 C 22.22 86.77 94.088 C 0.0 **** 0.0
2 H 22.42 86.716 95.158 H 0.0 **** 0.0
3 H 21.817 87.753 93.844 H 0.0 **** 0.0
4 H 21.497 86.002 93.814 H 0.0 **** 0.0
5 H 23.147 86.61 93.537 H 0.0 **** 0.0
@<TRIPOS>BOND
1 1 2 1
2 1 3 1
3 1 4 1
4 1 5 1
@<TRIPOS>MOLECULE
CH4
5 4
SMALL
USER_CHARGES


@<TRIPOS>ATOM
1 C 9.67 65.221 22.187 C 0.0 **** 0.0
2 H 9.533 66.235 22.564 H 0.0 **** 0.0
3 H 10.461 65.216 21.437 H 0.0 **** 0.0
4 H 8.74 64.873 21.738 H 0.0 **** 0.0
5 H 9.945 64.562 23.011 H 0.0 **** 0.0
@<TRIPOS>BOND
1 1 2 1
2 1 3 1
3 1 4 1
4 1 5 1
@<TRIPOS>MOLECULE
CH4
5 4
SMALL
USER_CHARGES


@<TRIPOS>ATOM
1 C 92.457 71.785 91.604 C 0.0 **** 0.0
2 H 92.781 71.679 92.64 H 0.0 **** 0.0
3 H 91.379 71.946 91.576 H 0.0 **** 0.0
4 H 92.704 70.878 91.052 H 0.0 **** 0.0
5 H 92.964 72.636 91.15 H 0.0 **** 0.0
@<TRIPOS>BOND
1 1 2 1
2 1 3 1
3 1 4 1
4 1 5 1
@<TRIPOS>MOLECULE
CH4
5 4
SMALL
USER_CHARGES


@<TRIPOS>ATOM
1 C 11.569 19.263 89.254 C 0.0 **** 0.0
2 H 10.546 19.136 89.608 H 0.0 **** 0.0
3 H 12.018 20.127 89.745 H 0.0 **** 0.0
4 H 11.564 19.42 88.176 H 0.0 **** 0.0
5 H 12.148 18.37 89.489 H 0.0 **** 0.0
@<TRIPOS>BOND
1 1 2 1
2 1 3 1
3 1 4 1
4 1 5 1
@<TRIPOS>MOLECULE
CH4
5 4
SMALL
USER_CHARGES


@<TRIPOS>ATOM
1 C 60.792 11.199 34.909 C 0.0 **** 0.0
2 H 61.718 11.726 34.678 H 0.0 **** 0.0
3 H 61.022 10.18 35.222 H 0.0 **** 0.0
4 H 60.159 11.173 34.022 H 0.0 **** 0.0
5 H 60.269 11.717 35.713 H 0.0 **** 0.0
@<TRIPOS>BOND
1 1 2 1
2 1 3 1
3 1 4 1
4 1 5 1
@<TRIPOS>MOLECULE
CH4
5 4
SMALL
USER_CHARGES


@<TRIPOS>ATOM
1 C 3.976 30.796 25.749 C 0.0 **** 0.0
2 H 4.355 30.918 24.735 H 0.0 **** 0.0
3 H 4.79 30.492 26.408 H 0.0 **** 0.0
4 H 3.198 30.033 25.757 H 0.0 **** 0.0
5 H 3.561 31.742 26.098 H 0.0 **** 0.0
@<TRIPOS>BOND
1 1 2 1
2 1 3 1
3 1 4 1
4 1 5 1
@<TRIPOS>MOLECULE
CH4
5 4
SMALL
USER_CHARGES


@<TRIPOS>ATOM
1 C 45.76 65.388 82.36 C 0.0 **** 0.0
2 H 46.007 65.813 83.333 H 0.0 **** 0.0
3 H 45.829 64.302 82.41 H 0.0 **** 0.0
4 H 46.458 65.764 81.612 H 0.0 **** 0.0
5 H 44.745 65.676 82.085 H 0.0 **** 0.0
@<TRIPOS>BOND
1 1 2 1
2 1 3 1
3 1 4 1
4 1 5 1
@<TRIPOS>MOLECULE
CH4
5 4
SMALL
USER_CHARGES


@<TRIPOS>ATOM
1 C 73.416 77.843 62.12 C 0.0 **** 0.0
2 H 73.002 77.801 61.112 H 0.0 **** 0.0
3 H 72.889 77.133 62.758 H 0.0 **** 0.0
4 H 73.296 78.85 62.52 H 0.0 **** 0.0
5 H 74.475 77.588 62.088 H 0.0 **** 0.0
@<TRIPOS>BOND
1 1 2 1
2 1 3 1
3 1 4 1
4 1 5 1
@<TRIPOS>MOLECULE
CH4
5 4
SMALL
USER_CHARGES


@<TRIPOS>ATOM
1 C 66.673 42.096 56.389 C 0.0 **** 0.0
2 H 66.66 42.122 57.479 H 0.0 **** 0.0
3 H 67.004 41.113 56.054 H 0.0 **** 0.0
4 H 67.357 42.858 56.016 H 0.0 **** 0.0
5 H 65.67 42.29 56.009 H 0.0 **** 0.0
@<TRIPOS>BOND
1 1 2 1
2 1 3 1
3 1 4 1
4 1 5 1
@<TRIPOS>MOLECULE
CH4
5 4
SMALL
USER_CHARGES


@<TRIPOS>ATOM
1 C 12.395 36.266 56.797 C 0.0 **** 0.0
2 H 12.052 36.644 57.76 H 0.0 **** 0.0
3 H 13.201 35.549 56.956 H 0.0 **** 0.0
4 H 12.76 37.095 56.19 H 0.0 **** 0.0
5 H 11.568 35.776 56.284 H 0.0 **** 0.0
@<TRIPOS>BOND
1 1 2 1
2 1 3 1
3 1 4 1
4 1 5 1
@<TRIPOS>MOLECULE
CH4
5 4
SMALL
USER_CHARGES


@<TRIPOS>ATOM
1 C 10.488 34.428 41.408 C 0.0 **** 0.0
2 H 10.653 35.324 40.81 H 0.0 **** 0.0
3 H 11.166 34.431 42.262 H 0.0 **** 0.0
4 H 10.676 33.545 40.797 H 0.0 **** 0.0
5 H 9.457 34.412 41.761 H 0.0 **** 0.0
@<TRIPOS>BOND
1 1 2 1
2 1 3 1
3 1 4 1
4 1 5 1
@<TRIPOS>MOLECULE
CH4
5 4
SMALL
USER_CHARGES


@<TRIPOS>ATOM
1 C 38.502 9.275 56.873 C 0.0 **** 0.0
2 H 38.085 9.33 55.868 H 0.0 **** 0.0
3 H 37.897 8.601 57.48 H 0.0 **** 0.0
4 H 38.502 10.268 57.321 H 0.0 **** 0.0
5 H 39.524 8.9 56.822 H 0.0 **** 0.0
@<TRIPOS>BOND
1 1 2 1
2 1 3 1
3 1 4 1
4 1 5 1
@<TRIPOS>MOLECULE
CH4
5 4
SMALL
USER_CHARGES


@<TRIPOS>ATOM
1 C 61.042 3.449 61.451 C 0.0 **** 0.0
2 H 60.521 2.971 60.621 H 0.0 **** 0.0
3 H 61.138 2.742 62.275 H 0.0 **** 0.0
4 H 60.474 4.319 61.782 H 0.0 **** 0.0
5 H 62.032 3.765 61.125 H 0.0 **** 0.0
@<TRIPOS>BOND
1 1 2 1
2 1 3 1
3 1 4 1
4 1 5 1
@<TRIPOS>MOLECULE
CH4
5 4
SMALL
USER_CHARGES


@<TRIPOS>ATOM
1 C 55.501 85.192 75.986 C 0.0 **** 0.0
2 H 56.075 85.139 75.061 H 0.0 **** 0.0
3 H 55.09 84.209 76.215 H 0.0 **** 0.0
4 H 54.688 85.908 75.867 H 0.0 **** 0.0
5 H 56.152 85.513 76.799 H 0.0 **** 0.0
@<TRIPOS>BOND
1 1 3 1
2 1 4 1
3 1 5 1
4 1 2 1
@<TRIPOS>MOLECULE
CH4
5 4
SMALL
USER_CHARGES


@<TRIPOS>ATOM
1 C 81.011 55.459 85.435 C 0.0 **** 0.0
2 H 81.378 55.401 84.411 H 0.0 **** 0.0
3 H 81.242 54.529 85.956 H 0.0 **** 0.0
4 H 79.932 55.612 85.426 H 0.0 **** 0.0
5 H 81.492 56.292 85.947 H 0.0 **** 0.0
@<TRIPOS>BOND
1 1 2 1
2 1 3 1
3 1 4 1
4 1 5 1
@<TRIPOS>MOLECULE
CH4
5 4
SMALL
USER_CHARGES


@<TRIPOS>ATOM
1 C 38.173 31.609 33.375 C 0.0 **** 0.0
2 H 37.879 30.599 33.664 H 0.0 **** 0.0
3 H 38.891 31.998 34.097 H 0.0 **** 0.0
4 H 37.293 32.251 33.354 H 0.0 **** 0.0
5 H 38.629 31.585 32.385 H 0.0 **** 0.0
@<TRIPOS>BOND
1 1 2 1
2 1 3 1
3 1 4 1
4 1 5 1
@<TRIPOS>MOLECULE
CH4
5 4
SMALL
USER_CHARGES


@<TRIPOS>ATOM
1 C 31.701 71.272 33.532 C 0.0 **** 0.0
2 H 31.554 71.2 32.454 H 0.0 **** 0.0
3 H 32.765 71.361 33.748 H 0.0 **** 0.0
4 H 31.306 70.376 34.012 H 0.0 **** 0.0
5 H 31.177 72.149 33.912 H 0.0 **** 0.0
@<TRIPOS>BOND
1 1 2 1
2 1 3 1
3 1 4 1
4 1 5 1
@<TRIPOS>MOLECULE
CH4
5 4
SMALL
USER_CHARGES


@<TRIPOS>ATOM
1 C 33.065 11.553 29.156 C 0.0 **** 0.0
2 H 33.795 10.749 29.066 H 0.0 **** 0.0
3 H 33.541 12.504 28.916 H 0.0 **** 0.0
4 H 32.683 11.584 30.176 H 0.0 **** 0.0
5 H 32.241 11.374 28.465 H 0.0 **** 0.0
@<TRIPOS>BOND
1 1 2 1
2 1 3 1
3 1 4 1
4 1 5 1
@<TRIPOS>MOLECULE
CH4
5 4
SMALL
USER_CHARGES


@<TRIPOS>ATOM
1 C 90.01 73.091 21.383 C 0.0 **** 0.0
2 H 89.472 74.028 21.53 H 0.0 **** 0.0
3 H 89.922 72.477 22.28 H 0.0 **** 0.0
4 H 91.062 73.303 21.189 H 0.0 **** 0.0
5 H 89.585 72.557 20.533 H 0.0 **** 0.0
@<TRIPOS>BOND
1 1 2 1
2 1 3 1
3 1 4 1
4 1 5 1
@<TRIPOS>MOLECULE
CH4
5 4
SMALL
USER_CHARGES


@<TRIPOS>ATOM
1 C 72.252 32.662 22.636 C 0.0 **** 0.0
2 H 72.206 32.542 21.554 H 0.0 **** 0.0
3 H 73.241 32.372 22.992 H 0.0 **** 0.0
4 H 71.498 32.03 23.105 H 0.0 **** 0.0
5 H 72.064 33.704 22.894 H 0.0 **** 0.0
@<TRIPOS>BOND
1 1 2 1
2 1 3 1
3 1 4 1
4 1 5 1
@<TRIPOS>MOLECULE
CH4
5 4
SMALL
USER_CHARGES


@<TRIPOS>ATOM
1 C 68.492 48.81 85.709 C 0.0 **** 0.0
2 H 68.553 48.191 84.814 H 0.0 **** 0.0
3 H 67.662 49.51 85.611 H 0.0 **** 0.0
4 H 69.423 49.364 85.831 H 0.0 **** 0.0
5 H 68.331 48.174 86.58 H 0.0 **** 0.0
@<TRIPOS>BOND
1 1 2 1
2 1 3 1
3 1 4 1
4 1 5 1
@<TRIPOS>MOLECULE
CH4
5 4
SMALL
USER_CHARGES


@<TRIPOS>ATOM
1 C 65.166 12.967 73.126 C 0.0 **** 0.0
2 H 64.145 13.109 72.771 H 0.0 **** 0.0
3 H 65.15 12.423 74.07 H 0.0 **** 0.0
4 H 65.637 13.939 73.274 H 0.0 **** 0.0
5 H 65.731 12.398 72.388 H 0.0 **** 0.0
@<TRIPOS>BOND
1 1 2 1
2 1 3 1
3 1 4 1
4 1 5 1
@<TRIPOS>MOLECULE
CH4
5 4
SMALL
USER_CHARGES


@<TRIPOS>ATOM
1 C 61.471 96.957 46.9 C 0.0 **** 0.0
2 H 60.606 97.007 47.561 H 0.0 **** 0.0
3 H 61.139 96.743 45.884 H 0.0 **** 0.0
4 H 62.142 96.167 47.238 H 0.0 **** 0.0
5 H 61.997 97.912 46.917 H 0.0 **** 0.0
@<TRIPOS>BOND
1 1 2 1
2 1 3 1
3 1 4 1
4 1 5 1
@<TRIPOS>MOLECULE
CH4
5 4
SMALL
USER_CHARGES


@<TRIPOS>ATOM
1 C 31.598 65.117 74.825 C 0.0 **** 0.0
2 H 31.857 64.756 73.83 H 0.0 **** 0.0
3 H 30.627 64.716 75.115 H 0.0 **** 0.0
4 H 31.554 66.206 74.816 H 0.0 **** 0.0
5 H 32.354 64.789 75.538 H 0.0 **** 0.0
@<TRIPOS>BOND
1 1 2 1
2 1 3 1
3 1 4 1
4 1 5 1
@<TRIPOS>MOLECULE
CH4
5 4
SMALL
USER_CHARGES


@<TRIPOS>ATOM
1 C 79.947 86.62 54.322 C 0.0 **** 0.0
2 H 80.399 87.016 53.413 H 0.0 **** 0.0
3 H 78.877 86.829 54.316 H 0.0 **** 0.0
4 H 80.405 87.093 55.191 H 0.0 **** 0.0
5 H 80.107 85.543 54.367 H 0.0 **** 0.0
@<TRIPOS>BOND
1 1 2 1
2 1 3 1
3 1 4 1
4 1 5 1
@<TRIPOS>MOLECULE
CH4
5 4
SMALL
USER_CHARGES


@<TRIPOS>ATOM
1 C 50.278 40.973 25.702 C 0.0 **** 0.0
2 H 50.487 41.591 24.829 H 0.0 **** 0.0
3 H 50.645 41.475 26.598 H 0.0 **** 0.0
4 H 50.778 40.01 25.594 H 0.0 **** 0.0
5 H 49.203 40.817 25.788 H 0.0 **** 0.0
@<TRIPOS>BOND
1 1 2 1
2 1 3 1
3 1 4 1
4 1 5 1
@<TRIPOS>MOLECULE
CH4
5 4
SMALL
USER_CHARGES


@<TRIPOS>ATOM
1 C 35.48 45.08 36.415 C 0.0 **** 0.0
2 H 35.262 46.146 36.355 H 0.0 **** 0.0
3 H 35.046 44.571 35.554 H 0.0 **** 0.0
4 H 35.053 44.673 37.332 H 0.0 **** 0.0
5 H 36.56 44.93 36.42 H 0.0 **** 0.0
@<TRIPOS>BOND
1 1 2 1
2 1 3 1
3 1 4 1
4 1 5 1
@<TRIPOS>MOLECULE
CH4
5 4
SMALL
USER_CHARGES


@<TRIPOS>ATOM
1 C 94.152 23.485 66.891 C 0.0 **** 0.0
2 H 94.026 23.099 65.879 H 0.0 **** 0.0
3 H 93.185 23.804 67.281 H 0.0 **** 0.0
4 H 94.835 24.334 66.873 H 0.0 **** 0.0
5 H 94.561 22.703 67.53 H 0.0 **** 0.0
@<TRIPOS>BOND
1 1 2 1
2 1 3 1
3 1 4 1
4 1 5 1
@<TRIPOS>MOLECULE
CH4
5 4
SMALL
USER_CHARGES


@<TRIPOS>ATOM
1 C 14.114 14.212 32.556 C 0.0 **** 0.0
2 H 13.89 14.181 33.622 H 0.0 **** 0.0
3 H 15.144 14.537 32.41 H 0.0 **** 0.0
4 H 13.439 14.913 32.064 H 0.0 **** 0.0
5 H 13.982 13.219 32.128 H 0.0 **** 0.0
@<TRIPOS>BOND
1 1 2 1
2 1 3 1
3 1 4 1
4 1 5 1
@<TRIPOS>MOLECULE
CH4
5 4
SMALL
USER_CHARGES


@<TRIPOS>ATOM
1 C 9.466 50.63 11.236 C 0.0 **** 0.0
2 H 8.77 50.273 11.995 H 0.0 **** 0.0
3 H 9.03 51.483 10.716 H 0.0 **** 0.0
4 H 9.666 49.832 10.522 H 0.0 **** 0.0
5 H 10.399 50.932 11.713 H 0.0 **** 0.0
@<TRIPOS>BOND
1 1 2 1
2 1 3 1
3 1 4 1
4 1 5 1
@<TRIPOS>MOLECULE
CH4
5 4
SMALL
USER_CHARGES


@<TRIPOS>ATOM
1 C 82.701 6.181 59.643 C 0.0 **** 0.0
2 H 83.089 5.782 60.58 H 0.0 **** 0.0
3 H 83.19 7.129 59.421 H 0.0 **** 0.0
4 H 81.626 6.338 59.733 H 0.0 **** 0.0
5 H 82.898 5.473 58.838 H 0.0 **** 0.0
@<TRIPOS>BOND
1 1 2 1
2 1 3 1
3 1 4 1
4 1 5 1
@<TRIPOS>MOLECULE
CH4
5 4
SMALL
USER_CHARGES


@<TRIPOS>ATOM
1 C 63.849 98.213 17.039 C 0.0 **** 0.0
2 H 63.123 97.821 17.752 H 0.0 **** 0.0
3 H 64.489 97.402 16.691 H 0.0 **** 0.0
4 H 64.458 98.976 17.524 H 0.0 **** 0.0
5 H 63.324 98.652 16.191 H 0.0 **** 0.0
@<TRIPOS>BOND
1 1 2 1
2 1 3 1
3 1 4 1
4 1 5 1
@<TRIPOS>MOLECULE
CH4
5 4
SMALL
USER_CHARGES


@<TRIPOS>ATOM
1 C 0.889 87.206 8.583 C 0.0 **** 0.0
2 H 0.369 86.598 7.843 H 0.0 **** 0.0
3 H 0.429 87.059 9.561 H 0.0 **** 0.0
4 H 0.819 88.257 8.303 H 0.0 **** 0.0
5 H 1.937 86.91 8.625 H 0.0 **** 0.0
@<TRIPOS>BOND
1 1 2 1
2 1 3 1
3 1 4 1
4 1 5 1
@<TRIPOS>MOLECULE
CH4
5 4
SMALL
USER_CHARGES


@<TRIPOS>ATOM
1 C 68.609 25.258 50.049 C 0.0 **** 0.0
2 H 68.746 25.595 51.076 H 0.0 **** 0.0
3 H 67.675 24.7 49.971 H 0.0 **** 0.0
4 H 69.442 24.616 49.763 H 0.0 **** 0.0
5 H 68.572 26.122 49.385 H 0.0 **** 0.0
@<TRIPOS>BOND
1 1 2 1
2 1 3 1
3 1 4 1
4 1 5 1
@<TRIPOS>MOLECULE
CH4
5 4
SMALL
USER_CHARGES


@<TRIPOS>ATOM
1 C 17.022 83.973 5.779 C 0.0 **** 0.0
2 H 16.87 82.912 5.581 H 0.0 **** 0.0
3 H 16.774 84.187 6.819 H 0.0 **** 0.0
4 H 16.38 84.561 5.123 H 0.0 **** 0.0
5 H 18.065 84.231 5.593 H 0.0 **** 0.0
@<TRIPOS>BOND
1 1 2 1
2 1 3 1
3 1 4 1
4 1 5 1
@<TRIPOS>MOLECULE
CH4
5 4
SMALL
USER_CHARGES


@<TRIPOS>ATOM
1 C 90.311 25.401 39.472 C 0.0 **** 0.0
2 H 89.705 25.375 38.567 H 0.0 **** 0.0
3 H 91.19 24.77 39.34 H 0.0 **** 0.0
4 H 89.723 25.033 40.313 H 0.0 **** 0.0
5 H 90.625 26.426 39.669 H 0.0 **** 0.0
@<TRIPOS>BOND
1 1 2 1
2 1 3 1
3 1 4 1
4 1 5 1
@<TRIPOS>MOLECULE
CH4
5 4
SMALL
USER_CHARGES


@<TRIPOS>ATOM
1 C 29.397 23.17 78.665 C 0.0 **** 0.0
2 H 30.292 22.628 78.359 H 0.0 **** 0.0
3 H 29.431 24.183 78.263 H 0.0 **** 0.0
4 H 29.352 23.212 79.753 H 0.0 **** 0.0
5 H 28.514 22.657 78.284 H 0.0 **** 0.0
@<TRIPOS>BOND
1 1 2 1
2 1 3 1
3 1 4 1
4 1 5 1
@<TRIPOS>MOLECULE
CH4
5 4
SMALL
USER_CHARGES


@<TRIPOS>ATOM
1 C 25.349 48.008 57.799 C 0.0 **** 0.0
2 H 25.898 47.158 57.394 H 0.0 **** 0.0
3 H 25.751 48.932 57.382 H 0.0 **** 0.0
4 H 25.452 48.023 58.884 H 0.0 **** 0.0
5 H 24.295 47.918 57.535 H 0.0 **** 0.0
@<TRIPOS>BOND
1 1 2 1
2 1 3 1
3 1 4 1
4 1 5 1
@<TRIPOS>MOLECULE
CH4
5 4
SMALL
USER_CHARGES


@<TRIPOS>ATOM
1 C 19.102 38.897 19.44 C 0.0 **** 0.0
2 H 19.889 38.143 19.421 H 0.0 **** 0.0
3 H 18.874 39.156 20.474 H 0.0 **** 0.0
4 H 18.208 38.501 18.958 H 0.0 **** 0.0
5 H 19.438 39.786 18.908 H 0.0 **** 0.0
@<TRIPOS>BOND
1 1 2 1
2 1 3 1
3 1 4 1
4 1 5 1
@<TRIPOS>MOLECULE
CH4
5 4
SMALL
USER_CHARGES


@<TRIPOS>ATOM
1 C 2.929 11.257 40.425 C 0.0 **** 0.0
2 H 3.416 10.297 40.594 H 0.0 **** 0.0
3 H 1.859 11.159 40.613 H 0.0 **** 0.0
4 H 3.091 11.57 39.394 H 0.0 **** 0.0
5 H 3.35 12.002 41.101 H 0.0 **** 0.0
@<TRIPOS>BOND
1 1 2 1
2 1 3 1
3 1 4 1
4 1 5 1
@<TRIPOS>MOLECULE
CH4
5 4
SMALL
USER_CHARGES


@<TRIPOS>ATOM
1 C 60.439 76.064 23.172 C 0.0 **** 0.0
2 H 59.554 75.969 22.542 H 0.0 **** 0.0
3 H 60.909 77.031 22.993 H 0.0 **** 0.0
4 H 61.143 75.268 22.931 H 0.0 **** 0.0
5 H 60.149 75.989 24.22 H 0.0 **** 0.0
@<TRIPOS>BOND
1 1 2 1
2 1 3 1
3 1 4 1
4 1 5 1
@<TRIPOS>MOLECULE
CH4
5 4
SMALL
USER_CHARGES


@<TRIPOS>ATOM
1 C 46.894 88.912 75.646 C 0.0 **** 0.0
2 H 46.131 88.264 75.215 H 0.0 **** 0.0
3 H 47.88 88.485 75.459 H 0.0 **** 0.0
4 H 46.733 88.998 76.72 H 0.0 **** 0.0
5 H 46.833 89.899 75.189 H 0.0 **** 0.0
@<TRIPOS>BOND
1 1 2 1
2 1 3 1
3 1 4 1
4 1 5 1
@<TRIPOS>MOLECULE
CH4
5 4
SMALL
USER_CHARGES


@<TRIPOS>ATOM
1 C 80.932 43.59 74.227 C 0.0 **** 0.0
2 H 81.789 43.068 73.802 H 0.0 **** 0.0
3 H 80.681 44.446 73.6 H 0.0 **** 0.0
4 H 81.18 43.936 75.231 H 0.0 **** 0.0
5 H 80.081 42.912 74.276 H 0.0 **** 0.0
@<TRIPOS>BOND
1 1 3 1
2 1 5 1
3 1 4 1
4 1 2 1
@<TRIPOS>MOLECULE
CH4
5 4
SMALL
USER_CHARGES


@<TRIPOS>ATOM
1 C 61.543 47.606 68.371 C 0.0 **** 0.0
2 H 62.202 47.443 67.518 H 0.0 **** 0.0
3 H 62.132 47.942 69.225 H 0.0 **** 0.0
4 H 61.036 46.675 68.622 H 0.0 **** 0.0
5 H 60.804 48.366 68.118 H 0.0 **** 0.0
@<TRIPOS>BOND
1 1 2 1
2 1 3 1
3 1 4 1
4 1 5 1
@<TRIPOS>MOLECULE
CH4
5 4
SMALL
USER_CHARGES


@<TRIPOS>ATOM
1 C 52.123 28.201 35.919 C 0.0 **** 0.0
2 H 53.124 27.839 36.154 H 0.0 **** 0.0
3 H 51.385 27.476 36.262 H 0.0 **** 0.0
4 H 52.028 28.335 34.841 H 0.0 **** 0.0
5 H 51.955 29.155 36.419 H 0.0 **** 0.0
@<TRIPOS>BOND
1 1 2 1
2 1 3 1
3 1 4 1
4 1 5 1
@<TRIPOS>MOLECULE
CH4
5 4
SMALL
USER_CHARGES


@<TRIPOS>ATOM
1 C 87.572 70.135 73.884 C 0.0 **** 0.0
2 H 86.631 69.848 74.354 H 0.0 **** 0.0
3 H 88.357 70.176 74.639 H 0.0 **** 0.0
4 H 87.462 71.114 73.419 H 0.0 **** 0.0
5 H 87.836 69.4 73.123 H 0.0 **** 0.0
@<TRIPOS>BOND
1 1 2 1
2 1 3 1
3 1 4 1
4 1 5 1
@<TRIPOS>MOLECULE
CH4
5 4
SMALL
USER_CHARGES


@<TRIPOS>ATOM
1 C 85.241 44.1 89.66 C 0.0 **** 0.0
2 H 85.352 44.896 88.924 H 0.0 **** 0.0
3 H 86.114 43.448 89.623 H 0.0 **** 0.0
4 H 84.345 43.521 89.435 H 0.0 **** 0.0
5 H 85.153 44.534 90.655 H 0.0 **** 0.0
@<TRIPOS>BOND
1 1 2 1
2 1 3 1
3 1 4 1
4 1 5 1
@<TRIPOS>MOLECULE
CH4
5 4
SMALL
USER_CHARGES


@<TRIPOS>ATOM
1 C 17.3 77.612 74.229 C 0.0 **** 0.0
2 H 17.283 76.525 74.32 H 0.0 **** 0.0
3 H 16.536 78.042 74.877 H 0.0 **** 0.0
4 H 17.099 77.892 73.195 H 0.0 **** 0.0
5 H 18.28 77.985 74.523 H 0.0 **** 0.0
@<TRIPOS>BOND
1 1 2 1
2 1 3 1
3 1 4 1
4 1 5 1
@<TRIPOS>MOLECULE
CH4
5 4
SMALL
USER_CHARGES


@<TRIPOS>ATOM
1 C 19.574 81.225 89.687 C 0.0 **** 0.0
2 H 19.25 80.771 90.624 H 0.0 **** 0.0
3 H 19.247 82.264 89.655 H 0.0 **** 0.0
4 H 19.137 80.68 88.85 H 0.0 **** 0.0
5 H 20.661 81.183 89.62 H 0.0 **** 0.0
@<TRIPOS>BOND
1 1 2 1
2 1 3 1
3 1 4 1
4 1 5 1
@<TRIPOS>MOLECULE
CH4
5 4
SMALL
USER_CHARGES


@<TRIPOS>ATOM
1 C 58.52 17.628 4.598 C 0.0 **** 0.0
2 H 59.458 18.171 4.483 H 0.0 **** 0.0
3 H 57.966 18.036 5.443 H 0.0 **** 0.0
4 H 58.731 16.573 4.776 H 0.0 **** 0.0
5 H 57.927 17.732 3.689 H 0.0 **** 0.0
@<TRIPOS>BOND
1 1 2 1
2 1 3 1
3 1 4 1
4 1 5 1
@<TRIPOS>MOLECULE
CH4
5 4
SMALL
USER_CHARGES


@<TRIPOS>ATOM
1 C 95.145 40.604 85.165 C 0.0 **** 0.0
2 H 95.099 40.431 86.24 H 0.0 **** 0.0
3 H 95.629 41.562 84.972 H 0.0 **** 0.0
4 H 94.135 40.617 84.756 H 0.0 **** 0.0
5 H 95.719 39.806 84.693 H 0.0 **** 0.0
@<TRIPOS>BOND
1 1 2 1
2 1 3 1
3 1 4 1
4 1 5 1
@<TRIPOS>MOLECULE
CH4
5 4
SMALL
USER_CHARGES


@<TRIPOS>ATOM
1 C 39.348 24.007 2.785 C 0.0 **** 0.0
2 H 39.232 23.17 3.473 H 0.0 **** 0.0
3 H 39.81 23.656 1.862 H 0.0 **** 0.0
4 H 39.979 24.768 3.242 H 0.0 **** 0.0
5 H 38.369 24.432 2.563 H 0.0 **** 0.0
@<TRIPOS>BOND
1 1 2 1
2 1 3 1
3 1 4 1
4 1 5 1
@<TRIPOS>MOLECULE
CH4
5 4
SMALL
USER_CHARGES


@<TRIPOS>ATOM
1 C 81.332 26.838 83.081 C 0.0 **** 0.0
2 H 80.768 26.202 82.398 H 0.0 **** 0.0
3 H 81.206 27.882 82.792 H 0.0 **** 0.0
4 H 82.388 26.573 83.035 H 0.0 **** 0.0
5 H 80.965 26.695 84.097 H 0.0 **** 0.0
@<TRIPOS>BOND
1 1 2 1
2 1 3 1
3 1 4 1
4 1 5 1
@<TRIPOS>MOLECULE
CH4
5 4
SMALL
USER_CHARGES


@<TRIPOS>ATOM
1 C 3.847 63.726 1.347 C 0.0 **** 0.0
2 H 4.635 63.816 2.095 H 0.0 **** 0.0
3 H 3.035 63.118 1.746 H 0.0 **** 0.0
4 H 4.249 63.253 0.451 H 0.0 **** 0.0
5 H 3.47 64.718 1.096 H 0.0 **** 0.0
@<TRIPOS>BOND
1 1 2 1
2 1 3 1
3 1 4 1
4 1 5 1
@<TRIPOS>MOLECULE
CH4
5 4
SMALL
USER_CHARGES


@<TRIPOS>ATOM
1 C 5.154 67.335 87.075 C 0.0 **** 0.0
2 H 6.175 67.228 87.442 H 0.0 **** 0.0
3 H 4.661 66.362 87.087 H 0.0 **** 0.0
4 H 5.172 67.722 86.057 H 0.0 **** 0.0
5 H 4.608 68.027 87.717 H 0.0 **** 0.0
@<TRIPOS>BOND
1 1 2 1
2 1 3 1
3 1 4 1
4 1 5 1
@<TRIPOS>MOLECULE
CH4
5 4
SMALL
USER_CHARGES


@<TRIPOS>ATOM
1 C 26.651 37.858 60.366 C 0.0 **** 0.0
2 H 26.511 37.692 61.434 H 0.0 **** 0.0
3 H 27.35 37.12 59.973 H 0.0 **** 0.0
4 H 27.049 38.859 60.204 H 0.0 **** 0.0
5 H 25.693 37.76 59.855 H 0.0 **** 0.0
@<TRIPOS>BOND
1 1 2 1
2 1 3 1
3 1 4 1
4 1 5 1
@<TRIPOS>MOLECULE
CH4
5 4
SMALL
USER_CHARGES


@<TRIPOS>ATOM
1 C 11.088 17.695 71.137 C 0.0 **** 0.0
2 H 11.775 16.879 70.915 H 0.0 **** 0.0
3 H 11.093 18.408 70.313 H 0.0 **** 0.0
4 H 11.404 18.196 72.053 H 0.0 **** 0.0
5 H 10.082 17.297 71.269 H 0.0 **** 0.0
@<TRIPOS>BOND
1 1 2 1
2 1 3 1
3 1 4 1
4 1 5 1
@<TRIPOS>MOLECULE
CH4
5 4
SMALL
USER_CHARGES


@<TRIPOS>ATOM
1 C 98.333 80.295 55.951 C 0.0 **** 0.0
2 H 99.0 80.185 56.807 H 0.0 **** 0.0
3 H 98.44 81.297 55.534 H 0.0 **** 0.0
4 H 97.303 80.143 56.272 H 0.0 **** 0.0
5 H 98.591 79.556 55.193 H 0.0 **** 0.0
@<TRIPOS>BOND
1 1 2 1
2 1 3 1
3 1 4 1
4 1 5 1
@<TRIPOS>MOLECULE
CH4
5 4
SMALL
USER_CHARGES


@<TRIPOS>ATOM
1 C 8.512 61.435 21.878 C 0.0 **** 0.0
2 H 9.569 61.628 22.062 H 0.0 **** 0.0
3 H 8.31 61.51 20.809 H 0.0 **** 0.0
4 H 7.91 62.168 22.415 H 0.0 **** 0.0
5 H 8.26 60.433 22.226 H 0.0 **** 0.0
@<TRIPOS>BOND
1 1 2 1
2 1 3 1
3 1 4 1
4 1 5 1
@<TRIPOS>MOLECULE
CH4
5 4
SMALL
USER_CHARGES


@<TRIPOS>ATOM
1 C 49.433 37.624 49.82 C 0.0 **** 0.0
2 H 48.602 37.709 49.121 H 0.0 **** 0.0
3 H 50.23 38.305 49.521 H 0.0 **** 0.0
4 H 49.809 36.601 49.816 H 0.0 **** 0.0
5 H 49.092 37.882 50.823 H 0.0 **** 0.0
@<TRIPOS>BOND
1 1 2 1
2 1 3 1
3 1 4 1
4 1 5 1
@<TRIPOS>MOLECULE
CH4
5 4
SMALL
USER_CHARGES


@<TRIPOS>ATOM
1 C 14.079 20.219 25.3 C 0.0 **** 0.0
2 H 13.941 20.258 26.38 H 0.0 **** 0.0
3 H 14.269 21.224 24.921 H 0.0 **** 0.0
4 H 13.18 19.818 24.832 H 0.0 **** 0.0
5 H 14.928 19.576 25.065 H 0.0 **** 0.0
@<TRIPOS>BOND
1 1 2 1
2 1 3 1
3 1 4 1
4 1 5 1
@<TRIPOS>MOLECULE
CH4
5 4
SMALL
USER_CHARGES


@<TRIPOS>ATOM
1 C 71.858 1.122 97.794 C 0.0 **** 0.0
2 H 71.427 2.095 98.028 H 0.0 **** 0.0
3 H 72.71 1.254 97.126 H 0.0 **** 0.0
4 H 71.108 0.499 97.307 H 0.0 **** 0.0
5 H 72.189 0.64 98.714 H 0.0 **** 0.0
@<TRIPOS>BOND
1 1 2 1
2 1 3 1
3 1 5 1
4 1 4 1
@<TRIPOS>MOLECULE
CH4
5 4
SMALL
USER_CHARGES


@<TRIPOS>ATOM
1 C 38.91 45.2 50.625 C 0.0 **** 0.0
2 H 38.158 44.623 50.086 H 0.0 **** 0.0
3 H 39.87 44.686 50.571 H 0.0 **** 0.0
4 H 38.61 45.302 51.668 H 0.0 **** 0.0
5 H 39.0 46.189 50.175 H 0.0 **** 0.0
@<TRIPOS>BOND
1 1 2 1
2 1 3 1
3 1 4 1
4 1 5 1
@<TRIPOS>MOLECULE
CH4
5 4
SMALL
USER_CHARGES


@<TRIPOS>ATOM
1 C 39.476 91.364 19.657 C 0.0 **** 0.0
2 H 39.847 90.621 18.951 H 0.0 **** 0.0
3 H 38.795 92.044 19.143 H 0.0 **** 0.0
4 H 40.314 91.928 20.065 H 0.0 **** 0.0
5 H 38.946 90.862 20.466 H 0.0 **** 0.0
@<TRIPOS>BOND
1 1 2 1
2 1 3 1
3 1 4 1
4 1 5 1
@<TRIPOS>MOLECULE
CH4
5 4
SMALL
USER_CHARGES


@<TRIPOS>ATOM
1 C 7.017 85.913 31.005 C 0.0 **** 0.0
2 H 7.181 86.086 29.941 H 0.0 **** 0.0
3 H 6.792 84.859 31.17 H 0.0 **** 0.0
4 H 6.18 86.522 31.347 H 0.0 **** 0.0
5 H 7.915 86.185 31.559 H 0.0 **** 0.0
@<TRIPOS>BOND
1 1 2 1
2 1 3 1
3 1 4 1
4 1 5 1
@<TRIPOS>MOLECULE
CH4
5 4
SMALL
USER_CHARGES


@<TRIPOS>ATOM
1 C 81.695 26.307 26.687 C 0.0 **** 0.0
2 H 81.476 26.291 27.755 H 0.0 **** 0.0
3 H 81.026 25.617 26.17 H 0.0 **** 0.0
4 H 82.728 26.002 26.524 H 0.0 **** 0.0
5 H 81.547 27.315 26.301 H 0.0 **** 0.0
@<TRIPOS>BOND
1 1 2 1
2 1 3 1
3 1 4 1
4 1 5 1
@<TRIPOS>MOLECULE
CH4
5 4
SMALL
USER_CHARGES


@<TRIPOS>ATOM
1 C 45.146 21.028 94.92 C 0.0 **** 0.0
2 H 44.513 21.397 94.113 H 0.0 **** 0.0
3 H 45.6 21.871 95.441 H 0.0 **** 0.0
4 H 45.928 20.392 94.506 H 0.0 **** 0.0
5 H 44.541 20.451 95.62 H 0.0 **** 0.0
@<TRIPOS>BOND
1 1 2 1
2 1 3 1
3 1 4 1
4 1 5 1
@<TRIPOS>MOLECULE
CH4
5 4
SMALL
USER_CHARGES


@<TRIPOS>ATOM
1 C 19.992 43.718 60.042 C 0.0 **** 0.0
2 H 19.095 44.337 60.031 H 0.0 **** 0.0
3 H 20.875 44.358 60.065 H 0.0 **** 0.0
4 H 20.016 43.097 59.146 H 0.0 **** 0.0
5 H 19.982 43.08 60.926 H 0.0 **** 0.0
@<TRIPOS>BOND
1 1 2 1
2 1 3 1
3 1 4 1
4 1 5 1
@<TRIPOS>MOLECULE
CH4
5 4
SMALL
USER_CHARGES


@<TRIPOS>ATOM
1 C 82.657 58.284 52.7 C 0.0 **** 0.0
2 H 82.884 58.931 53.548 H 0.0 **** 0.0
3 H 81.656 57.867 52.82 H 0.0 **** 0.0
4 H 83.385 57.475 52.655 H 0.0 **** 0.0
5 H 82.701 58.865 51.779 H 0.0 **** 0.0
@<TRIPOS>BOND
1 1 2 1
2 1 3 1
3 1 4 1
4 1 5 1
@<TRIPOS>MOLECULE
CH4
5 4
SMALL
USER_CHARGES


@<TRIPOS>ATOM
1 C 7.645 26.426 30.331 C 0.0 **** 0.0
2 H 7.796 26.19 29.278 H 0.0 **** 0.0
3 H 8.613 26.518 30.825 H 0.0 **** 0.0
4 H 7.071 25.628 30.803 H 0.0 **** 0.0
5 H 7.101 27.366 30.419 H 0.0 **** 0.0
@<TRIPOS>BOND
1 1 2 1
2 1 3 1
3 1 4 1
4 1 5 1
@<TRIPOS>MOLECULE
CH4
5 4
SMALL
USER_CHARGES


@<TRIPOS>ATOM
1 C 12.98 85.036 78.636 C 0.0 **** 0.0
2 H 12.763 84.955 79.701 H 0.0 **** 0.0
3 H 13.588 85.923 78.456 H 0.0 **** 0.0
4 H 12.047 85.116 78.08 H 0.0 **** 0.0
5 H 13.524 84.15 78.308 H 0.0 **** 0.0
@<TRIPOS>BOND
1 1 2 1
2 1 3 1
3 1 4 1
4 1 5 1
@<TRIPOS>MOLECULE
CH4
5 4
SMALL
USER_CHARGES


@<TRIPOS>ATOM
1 C 31.24 2.698 57.086 C 0.0 **** 0.0
2 H 31.296 2.924 58.15 H 0.0 **** 0.0
3 H 32.239 2.75 56.651 H 0.0 **** 0.0
4 H 30.592 3.423 56.594 H 0.0 **** 0.0
5 H 30.835 1.696 56.948 H 0.0 **** 0.0
@<TRIPOS>BOND
1 1 2 1
2 1 3 1
3 1 4 1
4 1 5 1
@<TRIPOS>MOLECULE
CH4
5 4
SMALL
USER_CHARGES


@<TRIPOS>ATOM
1 C 30.694 61.501 23.889 C 0.0 **** 0.0
2 H 31.632 61.084 24.256 H 0.0 **** 0.0
3 H 29.858 60.995 24.374 H 0.0 **** 0.0
4 H 30.63 61.356 22.811 H 0.0 **** 0.0
5 H 30.656 62.566 24.116 H 0.0 **** 0.0
@<TRIPOS>BOND
1 1 2 1
2 1 3 1
3 1 4 1
4 1 5 1
@<TRIPOS>MOLECULE
CH4
5 4
SMALL
USER_CHARGES


@<TRIPOS>ATOM
1 C 56.955 55.533 11.047 C 0.0 **** 0.0
2 H 56.281 56.042 11.735 H 0.0 **** 0.0
3 H 57.982 55.642 11.397 H 0.0 **** 0.0
4 H 56.861 55.974 10.054 H 0.0 **** 0.0
5 H 56.697 54.475 11.001 H 0.0 **** 0.0
@<TRIPOS>BOND
1 1 2 1
2 1 3 1
3 1 4 1
4 1 5 1
@<TRIPOS>MOLECULE
CH4
5 4
SMALL
USER_CHARGES


@<TRIPOS>ATOM
1 C 35.131 84.656 46.427 C 0.0 **** 0.0
2 H 34.693 85.089 45.528 H 0.0 **** 0.0
3 H 36.217 84.656 46.338 H 0.0 **** 0.0
4 H 34.776 83.632 46.546 H 0.0 **** 0.0
5 H 34.837 85.246 47.295 H 0.0 **** 0.0
@<TRIPOS>BOND
1 1 2 1
2 1 3 1
3 1 4 1
4 1 5 1
@<TRIPOS>MOLECULE
CH4
5 4
SMALL
USER_CHARGES


@<TRIPOS>ATOM
1 C 74.545 87.441 16.982 C 0.0 **** 0.0
2 H 74.527 87.367 18.069 H 0.0 **** 0.0
3 H 73.827 88.195 16.658 H 0.0 **** 0.0
4 H 74.282 86.477 16.547 H 0.0 **** 0.0
5 H 75.545 87.727 16.654 H 0.0 **** 0.0
@<TRIPOS>BOND
1 1 2 1
2 1 3 1
3 1 4 1
4 1 5 1
@<TRIPOS>MOLECULE
CH4
5 4
SMALL
USER_CHARGES


@<TRIPOS>ATOM
1 C 61.748 10.631 50.264 C 0.0 **** 0.0
2 H 61.554 9.643 49.846 H 0.0 **** 0.0
3 H 61.722 11.374 49.466 H 0.0 **** 0.0
4 H 62.73 10.639 50.737 H 0.0 **** 0.0
5 H 60.985 10.868 51.006 H 0.0 **** 0.0
@<TRIPOS>BOND
1 1 2 1
2 1 3 1
3 1 4 1
4 1 5 1
@<TRIPOS>MOLECULE
CH4
5 4
SMALL
USER_CHARGES


@<TRIPOS>ATOM
1 C 68.512 11.691 35.158 C 0.0 **** 0.0
2 H 68.259 11.307 34.17 H 0.0 **** 0.0
3 H 69.501 12.149 35.127 H 0.0 **** 0.0
4 H 68.512 10.873 35.878 H 0.0 **** 0.0
5 H 67.775 12.437 35.457 H 0.0 **** 0.0
@<TRIPOS>BOND
1 1 2 1
2 1 3 1
3 1 4 1
4 1 5 1
@<TRIPOS>MOLECULE
CH4
5 4
SMALL
USER_CHARGES


@<TRIPOS>ATOM
1 C 62.018 9.515 59.473 C 0.0 **** 0.0
2 H 62.846 8.856 59.735 H 0.0 **** 0.0
3 H 62.247 10.032 58.541 H 0.0 **** 0.0
4 H 61.87 10.246 60.268 H 0.0 **** 0.0
5 H 61.11 8.925 59.348 H 0.0 **** 0.0
@<TRIPOS>BOND
1 1 2 1
2 1 3 1
3 1 4 1
4 1 5 1
@<TRIPOS>MOLECULE
CH4
5 4
SMALL
USER_CHARGES


@<TRIPOS>ATOM
1 C 3.761 63.178 93.589 C 0.0 **** 0.0
2 H 3.366 63.964 94.233 H 0.0 **** 0.0
3 H 3.051 62.351 93.548 H 0.0 **** 0.0
4 H 4.71 62.822 93.99 H 0.0 **** 0.0
5 H 3.916 63.574 92.586 H 0.0 **** 0.0
@<TRIPOS>BOND
1 1 2 1
2 1 3 1
3 1 4 1
4 1 5 1
@<TRIPOS>MOLECULE
CH4
5 4
SMALL
USER_CHARGES


@<TRIPOS>ATOM
1 C 61.232 36.471 80.857 C 0.0 **** 0.0
2 H 60.886 37.221 80.146 H 0.0 **** 0.0
3 H 60.826 35.497 80.582 H 0.0 **** 0.0
4 H 60.894 36.737 81.858 H 0.0 **** 0.0
5 H 62.321 36.429 80.84 H 0.0 **** 0.0
@<TRIPOS>BOND
1 1 3 1
2 1 4 1
3 1 5 1
4 1 2 1
@<TRIPOS>MOLECULE
CH4
5 4
SMALL
USER_CHARGES


@<TRIPOS>ATOM
1 C 42.395 25.71 49.987 C 0.0 **** 0.0
2 H 42.932 25.081 50.697 H 0.0 **** 0.0
3 H 42.079 25.107 49.135 H 0.0 **** 0.0
4 H 43.05 26.51 49.643 H 0.0 **** 0.0
5 H 41.519 26.14 50.473 H 0.0 **** 0.0
@<TRIPOS>BOND
1 1 2 1
2 1 3 1
3 1 4 1
4 1 5 1
@<TRIPOS>MOLECULE
CH4
5 4
SMALL
USER_CHARGES


@<TRIPOS>ATOM
1 C 90.472 19.625 79.814 C 0.0 **** 0.0
2 H 90.317 19.54 80.89 H 0.0 **** 0.0
3 H 89.541 19.4 79.294 H 0.0 **** 0.0
4 H 91.243 18.92 79.502 H 0.0 **** 0.0
5 H 90.788 20.64 79.572 H 0.0 **** 0.0
@<TRIPOS>BOND
1 1 2 1
2 1 3 1
3 1 4 1
4 1 5 1
@<TRIPOS>MOLECULE
CH4
5 4
SMALL
USER_CHARGES


@<TRIPOS>ATOM
1 C 89.239 59.275 67.909 C 0.0 **** 0.0
2 H 89.769 58.341 68.094 H 0.0 **** 0.0
3 H 88.171 59.075 67.819 H 0.0 **** 0.0
4 H 89.604 59.722 66.984 H 0.0 **** 0.0
5 H 89.412 59.962 68.738 H 0.0 **** 0.0
@<TRIPOS>BOND
1 1 2 1
2 1 3 1
3 1 4 1
4 1 5 1
@<TRIPOS>MOLECULE
CH4
5 4
SMALL
USER_CHARGES


@<TRIPOS>ATOM
1 C 42.262 60.535 46.752 C 0.0 **** 0.0
2 H 42.895 60.66 47.631 H 0.0 **** 0.0
3 H 42.383 59.525 46.36 H 0.0 **** 0.0
4 H 42.552 61.258 45.99 H 0.0 **** 0.0
5 H 41.221 60.696 47.029 H 0.0 **** 0.0
@<TRIPOS>BOND
1 1 2 1
2 1 3 1
3 1 4 1
4 1 5 1
@<TRIPOS>MOLECULE
CH4
5 4
SMALL
USER_CHARGES


@<TRIPOS>ATOM
1 C 59.414 14.008 6.14 C 0.0 **** 0.0
2 H 58.417 14.448 6.104 H 0.0 **** 0.0
3 H 59.666 13.599 5.162 H 0.0 **** 0.0
4 H 59.431 13.212 6.884 H 0.0 **** 0.0
5 H 60.139 14.775 6.412 H 0.0 **** 0.0
@<TRIPOS>BOND
1 1 2 1
2 1 3 1
3 1 4 1
4 1 5 1
@<TRIPOS>MOLECULE
CH4
5 4
SMALL
USER_CHARGES


@<TRIPOS>ATOM
1 C 9.074 48.021 26.923 C 0.0 **** 0.0
2 H 8.091 48.472 27.053 H 0.0 **** 0.0
3 H 9.816 48.605 27.469 H 0.0 **** 0.0
4 H 9.33 48.007 25.864 H 0.0 **** 0.0
5 H 9.06 47.001 27.307 H 0.0 **** 0.0
@<TRIPOS>BOND
1 1 2 1
2 1 3 1
3 1 4 1
4 1 5 1
@<TRIPOS>MOLECULE
CH4
5 4
SMALL
USER_CHARGES


@<TRIPOS>ATOM
1 C 60.595 39.861 48.795 C 0.0 **** 0.0
2 H 60.155 40.461 47.998 H 0.0 **** 0.0
3 H 61.476 40.369 49.188 H 0.0 **** 0.0
4 H 60.881 38.887 48.4 H 0.0 **** 0.0
5 H 59.865 39.729 49.594 H 0.0 **** 0.0
@<TRIPOS>BOND
1 1 2 1
2 1 3 1
3 1 4 1
4 1 5 1
@<TRIPOS>MOLECULE
CH4
5 4
SMALL
USER_CHARGES


@<TRIPOS>ATOM
1 C 39.641 70.311 4.889 C 0.0 **** 0.0
2 H 39.255 70.638 5.854 H 0.0 **** 0.0
3 H 39.746 69.225 4.888 H 0.0 **** 0.0
4 H 40.614 70.77 4.713 H 0.0 **** 0.0
5 H 38.95 70.61 4.101 H 0.0 **** 0.0
@<TRIPOS>BOND
1 1 2 1
2 1 3 1
3 1 4 1
4 1 5 1
@<TRIPOS>MOLECULE
CH4
5 4
SMALL
USER_CHARGES


@<TRIPOS>ATOM
1 C 51.968 65.374 32.141 C 0.0 **** 0.0
2 H 52.071 64.98 31.13 H 0.0 **** 0.0
3 H 51.089 64.936 32.614 H 0.0 **** 0.0
4 H 51.858 66.457 32.1 H 0.0 **** 0.0
5 H 52.856 65.121 32.72 H 0.0 **** 0.0
@<TRIPOS>BOND
1 1 2 1
2 1 3 1
3 1 4 1
4 1 5 1
@<TRIPOS>MOLECULE
CH4
5 4
SMALL
USER_CHARGES


@<TRIPOS>ATOM
1 C 46.027 13.994 27.385 C 0.0 **** 0.0
2 H 45.272 14.29 28.113 H 0.0 **** 0.0
3 H 47.02 14.18 27.796 H 0.0 **** 0.0
4 H 45.898 14.573 26.471 H 0.0 **** 0.0
5 H 45.919 12.933 27.161 H 0.0 **** 0.0
@<TRIPOS>BOND
1 1 2 1
2 1 3 1
3 1 4 1
4 1 5 1
@<TRIPOS>MOLECULE
CH4
5 4
SMALL
USER_CHARGES


@<TRIPOS>ATOM
1 C 31.735 34.649 72.203 C 0.0 **** 0.0
2 H 31.566 34.16 71.244 H 0.0 **** 0.0
3 H 31.095 35.528 72.281 H 0.0 **** 0.0
4 H 32.78 34.952 72.276 H 0.0 **** 0.0
5 H 31.501 33.955 73.011 H 0.0 **** 0.0
@<TRIPOS>BOND
1 1 2 1
2 1 3 1
3 1 4 1
4 1 5 1
@<TRIPOS>MOLECULE
CH4
5 4
SMALL
USER_CHARGES


@<TRIPOS>ATOM
1 C 18.293 11.265 41.245 C 0.0 **** 0.0
2 H 18.774 10.739 40.42 H 0.0 **** 0.0
3 H 18.219 10.599 42.105 H 0.0 **** 0.0
4 H 17.294 11.578 40.941 H 0.0 **** 0.0
5 H 18.883 12.141 41.512 H 0.0 **** 0.0
@<TRIPOS>BOND
1 1 2 1
2 1 3 1
3 1 4 1
4 1 5 1
@<TRIPOS>MOLECULE
CH4
5 4
SMALL
USER_CHARGES


@<TRIPOS>ATOM
1 C 31.746 49.341 41.413 C 0.0 **** 0.0
2 H 32.011 50.275 40.916 H 0.0 **** 0.0
3 H 32.547 48.615 41.273 H 0.0 **** 0.0
4 H 30.823 48.951 40.984 H 0.0 **** 0.0
5 H 31.603 49.524 42.478 H 0.0 **** 0.0
@<TRIPOS>BOND
1 1 2 1
2 1 3 1
3 1 4 1
4 1 5 1
@<TRIPOS>MOLECULE
CH4
5 4
SMALL
USER_CHARGES


@<TRIPOS>ATOM
1 C 94.729 33.136 93.296 C 0.0 **** 0.0
2 H 94.362 33.451 92.32 H 0.0 **** 0.0
3 H 94.208 33.691 94.076 H 0.0 **** 0.0
4 H 95.799 33.334 93.363 H 0.0 **** 0.0
5 H 94.548 32.069 93.426 H 0.0 **** 0.0
@<TRIPOS>BOND
1 1 2 1
2 1 3 1
3 1 4 1
4 1 5 1
@<TRIPOS>MOLECULE
CH4
5 4
SMALL
USER_CHARGES


@<TRIPOS>ATOM
1 C 91.694 25.783 21.882 C 0.0 **** 0.0
2 H 92.008 25.558 20.863 H 0.0 **** 0.0
3 H 92.491 25.515 22.575 H 0.0 **** 0.0
4 H 90.797 25.212 22.12 H 0.0 **** 0.0
5 H 91.48 26.849 21.968 H 0.0 **** 0.0
@<TRIPOS>BOND
1 1 2 1
2 1 3 1
3 1 4 1
4 1 5 1
@<TRIPOS>MOLECULE
CH4
5 4
SMALL
USER_CHARGES


@<TRIPOS>ATOM
1 C 28.246 61.914 4.848 C 0.0 **** 0.0
2 H 28.338 62.746 5.545 H 0.0 **** 0.0
3 H 28.177 62.298 3.83 H 0.0 **** 0.0
4 H 27.348 61.342 5.082 H 0.0 **** 0.0
5 H 29.12 61.269 4.935 H 0.0 **** 0.0
@<TRIPOS>BOND
1 1 2 1
2 1 3 1
3 1 4 1
4 1 5 1
@<TRIPOS>MOLECULE
CH4
5 4
SMALL
USER_CHARGES


@<TRIPOS>ATOM
1 C 97.038 36.607 21.702 C 0.0 **** 0.0
2 H 96.542 35.64 21.614 H 0.0 **** 0.0
3 H 98.095 36.454 21.919 H 0.0 **** 0.0
4 H 96.58 37.178 22.509 H 0.0 **** 0.0
5 H 96.934 37.155 20.765 H 0.0 **** 0.0
@<TRIPOS>BOND
1 1 3 1
2 1 4 1
3 1 5 1
4 1 2 1
@<TRIPOS>MOLECULE
CH4
5 4
SMALL
USER_CHARGES


@<TRIPOS>ATOM
1 C 64.688 57.286 54.13 C 0.0 **** 0.0
2 H 64.749 57.284 55.218 H 0.0 **** 0.0
3 H 63.816 56.715 53.814 H 0.0 **** 0.0
4 H 65.589 56.834 53.715 H 0.0 **** 0.0
5 H 64.6 58.312 53.773 H 0.0 **** 0.0
@<TRIPOS>BOND
1 1 2 1
2 1 3 1
3 1 4 1
4 1 5 1
@<TRIPOS>MOLECULE
CH4
5 4
SMALL
USER_CHARGES


@<TRIPOS>ATOM
1 C 41.731 58.478 3.254 C 0.0 **** 0.0
2 H 42.366 58.612 4.129 H 0.0 **** 0.0
3 H 42.267 58.801 2.362 H 0.0 **** 0.0
4 H 40.824 59.072 3.369 H 0.0 **** 0.0
5 H 41.465 57.425 3.157 H 0.0 **** 0.0
@<TRIPOS>BOND
1 1 2 1
2 1 3 1
3 1 4 1
4 1 5 1
@<TRIPOS>MOLECULE
CH4
5 4
SMALL
USER_CHARGES


@<TRIPOS>ATOM
1 C 76.826 12.275 94.547 C 0.0 **** 0.0
2 H 77.317 11.73 93.74 H 0.0 **** 0.0
3 H 76.927 13.347 94.376 H 0.0 **** 0.0
4 H 77.293 12.013 95.497 H 0.0 **** 0.0
5 H 75.77 12.008 94.575 H 0.0 **** 0.0
@<TRIPOS>BOND
1 1 2 1
2 1 3 1
3 1 4 1
4 1 5 1
@<TRIPOS>MOLECULE
CH4
5 4
SMALL
USER_CHARGES


@<TRIPOS>ATOM
1 C 56.984 4.782 7.436 C 0.0 **** 0.0
2 H 57.221 4.179 8.313 H 0.0 **** 0.0
3 H 57.908 5.117 6.965 H 0.0 **** 0.0
4 H 56.396 5.649 7.739 H 0.0 **** 0.0
5 H 56.411 4.184 6.728 H 0.0 **** 0.0
@<TRIPOS>BOND
1 1 2 1
2 1 3 1
3 1 4 1
4 1 5 1
@<TRIPOS>MOLECULE
CH4
5 4
SMALL
USER_CHARGES


@<TRIPOS>ATOM
1 C 61.402 83.665 11.241 C 0.0 **** 0.0
2 H 60.643 82.892 11.12 H 0.0 **** 0.0
3 H 62.253 83.256 11.787 H 0.0 **** 0.0
4 H 60.982 84.503 11.798 H 0.0 **** 0.0
5 H 61.731 84.008 10.26 H 0.0 **** 0.0
@<TRIPOS>BOND
1 1 2 1
2 1 3 1
3 1 4 1
4 1 5 1
@<TRIPOS>MOLECULE
CH4
5 4
SMALL
USER_CHARGES


@<TRIPOS>ATOM
1 C 19.857 25.603 76.586 C 0.0 **** 0.0
2 H 19.642 24.723 75.981 H 0.0 **** 0.0
3 H 20.894 25.57 76.92 H 0.0 **** 0.0
4 H 19.196 25.618 77.453 H 0.0 **** 0.0
5 H 19.695 26.502 75.991 H 0.0 **** 0.0
@<TRIPOS>BOND
1 1 2 1
2 1 3 1
3 1 4 1
4 1 5 1
@<TRIPOS>MOLECULE
CH4
5 4
SMALL
USER_CHARGES


@<TRIPOS>ATOM
1 C 90.796 39.714 18.988 C 0.0 **** 0.0
2 H 91.802 39.302 18.91 H 0.0 **** 0.0
3 H 90.853 40.802 19.04 H 0.0 **** 0.0
4 H 90.315 39.331 19.888 H 0.0 **** 0.0
5 H 90.215 39.422 18.113 H 0.0 **** 0.0
@<TRIPOS>BOND
1 1 2 1
2 1 3 1
3 1 4 1
4 1 5 1
@<TRIPOS>MOLECULE
CH4
5 4
SMALL
USER_CHARGES


@<TRIPOS>ATOM
1 C 76.641 43.14 92.701 C 0.0 **** 0.0
2 H 76.658 43.274 93.783 H 0.0 **** 0.0
3 H 77.302 43.871 92.235 H 0.0 **** 0.0
4 H 75.625 43.283 92.334 H 0.0 **** 0.0
5 H 76.979 42.134 92.455 H 0.0 **** 0.0
@<TRIPOS>BOND
1 1 2 1
2 1 3 1
3 1 4 1
4 1 5 1
@<TRIPOS>MOLECULE
CH4
5 4
SMALL
USER_CHARGES


@<TRIPOS>ATOM
1 C 89.756 28.598 2.412 C 0.0 **** 0.0
2 H 90.458 29.374 2.72 H 0.0 **** 0.0
3 H 89.923 28.353 1.364 H 0.0 **** 0.0
4 H 88.736 28.959 2.543 H 0.0 **** 0.0
5 H 89.908 27.709 3.023 H 0.0 **** 0.0
@<TRIPOS>BOND
1 1 2 1
2 1 3 1
3 1 4 1
4 1 5 1
@<TRIPOS>MOLECULE
CH4
5 4
SMALL
USER_CHARGES


@<TRIPOS>ATOM
1 C 66.476 14.298 11.02 C 0.0 **** 0.0
2 H 66.347 13.315 10.567 H 0.0 **** 0.0
3 H 66.585 14.189 12.099 H 0.0 **** 0.0
4 H 65.605 14.916 10.802 H 0.0 **** 0.0
5 H 67.369 14.771 10.61 H 0.0 **** 0.0
@<TRIPOS>BOND
1 1 2 1
2 1 3 1
3 1 4 1
4 1 5 1
@<TRIPOS>MOLECULE
CH4
5 4
SMALL
USER_CHARGES


@<TRIPOS>ATOM
1 C 41.62 44.063 75.555 C 0.0 **** 0.0
2 H 41.016 43.74 74.706 H 0.0 **** 0.0
3 H 42.638 43.692 75.438 H 0.0 **** 0.0
4 H 41.192 43.667 76.476 H 0.0 **** 0.0
5 H 41.632 45.152 75.599 H 0.0 **** 0.0
@<TRIPOS>BOND
1 1 2 1
2 1 3 1
3 1 4 1
4 1 5 1
@<TRIPOS>MOLECULE
CH4
5 4
SMALL
USER_CHARGES


@<TRIPOS>ATOM
1 C 6.542 81.215 29.678 C 0.0 **** 0.0
2 H 6.761 80.524 28.864 H 0.0 **** 0.0
3 H 5.549 81.003 30.076 H 0.0 **** 0.0
4 H 6.573 82.238 29.305 H 0.0 **** 0.0
5 H 7.284 81.093 30.468 H 0.0 **** 0.0
@<TRIPOS>BOND
1 1 2 1
2 1 3 1
3 1 4 1
4 1 5 1
@<TRIPOS>MOLECULE
CH4
5 4
SMALL
USER_CHARGES


@<TRIPOS>ATOM
1 C 16.96 77.066 6.412 C 0.0 **** 0.0
2 H 16.802 77.151 5.337 H 0.0 **** 0.0
3 H 17.701 76.291 6.61 H 0.0 **** 0.0
4 H 16.02 76.803 6.897 H 0.0 **** 0.0
5 H 17.316 78.019 6.803 H 0.0 **** 0.0
@<TRIPOS>BOND
1 1 2 1
2 1 3 1
3 1 4 1
4 1 5 1
@<TRIPOS>MOLECULE
CH4
5 4
SMALL
USER_CHARGES


@<TRIPOS>ATOM
1 C 69.95 48.328 55.741 C 0.0 **** 0.0
2 H 69.31 47.464 55.92 H 0.0 **** 0.0
3 H 70.295 48.317 54.707 H 0.0 **** 0.0
4 H 70.809 48.289 56.411 H 0.0 **** 0.0
5 H 69.386 49.242 55.927 H 0.0 **** 0.0
@<TRIPOS>BOND
1 1 2 1
2 1 3 1
3 1 4 1
4 1 5 1
@<TRIPOS>MOLECULE
CH4
5 4
SMALL
USER_CHARGES


@<TRIPOS>ATOM
1 C 43.75 77.538 55.965 C 0.0 **** 0.0
2 H 43.477 77.666 57.013 H 0.0 **** 0.0
3 H 42.873 77.228 55.397 H 0.0 **** 0.0
4 H 44.525 76.776 55.883 H 0.0 **** 0.0
5 H 44.125 78.482 55.57 H 0.0 **** 0.0
@<TRIPOS>BOND
1 1 2 1
2 1 3 1
3 1 4 1
4 1 5 1
@<TRIPOS>MOLECULE
CH4
5 4
SMALL
USER_CHARGES


@<TRIPOS>ATOM
1 C 7.603 57.544 86.412 C 0.0 **** 0.0
2 H 6.566 57.21 86.454 H 0.0 **** 0.0
3 H 7.876 57.752 85.377 H 0.0 **** 0.0
4 H 8.252 56.765 86.811 H 0.0 **** 0.0
5 H 7.716 58.451 87.007 H 0.0 **** 0.0
@<TRIPOS>BOND
1 1 2 1
2 1 3 1
3 1 4 1
4 1 5 1
@<TRIPOS>MOLECULE
CH4
5 4
SMALL
USER_CHARGES


@<TRIPOS>ATOM
1 C 38.883 42.432 70.466 C 0.0 **** 0.0
2 H 38.441 42.752 71.409 H 0.0 **** 0.0
3 H 38.603 41.397 70.266 H 0.0 **** 0.0
4 H 39.969 42.508 70.53 H 0.0 **** 0.0
5 H 38.521 43.069 69.66 H 0.0 **** 0.0
@<TRIPOS>BOND
1 1 2 1
2 1 3 1
3 1 4 1
4 1 5 1
@<TRIPOS>MOLECULE
CH4
5 4
SMALL
USER_CHARGES


@<TRIPOS>ATOM
1 C 41.074 93.908 55.206 C 0.0 **** 0.0
2 H 39.992 93.776 55.228 H 0.0 **** 0.0
3 H 41.551 92.956 54.971 H 0.0 **** 0.0
4 H 41.417 94.256 56.18 H 0.0 **** 0.0
5 H 41.334 94.643 54.444 H 0.0 **** 0.0
@<TRIPOS>BOND
1 1 2 1
2 1 3 1
3 1 4 1
4 1 5 1
@<TRIPOS>MOLECULE
CH4
5 4
SMALL
USER_CHARGES


@<TRIPOS>ATOM
1 C 54.019 14.722 45.734 C 0.0 **** 0.0
2 H 54.734 14.247 46.406 H 0.0 **** 0.0
3 H 54.382 15.713 45.46 H 0.0 **** 0.0
4 H 53.055 14.814 46.235 H 0.0 **** 0.0
5 H 53.906 14.115 44.836 H 0.0 **** 0.0
@<TRIPOS>BOND
1 1 2 1
2 1 3 1
3 1 4 1
4 1 5 1
@<TRIPOS>MOLECULE
CH4
5 4
SMALL
USER_CHARGES


@<TRIPOS>ATOM
1 C 28.621 81.735 82.662 C 0.0 **** 0.0
2 H 27.873 82.17 83.324 H 0.0 **** 0.0
3 H 28.188 81.587 81.672 H 0.0 **** 0.0
4 H 28.947 80.775 83.063 H 0.0 **** 0.0
5 H 29.476 82.406 82.588 H 0.0 **** 0.0
@<TRIPOS>BOND
1 1 2 1
2 1 3 1
3 1 4 1
4 1 5 1
@<TRIPOS>MOLECULE
CH4
5 4
SMALL
USER_CHARGES


@<TRIPOS>ATOM
1 C 84.512 30.409 44.448 C 0.0 **** 0.0
2 H 83.518 30.789 44.209 H 0.0 **** 0.0
3 H 84.423 29.419 44.897 H 0.0 **** 0.0
4 H 85.001 31.085 45.149 H 0.0 **** 0.0
5 H 85.103 30.342 43.535 H 0.0 **** 0.0
@<TRIPOS>BOND
1 1 2 1
2 1 3 1
3 1 4 1
4 1 5 1
@<TRIPOS>MOLECULE
CH4
5 4
SMALL
USER_CHARGES


@<TRIPOS>ATOM
1 C 54.974 7.442 51.924 C 0.0 **** 0.0
2 H 55.011 6.543 51.308 H 0.0 **** 0.0
3 H 54.116 7.388 52.594 H 0.0 **** 0.0
4 H 54.881 8.318 51.283 H 0.0 **** 0.0
5 H 55.889 7.517 52.511 H 0.0 **** 0.0
@<TRIPOS>BOND
1 1 2 1
2 1 3 1
3 1 4 1
4 1 5 1
@<TRIPOS>MOLECULE
CH4
5 4
SMALL
USER_CHARGES


@<TRIPOS>ATOM
1 C 95.892 92.827 86.614 C 0.0 **** 0.0
2 H 96.974 92.849 86.484 H 0.0 **** 0.0
3 H 95.656 92.559 87.645 H 0.0 **** 0.0
4 H 95.46 92.088 85.939 H 0.0 **** 0.0
5 H 95.479 93.81 86.39 H 0.0 **** 0.0
@<TRIPOS>BOND
1 1 2 1
2 1 3 1
3 1 4 1
4 1 5 1
@<TRIPOS>MOLECULE
CH4
5 4
SMALL
USER_CHARGES


@<TRIPOS>ATOM
1 C 95.644 41.958 54.69 C 0.0 **** 0.0
2 H 95.676 41.984 55.779 H 0.0 **** 0.0
3 H 96.542 42.427 54.288 H 0.0 **** 0.0
4 H 94.764 42.498 54.34 H 0.0 **** 0.0
5 H 95.592 40.922 54.353 H 0.0 **** 0.0
@<TRIPOS>BOND
1 1 2 1
2 1 3 1
3 1 4 1
4 1 5 1
@<TRIPOS>MOLECULE
CH4
5 4
SMALL
USER_CHARGES


@<TRIPOS>ATOM
1 C 76.404 89.803 61.888 C 0.0 **** 0.0
2 H 76.671 90.318 62.811 H 0.0 **** 0.0
3 H 77.308 89.431 61.405 H 0.0 **** 0.0
4 H 75.893 90.496 61.22 H 0.0 **** 0.0
5 H 75.744 88.967 62.117 H 0.0 **** 0.0
@<TRIPOS>BOND
1 1 2 1
2 1 3 1
3 1 4 1
4 1 5 1
@<TRIPOS>MOLECULE
CH4
5 4
SMALL
USER_CHARGES


@<TRIPOS>ATOM
1 C 83.53 47.866 31.711 C 0.0 **** 0.0
2 H 82.675 48.515 31.899 H 0.0 **** 0.0
3 H 83.207 46.998 31.136 H 0.0 **** 0.0
4 H 83.95 47.536 32.661 H 0.0 **** 0.0
5 H 84.286 48.414 31.15 H 0.0 **** 0.0
@<TRIPOS>BOND
1 1 2 1
2 1 3 1
3 1 4 1
4 1 5 1
@<TRIPOS>MOLECULE
CH4
5 4
SMALL
USER_CHARGES


@<TRIPOS>ATOM
1 C 37.366 18.759 32.521 C 0.0 **** 0.0
2 H 38.097 19.205 31.846 H 0.0 **** 0.0
3 H 37.519 19.146 33.528 H 0.0 **** 0.0
4 H 37.489 17.676 32.524 H 0.0 **** 0.0
5 H 36.36 19.009 32.184 H 0.0 **** 0.0
@<TRIPOS>BOND
1 1 2 1
2 1 3 1
3 1 4 1
4 1 5 1
@<TRIPOS>MOLECULE
CH4
5 4
SMALL
USER_CHARGES


@<TRIPOS>ATOM
1 C 1.871 32.196 67.174 C 0.0 **** 0.0
2 H 2.748 32.644 66.707 H 0.0 **** 0.0
3 H 1.925 32.332 68.254 H 0.0 **** 0.0
4 H 1.84 31.131 66.942 H 0.0 **** 0.0
5 H 0.971 32.677 66.791 H 0.0 **** 0.0
@<TRIPOS>BOND
1 1 2 1
2 1 3 1
3 1 4 1
4 1 5 1
@<TRIPOS>MOLECULE
CH4
5 4
SMALL
USER_CHARGES


@<TRIPOS>ATOM
1 C 31.492 13.807 85.859 C 0.0 **** 0.0
2 H 31.409 13.619 86.929 H 0.0 **** 0.0
3 H 30.808 13.15 85.321 H 0.0 **** 0.0
4 H 32.514 13.614 85.534 H 0.0 **** 0.0
5 H 31.235 14.846 85.652 H 0.0 **** 0.0
@<TRIPOS>BOND
1 1 2 1
2 1 3 1
3 1 4 1
4 1 5 1
@<TRIPOS>MOLECULE
CH4
5 4
SMALL
USER_CHARGES


@<TRIPOS>ATOM
1 C 89.45 28.591 78.574 C 0.0 **** 0.0
2 H 89.83 29.051 79.486 H 0.0 **** 0.0
3 H 90.267 28.094 78.05 H 0.0 **** 0.0
4 H 89.02 29.36 77.932 H 0.0 **** 0.0
5 H 88.683 27.86 78.829 H 0.0 **** 0.0
@<TRIPOS>BOND
1 1 2 1
2 1 3 1
3 1 4 1
4 1 5 1
@<TRIPOS>MOLECULE
CH4
5 4
SMALL
USER_CHARGES


@<TRIPOS>ATOM
1 C 48.633 4.897 11.455 C 0.0 **** 0.0
2 H 49.113 4.873 12.433 H 0.0 **** 0.0
3 H 49.355 4.612 10.689 H 0.0 **** 0.0
4 H 48.268 5.904 11.254 H 0.0 **** 0.0
5 H 47.797 4.198 11.444 H 0.0 **** 0.0
@<TRIPOS>BOND
1 1 2 1
2 1 3 1
3 1 4 1
4 1 5 1
@<TRIPOS>MOLECULE
CH4
5 4
SMALL
USER_CHARGES


@<TRIPOS>ATOM
1 C 0.569 81.25 95.103 C 0.0 **** 0.0
2 H 0.742 81.438 94.043 H 0.0 **** 0.0
3 H 0.002 82.078 95.531 H 0.0 **** 0.0
4 H 1.526 81.16 95.617 H 0.0 **** 0.0
5 H 0.005 80.325 95.22 H 0.0 **** 0.0
@<TRIPOS>BOND
1 1 2 1
2 1 3 1
3 1 4 1
4 1 5 1
@<TRIPOS>MOLECULE
CH4
5 4
SMALL
USER_CHARGES


@<TRIPOS>ATOM
1 C 88.61 37.446 54.147 C 0.0 **** 0.0
2 H 87.667 37.027 53.796 H 0.0 **** 0.0
3 H 88.614 38.523 53.98 H 0.0 **** 0.0
4 H 89.436 36.989 53.601 H 0.0 **** 0.0
5 H 88.723 37.243 55.212 H 0.0 **** 0.0
@<TRIPOS>BOND
1 1 2 1
2 1 3 1
3 1 4 1
4 1 5 1
@<TRIPOS>MOLECULE
CH4
5 4
SMALL
USER_CHARGES


@<TRIPOS>ATOM
1 C 17.135 96.904 80.1 C 0.0 **** 0.0
2 H 18.014 96.713 80.715 H 0.0 **** 0.0
3 H 16.271 96.398 80.532 H 0.0 **** 0.0
4 H 17.309 96.529 79.091 H 0.0 **** 0.0
5 H 16.945 97.977 80.061 H 0.0 **** 0.0
@<TRIPOS>BOND
1 1 2 1
2 1 3 1
3 1 4 1
4 1 5 1
@<TRIPOS>MOLECULE
CH4
5 4
SMALL
USER_CHARGES


@<TRIPOS>ATOM
1 C 49.967 52.864 48.543 C 0.0 **** 0.0
2 H 50.309 52.296 47.678 H 0.0 **** 0.0
3 H 49.172 52.314 49.047 H 0.0 **** 0.0
4 H 49.587 53.832 48.214 H 0.0 **** 0.0
5 H 50.798 53.015 49.232 H 0.0 **** 0.0
@<TRIPOS>BOND
1 1 2 1
2 1 3 1
3 1 4 1
4 1 5 1
@<TRIPOS>MOLECULE
CH4
5 4
SMALL
USER_CHARGES


@<TRIPOS>ATOM
1 C 88.932 4.976 76.164 C 0.0 **** 0.0
2 H 89.266 5.116 75.136 H 0.0 **** 0.0
3 H 89.38 5.74 76.799 H 0.0 **** 0.0
4 H 89.236 3.989 76.513 H 0.0 **** 0.0
5 H 87.846 5.058 76.207 H 0.0 **** 0.0
@<TRIPOS>BOND
1 1 2 1
2 1 3 1
3 1 4 1
4 1 5 1
@<TRIPOS>MOLECULE
CH4
5 4
SMALL
USER_CHARGES


@<TRIPOS>ATOM
1 C 84.8 15.404 42.565 C 0.0 **** 0.0
2 H 85.022 15.557 41.51 H 0.0 **** 0.0
3 H 85.582 15.862 43.172 H 0.0 **** 0.0
4 H 84.755 14.335 42.776 H 0.0 **** 0.0
5 H 83.84 15.862 42.804 H 0.0 **** 0.0
@<TRIPOS>BOND
1 1 2 1
2 1 3 1
3 1 4 1
4 1 5 1
@<TRIPOS>MOLECULE
CH4
5 4
SMALL
USER_CHARGES


@<TRIPOS>ATOM
1 C 83.074 2.814 87.258 C 0.0 **** 0.0
2 H 82.97 3.722 86.664 H 0.0 **** 0.0
3 H 84.037 2.822 87.769 H 0.0 **** 0.0
4 H 83.016 1.944 86.605 H 0.0 **** 0.0
5 H 82.272 2.769 87.995 H 0.0 **** 0.0
@<TRIPOS>BOND
1 1 2 1
2 1 3 1
3 1 4 1
4 1 5 1
@<TRIPOS>MOLECULE
CH4
5 4
SMALL
USER_CHARGES


@<TRIPOS>ATOM
1 C 3.66 84.312 68.876 C 0.0 **** 0.0
2 H 4.087 84.749 69.778 H 0.0 **** 0.0
3 H 2.979 85.028 68.414 H 0.0 **** 0.0
4 H 3.114 83.405 69.134 H 0.0 **** 0.0
5 H 4.46 84.069 68.177 H 0.0 **** 0.0
@<TRIPOS>BOND
1 1 2 1
2 1 3 1
3 1 4 1
4 1 5 1
@<TRIPOS>MOLECULE
CH4
5 4
SMALL
USER_CHARGES


@<TRIPOS>ATOM
1 C 13.545 49.217 30.002 C 0.0 **** 0.0
2 H 13.375 48.208 30.378 H 0.0 **** 0.0
3 H 13.369 49.238 28.926 H 0.0 **** 0.0
4 H 14.574 49.512 30.207 H 0.0 **** 0.0
5 H 12.863 49.909 30.496 H 0.0 **** 0.0
@<TRIPOS>BOND
1 1 2 1
2 1 3 1
3 1 4 1
4 1 5 1
@<TRIPOS>MOLECULE
CH4
5 4
SMALL
USER_CHARGES


@<TRIPOS>ATOM
1 C 4.827 82.368 25.621 C 0.0 **** 0.0
2 H 5.343 83.145 25.057 H 0.0 **** 0.0
3 H 4.144 81.833 24.961 H 0.0 **** 0.0
4 H 4.264 82.824 26.435 H 0.0 **** 0.0
5 H 5.558 81.67 26.031 H 0.0 **** 0.0
@<TRIPOS>BOND
1 1 5 1
2 1 2 1
3 1 3 1
4 1 4 1
@<TRIPOS>MOLECULE
CH4
5 4
SMALL
USER_CHARGES


@<TRIPOS>ATOM
1 C 47.436 32.127 0.766 C 0.0 **** 0.0
2 H 47.454 32.323 1.838 H 0.0 **** 0.0
3 H 46.72 31.333 0.553 H 0.0 **** 0.0
4 H 48.428 31.821 0.436 H 0.0 **** 0.0
5 H 47.141 33.034 0.236 H 0.0 **** 0.0
@<TRIPOS>BOND
1 1 2 1
2 1 3 1
3 1 4 1
4 1 5 1
@<TRIPOS>MOLECULE
CH4
5 4
SMALL
USER_CHARGES


@<TRIPOS>ATOM
1 C 75.651 41.015 62.688 C 0.0 **** 0.0
2 H 75.995 41.877 62.117 H 0.0 **** 0.0
3 H 76.411 40.737 63.419 H 0.0 **** 0.0
4 H 75.473 40.179 62.012 H 0.0 **** 0.0
5 H 74.725 41.268 63.204 H 0.0 **** 0.0
@<TRIPOS>BOND
1 1 2 1
2 1 3 1
3 1 4 1
4 1 5 1
@<TRIPOS>MOLECULE
CH4
5 4
SMALL
USER_CHARGES


@<TRIPOS>ATOM
1 C 91.286 61.831 24.793 C 0.0 **** 0.0
2 H 90.456 61.994 25.481 H 0.0 **** 0.0
3 H 91.076 60.961 24.171 H 0.0 **** 0.0
4 H 92.2 61.66 25.362 H 0.0 **** 0.0
5 H 91.411 62.71 24.16 H 0.0 **** 0.0
@<TRIPOS>BOND
1 1 2 1
2 1 3 1
3 1 4 1
4 1 5 1
@<TRIPOS>MOLECULE
CH4
5 4
SMALL
USER_CHARGES


@<TRIPOS>ATOM
1 C 32.085 93.717 6.347 C 0.0 **** 0.0
2 H 32.103 93.701 7.437 H 0.0 **** 0.0
3 H 31.587 92.82 5.979 H 0.0 **** 0.0
4 H 33.106 93.748 5.967 H 0.0 **** 0.0
5 H 31.543 94.599 6.006 H 0.0 **** 0.0
@<TRIPOS>BOND
1 1 2 1
2 1 3 1
3 1 4 1
4 1 5 1
@<TRIPOS>MOLECULE
CH4
5 4
SMALL
USER_CHARGES


@<TRIPOS>ATOM
1 C 36.044 51.061 41.903 C 0.0 **** 0.0
2 H 36.382 50.959 40.872 H 0.0 **** 0.0
3 H 35.457 50.185 42.181 H 0.0 **** 0.0
4 H 35.428 51.955 41.997 H 0.0 **** 0.0
5 H 36.908 51.144 42.562 H 0.0 **** 0.0
@<TRIPOS>BOND
1 1 2 1
2 1 3 1
3 1 4 1
4 1 5 1
@<TRIPOS>MOLECULE
CH4
5 4
SMALL
USER_CHARGES


@<TRIPOS>ATOM
1 C 64.201 42.221 65.188 C 0.0 **** 0.0
2 H 63.777 42.964 64.512 H 0.0 **** 0.0
3 H 65.182 42.555 65.524 H 0.0 **** 0.0
4 H 64.299 41.269 64.665 H 0.0 **** 0.0
5 H 63.544 42.097 66.049 H 0.0 **** 0.0
@<TRIPOS>BOND
1 1 2 1
2 1 3 1
3 1 4 1
4 1 5 1
@<TRIPOS>MOLECULE
CH4
5 4
SMALL
USER_CHARGES


@<TRIPOS>ATOM
1 C 25.681 35.634 54.195 C 0.0 **** 0.0
2 H 25.8 36.384 54.977 H 0.0 **** 0.0
3 H 26.591 35.587 53.596 H 0.0 **** 0.0
4 H 24.84 35.905 53.558 H 0.0 **** 0.0
5 H 25.493 34.661 54.65 H 0.0 **** 0.0
@<TRIPOS>BOND
1 1 2 1
2 1 3 1
3 1 4 1
4 1 5 1
@<TRIPOS>MOLECULE
CH4
5 4
SMALL
USER_CHARGES


@<TRIPOS>ATOM
1 C 9.457 21.067 93.672 C 0.0 **** 0.0
2 H 8.496 21.086 94.186 H 0.0 **** 0.0
3 H 9.631 20.07 93.265 H 0.0 **** 0.0
4 H 10.25 21.315 94.378 H 0.0 **** 0.0
5 H 9.451 21.795 92.862 H 0.0 **** 0.0
@<TRIPOS>BOND
1 1 2 1
2 1 3 1
3 1 4 1
4 1 5 1
@<TRIPOS>MOLECULE
CH4
5 4
SMALL
USER_CHARGES


@<TRIPOS>ATOM
1 C 97.826 17.211 25.249 C 0.0 **** 0.0
2 H 97.974 17.172 24.17 H 0.0 **** 0.0
3 H 97.264 16.334 25.57 H 0.0 **** 0.0
4 H 97.27 18.113 25.507 H 0.0 **** 0.0
5 H 98.794 17.226 25.748 H 0.0 **** 0.0
@<TRIPOS>BOND
1 1 5 1
2 1 2 1
3 1 3 1
4 1 4 1
@<TRIPOS>MOLECULE
CH4
5 4
SMALL
USER_CHARGES


@<TRIPOS>ATOM
1 C 86.069 50.813 1.067 C 0.0 **** 0.0
2 H 86.253 50.99 0.008 H 0.0 **** 0.0
3 H 85.665 49.809 1.203 H 0.0 **** 0.0
4 H 85.353 51.546 1.439 H 0.0 **** 0.0
5 H 87.004 50.905 1.619 H 0.0 **** 0.0
@<TRIPOS>BOND
1 1 2 1
2 1 3 1
3 1 4 1
4 1 5 1
@<TRIPOS>MOLECULE
CH4
5 4
SMALL
USER_CHARGES


@<TRIPOS>ATOM
1 C 82.129 20.738 16.014 C 0.0 **** 0.0
2 H 82.111 20.732 14.924 H 0.0 **** 0.0
3 H 81.427 21.486 16.384 H 0.0 **** 0.0
4 H 83.134 20.978 16.36 H 0.0 **** 0.0
5 H 81.842 19.754 16.386 H 0.0 **** 0.0
@<TRIPOS>BOND
1 1 2 1
2 1 3 1
3 1 4 1
4 1 5 1
@<TRIPOS>MOLECULE
CH4
5 4
SMALL
USER_CHARGES


@<TRIPOS>ATOM
1 C 47.09 68.602 22.795 C 0.0 **** 0.0
2 H 46.189 68.695 23.401 H 0.0 **** 0.0
3 H 47.946 68.41 23.443 H 0.0 **** 0.0
4 H 47.253 69.528 22.242 H 0.0 **** 0.0
5 H 46.973 67.776 22.094 H 0.0 **** 0.0
@<TRIPOS>BOND
1 1 2 1
2 1 3 1
3 1 4 1
4 1 5 1
@<TRIPOS>MOLECULE
CH4
5 4
SMALL
USER_CHARGES


@<TRIPOS>ATOM
1 C 45.038 28.606 89.014 C 0.0 **** 0.0
2 H 46.069 28.424 89.319 H 0.0 **** 0.0
3 H 44.895 29.672 88.835 H 0.0 **** 0.0
4 H 44.363 28.277 89.804 H 0.0 **** 0.0
5 H 44.826 28.052 88.1 H 0.0 **** 0.0
@<TRIPOS>BOND
1 1 2 1
2 1 3 1
3 1 4 1
4 1 5 1
@<TRIPOS>MOLECULE
CH4
5 4
SMALL
USER_CHARGES


@<TRIPOS>ATOM
1 C 74.271 55.207 76.103 C 0.0 **** 0.0
2 H 74.193 54.889 75.064 H 0.0 **** 0.0
3 H 73.287 55.501 76.468 H 0.0 **** 0.0
4 H 74.954 56.054 76.174 H 0.0 **** 0.0
5 H 74.652 54.383 76.707 H 0.0 **** 0.0
@<TRIPOS>BOND
1 1 2 1
2 1 3 1
3 1 4 1
4 1 5 1
@<TRIPOS>MOLECULE
CH4
5 4
SMALL
USER_CHARGES


@<TRIPOS>ATOM
1 C 74.562 35.483 40.909 C 0.0 **** 0.0
2 H 74.17 35.591 41.92 H 0.0 **** 0.0
3 H 73.736 35.338 40.213 H 0.0 **** 0.0
4 H 75.227 34.621 40.868 H 0.0 **** 0.0
5 H 75.115 36.382 40.636 H 0.0 **** 0.0
@<TRIPOS>BOND
1 1 2 1
2 1 3 1
3 1 4 1
4 1 5 1
@<TRIPOS>MOLECULE
CH4
5 4
SMALL
USER_CHARGES


@<TRIPOS>ATOM
1 C 91.436 64.082 41.671 C 0.0 **** 0.0
2 H 91.089 64.561 42.587 H 0.0 **** 0.0
3 H 90.76 63.268 41.409 H 0.0 **** 0.0
4 H 92.439 63.686 41.826 H 0.0 **** 0.0
5 H 91.454 64.814 40.864 H 0.0 **** 0.0
@<TRIPOS>BOND
1 1 2 1
2 1 3 1
3 1 4 1
4 1 5 1
@<TRIPOS>MOLECULE
CH4
5 4
SMALL
USER_CHARGES


@<TRIPOS>ATOM
1 C 54.04 40.376 90.982 C 0.0 **** 0.0
2 H 54.042 40.939 91.916 H 0.0 **** 0.0
3 H 53.901 39.316 91.197 H 0.0 **** 0.0
4 H 54.991 40.521 90.469 H 0.0 **** 0.0
5 H 53.227 40.728 90.347 H 0.0 **** 0.0
@<TRIPOS>BOND
1 1 2 1
2 1 3 1
3 1 4 1
4 1 5 1
@<TRIPOS>MOLECULE
CH4
5 4
SMALL
USER_CHARGES


@<TRIPOS>ATOM
1 C 37.899 66.66 23.596 C 0.0 **** 0.0
2 H 38.116 67.071 24.582 H 0.0 **** 0.0
3 H 36.833 66.757 23.389 H 0.0 **** 0.0
4 H 38.18 65.607 23.572 H 0.0 **** 0.0
5 H 38.467 67.206 22.843 H 0.0 **** 0.0
@<TRIPOS>BOND
1 1 2 1
2 1 3 1
3 1 4 1
4 1 5 1
@<TRIPOS>MOLECULE
CH4
5 4
SMALL
USER_CHARGES


@<TRIPOS>ATOM
1 C 90.207 57.349 96.716 C 0.0 **** 0.0
2 H 89.669 57.69 97.6 H 0.0 **** 0.0
3 H 91.169 56.933 97.015 H 0.0 **** 0.0
4 H 90.367 58.19 96.041 H 0.0 **** 0.0
5 H 89.621 56.582 96.208 H 0.0 **** 0.0
@<TRIPOS>BOND
1 1 2 1
2 1 3 1
3 1 4 1
4 1 5 1
@<TRIPOS>MOLECULE
CH4
5 4
SMALL
USER_CHARGES


@<TRIPOS>ATOM
1 C 19.824 4.045 22.584 C 0.0 **** 0.0
2 H 19.117 3.662 21.848 H 0.0 **** 0.0
3 H 19.363 4.861 23.141 H 0.0 **** 0.0
4 H 20.716 4.41 22.074 H 0.0 **** 0.0
5 H 20.1 3.246 23.272 H 0.0 **** 0.0
@<TRIPOS>BOND
1 1 2 1
2 1 3 1
3 1 4 1
4 1 5 1
@<TRIPOS>MOLECULE
CH4
5 4
SMALL
USER_CHARGES


@<TRIPOS>ATOM
1 C 1.867 81.952 1.675 C 0.0 **** 0.0
2 H 1.595 83.007 1.687 H 0.0 **** 0.0
3 H 2.91 81.843 1.972 H 0.0 **** 0.0
4 H 1.731 81.553 0.67 H 0.0 **** 0.0
5 H 1.231 81.405 2.372 H 0.0 **** 0.0
@<TRIPOS>BOND
1 1 2 1
2 1 3 1
3 1 4 1
4 1 5 1
@<TRIPOS>MOLECULE
CH4
5 4
SMALL
USER_CHARGES


@<TRIPOS>ATOM
1 C 77.72 85.893 51.951 C 0.0 **** 0.0
2 H 77.722 85.799 50.865 H 0.0 **** 0.0
3 H 78.532 85.298 52.369 H 0.0 **** 0.0
4 H 76.768 85.537 52.345 H 0.0 **** 0.0
5 H 77.858 86.939 52.224 H 0.0 **** 0.0
@<TRIPOS>BOND
1 1 2 1
2 1 3 1
3 1 4 1
4 1 5 1
@<TRIPOS>MOLECULE
CH4
5 4
SMALL
USER_CHARGES


@<TRIPOS>ATOM
1 C 27.023 84.287 12.505 C 0.0 **** 0.0
2 H 27.752 84.197 11.7 H 0.0 **** 0.0
3 H 27.415 84.948 13.278 H 0.0 **** 0.0
4 H 26.828 83.303 12.931 H 0.0 **** 0.0
5 H 26.095 84.702 12.109 H 0.0 **** 0.0
@<TRIPOS>BOND
1 1 2 1
2 1 3 1
3 1 4 1
4 1 5 1
@<TRIPOS>MOLECULE
CH4
5 4
SMALL
USER_CHARGES


@<TRIPOS>ATOM
1 C 45.408 1.938 27.369 C 0.0 **** 0.0
2 H 45.384 1.943 26.28 H 0.0 **** 0.0
3 H 44.472 1.53 27.751 H 0.0 **** 0.0
4 H 45.535 2.958 27.734 H 0.0 **** 0.0
5 H 46.24 1.323 27.712 H 0.0 **** 0.0
@<TRIPOS>BOND
1 1 2 1
2 1 3 1
3 1 4 1
4 1 5 1
@<TRIPOS>MOLECULE
CH4
5 4
SMALL
USER_CHARGES


@<TRIPOS>ATOM
1 C 32.204 90.843 56.428 C 0.0 **** 0.0
2 H 33.117 91.072 56.978 H 0.0 **** 0.0
3 H 32.243 89.814 56.071 H 0.0 **** 0.0
4 H 32.112 91.519 55.579 H 0.0 **** 0.0
5 H 31.343 90.967 57.086 H 0.0 **** 0.0
@<TRIPOS>BOND
1 1 2 1
2 1 3 1
3 1 4 1
4 1 5 1
@<TRIPOS>MOLECULE
CH4
5 4
SMALL
USER_CHARGES


@<TRIPOS>ATOM
1 C 87.231 26.279 12.857 C 0.0 **** 0.0
2 H 87.669 26.454 11.875 H 0.0 **** 0.0
3 H 86.229 26.707 12.89 H 0.0 **** 0.0
4 H 87.852 26.748 13.62 H 0.0 **** 0.0
5 H 87.174 25.206 13.044 H 0.0 **** 0.0
@<TRIPOS>BOND
1 1 2 1
2 1 3 1
3 1 4 1
4 1 5 1
@<TRIPOS>MOLECULE
CH4
5 4
SMALL
USER_CHARGES


@<TRIPOS>ATOM
1 C 26.22 91.417 54.046 C 0.0 **** 0.0
2 H 26.642 91.313 55.046 H 0.0 **** 0.0
3 H 26.324 92.45 53.713 H 0.0 **** 0.0
4 H 25.164 91.146 54.067 H 0.0 **** 0.0
5 H 26.75 90.758 53.358 H 0.0 **** 0.0
@<TRIPOS>BOND
1 1 2 1
2 1 3 1
3 1 4 1
4 1 5 1
@<TRIPOS>MOLECULE
CH4
5 4
SMALL
USER_CHARGES


@<TRIPOS>ATOM
1 C 3.162 8.822 60.183 C 0.0 **** 0.0
2 H 3.331 8.087 59.396 H 0.0 **** 0.0
3 H 3.006 8.31 61.132 H 0.0 **** 0.0
4 H 2.28 9.415 59.941 H 0.0 **** 0.0
5 H 4.03 9.477 60.26 H 0.0 **** 0.0
@<TRIPOS>BOND
1 1 2 1
2 1 3 1
3 1 4 1
4 1 5 1
@<TRIPOS>MOLECULE
CH4
5 4
SMALL
USER_CHARGES


@<TRIPOS>ATOM
1 C 42.095 64.09 54.193 C 0.0 **** 0.0
2 H 42.875 64.69 53.724 H 0.0 **** 0.0
3 H 41.168 64.196 53.629 H 0.0 **** 0.0
4 H 41.94 64.433 55.216 H 0.0 **** 0.0
5 H 42.398 63.043 54.202 H 0.0 **** 0.0
@<TRIPOS>BOND
1 1 2 1
2 1 3 1
3 1 4 1
4 1 5 1
@<TRIPOS>MOLECULE
CH4
5 4
SMALL
USER_CHARGES


@<TRIPOS>ATOM
1 C 83.911 1.102 72.516 C 0.0 **** 0.0
2 H 83.944 0.046 72.249 H 0.0 **** 0.0
3 H 84.778 1.61 72.093 H 0.0 **** 0.0
4 H 83.924 1.203 73.601 H 0.0 **** 0.0
5 H 82.998 1.548 72.121 H 0.0 **** 0.0
@<TRIPOS>BOND
1 1 2 1
2 1 3 1
3 1 4 1
4 1 5 1
@<TRIPOS>MOLECULE
CH4
5 4
SMALL
USER_CHARGES


@<TRIPOS>ATOM
1 C 50.097 74.033 95.396 C 0.0 **** 0.0
2 H 50.908 73.552 95.942 H 0.0 **** 0.0
3 H 49.407 73.274 95.027 H 0.0 **** 0.0
4 H 50.507 74.592 94.555 H 0.0 **** 0.0
5 H 49.566 74.715 96.061 H 0.0 **** 0.0
@<TRIPOS>BOND
1 1 2 1
2 1 3 1
3 1 4 1
4 1 5 1
@<TRIPOS>MOLECULE
CH4
5 4
SMALL
USER_CHARGES


@<TRIPOS>ATOM
1 C 4.742 83.666 95.556 C 0.0 **** 0.0
2 H 4.471 83.928 96.578 H 0.0 **** 0.0
3 H 5.09 84.557 95.032 H 0.0 **** 0.0
4 H 3.871 83.26 95.042 H 0.0 **** 0.0
5 H 5.536 82.919 95.571 H 0.0 **** 0.0
@<TRIPOS>BOND
1 1 2 1
2 1 3 1
3 1 4 1
4 1 5 1
@<TRIPOS>MOLECULE
CH4
5 4
SMALL
USER_CHARGES


@<TRIPOS>ATOM
1 C 50.658 12.016 34.291 C 0.0 **** 0.0
2 H 51.266 12.157 35.185 H 0.0 **** 0.0
3 H 51.283 11.634 33.484 H 0.0 **** 0.0
4 H 50.222 12.97 33.994 H 0.0 **** 0.0
5 H 49.861 11.303 34.503 H 0.0 **** 0.0
@<TRIPOS>BOND
1 1 2 1
2 1 3 1
3 1 4 1
4 1 5 1
@<TRIPOS>MOLECULE
CH4
5 4
SMALL
USER_CHARGES


@<TRIPOS>ATOM
1 C 6.766 44.526 59.061 C 0.0 **** 0.0
2 H 6.198 45.286 58.525 H 0.0 **** 0.0
3 H 6.081 43.891 59.624 H 0.0 **** 0.0
4 H 7.462 45.008 59.746 H 0.0 **** 0.0
5 H 7.321 43.918 58.347 H 0.0 **** 0.0
@<TRIPOS>BOND
1 1 2 1
2 1 3 1
3 1 4 1
4 1 5 1
@<TRIPOS>MOLECULE
CH4
5 4
SMALL
USER_CHARGES


@<TRIPOS>ATOM
1 C 41.657 93.02 78.346 C 0.0 **** 0.0
2 H 42.268 93.533 79.089 H 0.0 **** 0.0
3 H 41.177 92.156 78.806 H 0.0 **** 0.0
4 H 42.288 92.69 77.522 H 0.0 **** 0.0
5 H 40.894 93.702 77.97 H 0.0 **** 0.0
@<TRIPOS>BOND
1 1 2 1
2 1 3 1
3 1 4 1
4 1 5 1
@<TRIPOS>MOLECULE
CH4
5 4
SMALL
USER_CHARGES


@<TRIPOS>ATOM
1 C 61.867 93.688 73.406 C 0.0 **** 0.0
2 H 60.787 93.712 73.554 H 0.0 **** 0.0
3 H 62.194 94.629 72.963 H 0.0 **** 0.0
4 H 62.123 92.863 72.74 H 0.0 **** 0.0
5 H 62.362 93.546 74.366 H 0.0 **** 0.0
@<TRIPOS>BOND
1 1 2 1
2 1 3 1
3 1 4 1
4 1 5 1
@<TRIPOS>MOLECULE
CH4
5 4
SMALL
USER_CHARGES


@<TRIPOS>ATOM
1 C 28.022 19.938 27.155 C 0.0 **** 0.0
2 H 27.179 20.595 27.366 H 0.0 **** 0.0
3 H 28.923 20.536 27.018 H 0.0 **** 0.0
4 H 27.821 19.37 26.247 H 0.0 **** 0.0
5 H 28.165 19.251 27.989 H 0.0 **** 0.0
@<TRIPOS>BOND
1 1 2 1
2 1 3 1
3 1 4 1
4 1 5 1
@<TRIPOS>MOLECULE
CH4
5 4
SMALL
USER_CHARGES


@<TRIPOS>ATOM
1 C 97.851 35.02 24.711 C 0.0 **** 0.0
2 H 97.71 34.689 23.682 H 0.0 **** 0.0
3 H 97.17 35.844 24.923 H 0.0 **** 0.0
4 H 98.88 35.354 24.846 H 0.0 **** 0.0
5 H 97.645 34.193 25.39 H 0.0 **** 0.0
@<TRIPOS>BOND
1 1 2 1
2 1 3 1
3 1 4 1
4 1 5 1
@<TRIPOS>MOLECULE
CH4
5 4
SMALL
USER_CHARGES


@<TRIPOS>ATOM
1 C 57.266 47.023 84.58 C 0.0 **** 0.0
2 H 58.356 47.059 84.57 H 0.0 **** 0.0
3 H 56.875 47.971 84.949 H 0.0 **** 0.0
4 H 56.936 46.215 85.233 H 0.0 **** 0.0
5 H 56.899 46.847 83.569 H 0.0 **** 0.0
@<TRIPOS>BOND
1 1 2 1
2 1 3 1
3 1 4 1
4 1 5 1
@<TRIPOS>MOLECULE
CH4
5 4
SMALL
USER_CHARGES


@<TRIPOS>ATOM
1 C 62.161 12.715 58.582 C 0.0 **** 0.0
2 H 62.181 13.638 59.161 H 0.0 **** 0.0
3 H 62.035 12.952 57.526 H 0.0 **** 0.0
4 H 61.329 12.095 58.918 H 0.0 **** 0.0
5 H 63.097 12.176 58.725 H 0.0 **** 0.0
@<TRIPOS>BOND
1 1 3 1
2 1 4 1
3 1 2 1
4 1 5 1
@<TRIPOS>MOLECULE
CH4
5 4
SMALL
USER_CHARGES


@<TRIPOS>ATOM
1 C 70.852 72.36 68.958 C 0.0 **** 0.0
2 H 71.416 71.874 68.162 H 0.0 **** 0.0
3 H 71.209 72.005 69.925 H 0.0 **** 0.0
4 H 69.794 72.12 68.852 H 0.0 **** 0.0
5 H 70.988 73.439 68.893 H 0.0 **** 0.0
@<TRIPOS>BOND
1 1 2 1
2 1 3 1
3 1 4 1
4 1 5 1
@<TRIPOS>MOLECULE
CH4
5 4
SMALL
USER_CHARGES


@<TRIPOS>ATOM
1 C 92.772 4.067 79.468 C 0.0 **** 0.0
2 H 92.436 4.544 78.548 H 0.0 **** 0.0
3 H 91.917 3.894 80.121 H 0.0 **** 0.0
4 H 93.49 4.714 79.971 H 0.0 **** 0.0
5 H 93.247 3.115 79.23 H 0.0 **** 0.0
@<TRIPOS>BOND
1 1 2 1
2 1 3 1
3 1 4 1
4 1 5 1
@<TRIPOS>MOLECULE
CH4
5 4
SMALL
USER_CHARGES


@<TRIPOS>ATOM
1 C 34.982 91.439 78.618 C 0.0 **** 0.0
2 H 34.242 92.234 78.519 H 0.0 **** 0.0
3 H 34.711 90.792 79.452 H 0.0 **** 0.0
4 H 35.963 91.878 78.801 H 0.0 **** 0.0
5 H 35.011 90.855 77.698 H 0.0 **** 0.0
@<TRIPOS>BOND
1 1 2 1
2 1 3 1
3 1 4 1
4 1 5 1
@<TRIPOS>MOLECULE
CH4
5 4
SMALL
USER_CHARGES


@<TRIPOS>ATOM
1 C 6.592 86.723 38.518 C 0.0 **** 0.0
2 H 5.648 86.726 37.973 H 0.0 **** 0.0
3 H 7.42 86.79 37.812 H 0.0 **** 0.0
4 H 6.676 85.8 39.092 H 0.0 **** 0.0
5 H 6.622 87.576 39.196 H 0.0 **** 0.0
@<TRIPOS>BOND
1 1 2 1
2 1 3 1
3 1 4 1
4 1 5 1
@<TRIPOS>MOLECULE
CH4
5 4
SMALL
USER_CHARGES


@<TRIPOS>ATOM
1 C 26.869 49.241 63.792 C 0.0 **** 0.0
2 H 26.776 49.743 64.755 H 0.0 **** 0.0
3 H 27.738 48.582 63.809 H 0.0 **** 0.0
4 H 26.993 49.986 63.006 H 0.0 **** 0.0
5 H 25.971 48.654 63.6 H 0.0 **** 0.0
@<TRIPOS>BOND
1 1 2 1
2 1 3 1
3 1 4 1
4 1 5 1
@<TRIPOS>MOLECULE
CH4
5 4
SMALL
USER_CHARGES


@<TRIPOS>ATOM
1 C 21.712 58.25 27.706 C 0.0 **** 0.0
2 H 21.201 58.489 28.639 H 0.0 **** 0.0
3 H 21.192 57.432 27.207 H 0.0 **** 0.0
4 H 22.738 57.951 27.92 H 0.0 **** 0.0
5 H 21.716 59.127 27.059 H 0.0 **** 0.0
@<TRIPOS>BOND
1 1 2 1
2 1 3 1
3 1 4 1
4 1 5 1
@<TRIPOS>MOLECULE
CH4
5 4
SMALL
USER_CHARGES


@<TRIPOS>ATOM
1 C 24.7 20.145 25.257 C 0.0 **** 0.0
2 H 25.123 20.461 26.211 H 0.0 **** 0.0
3 H 24.695 19.056 25.205 H 0.0 **** 0.0
4 H 25.302 20.546 24.442 H 0.0 **** 0.0
5 H 23.679 20.518 25.172 H 0.0 **** 0.0
@<TRIPOS>BOND
1 1 2 1
2 1 3 1
3 1 4 1
4 1 5 1
@<TRIPOS>MOLECULE
CH4
5 4
SMALL
USER_CHARGES


@<TRIPOS>ATOM
1 C 49.485 58.564 37.167 C 0.0 **** 0.0
2 H 49.525 58.598 38.256 H 0.0 **** 0.0
3 H 50.052 59.4 36.757 H 0.0 **** 0.0
4 H 48.448 58.632 36.839 H 0.0 **** 0.0
5 H 49.916 57.626 36.818 H 0.0 **** 0.0
@<TRIPOS>BOND
1 1 2 1
2 1 3 1
3 1 4 1
4 1 5 1
@<TRIPOS>MOLECULE
CH4
5 4
SMALL
USER_CHARGES


@<TRIPOS>ATOM
1 C 88.443 95.708 39.626 C 0.0 **** 0.0
2 H 88.416 95.699 40.716 H 0.0 **** 0.0
3 H 89.066 94.887 39.272 H 0.0 **** 0.0
4 H 88.859 96.655 39.282 H 0.0 **** 0.0
5 H 87.431 95.593 39.237 H 0.0 **** 0.0
@<TRIPOS>BOND
1 1 2 1
2 1 3 1
3 1 4 1
4 1 5 1
@<TRIPOS>MOLECULE
CH4
5 4
SMALL
USER_CHARGES


@<TRIPOS>ATOM
1 C 51.543 21.434 62.768 C 0.0 **** 0.0
2 H 52.207 22.272 62.556 H 0.0 **** 0.0
3 H 51.76 20.616 62.08 H 0.0 **** 0.0
4 H 50.507 21.75 62.643 H 0.0 **** 0.0
5 H 51.699 21.098 63.793 H 0.0 **** 0.0
@<TRIPOS>BOND
1 1 2 1
2 1 3 1
3 1 4 1
4 1 5 1
@<TRIPOS>MOLECULE
CH4
5 4
SMALL
USER_CHARGES


@<TRIPOS>ATOM
1 C 53.045 15.579 78.942 C 0.0 **** 0.0
2 H 53.871 15.099 79.468 H 0.0 **** 0.0
3 H 53.412 16.02 78.015 H 0.0 **** 0.0
4 H 52.618 16.359 79.573 H 0.0 **** 0.0
5 H 52.28 14.837 78.714 H 0.0 **** 0.0
@<TRIPOS>BOND
1 1 2 1
2 1 3 1
3 1 4 1
4 1 5 1
@<TRIPOS>MOLECULE
CH4
5 4
SMALL
USER_CHARGES


@<TRIPOS>ATOM
1 C 78.209 89.285 20.522 C 0.0 **** 0.0
2 H 77.142 89.076 20.445 H 0.0 **** 0.0
3 H 78.732 88.388 20.854 H 0.0 **** 0.0
4 H 78.37 90.088 21.242 H 0.0 **** 0.0
5 H 78.591 89.589 19.548 H 0.0 **** 0.0
@<TRIPOS>BOND
1 1 2 1
2 1 3 1
3 1 4 1
4 1 5 1
@<TRIPOS>MOLECULE
CH4
5 4
SMALL
USER_CHARGES


@<TRIPOS>ATOM
1 C 80.133 80.841 87.987 C 0.0 **** 0.0
2 H 81.204 80.95 88.158 H 0.0 **** 0.0
3 H 79.903 79.794 87.788 H 0.0 **** 0.0
4 H 79.838 81.447 87.131 H 0.0 **** 0.0
5 H 79.589 81.171 88.872 H 0.0 **** 0.0
@<TRIPOS>BOND
1 1 2 1
2 1 3 1
3 1 4 1
4 1 5 1
@<TRIPOS>MOLECULE
CH4
5 4
SMALL
USER_CHARGES


@<TRIPOS>ATOM
1 C 83.497 6.601 17.809 C 0.0 **** 0.0
2 H 83.644 5.991 16.918 H 0.0 **** 0.0
3 H 84.186 6.278 18.589 H 0.0 **** 0.0
4 H 82.471 6.489 18.16 H 0.0 **** 0.0
5 H 83.686 7.648 17.568 H 0.0 **** 0.0
@<TRIPOS>BOND
1 1 2 1
2 1 3 1
3 1 4 1
4 1 5 1
@<TRIPOS>MOLECULE
CH4
5 4
SMALL
USER_CHARGES


@<TRIPOS>ATOM
1 C 47.913 33.775 60.562 C 0.0 **** 0.0
2 H 48.273 33.539 61.563 H 0.0 **** 0.0
3 H 47.332 32.937 60.178 H 0.0 **** 0.0
4 H 48.763 33.961 59.905 H 0.0 **** 0.0
5 H 47.284 34.665 60.603 H 0.0 **** 0.0
@<TRIPOS>BOND
1 1 2 1
2 1 3 1
3 1 4 1
4 1 5 1
@<TRIPOS>MOLECULE
CH4
5 4
SMALL
USER_CHARGES


@<TRIPOS>ATOM
1 C 49.757 16.81 48.003 C 0.0 **** 0.0
2 H 49.028 17.618 48.07 H 0.0 **** 0.0
3 H 49.24 15.851 48.041 H 0.0 **** 0.0
4 H 50.455 16.881 48.837 H 0.0 **** 0.0
5 H 50.304 16.891 47.064 H 0.0 **** 0.0
@<TRIPOS>BOND
1 1 2 1
2 1 3 1
3 1 4 1
4 1 5 1
@<TRIPOS>MOLECULE
CH4
5 4
SMALL
USER_CHARGES


@<TRIPOS>ATOM
1 C 81.998 38.09 23.087 C 0.0 **** 0.0
2 H 81.844 39.129 23.378 H 0.0 **** 0.0
3 H 82.745 37.637 23.74 H 0.0 **** 0.0
4 H 82.346 38.049 22.055 H 0.0 **** 0.0
5 H 81.059 37.545 23.176 H 0.0 **** 0.0
@<TRIPOS>BOND
1 1 2 1
2 1 3 1
3 1 4 1
4 1 5 1
@<TRIPOS>MOLECULE
CH4
5 4
SMALL
USER_CHARGES


@<TRIPOS>ATOM
1 C 96.467 58.57 59.12 C 0.0 **** 0.0
2 H 96.828 58.916 60.088 H 0.0 **** 0.0
3 H 96.742 57.524 58.982 H 0.0 **** 0.0
4 H 96.915 59.171 58.329 H 0.0 **** 0.0
5 H 95.382 58.669 59.081 H 0.0 **** 0.0
@<TRIPOS>BOND
1 1 2 1
2 1 3 1
3 1 4 1
4 1 5 1
@<TRIPOS>MOLECULE
CH4
5 4
SMALL
USER_CHARGES


@<TRIPOS>ATOM
1 C 19.856 70.392 62.616 C 0.0 **** 0.0
2 H 19.567 69.454 62.142 H 0.0 **** 0.0
3 H 20.282 70.187 63.598 H 0.0 **** 0.0
4 H 18.979 71.029 62.725 H 0.0 **** 0.0
5 H 20.597 70.898 61.997 H 0.0 **** 0.0
@<TRIPOS>BOND
1 1 4 1
2 1 5 1
3 1 2 1
4 1 3 1
@<TRIPOS>MOLECULE
CH4
5 4
SMALL
USER_CHARGES


@<TRIPOS>ATOM
1 C 41.038 13.065 89.87 C 0.0 **** 0.0
2 H 40.484 12.358 90.488 H 0.0 **** 0.0
3 H 42.022 13.235 90.307 H 0.0 **** 0.0
4 H 40.494 14.008 89.819 H 0.0 **** 0.0
5 H 41.152 12.657 88.865 H 0.0 **** 0.0
@<TRIPOS>BOND
1 1 2 1
2 1 3 1
3 1 4 1
4 1 5 1
@<TRIPOS>MOLECULE
CH4
5 4
SMALL
USER_CHARGES


@<TRIPOS>ATOM
1 C 21.846 84.39 22.332 C 0.0 **** 0.0
2 H 21.813 84.667 23.386 H 0.0 **** 0.0
3 H 22.197 83.363 22.237 H 0.0 **** 0.0
4 H 22.525 85.058 21.803 H 0.0 **** 0.0
5 H 20.847 84.474 21.904 H 0.0 **** 0.0
@<TRIPOS>BOND
1 1 2 1
2 1 3 1
3 1 4 1
4 1 5 1
@<TRIPOS>MOLECULE
CH4
5 4
SMALL
USER_CHARGES


@<TRIPOS>ATOM
1 C 33.94 59.043 87.147 C 0.0 **** 0.0
2 H 33.828 59.018 88.231 H 0.0 **** 0.0
3 H 32.96 58.948 86.679 H 0.0 **** 0.0
4 H 34.576 58.217 86.829 H 0.0 **** 0.0
5 H 34.395 59.987 86.851 H 0.0 **** 0.0
@<TRIPOS>BOND
1 1 2 1
2 1 3 1
3 1 4 1
4 1 5 1
@<TRIPOS>MOLECULE
CH4
5 4
SMALL
USER_CHARGES


@<TRIPOS>ATOM
1 C 57.288 8.985 78.893 C 0.0 **** 0.0
2 H 57.631 8.328 78.094 H 0.0 **** 0.0
3 H 58.069 9.708 79.129 H 0.0 **** 0.0
4 H 57.061 8.392 79.779 H 0.0 **** 0.0
5 H 56.391 9.512 78.568 H 0.0 **** 0.0
@<TRIPOS>BOND
1 1 2 1
2 1 3 1
3 1 4 1
4 1 5 1
@<TRIPOS>MOLECULE
CH4
5 4
SMALL
USER_CHARGES


@<TRIPOS>ATOM
1 C 85.511 10.919 17.762 C 0.0 **** 0.0
2 H 85.445 10.632 18.811 H 0.0 **** 0.0
3 H 85.543 12.006 17.684 H 0.0 **** 0.0
4 H 84.639 10.542 17.227 H 0.0 **** 0.0
5 H 86.416 10.497 17.325 H 0.0 **** 0.0
@<TRIPOS>BOND
1 1 2 1
2 1 3 1
3 1 4 1
4 1 5 1
@<TRIPOS>MOLECULE
CH4
5 4
SMALL
USER_CHARGES


@<TRIPOS>ATOM
1 C 6.958 60.36 58.045 C 0.0 **** 0.0
2 H 7.211 60.178 57.001 H 0.0 **** 0.0
3 H 6.032 59.839 58.291 H 0.0 **** 0.0
4 H 6.827 61.431 58.205 H 0.0 **** 0.0
5 H 7.762 59.994 58.683 H 0.0 **** 0.0
@<TRIPOS>BOND
1 1 2 1
2 1 3 1
3 1 4 1
4 1 5 1
@<TRIPOS>MOLECULE
CH4
5 4
SMALL
USER_CHARGES


@<TRIPOS>ATOM
1 C 28.885 17.83 13.667 C 0.0 **** 0.0
2 H 28.964 18.676 14.35 H 0.0 **** 0.0
3 H 29.87 17.596 13.264 H 0.0 **** 0.0
4 H 28.209 18.084 12.851 H 0.0 **** 0.0
5 H 28.497 16.964 14.205 H 0.0 **** 0.0
@<TRIPOS>BOND
1 1 2 1
2 1 3 1
3 1 4 1
4 1 5 1
@<TRIPOS>MOLECULE
CH4
5 4
SMALL
USER_CHARGES


@<TRIPOS>ATOM
1 C 4.343 60.151 91.183 C 0.0 **** 0.0
2 H 4.83 59.927 90.234 H 0.0 **** 0.0
3 H 3.49 60.806 91.008 H 0.0 **** 0.0
4 H 5.052 60.647 91.847 H 0.0 **** 0.0
5 H 4.002 59.224 91.643 H 0.0 **** 0.0
@<TRIPOS>BOND
1 1 2 1
2 1 3 1
3 1 4 1
4 1 5 1
@<TRIPOS>MOLECULE
CH4
5 4
SMALL
USER_CHARGES


@<TRIPOS>ATOM
1 C 41.023 87.772 49.674 C 0.0 **** 0.0
2 H 40.945 87.891 48.593 H 0.0 **** 0.0
3 H 42.06 87.569 49.943 H 0.0 **** 0.0
4 H 40.394 86.942 49.994 H 0.0 **** 0.0
5 H 40.693 88.688 50.164 H 0.0 **** 0.0
@<TRIPOS>BOND
1 1 2 1
2 1 3 1
3 1 4 1
4 1 5 1
@<TRIPOS>MOLECULE
CH4
5 4
SMALL
USER_CHARGES


@<TRIPOS>ATOM
1 C 78.43 58.077 75.111 C 0.0 **** 0.0
2 H 78.392 58.296 76.178 H 0.0 **** 0.0
3 H 78.736 58.971 74.568 H 0.0 **** 0.0
4 H 77.443 57.764 74.77 H 0.0 **** 0.0
5 H 79.148 57.278 74.93 H 0.0 **** 0.0
@<TRIPOS>BOND
1 1 2 1
2 1 3 1
3 1 4 1
4 1 5 1
@<TRIPOS>MOLECULE
CH4
5 4
SMALL
USER_CHARGES


@<TRIPOS>ATOM
1 C 4.294 52.913 97.071 C 0.0 **** 0.0
2 H 3.885 53.676 97.733 H 0.0 **** 0.0
3 H 4.207 51.935 97.545 H 0.0 **** 0.0
4 H 5.344 53.129 96.873 H 0.0 **** 0.0
5 H 3.741 52.913 96.131 H 0.0 **** 0.0
@<TRIPOS>BOND
1 1 2 1
2 1 3 1
3 1 4 1
4 1 5 1
@<TRIPOS>MOLECULE
CH4
5 4
SMALL
USER_CHARGES


@<TRIPOS>ATOM
1 C 59.055 46.577 72.856 C 0.0 **** 0.0
2 H 58.254 45.966 73.273 H 0.0 **** 0.0
3 H 58.626 47.369 72.241 H 0.0 **** 0.0
4 H 59.706 45.953 72.244 H 0.0 **** 0.0
5 H 59.633 47.019 73.667 H 0.0 **** 0.0
@<TRIPOS>BOND
1 1 2 1
2 1 3 1
3 1 4 1
4 1 5 1
@<TRIPOS>MOLECULE
CH4
5 4
SMALL
USER_CHARGES


@<TRIPOS>ATOM
1 C 94.731 89.226 11.135 C 0.0 **** 0.0
2 H 94.41 90.265 11.2 H 0.0 **** 0.0
3 H 95.636 89.162 10.531 H 0.0 **** 0.0
4 H 93.942 88.631 10.674 H 0.0 **** 0.0
5 H 94.934 88.845 12.136 H 0.0 **** 0.0
@<TRIPOS>BOND
1 1 2 1
2 1 3 1
3 1 4 1
4 1 5 1
@<TRIPOS>MOLECULE
CH4
5 4
SMALL
USER_CHARGES


@<TRIPOS>ATOM
1 C 65.875 49.987 45.136 C 0.0 **** 0.0
2 H 65.116 49.226 44.955 H 0.0 **** 0.0
3 H 66.866 49.547 45.019 H 0.0 **** 0.0
4 H 65.766 50.374 46.149 H 0.0 **** 0.0
5 H 65.752 50.8 44.421 H 0.0 **** 0.0
@<TRIPOS>BOND
1 1 2 1
2 1 3 1
3 1 4 1
4 1 5 1
@<TRIPOS>MOLECULE
CH4
5 4
SMALL
USER_CHARGES


@<TRIPOS>ATOM
1 C 59.212 6.944 38.786 C 0.0 **** 0.0
2 H 58.849 7.167 37.782 H 0.0 **** 0.0
3 H 59.574 7.86 39.253 H 0.0 **** 0.0
4 H 60.026 6.221 38.724 H 0.0 **** 0.0
5 H 58.4 6.527 39.382 H 0.0 **** 0.0
@<TRIPOS>BOND
1 1 2 1
2 1 3 1
3 1 4 1
4 1 5 1
@<TRIPOS>MOLECULE
CH4
5 4
SMALL
USER_CHARGES


@<TRIPOS>ATOM
1 C 94.76 29.845 48.467 C 0.0 **** 0.0
2 H 94.938 30.319 49.432 H 0.0 **** 0.0
3 H 94.279 28.879 48.62 H 0.0 **** 0.0
4 H 95.711 29.701 47.952 H 0.0 **** 0.0
5 H 94.113 30.482 47.863 H 0.0 **** 0.0
@<TRIPOS>BOND
1 1 2 1
2 1 3 1
3 1 4 1
4 1 5 1
@<TRIPOS>MOLECULE
CH4
5 4
SMALL
USER_CHARGES


@<TRIPOS>ATOM
1 C 32.713 83.828 73.355 C 0.0 **** 0.0
2 H 31.693 84.03 73.03 H 0.0 **** 0.0
3 H 32.829 82.761 73.547 H 0.0 **** 0.0
4 H 32.921 84.387 74.267 H 0.0 **** 0.0
5 H 33.41 84.135 72.574 H 0.0 **** 0.0
@<TRIPOS>BOND
1 1 2 1
2 1 3 1
3 1 4 1
4 1 5 1
@<TRIPOS>MOLECULE
CH4
5 4
SMALL
USER_CHARGES


@<TRIPOS>ATOM
1 C 15.749 8.04 92.92 C 0.0 **** 0.0
2 H 15.196 7.165 93.26 H 0.0 **** 0.0
3 H 15.074 8.714 92.393 H 0.0 **** 0.0
4 H 16.548 7.726 92.248 H 0.0 **** 0.0
5 H 16.179 8.554 93.78 H 0.0 **** 0.0
@<TRIPOS>BOND
1 1 2 1
2 1 3 1
3 1 4 1
4 1 5 1
@<TRIPOS>MOLECULE
CH4
5 4
SMALL
USER_CHARGES


@<TRIPOS>ATOM
1 C 14.103 86.247 85.341 C 0.0 **** 0.0
2 H 14.009 86.376 86.42 H 0.0 **** 0.0
3 H 15.009 86.745 84.994 H 0.0 **** 0.0
4 H 13.235 86.683 84.847 H 0.0 **** 0.0
5 H 14.16 85.184 85.106 H 0.0 **** 0.0
@<TRIPOS>BOND
1 1 2 1
2 1 3 1
3 1 4 1
4 1 5 1
@<TRIPOS>MOLECULE
CH4
5 4
SMALL
USER_CHARGES


@<TRIPOS>ATOM
1 C 78.793 29.232 5.286 C 0.0 **** 0.0
2 H 77.927 29.844 5.538 H 0.0 **** 0.0
3 H 79.328 29.685 4.452 H 0.0 **** 0.0
4 H 78.461 28.232 5.006 H 0.0 **** 0.0
5 H 79.454 29.166 6.15 H 0.0 **** 0.0
@<TRIPOS>BOND
1 1 2 1
2 1 3 1
3 1 4 1
4 1 5 1
@<TRIPOS>MOLECULE
CH4
5 4
SMALL
USER_CHARGES


@<TRIPOS>ATOM
1 C 95.843 0.841 19.115 C 0.0 **** 0.0
2 H 96.508 1.604 18.71 H 0.0 **** 0.0
3 H 96.226 0.499 20.077 H 0.0 **** 0.0
4 H 95.791 0.0 18.424 H 0.0 **** 0.0
5 H 94.847 1.263 19.25 H 0.0 **** 0.0
@<TRIPOS>BOND
1 1 2 1
2 1 3 1
3 1 4 1
4 1 5 1
@<TRIPOS>MOLECULE
CH4
5 4
SMALL
USER_CHARGES


@<TRIPOS>ATOM
1 C 76.118 76.027 49.408 C 0.0 **** 0.0
2 H 76.635 75.897 48.457 H 0.0 **** 0.0
3 H 76.578 76.845 49.962 H 0.0 **** 0.0
4 H 76.191 75.108 49.989 H 0.0 **** 0.0
5 H 75.069 76.257 49.222 H 0.0 **** 0.0
@<TRIPOS>BOND
1 1 2 1
2 1 3 1
3 1 4 1
4 1 5 1
@<TRIPOS>MOLECULE
CH4
5 4
SMALL
USER_CHARGES


@<TRIPOS>ATOM
1 C 90.427 52.556 37.831 C 0.0 **** 0.0
2 H 91.276 53.205 37.615 H 0.0 **** 0.0
3 H 89.73 52.578 36.993 H 0.0 **** 0.0
4 H 89.924 52.904 38.733 H 0.0 **** 0.0
5 H 90.78 51.535 37.983 H 0.0 **** 0.0
@<TRIPOS>BOND
1 1 2 1
2 1 3 1
3 1 4 1
4 1 5 1
@<TRIPOS>MOLECULE
CH4
5 4
SMALL
USER_CHARGES


@<TRIPOS>ATOM
1 C 79.364 88.712 79.607 C 0.0 **** 0.0
2 H 78.708 88.845 80.467 H 0.0 **** 0.0
3 H 79.508 89.671 79.108 H 0.0 **** 0.0
4 H 78.912 88.004 78.912 H 0.0 **** 0.0
5 H 80.328 88.328 79.941 H 0.0 **** 0.0
@<TRIPOS>BOND
1 1 2 1
2 1 3 1
3 1 4 1
4 1 5 1
@<TRIPOS>MOLECULE
CH4
5 4
SMALL
USER_CHARGES


@<TRIPOS>ATOM
1 C 38.843 88.512 27.958 C 0.0 **** 0.0
2 H 38.876 88.913 26.945 H 0.0 **** 0.0
3 H 38.975 87.431 27.926 H 0.0 **** 0.0
4 H 37.879 88.747 28.41 H 0.0 **** 0.0
5 H 39.64 88.959 28.552 H 0.0 **** 0.0
@<TRIPOS>BOND
1 1 2 1
2 1 3 1
3 1 4 1
4 1 5 1
@<TRIPOS>MOLECULE
CH4
5 4
SMALL
USER_CHARGES


@<TRIPOS>ATOM
1 C 3.465 43.497 45.754 C 0.0 **** 0.0
2 H 3.366 43.459 44.67 H 0.0 **** 0.0
3 H 4.277 42.842 46.068 H 0.0 **** 0.0
4 H 2.533 43.168 46.216 H 0.0 **** 0.0
5 H 3.681 44.52 46.063 H 0.0 **** 0.0
@<TRIPOS>BOND
1 1 2 1
2 1 3 1
3 1 4 1
4 1 5 1
@<TRIPOS>MOLECULE
CH4
5 4
SMALL
USER_CHARGES


@<TRIPOS>ATOM
1 C 1.182 56.833 16.0 C 0.0 **** 0.0
2 H 1.54 56.467 15.038 H 0.0 **** 0.0
3 H 2.034 57.058 16.642 H 0.0 **** 0.0
4 H 0.564 56.069 16.471 H 0.0 **** 0.0
5 H 0.591 57.736 15.849 H 0.0 **** 0.0
@<TRIPOS>BOND
1 1 2 1
2 1 3 1
3 1 4 1
4 1 5 1
@<TRIPOS>MOLECULE
CH4
5 4
SMALL
USER_CHARGES


@<TRIPOS>ATOM
1 C 20.362 22.385 96.712 C 0.0 **** 0.0
2 H 20.949 23.017 97.378 H 0.0 **** 0.0
3 H 20.303 21.378 97.125 H 0.0 **** 0.0
4 H 20.84 22.349 95.733 H 0.0 **** 0.0
5 H 19.358 22.797 96.611 H 0.0 **** 0.0
@<TRIPOS>BOND
1 1 2 1
2 1 3 1
3 1 4 1
4 1 5 1
@<TRIPOS>MOLECULE
CH4
5 4
SMALL
USER_CHARGES


@<TRIPOS>ATOM
1 C 38.203 55.823 8.13 C 0.0 **** 0.0
2 H 37.133 56.026 8.087 H 0.0 **** 0.0
3 H 38.693 56.274 7.266 H 0.0 **** 0.0
4 H 38.368 54.746 8.12 H 0.0 **** 0.0
5 H 38.616 56.246 9.045 H 0.0 **** 0.0
@<TRIPOS>BOND
1 1 2 1
2 1 3 1
3 1 4 1
4 1 5 1
@<TRIPOS>MOLECULE
CH4
5 4
SMALL
USER_CHARGES


@<TRIPOS>ATOM
1 C 96.488 84.001 86.506 C 0.0 **** 0.0
2 H 95.951 83.053 86.515 H 0.0 **** 0.0
3 H 96.258 84.558 87.415 H 0.0 **** 0.0
4 H 96.183 84.583 85.636 H 0.0 **** 0.0
5 H 97.56 83.811 86.458 H 0.0 **** 0.0
@<TRIPOS>BOND
1 1 3 1
2 1 5 1
3 1 4 1
4 1 2 1
@<TRIPOS>MOLECULE
CH4
5 4
SMALL
USER_CHARGES


@<TRIPOS>ATOM
1 C 63.6 87.973 3.784 C 0.0 **** 0.0
2 H 63.931 88.547 2.919 H 0.0 **** 0.0
3 H 63.766 86.911 3.6 H 0.0 **** 0.0
4 H 62.538 88.151 3.954 H 0.0 **** 0.0
5 H 64.166 88.282 4.663 H 0.0 **** 0.0
@<TRIPOS>BOND
1 1 2 1
2 1 3 1
3 1 4 1
4 1 5 1
@<TRIPOS>MOLECULE
CH4
5 4
SMALL
USER_CHARGES


@<TRIPOS>ATOM
1 C 90.244 78.904 89.996 C 0.0 **** 0.0
2 H 90.394 79.229 91.025 H 0.0 **** 0.0
3 H 91.138 79.121 89.412 H 0.0 **** 0.0
4 H 89.393 79.434 89.568 H 0.0 **** 0.0
5 H 90.049 77.832 89.979 H 0.0 **** 0.0
@<TRIPOS>BOND
1 1 2 1
2 1 3 1
3 1 4 1
4 1 5 1
@<TRIPOS>MOLECULE
CH4
5 4
SMALL
USER_CHARGES


@<TRIPOS>ATOM
1 C 60.249 3.46 8.328 C 0.0 **** 0.0
2 H 59.525 3.474 7.513 H 0.0 **** 0.0
3 H 60.051 2.605 8.975 H 0.0 **** 0.0
4 H 60.165 4.381 8.905 H 0.0 **** 0.0
5 H 61.256 3.379 7.917 H 0.0 **** 0.0
@<TRIPOS>BOND
1 1 2 1
2 1 3 1
3 1 4 1
4 1 5 1
@<TRIPOS>MOLECULE
CH4
5 4
SMALL
USER_CHARGES


@<TRIPOS>ATOM
1 C 97.486 16.223 48.22 C 0.0 **** 0.0
2 H 97.191 16.764 49.119 H 0.0 **** 0.0
3 H 96.615 15.722 47.796 H 0.0 **** 0.0
4 H 98.244 15.483 48.473 H 0.0 **** 0.0
5 H 97.892 16.925 47.491 H 0.0 **** 0.0
@<TRIPOS>BOND
1 1 5 1
2 1 2 1
3 1 3 1
4 1 4 1
@<TRIPOS>MOLECULE
CH4
5 4
SMALL
USER_CHARGES


@<TRIPOS>ATOM
1 C 35.694 1.048 16.089 C 0.0 **** 0.0
2 H 35.825 1.371 17.122 H 0.0 **** 0.0
3 H 36.638 1.15 15.554 H 0.0 **** 0.0
4 H 34.935 1.667 15.609 H 0.0 **** 0.0
5 H 35.376 0.006 16.072 H 0.0 **** 0.0
@<TRIPOS>BOND
1 1 2 1
2 1 3 1
3 1 4 1
4 1 5 1
@<TRIPOS>MOLECULE
CH4
5 4
SMALL
USER_CHARGES


@<TRIPOS>ATOM
1 C 80.481 3.246 76.097 C 0.0 **** 0.0
2 H 81.426 2.718 76.227 H 0.0 **** 0.0
3 H 79.687 2.526 75.899 H 0.0 **** 0.0
4 H 80.564 3.936 75.258 H 0.0 **** 0.0
5 H 80.248 3.803 77.004 H 0.0 **** 0.0
@<TRIPOS>BOND
1 1 2 1
2 1 3 1
3 1 4 1
4 1 5 1
@<TRIPOS>MOLECULE
CH4
5 4
SMALL
USER_CHARGES


@<TRIPOS>ATOM
1 C 3.691 35.049 48.432 C 0.0 **** 0.0
2 H 2.701 35.505 48.416 H 0.0 **** 0.0
3 H 4.379 35.696 48.977 H 0.0 **** 0.0
4 H 4.047 34.917 47.41 H 0.0 **** 0.0
5 H 3.636 34.079 48.926 H 0.0 **** 0.0
@<TRIPOS>BOND
1 1 2 1
2 1 3 1
3 1 4 1
4 1 5 1
@<TRIPOS>MOLECULE
CH4
5 4
SMALL
USER_CHARGES


@<TRIPOS>ATOM
1 C 60.181 8.958 17.064 C 0.0 **** 0.0
2 H 60.199 7.973 17.529 H 0.0 **** 0.0
3 H 61.202 9.316 16.931 H 0.0 **** 0.0
4 H 59.633 9.651 17.703 H 0.0 **** 0.0
5 H 59.689 8.892 16.093 H 0.0 **** 0.0
@<TRIPOS>BOND
1 1 2 1
2 1 3 1
3 1 4 1
4 1 5 1
@<TRIPOS>MOLECULE
CH4
5 4
SMALL
USER_CHARGES


@<TRIPOS>ATOM
1 C 58.374 65.78 39.023 C 0.0 **** 0.0
2 H 58.33 65.734 37.935 H 0.0 **** 0.0
3 H 58.788 64.848 39.409 H 0.0 **** 0.0
4 H 57.37 65.924 39.421 H 0.0 **** 0.0
5 H 59.008 66.613 39.326 H 0.0 **** 0.0
@<TRIPOS>BOND
1 1 2 1
2 1 3 1
3 1 4 1
4 1 5 1
@<TRIPOS>MOLECULE
CH4
5 4
SMALL
USER_CHARGES


@<TRIPOS>ATOM
1 C 41.695 37.218 57.756 C 0.0 **** 0.0
2 H 42.242 37.146 58.697 H 0.0 **** 0.0
3 H 40.946 36.427 57.711 H 0.0 **** 0.0
4 H 42.39 37.108 56.924 H 0.0 **** 0.0
5 H 41.205 38.189 57.694 H 0.0 **** 0.0
@<TRIPOS>BOND
1 1 2 1
2 1 3 1
3 1 4 1
4 1 5 1
@<TRIPOS>MOLECULE
CH4
5 4
SMALL
USER_CHARGES


@<TRIPOS>ATOM
1 C 33.857 37.151 51.108 C 0.0 **** 0.0
2 H 33.27 36.837 51.971 H 0.0 **** 0.0
3 H 34.594 36.383 50.871 H 0.0 **** 0.0
4 H 34.367 38.087 51.336 H 0.0 **** 0.0
5 H 33.197 37.296 50.253 H 0.0 **** 0.0
@<TRIPOS>BOND
1 1 2 1
2 1 3 1
3 1 4 1
4 1 5 1
@<TRIPOS>MOLECULE
CH4
5 4
SMALL
USER_CHARGES


@<TRIPOS>ATOM
1 C 18.893 60.688 74.31 C 0.0 **** 0.0
2 H 18.23 60.815 75.166 H 0.0 **** 0.0
3 H 19.862 60.326 74.651 H 0.0 **** 0.0
4 H 19.02 61.645 73.803 H 0.0 **** 0.0
5 H 18.458 59.966 73.618 H 0.0 **** 0.0
@<TRIPOS>BOND
1 1 2 1
2 1 3 1
3 1 4 1
4 1 5 1
@<TRIPOS>MOLECULE
CH4
5 4
SMALL
USER_CHARGES


@<TRIPOS>ATOM
1 C 40.493 77.706 93.946 C 0.0 **** 0.0
2 H 40.669 77.297 94.941 H 0.0 **** 0.0
3 H 41.075 77.144 93.215 H 0.0 **** 0.0
4 H 40.795 78.753 93.925 H 0.0 **** 0.0
5 H 39.433 77.628 93.704 H 0.0 **** 0.0
@<TRIPOS>BOND
1 1 2 1
2 1 3 1
3 1 4 1
4 1 5 1
@<TRIPOS>MOLECULE
CH4
5 4
SMALL
USER_CHARGES


@<TRIPOS>ATOM
1 C 10.741 65.888 3.713 C 0.0 **** 0.0
2 H 9.943 65.486 3.089 H 0.0 **** 0.0
3 H 11.355 66.569 3.123 H 0.0 **** 0.0
4 H 11.359 65.071 4.085 H 0.0 **** 0.0
5 H 10.306 66.428 4.554 H 0.0 **** 0.0
@<TRIPOS>BOND
1 1 2 1
2 1 3 1
3 1 4 1
4 1 5 1
@<TRIPOS>MOLECULE
CH4
5 4
SMALL
USER_CHARGES


@<TRIPOS>ATOM
1 C 76.62 52.396 97.675 C 0.0 **** 0.0
2 H 77.01 52.41 96.657 H 0.0 **** 0.0
3 H 77.45 52.41 98.382 H 0.0 **** 0.0
4 H 76.03 51.492 97.825 H 0.0 **** 0.0
5 H 75.991 53.272 97.835 H 0.0 **** 0.0
@<TRIPOS>BOND
1 1 2 1
2 1 3 1
3 1 4 1
4 1 5 1
@<TRIPOS>MOLECULE
CH4
5 4
SMALL
USER_CHARGES


@<TRIPOS>ATOM
1 C 65.867 47.417 18.321 C 0.0 **** 0.0
2 H 64.81 47.5 18.071 H 0.0 **** 0.0
3 H 66.412 48.248 17.874 H 0.0 **** 0.0
4 H 66.259 46.476 17.935 H 0.0 **** 0.0
5 H 65.988 47.444 19.404 H 0.0 **** 0.0
@<TRIPOS>BOND
1 1 2 1
2 1 3 1
3 1 4 1
4 1 5 1
@<TRIPOS>MOLECULE
CH4
5 4
SMALL
USER_CHARGES


@<TRIPOS>ATOM
1 C 90.088 23.573 42.829 C 0.0 **** 0.0
2 H 89.878 22.621 43.318 H 0.0 **** 0.0
3 H 90.798 24.141 43.43 H 0.0 **** 0.0
4 H 89.162 24.139 42.726 H 0.0 **** 0.0
5 H 90.513 23.388 41.843 H 0.0 **** 0.0
@<TRIPOS>BOND
1 1 2 1
2 1 3 1
3 1 4 1
4 1 5 1
@<TRIPOS>MOLECULE
CH4
5 4
SMALL
USER_CHARGES


@<TRIPOS>ATOM
1 C 41.93 77.34 77.171 C 0.0 **** 0.0
2 H 41.273 76.891 77.916 H 0.0 **** 0.0
3 H 41.393 78.127 76.641 H 0.0 **** 0.0
4 H 42.25 76.576 76.462 H 0.0 **** 0.0
5 H 42.803 77.765 77.665 H 0.0 **** 0.0
@<TRIPOS>BOND
1 1 2 1
2 1 3 1
3 1 4 1
4 1 5 1
@<TRIPOS>MOLECULE
CH4
5 4
SMALL
USER_CHARGES


@<TRIPOS>ATOM
1 C 59.041 10.771 74.196 C 0.0 **** 0.0
2 H 59.036 10.799 75.286 H 0.0 **** 0.0
3 H 59.197 11.778 73.808 H 0.0 **** 0.0
4 H 58.087 10.386 73.838 H 0.0 **** 0.0
5 H 59.847 10.121 73.855 H 0.0 **** 0.0
@<TRIPOS>BOND
1 1 2 1
2 1 3 1
3 1 4 1
4 1 5 1
@<TRIPOS>MOLECULE
CH4
5 4
SMALL
USER_CHARGES


@<TRIPOS>ATOM
1 C 3.424 42.499 57.235 C 0.0 **** 0.0
2 H 3.805 42.458 58.255 H 0.0 **** 0.0
3 H 3.329 41.486 56.842 H 0.0 **** 0.0
4 H 4.114 43.068 56.612 H 0.0 **** 0.0
5 H 2.448 42.983 57.231 H 0.0 **** 0.0
@<TRIPOS>BOND
1 1 2 1
2 1 3 1
3 1 4 1
4 1 5 1
@<TRIPOS>MOLECULE
CH4
5 4
SMALL
USER_CHARGES


@<TRIPOS>ATOM
1 C 78.712 85.266 61.926 C 0.0 **** 0.0
2 H 77.733 85.714 61.754 H 0.0 **** 0.0
3 H 79.488 85.931 61.545 H 0.0 **** 0.0
4 H 78.769 84.308 61.41 H 0.0 **** 0.0
5 H 78.857 85.112 62.996 H 0.0 **** 0.0
@<TRIPOS>BOND
1 1 4 1
2 1 5 1
3 1 2 1
4 1 3 1
@<TRIPOS>MOLECULE
CH4
5 4
SMALL
USER_CHARGES


@<TRIPOS>ATOM
1 C 71.37 9.541 36.368 C 0.0 **** 0.0
2 H 71.277 10.047 35.407 H 0.0 **** 0.0
3 H 70.381 9.411 36.807 H 0.0 **** 0.0
4 H 71.989 10.14 37.036 H 0.0 **** 0.0
5 H 71.833 8.565 36.22 H 0.0 **** 0.0
@<TRIPOS>BOND
1 1 2 1
2 1 3 1
3 1 4 1
4 1 5 1
@<TRIPOS>MOLECULE
CH4
5 4
SMALL
USER_CHARGES


@<TRIPOS>ATOM
1 C 72.943 11.346 59.862 C 0.0 **** 0.0
2 H 72.905 11.289 60.95 H 0.0 **** 0.0
3 H 72.578 12.32 59.536 H 0.0 **** 0.0
4 H 72.317 10.562 59.435 H 0.0 **** 0.0
5 H 73.971 11.213 59.527 H 0.0 **** 0.0
@<TRIPOS>BOND
1 1 2 1
2 1 3 1
3 1 4 1
4 1 5 1
@<TRIPOS>MOLECULE
CH4
5 4
SMALL
USER_CHARGES


@<TRIPOS>ATOM
1 C 57.152 76.091 45.26 C 0.0 **** 0.0
2 H 57.654 76.946 45.711 H 0.0 **** 0.0
3 H 57.87 75.515 44.676 H 0.0 **** 0.0
4 H 56.351 76.442 44.608 H 0.0 **** 0.0
5 H 56.732 75.461 46.044 H 0.0 **** 0.0
@<TRIPOS>BOND
1 1 2 1
2 1 3 1
3 1 4 1
4 1 5 1
@<TRIPOS>MOLECULE
CH4
5 4
SMALL
USER_CHARGES


@<TRIPOS>ATOM
1 C 3.469 63.668 31.742 C 0.0 **** 0.0
2 H 2.855 63.474 32.621 H 0.0 **** 0.0
3 H 4.226 64.414 31.984 H 0.0 **** 0.0
4 H 2.838 64.039 30.934 H 0.0 **** 0.0
5 H 3.956 62.745 31.428 H 0.0 **** 0.0
@<TRIPOS>BOND
1 1 2 1
2 1 3 1
3 1 4 1
4 1 5 1
@<TRIPOS>MOLECULE
CH4
5 4
SMALL
USER_CHARGES


@<TRIPOS>ATOM
1 C 3.653 28.483 34.843 C 0.0 **** 0.0
2 H 3.222 28.701 33.867 H 0.0 **** 0.0
3 H 3.366 27.477 35.151 H 0.0 **** 0.0
4 H 3.285 29.205 35.572 H 0.0 **** 0.0
5 H 4.74 28.549 34.783 H 0.0 **** 0.0
@<TRIPOS>BOND
1 1 2 1
2 1 3 1
3 1 4 1
4 1 5 1
@<TRIPOS>MOLECULE
CH4
5 4
SMALL
USER_CHARGES


@<TRIPOS>ATOM
1 C 14.479 47.878 49.431 C 0.0 **** 0.0
2 H 14.727 47.302 50.323 H 0.0 **** 0.0
3 H 13.423 47.745 49.195 H 0.0 **** 0.0
4 H 15.086 47.531 48.595 H 0.0 **** 0.0
5 H 14.681 48.934 49.613 H 0.0 **** 0.0
@<TRIPOS>BOND
1 1 2 1
2 1 3 1
3 1 4 1
4 1 5 1
@<TRIPOS>MOLECULE
CH4
5 4
SMALL
USER_CHARGES


@<TRIPOS>ATOM
1 C 73.064 89.636 52.424 C 0.0 **** 0.0
2 H 73.598 89.927 53.328 H 0.0 **** 0.0
3 H 71.99 89.692 52.603 H 0.0 **** 0.0
4 H 73.335 88.615 52.154 H 0.0 **** 0.0
5 H 73.333 90.31 51.611 H 0.0 **** 0.0
@<TRIPOS>BOND
1 1 2 1
2 1 3 1
3 1 4 1
4 1 5 1
@<TRIPOS>MOLECULE
CH4
5 4
SMALL
USER_CHARGES


@<TRIPOS>ATOM
1 C 94.496 27.199 16.155 C 0.0 **** 0.0
2 H 93.631 27.272 15.496 H 0.0 **** 0.0
3 H 94.272 26.515 16.974 H 0.0 **** 0.0
4 H 94.73 28.184 16.558 H 0.0 **** 0.0
5 H 95.351 26.825 15.592 H 0.0 **** 0.0
@<TRIPOS>BOND
1 1 2 1
2 1 3 1
3 1 4 1
4 1 5 1
@<TRIPOS>MOLECULE
CH4
5 4
SMALL
USER_CHARGES


@<TRIPOS>ATOM
1 C 90.474 53.121 13.314 C 0.0 **** 0.0
2 H 89.618 52.618 12.864 H 0.0 **** 0.0
3 H 91.329 52.445 13.325 H 0.0 **** 0.0
4 H 90.228 53.413 14.335 H 0.0 **** 0.0
5 H 90.721 54.009 12.732 H 0.0 **** 0.0
@<TRIPOS>BOND
1 1 2 1
2 1 3 1
3 1 4 1
4 1 5 1
@<TRIPOS>MOLECULE
CH4
5 4
SMALL
USER_CHARGES


@<TRIPOS>ATOM
1 C 93.038 65.383 59.242 C 0.0 **** 0.0
2 H 93.023 66.273 59.872 H 0.0 **** 0.0
3 H 93.737 65.534 58.419 H 0.0 **** 0.0
4 H 92.04 65.204 58.843 H 0.0 **** 0.0
5 H 93.353 64.524 59.834 H 0.0 **** 0.0
@<TRIPOS>BOND
1 1 2 1
2 1 3 1
3 1 4 1
4 1 5 1
@<TRIPOS>MOLECULE
CH4
5 4
SMALL
USER_CHARGES


@<TRIPOS>ATOM
1 C 78.389 38.879 27.382 C 0.0 **** 0.0
2 H 78.416 38.899 28.471 H 0.0 **** 0.0
3 H 77.362 38.734 27.046 H 0.0 **** 0.0
4 H 79.01 38.059 27.019 H 0.0 **** 0.0
5 H 78.769 39.823 26.991 H 0.0 **** 0.0
@<TRIPOS>BOND
1 1 2 1
2 1 3 1
3 1 4 1
4 1 5 1
@<TRIPOS>MOLECULE
CH4
5 4
SMALL
USER_CHARGES


@<TRIPOS>ATOM
1 C 86.672 81.026 67.36 C 0.0 **** 0.0
2 H 87.163 80.405 68.11 H 0.0 **** 0.0
3 H 86.102 80.392 66.681 H 0.0 **** 0.0
4 H 87.425 81.577 66.797 H 0.0 **** 0.0
5 H 86.0 81.728 67.853 H 0.0 **** 0.0
@<TRIPOS>BOND
1 1 2 1
2 1 3 1
3 1 4 1
4 1 5 1
@<TRIPOS>MOLECULE
CH4
5 4
SMALL
USER_CHARGES


@<TRIPOS>ATOM
1 C 80.727 87.919 27.199 C 0.0 **** 0.0
2 H 80.794 88.961 27.511 H 0.0 **** 0.0
3 H 79.855 87.457 27.663 H 0.0 **** 0.0
4 H 81.627 87.389 27.509 H 0.0 **** 0.0
5 H 80.631 87.87 26.115 H 0.0 **** 0.0
@<TRIPOS>BOND
1 1 2 1
2 1 3 1
3 1 4 1
4 1 5 1
@<TRIPOS>MOLECULE
CH4
5 4
SMALL
USER_CHARGES


@<TRIPOS>ATOM
1 C 31.809 46.03 87.298 C 0.0 **** 0.0
2 H 31.92 46.413 88.312 H 0.0 **** 0.0
3 H 31.521 46.844 86.632 H 0.0 **** 0.0
4 H 31.039 45.258 87.283 H 0.0 **** 0.0
5 H 32.756 45.605 86.965 H 0.0 **** 0.0
@<TRIPOS>BOND
1 1 2 1
2 1 3 1
3 1 4 1
4 1 5 1
@<TRIPOS>MOLECULE
CH4
5 4
SMALL
USER_CHARGES


@<TRIPOS>ATOM
1 C 89.771 21.206 20.329 C 0.0 **** 0.0
2 H 88.996 21.972 20.289 H 0.0 **** 0.0
3 H 90.744 21.665 20.153 H 0.0 **** 0.0
4 H 89.578 20.455 19.563 H 0.0 **** 0.0
5 H 89.764 20.734 21.311 H 0.0 **** 0.0
@<TRIPOS>BOND
1 1 2 1
2 1 3 1
3 1 4 1
4 1 5 1
@<TRIPOS>MOLECULE
CH4
5 4
SMALL
USER_CHARGES


@<TRIPOS>ATOM
1 C 6.131 87.603 46.276 C 0.0 **** 0.0
2 H 5.621 87.381 47.213 H 0.0 **** 0.0
3 H 5.507 87.286 45.439 H 0.0 **** 0.0
4 H 7.081 87.07 46.244 H 0.0 **** 0.0
5 H 6.313 88.676 46.207 H 0.0 **** 0.0
@<TRIPOS>BOND
1 1 2 1
2 1 3 1
3 1 4 1
4 1 5 1
@<TRIPOS>MOLECULE
CH4
5 4
SMALL
USER_CHARGES


@<TRIPOS>ATOM
1 C 70.772 84.582 43.493 C 0.0 **** 0.0
2 H 71.327 85.331 44.059 H 0.0 **** 0.0
3 H 71.414 83.722 43.303 H 0.0 **** 0.0
4 H 70.448 85.011 42.545 H 0.0 **** 0.0
5 H 69.9 84.266 44.066 H 0.0 **** 0.0
@<TRIPOS>BOND
1 1 2 1
2 1 3 1
3 1 4 1
4 1 5 1
@<TRIPOS>MOLECULE
CH4
5 4
SMALL
USER_CHARGES


@<TRIPOS>ATOM
1 C 44.181 53.933 47.892 C 0.0 **** 0.0
2 H 44.304 54.067 46.817 H 0.0 **** 0.0
3 H 44.409 52.901 48.158 H 0.0 **** 0.0
4 H 43.153 54.163 48.171 H 0.0 **** 0.0
5 H 44.86 54.603 48.421 H 0.0 **** 0.0
@<TRIPOS>BOND
1 1 2 1
2 1 3 1
3 1 4 1
4 1 5 1
@<TRIPOS>MOLECULE
CH4
5 4
SMALL
USER_CHARGES


@<TRIPOS>ATOM
1 C 86.128 22.383 33.136 C 0.0 **** 0.0
2 H 85.836 21.676 32.359 H 0.0 **** 0.0
3 H 85.571 23.312 33.009 H 0.0 **** 0.0
4 H 87.196 22.586 33.059 H 0.0 **** 0.0
5 H 85.908 21.958 34.115 H 0.0 **** 0.0
@<TRIPOS>BOND
1 1 2 1
2 1 3 1
3 1 4 1
4 1 5 1
@<TRIPOS>MOLECULE
CH4
5 4
SMALL
USER_CHARGES


@<TRIPOS>ATOM
1 C 98.196 79.109 13.766 C 0.0 **** 0.0
2 H 98.593 79.945 13.189 H 0.0 **** 0.0
3 H 99.0 78.65 14.341 H 0.0 **** 0.0
4 H 97.767 78.372 13.088 H 0.0 **** 0.0
5 H 97.424 79.471 14.445 H 0.0 **** 0.0
@<TRIPOS>BOND
1 1 2 1
2 1 3 1
3 1 4 1
4 1 5 1
@<TRIPOS>MOLECULE
CH4
5 4
SMALL
USER_CHARGES


@<TRIPOS>ATOM
1 C 10.778 20.733 4.739 C 0.0 **** 0.0
2 H 11.572 20.103 5.141 H 0.0 **** 0.0
3 H 11.213 21.636 4.309 H 0.0 **** 0.0
4 H 10.09 21.005 5.54 H 0.0 **** 0.0
5 H 10.238 20.186 3.966 H 0.0 **** 0.0
@<TRIPOS>BOND
1 1 2 1
2 1 3 1
3 1 4 1
4 1 5 1
@<TRIPOS>MOLECULE
CH4
5 4
SMALL
USER_CHARGES


@<TRIPOS>ATOM
1 C 60.85 87.85 62.312 C 0.0 **** 0.0
2 H 59.844 88.027 62.692 H 0.0 **** 0.0
3 H 60.823 87.797 61.223 H 0.0 **** 0.0
4 H 61.229 86.909 62.712 H 0.0 **** 0.0
5 H 61.504 88.665 62.621 H 0.0 **** 0.0
@<TRIPOS>BOND
1 1 2 1
2 1 3 1
3 1 4 1
4 1 5 1
@<TRIPOS>MOLECULE
CH4
5 4
SMALL
USER_CHARGES


@<TRIPOS>ATOM
1 C 88.029 16.642 73.72 C 0.0 **** 0.0
2 H 88.733 16.834 72.91 H 0.0 **** 0.0
3 H 87.075 16.319 73.303 H 0.0 **** 0.0
4 H 87.884 17.555 74.298 H 0.0 **** 0.0
5 H 88.426 15.861 74.368 H 0.0 **** 0.0
@<TRIPOS>BOND
1 1 2 1
2 1 3 1
3 1 4 1
4 1 5 1
@<TRIPOS>MOLECULE
CH4
5 4
SMALL
USER_CHARGES


@<TRIPOS>ATOM
1 C 96.36 24.387 22.511 C 0.0 **** 0.0
2 H 96.846 23.944 21.642 H 0.0 **** 0.0
3 H 95.409 24.827 22.209 H 0.0 **** 0.0
4 H 97.002 25.161 22.931 H 0.0 **** 0.0
5 H 96.182 23.616 23.261 H 0.0 **** 0.0
@<TRIPOS>BOND
1 1 2 1
2 1 3 1
3 1 4 1
4 1 5 1
@<TRIPOS>MOLECULE
CH4
5 4
SMALL
USER_CHARGES


@<TRIPOS>ATOM
1 C 58.778 5.41 68.492 C 0.0 **** 0.0
2 H 59.742 5.78 68.841 H 0.0 **** 0.0
3 H 58.931 4.528 67.87 H 0.0 **** 0.0
4 H 58.281 6.185 67.909 H 0.0 **** 0.0
5 H 58.159 5.146 69.35 H 0.0 **** 0.0
@<TRIPOS>BOND
1 1 2 1
2 1 3 1
3 1 4 1
4 1 5 1
@<TRIPOS>MOLECULE
CH4
5 4
SMALL
USER_CHARGES


@<TRIPOS>ATOM
1 C 19.217 94.972 76.818 C 0.0 **** 0.0
2 H 18.637 95.86 77.068 H 0.0 **** 0.0
3 H 19.417 94.96 75.746 H 0.0 **** 0.0
4 H 18.654 94.081 77.093 H 0.0 **** 0.0
5 H 20.16 94.989 77.364 H 0.0 **** 0.0
@<TRIPOS>BOND
1 1 2 1
2 1 3 1
3 1 4 1
4 1 5 1
@<TRIPOS>MOLECULE
CH4
5 4
SMALL
USER_CHARGES


@<TRIPOS>ATOM
1 C 78.504 72.788 35.557 C 0.0 **** 0.0
2 H 78.645 72.361 36.55 H 0.0 **** 0.0
3 H 78.745 72.039 34.803 H 0.0 **** 0.0
4 H 79.16 73.65 35.436 H 0.0 **** 0.0
5 H 77.467 73.101 35.441 H 0.0 **** 0.0
@<TRIPOS>BOND
1 1 2 1
2 1 3 1
3 1 4 1
4 1 5 1
@<TRIPOS>MOLECULE
CH4
5 4
SMALL
USER_CHARGES


@<TRIPOS>ATOM
1 C 8.739 74.576 54.098 C 0.0 **** 0.0
2 H 8.949 75.539 54.564 H 0.0 **** 0.0
3 H 7.668 74.378 54.142 H 0.0 **** 0.0
4 H 9.277 73.791 54.629 H 0.0 **** 0.0
5 H 9.063 74.599 53.058 H 0.0 **** 0.0
@<TRIPOS>BOND
1 1 2 1
2 1 3 1
3 1 4 1
4 1 5 1
@<TRIPOS>MOLECULE
CH4
5 4
SMALL
USER_CHARGES


@<TRIPOS>ATOM
1 C 28.023 14.231 88.61 C 0.0 **** 0.0
2 H 27.674 14.273 87.578 H 0.0 **** 0.0
3 H 28.712 13.394 88.726 H 0.0 **** 0.0
4 H 27.171 14.097 89.276 H 0.0 **** 0.0
5 H 28.535 15.161 88.858 H 0.0 **** 0.0
@<TRIPOS>BOND
1 1 2 1
2 1 3 1
3 1 4 1
4 1 5 1
@<TRIPOS>MOLECULE
CH4
5 4
SMALL
USER_CHARGES


@<TRIPOS>ATOM
1 C 68.405 11.022 7.688 C 0.0 **** 0.0
2 H 67.362 11.096 7.382 H 0.0 **** 0.0
3 H 68.769 12.008 7.978 H 0.0 **** 0.0
4 H 69.001 10.644 6.858 H 0.0 **** 0.0
5 H 68.488 10.34 8.535 H 0.0 **** 0.0
@<TRIPOS>BOND
1 1 2 1
2 1 3 1
3 1 4 1
4 1 5 1
@<TRIPOS>MOLECULE
CH4
5 4
SMALL
USER_CHARGES


@<TRIPOS>ATOM
1 C 95.756 3.519 29.873 C 0.0 **** 0.0
2 H 95.689 4.002 30.848 H 0.0 **** 0.0
3 H 96.021 2.469 30.005 H 0.0 **** 0.0
4 H 96.521 4.014 29.274 H 0.0 **** 0.0
5 H 94.795 3.59 29.365 H 0.0 **** 0.0
@<TRIPOS>BOND
1 1 2 1
2 1 3 1
3 1 4 1
4 1 5 1
@<TRIPOS>MOLECULE
CH4
5 4
SMALL
USER_CHARGES


@<TRIPOS>ATOM
1 C 57.632 80.477 53.194 C 0.0 **** 0.0
2 H 57.553 80.611 52.115 H 0.0 **** 0.0
3 H 57.407 81.419 53.694 H 0.0 **** 0.0
4 H 58.645 80.163 53.447 H 0.0 **** 0.0
5 H 56.924 79.715 53.517 H 0.0 **** 0.0
@<TRIPOS>BOND
1 1 2 1
2 1 3 1
3 1 4 1
4 1 5 1
@<TRIPOS>MOLECULE
CH4
5 4
SMALL
USER_CHARGES


@<TRIPOS>ATOM
1 C 49.714 60.779 76.652 C 0.0 **** 0.0
2 H 49.52 60.419 77.662 H 0.0 **** 0.0
3 H 50.171 59.983 76.065 H 0.0 **** 0.0
4 H 50.389 61.633 76.695 H 0.0 **** 0.0
5 H 48.775 61.081 76.188 H 0.0 **** 0.0
@<TRIPOS>BOND
1 1 4 1
2 1 5 1
3 1 2 1
4 1 3 1
@<TRIPOS>MOLECULE
CH4
5 4
SMALL
USER_CHARGES


@<TRIPOS>ATOM
1 C 41.265 34.466 42.101 C 0.0 **** 0.0
2 H 41.659 33.496 42.405 H 0.0 **** 0.0
3 H 42.017 35.235 42.276 H 0.0 **** 0.0
4 H 40.371 34.692 42.681 H 0.0 **** 0.0
5 H 41.014 34.438 41.04 H 0.0 **** 0.0
@<TRIPOS>BOND
1 1 2 1
2 1 3 1
3 1 4 1
4 1 5 1
@<TRIPOS>MOLECULE
CH4
5 4
SMALL
USER_CHARGES


@<TRIPOS>ATOM
1 C 52.429 26.144 83.194 C 0.0 **** 0.0
2 H 52.209 26.081 84.259 H 0.0 **** 0.0
3 H 53.241 25.46 82.949 H 0.0 **** 0.0
4 H 52.724 27.164 82.945 H 0.0 **** 0.0
5 H 51.54 25.874 82.623 H 0.0 **** 0.0
@<TRIPOS>BOND
1 1 2 1
2 1 3 1
3 1 4 1
4 1 5 1
@<TRIPOS>MOLECULE
CH4
5 4
SMALL
USER_CHARGES


@<TRIPOS>ATOM
1 C 79.733 95.919 67.646 C 0.0 **** 0.0
2 H 78.941 95.828 68.389 H 0.0 **** 0.0
3 H 79.597 96.843 67.083 H 0.0 **** 0.0
4 H 79.691 95.069 66.965 H 0.0 **** 0.0
5 H 80.7 95.936 68.147 H 0.0 **** 0.0
@<TRIPOS>BOND
1 1 2 1
2 1 3 1
3 1 4 1
4 1 5 1
@<TRIPOS>MOLECULE
CH4
5 4
SMALL
USER_CHARGES


@<TRIPOS>ATOM
1 C 20.367 61.195 13.425 C 0.0 **** 0.0
2 H 20.769 61.949 12.748 H 0.0 **** 0.0
3 H 20.739 60.212 13.136 H 0.0 **** 0.0
4 H 19.279 61.203 13.372 H 0.0 **** 0.0
5 H 20.683 61.418 14.445 H 0.0 **** 0.0
@<TRIPOS>BOND
1 1 2 1
2 1 3 1
3 1 4 1
4 1 5 1
@<TRIPOS>MOLECULE
CH4
5 4
SMALL
USER_CHARGES


@<TRIPOS>ATOM
1 C 31.061 25.37 75.486 C 0.0 **** 0.0
2 H 32.012 25.527 74.976 H 0.0 **** 0.0
3 H 30.243 25.646 74.822 H 0.0 **** 0.0
4 H 31.025 25.988 76.384 H 0.0 **** 0.0
5 H 30.967 24.32 75.764 H 0.0 **** 0.0
@<TRIPOS>BOND
1 1 2 1
2 1 3 1
3 1 4 1
4 1 5 1
@<TRIPOS>MOLECULE
CH4
5 4
SMALL
USER_CHARGES


@<TRIPOS>ATOM
1 C 92.453 52.584 58.26 C 0.0 **** 0.0
2 H 92.823 52.027 57.4 H 0.0 **** 0.0
3 H 92.873 52.163 59.174 H 0.0 **** 0.0
4 H 91.365 52.517 58.295 H 0.0 **** 0.0
5 H 92.75 53.629 58.171 H 0.0 **** 0.0
@<TRIPOS>BOND
1 1 2 1
2 1 3 1
3 1 4 1
4 1 5 1
@<TRIPOS>MOLECULE
CH4
5 4
SMALL
USER_CHARGES


@<TRIPOS>ATOM
1 C 63.271 77.291 94.742 C 0.0 **** 0.0
2 H 63.83 76.524 94.205 H 0.0 **** 0.0
3 H 63.325 78.231 94.192 H 0.0 **** 0.0
4 H 63.7 77.425 95.735 H 0.0 **** 0.0
5 H 62.23 76.983 94.834 H 0.0 **** 0.0
@<TRIPOS>BOND
1 1 2 1
2 1 3 1
3 1 4 1
4 1 5 1
@<TRIPOS>MOLECULE
CH4
5 4
SMALL
USER_CHARGES


@<TRIPOS>ATOM
1 C 98.017 4.053 40.439 C 0.0 **** 0.0
2 H 98.218 4.054 39.367 H 0.0 **** 0.0
3 H 98.294 3.086 40.859 H 0.0 **** 0.0
4 H 96.956 4.234 40.61 H 0.0 **** 0.0
5 H 98.601 4.839 40.918 H 0.0 **** 0.0
@<TRIPOS>BOND
1 1 2 1
2 1 5 1
3 1 3 1
4 1 4 1
@<TRIPOS>MOLECULE
CH4
5 4
SMALL
USER_CHARGES


@<TRIPOS>ATOM
1 C 57.897 88.581 60.772 C 0.0 **** 0.0
2 H 57.228 89.364 60.415 H 0.0 **** 0.0
3 H 57.638 88.323 61.799 H 0.0 **** 0.0
4 H 58.926 88.938 60.735 H 0.0 **** 0.0
5 H 57.795 87.7 60.139 H 0.0 **** 0.0
@<TRIPOS>BOND
1 1 2 1
2 1 3 1
3 1 4 1
4 1 5 1
@<TRIPOS>MOLECULE
CH4
5 4
SMALL
USER_CHARGES


@<TRIPOS>ATOM
1 C 0.692 68.411 43.652 C 0.0 **** 0.0
2 H 0.195 67.83 44.429 H 0.0 **** 0.0
3 H 1.568 67.869 43.297 H 0.0 **** 0.0
4 H 1.001 69.373 44.061 H 0.0 **** 0.0
5 H 0.003 68.574 42.823 H 0.0 **** 0.0
@<TRIPOS>BOND
1 1 2 1
2 1 3 1
3 1 4 1
4 1 5 1
@<TRIPOS>MOLECULE
CH4
5 4
SMALL
USER_CHARGES


@<TRIPOS>ATOM
1 C 57.088 0.757 15.28 C 0.0 **** 0.0
2 H 56.755 0.198 16.154 H 0.0 **** 0.0
3 H 56.227 1.003 14.657 H 0.0 **** 0.0
4 H 57.789 0.15 14.707 H 0.0 **** 0.0
5 H 57.579 1.675 15.601 H 0.0 **** 0.0
@<TRIPOS>BOND
1 1 2 1
2 1 3 1
3 1 4 1
4 1 5 1
@<TRIPOS>MOLECULE
CH4
5 4
SMALL
USER_CHARGES


@<TRIPOS>ATOM
1 C 9.583 2.047 51.569 C 0.0 **** 0.0
2 H 9.077 2.525 52.408 H 0.0 **** 0.0
3 H 10.313 1.331 51.946 H 0.0 **** 0.0
4 H 10.09 2.804 50.971 H 0.0 **** 0.0
5 H 8.849 1.527 50.952 H 0.0 **** 0.0
@<TRIPOS>BOND
1 1 2 1
2 1 3 1
3 1 4 1
4 1 5 1
@<TRIPOS>MOLECULE
CH4
5 4
SMALL
USER_CHARGES


@<TRIPOS>ATOM
1 C 36.276 37.788 83.29 C 0.0 **** 0.0
2 H 36.986 38.276 82.624 H 0.0 **** 0.0
3 H 35.261 38.069 83.008 H 0.0 **** 0.0
4 H 36.467 38.1 84.317 H 0.0 **** 0.0
5 H 36.389 36.706 83.212 H 0.0 **** 0.0
@<TRIPOS>BOND
1 1 2 1
2 1 3 1
3 1 4 1
4 1 5 1
@<TRIPOS>MOLECULE
CH4
5 4
SMALL
USER_CHARGES


@<TRIPOS>ATOM
1 C 74.126 5.595 32.168 C 0.0 **** 0.0
2 H 74.747 5.396 31.295 H 0.0 **** 0.0
3 H 74.725 5.483 33.072 H 0.0 **** 0.0
4 H 73.296 4.89 32.192 H 0.0 **** 0.0
5 H 73.738 6.612 32.113 H 0.0 **** 0.0
@<TRIPOS>BOND
1 1 2 1
2 1 3 1
3 1 4 1
4 1 5 1
@<TRIPOS>MOLECULE
CH4
5 4
SMALL
USER_CHARGES


@<TRIPOS>ATOM
1 C 84.313 69.257 20.374 C 0.0 **** 0.0
2 H 83.891 69.756 19.501 H 0.0 **** 0.0
3 H 83.588 68.545 20.77 H 0.0 **** 0.0
4 H 84.55 69.998 21.137 H 0.0 **** 0.0
5 H 85.222 68.729 20.085 H 0.0 **** 0.0
@<TRIPOS>BOND
1 1 2 1
2 1 3 1
3 1 4 1
4 1 5 1
@<TRIPOS>MOLECULE
CH4
5 4
SMALL
USER_CHARGES


@<TRIPOS>ATOM
1 C 13.865 81.213 13.401 C 0.0 **** 0.0
2 H 13.388 81.39 12.437 H 0.0 **** 0.0
3 H 13.443 80.317 13.856 H 0.0 **** 0.0
4 H 13.693 82.069 14.053 H 0.0 **** 0.0
5 H 14.937 81.077 13.256 H 0.0 **** 0.0
@<TRIPOS>BOND
1 1 2 1
2 1 3 1
3 1 4 1
4 1 5 1
@<TRIPOS>MOLECULE
CH4
5 4
SMALL
USER_CHARGES


@<TRIPOS>ATOM
1 C 72.906 49.323 52.538 C 0.0 **** 0.0
2 H 72.804 49.69 53.559 H 0.0 **** 0.0
3 H 71.927 49.307 52.059 H 0.0 **** 0.0
4 H 73.32 48.315 52.553 H 0.0 **** 0.0
5 H 73.573 49.981 51.981 H 0.0 **** 0.0
@<TRIPOS>BOND
1 1 2 1
2 1 3 1
3 1 4 1
4 1 5 1
@<TRIPOS>MOLECULE
CH4
5 4
SMALL
USER_CHARGES


@<TRIPOS>ATOM
1 C 97.927 68.23 19.498 C 0.0 **** 0.0
2 H 97.654 68.703 18.555 H 0.0 **** 0.0
3 H 97.367 68.69 20.312 H 0.0 **** 0.0
4 H 98.995 68.359 19.673 H 0.0 **** 0.0
5 H 97.693 67.166 19.452 H 0.0 **** 0.0
@<TRIPOS>BOND
1 1 2 1
2 1 3 1
3 1 4 1
4 1 5 1
@<TRIPOS>MOLECULE
CH4
5 4
SMALL
USER_CHARGES


@<TRIPOS>ATOM
1 C 70.91 21.039 81.676 C 0.0 **** 0.0
2 H 70.89 21.042 82.766 H 0.0 **** 0.0
3 H 70.408 21.931 81.301 H 0.0 **** 0.0
4 H 70.397 20.15 81.307 H 0.0 **** 0.0
5 H 71.944 21.031 81.332 H 0.0 **** 0.0
@<TRIPOS>BOND
1 1 2 1
2 1 3 1
3 1 4 1
4 1 5 1
@<TRIPOS>MOLECULE
CH4
5 4
SMALL
USER_CHARGES


@<TRIPOS>ATOM
1 C 12.382 20.253 21.915 C 0.0 **** 0.0
2 H 12.407 20.617 20.887 H 0.0 **** 0.0
3 H 13.062 20.847 22.526 H 0.0 **** 0.0
4 H 12.691 19.208 21.938 H 0.0 **** 0.0
5 H 11.369 20.342 22.306 H 0.0 **** 0.0
@<TRIPOS>BOND
1 1 2 1
2 1 3 1
3 1 4 1
4 1 5 1
@<TRIPOS>MOLECULE
CH4
5 4
SMALL
USER_CHARGES


@<TRIPOS>ATOM
1 C 75.893 54.073 67.128 C 0.0 **** 0.0
2 H 76.554 53.944 66.271 H 0.0 **** 0.0
3 H 75.807 53.128 67.666 H 0.0 **** 0.0
4 H 74.908 54.386 66.783 H 0.0 **** 0.0
5 H 76.304 54.833 67.792 H 0.0 **** 0.0
@<TRIPOS>BOND
1 1 2 1
2 1 3 1
3 1 4 1
4 1 5 1
@<TRIPOS>MOLECULE
CH4
5 4
SMALL
USER_CHARGES


@<TRIPOS>ATOM
1 C 22.699 29.433 10.897 C 0.0 **** 0.0
2 H 22.697 29.348 9.811 H 0.0 **** 0.0
3 H 21.96 30.174 11.204 H 0.0 **** 0.0
4 H 23.688 29.745 11.235 H 0.0 **** 0.0
5 H 22.452 28.468 11.338 H 0.0 **** 0.0
@<TRIPOS>BOND
1 1 2 1
2 1 3 1
3 1 4 1
4 1 5 1
@<TRIPOS>MOLECULE
CH4
5 4
SMALL
USER_CHARGES


@<TRIPOS>ATOM
1 C 62.933 53.459 47.074 C 0.0 **** 0.0
2 H 63.095 53.355 46.001 H 0.0 **** 0.0
3 H 61.945 53.884 47.252 H 0.0 **** 0.0
4 H 63.693 54.117 47.493 H 0.0 **** 0.0
5 H 62.998 52.479 47.547 H 0.0 **** 0.0
@<TRIPOS>BOND
1 1 2 1
2 1 3 1
3 1 4 1
4 1 5 1
@<TRIPOS>MOLECULE
CH4
5 4
SMALL
USER_CHARGES


@<TRIPOS>ATOM
1 C 49.268 19.555 74.038 C 0.0 **** 0.0
2 H 48.761 18.773 73.472 H 0.0 **** 0.0
3 H 48.568 20.009 74.739 H 0.0 **** 0.0
4 H 49.641 20.315 73.352 H 0.0 **** 0.0
5 H 50.103 19.12 74.588 H 0.0 **** 0.0
@<TRIPOS>BOND
1 1 2 1
2 1 3 1
3 1 4 1
4 1 5 1
@<TRIPOS>MOLECULE
CH4
5 4
SMALL
USER_CHARGES


@<TRIPOS>ATOM
1 C 69.422 43.762 83.562 C 0.0 **** 0.0
2 H 69.072 43.487 82.567 H 0.0 **** 0.0
3 H 69.014 44.735 83.835 H 0.0 **** 0.0
4 H 70.511 43.811 83.563 H 0.0 **** 0.0
5 H 69.092 43.014 84.283 H 0.0 **** 0.0
@<TRIPOS>BOND
1 1 2 1
2 1 3 1
3 1 4 1
4 1 5 1
@<TRIPOS>MOLECULE
CH4
5 4
SMALL
USER_CHARGES


@<TRIPOS>ATOM
1 C 79.369 21.339 60.563 C 0.0 **** 0.0
2 H 80.195 21.88 60.101 H 0.0 **** 0.0
3 H 79.04 21.872 61.455 H 0.0 **** 0.0
4 H 79.701 20.338 60.84 H 0.0 **** 0.0
5 H 78.543 21.265 59.857 H 0.0 **** 0.0
@<TRIPOS>BOND
1 1 2 1
2 1 3 1
3 1 4 1
4 1 5 1
@<TRIPOS>MOLECULE
CH4
5 4
SMALL
USER_CHARGES


@<TRIPOS>ATOM
1 C 16.333 42.947 2.309 C 0.0 **** 0.0
2 H 16.197 43.413 3.286 H 0.0 **** 0.0
3 H 15.707 43.455 1.575 H 0.0 **** 0.0
4 H 16.048 41.897 2.366 H 0.0 **** 0.0
5 H 17.378 43.025 2.012 H 0.0 **** 0.0
@<TRIPOS>BOND
1 1 2 1
2 1 3 1
3 1 4 1
4 1 5 1
@<TRIPOS>MOLECULE
CH4
5 4
SMALL
USER_CHARGES


@<TRIPOS>ATOM
1 C 73.499 2.556 22.387 C 0.0 **** 0.0
2 H 73.357 2.772 21.328 H 0.0 **** 0.0
3 H 74.363 3.108 22.757 H 0.0 **** 0.0
4 H 73.666 1.487 22.52 H 0.0 **** 0.0
5 H 72.61 2.857 22.941 H 0.0 **** 0.0
@<TRIPOS>BOND
1 1 2 1
2 1 3 1
3 1 4 1
4 1 5 1
@<TRIPOS>MOLECULE
CH4
5 4
SMALL
USER_CHARGES


@<TRIPOS>ATOM
1 C 51.588 92.955 20.828 C 0.0 **** 0.0
2 H 52.38 93.494 20.308 H 0.0 **** 0.0
3 H 51.78 92.973 21.901 H 0.0 **** 0.0
4 H 51.563 91.922 20.481 H 0.0 **** 0.0
5 H 50.629 93.431 20.622 H 0.0 **** 0.0
@<TRIPOS>BOND
1 1 2 1
2 1 3 1
3 1 4 1
4 1 5 1
@<TRIPOS>MOLECULE
CH4
5 4
SMALL
USER_CHARGES


@<TRIPOS>ATOM
1 C 80.359 74.747 14.695 C 0.0 **** 0.0
2 H 79.927 75.746 14.638 H 0.0 **** 0.0
3 H 80.761 74.582 15.695 H 0.0 **** 0.0
4 H 81.159 74.655 13.961 H 0.0 **** 0.0
5 H 79.588 74.005 14.487 H 0.0 **** 0.0
@<TRIPOS>BOND
1 1 2 1
2 1 3 1
3 1 4 1
4 1 5 1
@<TRIPOS>MOLECULE
CH4
5 4
SMALL
USER_CHARGES


@<TRIPOS>ATOM
1 C 77.928 8.215 30.894 C 0.0 **** 0.0
2 H 78.098 8.437 29.84 H 0.0 **** 0.0
3 H 76.856 8.207 31.095 H 0.0 **** 0.0
4 H 78.407 8.977 31.508 H 0.0 **** 0.0
5 H 78.349 7.238 31.131 H 0.0 **** 0.0
@<TRIPOS>BOND
1 1 2 1
2 1 3 1
3 1 4 1
4 1 5 1
@<TRIPOS>MOLECULE
CH4
5 4
SMALL
USER_CHARGES


@<TRIPOS>ATOM
1 C 97.881 58.798 3.937 C 0.0 **** 0.0
2 H 97.038 59.486 3.996 H 0.0 **** 0.0
3 H 97.63 57.871 4.454 H 0.0 **** 0.0
4 H 98.754 59.251 4.407 H 0.0 **** 0.0
5 H 98.102 58.583 2.892 H 0.0 **** 0.0
@<TRIPOS>BOND
1 1 2 1
2 1 3 1
3 1 4 1
4 1 5 1
@<TRIPOS>MOLECULE
CH4
5 4
SMALL
USER_CHARGES


@<TRIPOS>ATOM
1 C 9.503 19.347 25.445 C 0.0 **** 0.0
2 H 9.152 18.477 24.89 H 0.0 **** 0.0
3 H 9.939 19.023 26.39 H 0.0 **** 0.0
4 H 8.664 20.015 25.641 H 0.0 **** 0.0
5 H 10.256 19.873 24.858 H 0.0 **** 0.0
@<TRIPOS>BOND
1 1 2 1
2 1 3 1
3 1 4 1
4 1 5 1
@<TRIPOS>MOLECULE
CH4
5 4
SMALL
USER_CHARGES


@<TRIPOS>ATOM
1 C 73.78 26.785 55.881 C 0.0 **** 0.0
2 H 72.835 27.283 56.097 H 0.0 **** 0.0
3 H 74.438 27.471 55.347 H 0.0 **** 0.0
4 H 73.594 25.906 55.264 H 0.0 **** 0.0
5 H 74.252 26.481 56.815 H 0.0 **** 0.0
@<TRIPOS>BOND
1 1 5 1
2 1 2 1
3 1 3 1
4 1 4 1
@<TRIPOS>MOLECULE
CH4
5 4
SMALL
USER_CHARGES


@<TRIPOS>ATOM
1 C 8.133 92.633 85.18 C 0.0 **** 0.0
2 H 8.126 91.622 85.587 H 0.0 **** 0.0
3 H 9.074 93.121 85.435 H 0.0 **** 0.0
4 H 7.303 93.2 85.601 H 0.0 **** 0.0
5 H 8.029 92.589 84.096 H 0.0 **** 0.0
@<TRIPOS>BOND
1 1 2 1
2 1 3 1
3 1 4 1
4 1 5 1
@<TRIPOS>MOLECULE
CH4
5 4
SMALL
USER_CHARGES


@<TRIPOS>ATOM
1 C 83.952 7.132 32.115 C 0.0 **** 0.0
2 H 84.785 6.891 31.455 H 0.0 **** 0.0
3 H 83.602 8.143 31.904 H 0.0 **** 0.0
4 H 84.281 7.07 33.153 H 0.0 **** 0.0
5 H 83.14 6.424 31.949 H 0.0 **** 0.0
@<TRIPOS>BOND
1 1 2 1
2 1 3 1
3 1 4 1
4 1 5 1
@<TRIPOS>MOLECULE
CH4
5 4
SMALL
USER_CHARGES


@<TRIPOS>ATOM
1 C 66.959 73.035 14.454 C 0.0 **** 0.0
2 H 67.163 73.455 15.439 H 0.0 **** 0.0
3 H 67.043 73.818 13.7 H 0.0 **** 0.0
4 H 65.951 72.621 14.437 H 0.0 **** 0.0
5 H 67.68 72.246 14.24 H 0.0 **** 0.0
@<TRIPOS>BOND
1 1 2 1
2 1 3 1
3 1 4 1
4 1 5 1
@<TRIPOS>MOLECULE
CH4
5 4
SMALL
USER_CHARGES


@<TRIPOS>ATOM
1 C 68.61 78.582 35.099 C 0.0 **** 0.0
2 H 69.434 79.296 35.079 H 0.0 **** 0.0
3 H 68.323 78.33 34.078 H 0.0 **** 0.0
4 H 67.759 79.024 35.618 H 0.0 **** 0.0
5 H 68.925 77.679 35.622 H 0.0 **** 0.0
@<TRIPOS>BOND
1 1 2 1
2 1 3 1
3 1 4 1
4 1 5 1
@<TRIPOS>MOLECULE
CH4
5 4
SMALL
USER_CHARGES


@<TRIPOS>ATOM
1 C 67.595 51.738 56.524 C 0.0 **** 0.0
2 H 67.407 51.833 55.455 H 0.0 **** 0.0
3 H 66.738 52.12 57.079 H 0.0 **** 0.0
4 H 68.484 52.31 56.788 H 0.0 **** 0.0
5 H 67.751 50.688 56.773 H 0.0 **** 0.0
@<TRIPOS>BOND
1 1 2 1
2 1 3 1
3 1 4 1
4 1 5 1
@<TRIPOS>MOLECULE
CH4
5 4
SMALL
USER_CHARGES


@<TRIPOS>ATOM
1 C 91.109 98.205 11.11 C 0.0 **** 0.0
2 H 90.876 99.0 11.819 H 0.0 **** 0.0
3 H 90.253 98.041 10.455 H 0.0 **** 0.0
4 H 91.332 97.287 11.654 H 0.0 **** 0.0
5 H 91.974 98.493 10.513 H 0.0 **** 0.0
@<TRIPOS>BOND
1 1 2 1
2 1 3 1
3 1 4 1
4 1 5 1
@<TRIPOS>MOLECULE
CH4
5 4
SMALL
USER_CHARGES


@<TRIPOS>ATOM
1 C 96.447 65.72 50.247 C 0.0 **** 0.0
2 H 96.626 65.638 49.175 H 0.0 **** 0.0
3 H 96.706 66.724 50.582 H 0.0 **** 0.0
4 H 97.061 64.99 50.774 H 0.0 **** 0.0
5 H 95.395 65.527 50.454 H 0.0 **** 0.0
@<TRIPOS>BOND
1 1 2 1
2 1 3 1
3 1 4 1
4 1 5 1
@<TRIPOS>MOLECULE
CH4
5 4
SMALL
USER_CHARGES


@<TRIPOS>ATOM
1 C 13.745 91.747 44.892 C 0.0 **** 0.0
2 H 13.998 92.161 43.915 H 0.0 **** 0.0
3 H 14.66 91.561 45.454 H 0.0 **** 0.0
4 H 13.202 90.812 44.759 H 0.0 **** 0.0
5 H 13.121 92.456 45.436 H 0.0 **** 0.0
@<TRIPOS>BOND
1 1 2 1
2 1 3 1
3 1 4 1
4 1 5 1
@<TRIPOS>MOLECULE
CH4
5 4
SMALL
USER_CHARGES


@<TRIPOS>ATOM
1 C 16.465 68.329 21.701 C 0.0 **** 0.0
2 H 16.364 67.691 22.579 H 0.0 **** 0.0
3 H 16.055 69.316 21.92 H 0.0 **** 0.0
4 H 15.921 67.887 20.866 H 0.0 **** 0.0
5 H 17.519 68.423 21.439 H 0.0 **** 0.0
@<TRIPOS>BOND
1 1 2 1
2 1 3 1
3 1 4 1
4 1 5 1
@<TRIPOS>MOLECULE
CH4
5 4
SMALL
USER_CHARGES


@<TRIPOS>ATOM
1 C 14.203 57.983 15.923 C 0.0 **** 0.0
2 H 14.267 58.842 16.59 H 0.0 **** 0.0
3 H 15.117 57.913 15.332 H 0.0 **** 0.0
4 H 13.348 58.104 15.257 H 0.0 **** 0.0
5 H 14.08 57.074 16.512 H 0.0 **** 0.0
@<TRIPOS>BOND
1 1 2 1
2 1 3 1
3 1 4 1
4 1 5 1
@<TRIPOS>MOLECULE
CH4
5 4
SMALL
USER_CHARGES


@<TRIPOS>ATOM
1 C 94.212 87.28 98.099 C 0.0 **** 0.0
2 H 93.211 87.055 98.467 H 0.0 **** 0.0
3 H 94.5 88.281 98.419 H 0.0 **** 0.0
4 H 94.218 87.229 97.01 H 0.0 **** 0.0
5 H 94.918 86.552 98.5 H 0.0 **** 0.0
@<TRIPOS>BOND
1 1 2 1
2 1 3 1
3 1 4 1
4 1 5 1
@<TRIPOS>MOLECULE
CH4
5 4
SMALL
USER_CHARGES


@<TRIPOS>ATOM
1 C 58.186 25.658 27.915 C 0.0 **** 0.0
2 H 58.012 25.516 26.848 H 0.0 **** 0.0
3 H 59.255 25.779 28.095 H 0.0 **** 0.0
4 H 57.82 24.789 28.461 H 0.0 **** 0.0
5 H 57.657 26.55 28.253 H 0.0 **** 0.0
@<TRIPOS>BOND
1 1 2 1
2 1 3 1
3 1 4 1
4 1 5 1
@<TRIPOS>MOLECULE
CH4
5 4
SMALL
USER_CHARGES


@<TRIPOS>ATOM
1 C 55.453 63.473 34.582 C 0.0 **** 0.0
2 H 55.61 63.777 35.617 H 0.0 **** 0.0
3 H 56.418 63.298 34.105 H 0.0 **** 0.0
4 H 54.922 64.262 34.049 H 0.0 **** 0.0
5 H 54.864 62.557 34.557 H 0.0 **** 0.0
@<TRIPOS>BOND
1 1 2 1
2 1 3 1
3 1 4 1
4 1 5 1
@<TRIPOS>MOLECULE
CH4
5 4
SMALL
USER_CHARGES


@<TRIPOS>ATOM
1 C 9.217 87.559 36.008 C 0.0 **** 0.0
2 H 8.917 86.533 36.22 H 0.0 **** 0.0
3 H 9.773 87.588 35.07 H 0.0 **** 0.0
4 H 9.848 87.928 36.816 H 0.0 **** 0.0
5 H 8.33 88.187 35.924 H 0.0 **** 0.0
@<TRIPOS>BOND
1 1 2 1
2 1 3 1
3 1 4 1
4 1 5 1
@<TRIPOS>MOLECULE
CH4
5 4
SMALL
USER_CHARGES


@<TRIPOS>ATOM
1 C 92.19 19.928 17.972 C 0.0 **** 0.0
2 H 92.838 20.76 18.249 H 0.0 **** 0.0
3 H 91.159 20.278 17.909 H 0.0 **** 0.0
4 H 92.262 19.145 18.726 H 0.0 **** 0.0
5 H 92.5 19.532 17.006 H 0.0 **** 0.0
@<TRIPOS>BOND
1 1 2 1
2 1 3 1
3 1 4 1
4 1 5 1
@<TRIPOS>MOLECULE
CH4
5 4
SMALL
USER_CHARGES


@<TRIPOS>ATOM
1 C 96.855 68.289 6.876 C 0.0 **** 0.0
2 H 96.473 68.418 7.889 H 0.0 **** 0.0
3 H 97.196 69.251 6.491 H 0.0 **** 0.0
4 H 96.063 67.901 6.236 H 0.0 **** 0.0
5 H 97.689 67.587 6.889 H 0.0 **** 0.0
@<TRIPOS>BOND
1 1 2 1
2 1 3 1
3 1 4 1
4 1 5 1
@<TRIPOS>MOLECULE
CH4
5 4
SMALL
USER_CHARGES


@<TRIPOS>ATOM
1 C 46.18 9.997 37.96 C 0.0 **** 0.0
2 H 46.134 9.046 38.491 H 0.0 **** 0.0
3 H 47.145 10.47 38.144 H 0.0 **** 0.0
4 H 45.381 10.649 38.313 H 0.0 **** 0.0
5 H 46.06 9.821 36.891 H 0.0 **** 0.0
@<TRIPOS>BOND
1 1 4 1
2 1 5 1
3 1 2 1
4 1 3 1
@<TRIPOS>MOLECULE
CH4
5 4
SMALL
USER_CHARGES


@<TRIPOS>ATOM
1 C 38.009 67.861 35.262 C 0.0 **** 0.0
2 H 37.565 67.899 36.257 H 0.0 **** 0.0
3 H 38.751 67.063 35.226 H 0.0 **** 0.0
4 H 38.489 68.814 35.042 H 0.0 **** 0.0
5 H 37.231 67.668 34.524 H 0.0 **** 0.0
@<TRIPOS>BOND
1 1 2 1
2 1 3 1
3 1 4 1
4 1 5 1
@<TRIPOS>MOLECULE
CH4
5 4
SMALL
USER_CHARGES


@<TRIPOS>ATOM
1 C 9.793 19.244 46.516 C 0.0 **** 0.0
2 H 10.316 19.851 45.777 H 0.0 **** 0.0
3 H 10.51 18.607 47.035 H 0.0 **** 0.0
4 H 9.05 18.623 46.016 H 0.0 **** 0.0
5 H 9.298 19.896 47.236 H 0.0 **** 0.0
@<TRIPOS>BOND
1 1 2 1
2 1 3 1
3 1 4 1
4 1 5 1
@<TRIPOS>MOLECULE
CH4
5 4
SMALL
USER_CHARGES


@<TRIPOS>ATOM
1 C 10.906 23.432 23.272 C 0.0 **** 0.0
2 H 10.427 23.84 22.381 H 0.0 **** 0.0
3 H 10.783 22.349 23.286 H 0.0 **** 0.0
4 H 10.444 23.862 24.161 H 0.0 **** 0.0
5 H 11.967 23.679 23.259 H 0.0 **** 0.0
@<TRIPOS>BOND
1 1 2 1
2 1 3 1
3 1 4 1
4 1 5 1
@<TRIPOS>MOLECULE
CH4
5 4
SMALL
USER_CHARGES


@<TRIPOS>ATOM
1 C 49.562 43.084 47.501 C 0.0 **** 0.0
2 H 49.137 43.598 48.363 H 0.0 **** 0.0
3 H 49.605 42.013 47.701 H 0.0 **** 0.0
4 H 50.569 43.459 47.315 H 0.0 **** 0.0
5 H 48.939 43.266 46.625 H 0.0 **** 0.0
@<TRIPOS>BOND
1 1 2 1
2 1 3 1
3 1 4 1
4 1 5 1
@<TRIPOS>MOLECULE
CH4
5 4
SMALL
USER_CHARGES


@<TRIPOS>ATOM
1 C 57.669 69.992 65.888 C 0.0 **** 0.0
2 H 56.66 70.331 66.123 H 0.0 **** 0.0
3 H 58.203 70.783 65.36 H 0.0 **** 0.0
4 H 57.616 69.105 65.256 H 0.0 **** 0.0
5 H 58.195 69.75 66.811 H 0.0 **** 0.0
@<TRIPOS>BOND
1 1 2 1
2 1 3 1
3 1 4 1
4 1 5 1
@<TRIPOS>MOLECULE
CH4
5 4
SMALL
USER_CHARGES


@<TRIPOS>ATOM
1 C 62.18 50.813 80.318 C 0.0 **** 0.0
2 H 62.389 51.044 79.274 H 0.0 **** 0.0
3 H 61.152 51.09 80.553 H 0.0 **** 0.0
4 H 62.862 51.374 80.958 H 0.0 **** 0.0
5 H 62.317 49.745 80.488 H 0.0 **** 0.0
@<TRIPOS>BOND
1 1 2 1
2 1 3 1
3 1 4 1
4 1 5 1
@<TRIPOS>MOLECULE
CH4
5 4
SMALL
USER_CHARGES


@<TRIPOS>ATOM
1 C 44.762 18.04 36.063 C 0.0 **** 0.0
2 H 44.943 17.013 35.748 H 0.0 **** 0.0
3 H 45.699 18.596 36.046 H 0.0 **** 0.0
4 H 44.355 18.044 37.074 H 0.0 **** 0.0
5 H 44.049 18.507 35.383 H 0.0 **** 0.0
@<TRIPOS>BOND
1 1 2 1
2 1 3 1
3 1 4 1
4 1 5 1
@<TRIPOS>MOLECULE
CH4
5 4
SMALL
USER_CHARGES


@<TRIPOS>ATOM
1 C 6.967 39.643 82.399 C 0.0 **** 0.0
2 H 7.777 39.366 81.723 H 0.0 **** 0.0
3 H 6.01 39.48 81.903 H 0.0 **** 0.0
4 H 7.063 40.694 82.669 H 0.0 **** 0.0
5 H 7.02 39.029 83.298 H 0.0 **** 0.0
@<TRIPOS>BOND
1 1 2 1
2 1 3 1
3 1 4 1
4 1 5 1
@<TRIPOS>MOLECULE
CH4
5 4
SMALL
USER_CHARGES


@<TRIPOS>ATOM
1 C 1.416 93.911 26.964 C 0.0 **** 0.0
2 H 2.322 93.628 27.501 H 0.0 **** 0.0
3 H 0.783 93.034 26.832 H 0.0 **** 0.0
4 H 1.684 94.316 25.988 H 0.0 **** 0.0
5 H 0.877 94.667 27.535 H 0.0 **** 0.0
@<TRIPOS>BOND
1 1 2 1
2 1 3 1
3 1 4 1
4 1 5 1
@<TRIPOS>MOLECULE
CH4
5 4
SMALL
USER_CHARGES


@<TRIPOS>ATOM
1 C 42.227 56.307 13.382 C 0.0 **** 0.0
2 H 41.214 56.483 13.744 H 0.0 **** 0.0
3 H 42.364 55.242 13.19 H 0.0 **** 0.0
4 H 42.944 56.637 14.133 H 0.0 **** 0.0
5 H 42.384 56.865 12.459 H 0.0 **** 0.0
@<TRIPOS>BOND
1 1 2 1
2 1 3 1
3 1 4 1
4 1 5 1
@<TRIPOS>MOLECULE
CH4
5 4
SMALL
USER_CHARGES


@<TRIPOS>ATOM
1 C 39.884 40.972 63.342 C 0.0 **** 0.0
2 H 39.762 40.227 64.128 H 0.0 **** 0.0
3 H 39.477 41.925 63.68 H 0.0 **** 0.0
4 H 39.352 40.646 62.448 H 0.0 **** 0.0
5 H 40.943 41.089 63.113 H 0.0 **** 0.0
@<TRIPOS>BOND
1 1 2 1
2 1 3 1
3 1 4 1
4 1 5 1
@<TRIPOS>MOLECULE
CH4
5 4
SMALL
USER_CHARGES


@<TRIPOS>ATOM
1 C 13.391 42.658 81.567 C 0.0 **** 0.0
2 H 12.808 43.04 80.729 H 0.0 **** 0.0
3 H 12.718 42.308 82.349 H 0.0 **** 0.0
4 H 14.024 43.453 81.961 H 0.0 **** 0.0
5 H 14.016 41.832 81.228 H 0.0 **** 0.0
@<TRIPOS>BOND
1 1 2 1
2 1 3 1
3 1 4 1
4 1 5 1
@<TRIPOS>MOLECULE
CH4
5 4
SMALL
USER_CHARGES


@<TRIPOS>ATOM
1 C 47.437 80.236 43.758 C 0.0 **** 0.0
2 H 47.4 80.213 44.847 H 0.0 **** 0.0
3 H 47.655 81.251 43.424 H 0.0 **** 0.0
4 H 46.476 79.919 43.355 H 0.0 **** 0.0
5 H 48.219 79.562 43.407 H 0.0 **** 0.0
@<TRIPOS>BOND
1 1 2 1
2 1 3 1
3 1 4 1
4 1 5 1
@<TRIPOS>MOLECULE
CH4
5 4
SMALL
USER_CHARGES


@<TRIPOS>ATOM
1 C 49.035 42.905 34.889 C 0.0 **** 0.0
2 H 49.587 42.778 33.958 H 0.0 **** 0.0
3 H 49.528 42.341 35.682 H 0.0 **** 0.0
4 H 48.017 42.538 34.761 H 0.0 **** 0.0
5 H 49.01 43.961 35.155 H 0.0 **** 0.0
@<TRIPOS>BOND
1 1 2 1
2 1 3 1
3 1 4 1
4 1 5 1
@<TRIPOS>MOLECULE
CH4
5 4
SMALL
USER_CHARGES


@<TRIPOS>ATOM
1 C 32.36 28.974 18.209 C 0.0 **** 0.0
2 H 31.418 29.511 18.322 H 0.0 **** 0.0
3 H 32.182 27.904 18.316 H 0.0 **** 0.0
4 H 33.061 29.306 18.974 H 0.0 **** 0.0
5 H 32.776 29.177 17.222 H 0.0 **** 0.0
@<TRIPOS>BOND
1 1 2 1
2 1 3 1
3 1 4 1
4 1 5 1
@<TRIPOS>MOLECULE
CH4
5 4
SMALL
USER_CHARGES


@<TRIPOS>ATOM
1 C 28.793 64.342 11.932 C 0.0 **** 0.0
2 H 28.605 64.701 10.921 H 0.0 **** 0.0
3 H 29.838 64.044 12.023 H 0.0 **** 0.0
4 H 28.151 63.486 12.139 H 0.0 **** 0.0
5 H 28.578 65.138 12.646 H 0.0 **** 0.0
@<TRIPOS>BOND
1 1 2 1
2 1 3 1
3 1 4 1
4 1 5 1
@<TRIPOS>MOLECULE
CH4
5 4
SMALL
USER_CHARGES


@<TRIPOS>ATOM
1 C 47.645 28.455 73.561 C 0.0 **** 0.0
2 H 48.542 29.023 73.804 H 0.0 **** 0.0
3 H 47.897 27.398 73.469 H 0.0 **** 0.0
4 H 47.232 28.813 72.618 H 0.0 **** 0.0
5 H 46.907 28.585 74.353 H 0.0 **** 0.0
@<TRIPOS>BOND
1 1 3 1
2 1 4 1
3 1 5 1
4 1 2 1
@<TRIPOS>MOLECULE
CH4
5 4
SMALL
USER_CHARGES


@<TRIPOS>ATOM
1 C 57.239 38.417 48.426 C 0.0 **** 0.0
2 H 57.188 38.062 47.396 H 0.0 **** 0.0
3 H 58.206 38.152 48.854 H 0.0 **** 0.0
4 H 56.443 37.953 49.009 H 0.0 **** 0.0
5 H 57.118 39.5 48.443 H 0.0 **** 0.0
@<TRIPOS>BOND
1 1 2 1
2 1 3 1
3 1 4 1
4 1 5 1
@<TRIPOS>MOLECULE
CH4
5 4
SMALL
USER_CHARGES


@<TRIPOS>ATOM
1 C 72.699 7.745 93.912 C 0.0 **** 0.0
2 H 73.379 7.998 93.099 H 0.0 **** 0.0
3 H 72.907 6.732 94.257 H 0.0 **** 0.0
4 H 71.67 7.804 93.557 H 0.0 **** 0.0
5 H 72.841 8.446 94.735 H 0.0 **** 0.0
@<TRIPOS>BOND
1 1 2 1
2 1 3 1
3 1 4 1
4 1 5 1
@<TRIPOS>MOLECULE
CH4
5 4
SMALL
USER_CHARGES


@<TRIPOS>ATOM
1 C 55.009 81.936 38.664 C 0.0 **** 0.0
2 H 53.924 81.831 38.694 H 0.0 **** 0.0
3 H 55.302 82.829 39.216 H 0.0 **** 0.0
4 H 55.336 82.024 37.628 H 0.0 **** 0.0
5 H 55.471 81.059 39.118 H 0.0 **** 0.0
@<TRIPOS>BOND
1 1 2 1
2 1 3 1
3 1 4 1
4 1 5 1
@<TRIPOS>MOLECULE
CH4
5 4
SMALL
USER_CHARGES


@<TRIPOS>ATOM
1 C 64.981 47.895 67.677 C 0.0 **** 0.0
2 H 64.259 47.817 68.49 H 0.0 **** 0.0
3 H 65.9 47.381 67.958 H 0.0 **** 0.0
4 H 65.196 48.946 67.483 H 0.0 **** 0.0
5 H 64.567 47.437 66.779 H 0.0 **** 0.0
@<TRIPOS>BOND
1 1 2 1
2 1 3 1
3 1 4 1
4 1 5 1
@<TRIPOS>MOLECULE
CH4
5 4
SMALL
USER_CHARGES


@<TRIPOS>ATOM
1 C 84.936 83.701 66.506 C 0.0 **** 0.0
2 H 84.796 84.162 67.484 H 0.0 **** 0.0
3 H 84.66 84.411 65.727 H 0.0 **** 0.0
4 H 84.307 82.814 66.43 H 0.0 **** 0.0
5 H 85.981 83.416 66.385 H 0.0 **** 0.0
@<TRIPOS>BOND
1 1 2 1
2 1 3 1
3 1 4 1
4 1 5 1
@<TRIPOS>MOLECULE
CH4
5 4
SMALL
USER_CHARGES


@<TRIPOS>ATOM
1 C 51.393 91.639 24.634 C 0.0 **** 0.0
2 H 50.944 91.728 25.624 H 0.0 **** 0.0
3 H 51.325 90.605 24.297 H 0.0 **** 0.0
4 H 52.44 91.938 24.683 H 0.0 **** 0.0
5 H 50.863 92.286 23.935 H 0.0 **** 0.0
@<TRIPOS>BOND
1 1 2 1
2 1 3 1
3 1 4 1
4 1 5 1
@<TRIPOS>MOLECULE
CH4
5 4
SMALL
USER_CHARGES


@<TRIPOS>ATOM
1 C 56.102 10.589 85.478 C 0.0 **** 0.0
2 H 55.939 10.53 84.402 H 0.0 **** 0.0
3 H 56.054 9.588 85.908 H 0.0 **** 0.0
4 H 55.331 11.215 85.928 H 0.0 **** 0.0
5 H 57.083 11.022 85.674 H 0.0 **** 0.0
@<TRIPOS>BOND
1 1 2 1
2 1 3 1
3 1 4 1
4 1 5 1
@<TRIPOS>MOLECULE
CH4
5 4
SMALL
USER_CHARGES


@<TRIPOS>ATOM
1 C 37.49 95.692 41.339 C 0.0 **** 0.0
2 H 37.53 96.145 40.348 H 0.0 **** 0.0
3 H 38.445 95.213 41.557 H 0.0 **** 0.0
4 H 36.695 94.948 41.366 H 0.0 **** 0.0
5 H 37.292 96.464 42.083 H 0.0 **** 0.0
@<TRIPOS>BOND
1 1 3 1
2 1 5 1
3 1 2 1
4 1 4 1
@<TRIPOS>MOLECULE
CH4
5 4
SMALL
USER_CHARGES


@<TRIPOS>ATOM
1 C 34.415 7.173 6.563 C 0.0 **** 0.0
2 H 34.23 6.663 7.509 H 0.0 **** 0.0
3 H 34.757 6.451 5.822 H 0.0 **** 0.0
4 H 35.181 7.936 6.707 H 0.0 **** 0.0
5 H 33.495 7.643 6.217 H 0.0 **** 0.0
@<TRIPOS>BOND
1 1 2 1
2 1 3 1
3 1 4 1
4 1 5 1
@<TRIPOS>MOLECULE
CH4
5 4
SMALL
USER_CHARGES


@<TRIPOS>ATOM
1 C 13.221 91.012 38.65 C 0.0 **** 0.0
2 H 13.661 91.216 37.674 H 0.0 **** 0.0
3 H 13.113 91.946 39.202 H 0.0 **** 0.0
4 H 13.869 90.334 39.206 H 0.0 **** 0.0
5 H 12.242 90.552 38.518 H 0.0 **** 0.0
@<TRIPOS>BOND
1 1 2 1
2 1 3 1
3 1 4 1
4 1 5 1
@<TRIPOS>MOLECULE
CH4
5 4
SMALL
USER_CHARGES


@<TRIPOS>ATOM
1 C 6.938 77.693 11.442 C 0.0 **** 0.0
2 H 7.064 76.831 10.787 H 0.0 **** 0.0
3 H 7.765 78.388 11.29 H 0.0 **** 0.0
4 H 6.927 77.362 12.48 H 0.0 **** 0.0
5 H 5.997 78.192 11.209 H 0.0 **** 0.0
@<TRIPOS>BOND
1 1 2 1
2 1 3 1
3 1 4 1
4 1 5 1
@<TRIPOS>MOLECULE
CH4
5 4
SMALL
USER_CHARGES


@<TRIPOS>ATOM
1 C 27.507 36.017 67.683 C 0.0 **** 0.0
2 H 27.73 36.169 66.627 H 0.0 **** 0.0
3 H 28.402 35.668 68.197 H 0.0 **** 0.0
4 H 26.717 35.273 67.783 H 0.0 **** 0.0
5 H 27.178 36.958 68.123 H 0.0 **** 0.0
@<TRIPOS>BOND
1 1 2 1
2 1 3 1
3 1 4 1
4 1 5 1
@<TRIPOS>MOLECULE
CH4
5 4
SMALL
USER_CHARGES


@<TRIPOS>ATOM
1 C 31.789 83.701 41.776 C 0.0 **** 0.0
2 H 32.228 84.542 41.239 H 0.0 **** 0.0
3 H 31.62 83.982 42.816 H 0.0 **** 0.0
4 H 32.468 82.849 41.735 H 0.0 **** 0.0
5 H 30.839 83.431 41.314 H 0.0 **** 0.0
@<TRIPOS>BOND
1 1 2 1
2 1 3 1
3 1 4 1
4 1 5 1
@<TRIPOS>MOLECULE
CH4
5 4
SMALL
USER_CHARGES


@<TRIPOS>ATOM
1 C 44.015 48.747 80.327 C 0.0 **** 0.0
2 H 44.982 48.418 79.946 H 0.0 **** 0.0
3 H 43.219 48.236 79.784 H 0.0 **** 0.0
4 H 43.917 49.823 80.188 H 0.0 **** 0.0
5 H 43.943 48.509 81.388 H 0.0 **** 0.0
@<TRIPOS>BOND
1 1 2 1
2 1 3 1
3 1 4 1
4 1 5 1
@<TRIPOS>MOLECULE
CH4
5 4
SMALL
USER_CHARGES


@<TRIPOS>ATOM
1 C 27.303 11.351 83.326 C 0.0 **** 0.0
2 H 27.505 10.281 83.373 H 0.0 **** 0.0
3 H 27.556 11.811 84.282 H 0.0 **** 0.0
4 H 26.246 11.512 83.114 H 0.0 **** 0.0
5 H 27.905 11.8 82.536 H 0.0 **** 0.0
@<TRIPOS>BOND
1 1 2 1
2 1 3 1
3 1 4 1
4 1 5 1
@<TRIPOS>MOLECULE
CH4
5 4
SMALL
USER_CHARGES


@<TRIPOS>ATOM
1 C 75.948 97.19 26.235 C 0.0 **** 0.0
2 H 76.333 96.709 27.134 H 0.0 **** 0.0
3 H 75.376 98.076 26.514 H 0.0 **** 0.0
4 H 75.303 96.495 25.698 H 0.0 **** 0.0
5 H 76.781 97.482 25.595 H 0.0 **** 0.0
@<TRIPOS>BOND
1 1 2 1
2 1 3 1
3 1 4 1
4 1 5 1
@<TRIPOS>MOLECULE
CH4
5 4
SMALL
USER_CHARGES


@<TRIPOS>ATOM
1 C 36.224 66.724 65.431 C 0.0 **** 0.0
2 H 35.771 67.513 64.83 H 0.0 **** 0.0
3 H 35.939 66.853 66.475 H 0.0 **** 0.0
4 H 37.309 66.777 65.34 H 0.0 **** 0.0
5 H 35.877 65.753 65.076 H 0.0 **** 0.0
@<TRIPOS>BOND
1 1 2 1
2 1 3 1
3 1 4 1
4 1 5 1
@<TRIPOS>MOLECULE
CH4
5 4
SMALL
USER_CHARGES


@<TRIPOS>ATOM
1 C 93.73 29.47 40.416 C 0.0 **** 0.0
2 H 94.82 29.478 40.446 H 0.0 **** 0.0
3 H 93.34 29.368 41.429 H 0.0 **** 0.0
4 H 93.39 28.631 39.809 H 0.0 **** 0.0
5 H 93.372 30.403 39.98 H 0.0 **** 0.0
@<TRIPOS>BOND
1 1 2 1
2 1 3 1
3 1 4 1
4 1 5 1
@<TRIPOS>MOLECULE
CH4
5 4
SMALL
USER_CHARGES


@<TRIPOS>ATOM
1 C 84.326 53.324 84.326 C 0.0 **** 0.0
2 H 85.287 52.811 84.317 H 0.0 **** 0.0
3 H 83.717 52.968 83.495 H 0.0 **** 0.0
4 H 84.486 54.398 84.226 H 0.0 **** 0.0
5 H 83.814 53.119 85.266 H 0.0 **** 0.0
@<TRIPOS>BOND
1 1 2 1
2 1 3 1
3 1 4 1
4 1 5 1
@<TRIPOS>MOLECULE
CH4
5 4
SMALL
USER_CHARGES


@<TRIPOS>ATOM
1 C 96.083 48.333 56.71 C 0.0 **** 0.0
2 H 96.556 48.463 57.683 H 0.0 **** 0.0
3 H 96.314 47.339 56.324 H 0.0 **** 0.0
4 H 96.459 49.088 56.019 H 0.0 **** 0.0
5 H 95.003 48.44 56.814 H 0.0 **** 0.0
@<TRIPOS>BOND
1 1 2 1
2 1 3 1
3 1 4 1
4 1 5 1
@<TRIPOS>MOLECULE
CH4
5 4
SMALL
USER_CHARGES


@<TRIPOS>ATOM
1 C 80.166 24.375 30.167 C 0.0 **** 0.0
2 H 80.331 24.815 31.151 H 0.0 **** 0.0
3 H 79.171 23.932 30.129 H 0.0 **** 0.0
4 H 80.914 23.603 29.986 H 0.0 **** 0.0
5 H 80.25 25.149 29.405 H 0.0 **** 0.0
@<TRIPOS>BOND
1 1 2 1
2 1 3 1
3 1 4 1
4 1 5 1
@<TRIPOS>MOLECULE
CH4
5 4
SMALL
USER_CHARGES


@<TRIPOS>ATOM
1 C 58.271 90.116 92.204 C 0.0 **** 0.0
2 H 58.868 90.34 93.088 H 0.0 **** 0.0
3 H 57.365 89.588 92.502 H 0.0 **** 0.0
4 H 58.85 89.491 91.524 H 0.0 **** 0.0
5 H 58.002 91.046 91.702 H 0.0 **** 0.0
@<TRIPOS>BOND
1 1 2 1
2 1 3 1
3 1 4 1
4 1 5 1
@<TRIPOS>MOLECULE
CH4
5 4
SMALL
USER_CHARGES


@<TRIPOS>ATOM
1 C 7.985 51.051 52.638 C 0.0 **** 0.0
2 H 7.879 50.075 53.113 H 0.0 **** 0.0
3 H 7.575 51.01 51.629 H 0.0 **** 0.0
4 H 9.041 51.318 52.591 H 0.0 **** 0.0
5 H 7.446 51.798 53.22 H 0.0 **** 0.0
@<TRIPOS>BOND
1 1 2 1
2 1 3 1
3 1 4 1
4 1 5 1
@<TRIPOS>MOLECULE
CH4
5 4
SMALL
USER_CHARGES


@<TRIPOS>ATOM
1 C 23.843 16.982 54.946 C 0.0 **** 0.0
2 H 24.047 16.864 56.01 H 0.0 **** 0.0
3 H 24.03 18.016 54.654 H 0.0 **** 0.0
4 H 22.802 16.73 54.747 H 0.0 **** 0.0
5 H 24.493 16.319 54.376 H 0.0 **** 0.0
@<TRIPOS>BOND
1 1 2 1
2 1 3 1
3 1 4 1
4 1 5 1
@<TRIPOS>MOLECULE
CH4
5 4
SMALL
USER_CHARGES


@<TRIPOS>ATOM
1 C 78.733 80.885 2.048 C 0.0 **** 0.0
2 H 78.31 80.511 1.115 H 0.0 **** 0.0
3 H 77.969 81.433 2.599 H 0.0 **** 0.0
4 H 79.569 81.549 1.826 H 0.0 **** 0.0
5 H 79.085 80.047 2.648 H 0.0 **** 0.0
@<TRIPOS>BOND
1 1 4 1
2 1 5 1
3 1 2 1
4 1 3 1
@<TRIPOS>MOLECULE
CH4
5 4
SMALL
USER_CHARGES


@<TRIPOS>ATOM
1 C 15.431 29.605 33.977 C 0.0 **** 0.0
2 H 15.997 28.673 34.0 H 0.0 **** 0.0
3 H 14.778 29.654 34.849 H 0.0 **** 0.0
4 H 14.83 29.642 33.069 H 0.0 **** 0.0
5 H 16.121 30.448 33.991 H 0.0 **** 0.0
@<TRIPOS>BOND
1 1 2 1
2 1 3 1
3 1 4 1
4 1 5 1
@<TRIPOS>MOLECULE
CH4
5 4
SMALL
USER_CHARGES


@<TRIPOS>ATOM
1 C 39.499 77.714 11.253 C 0.0 **** 0.0
2 H 39.943 78.54 10.699 H 0.0 **** 0.0
3 H 38.769 78.104 11.963 H 0.0 **** 0.0
4 H 40.279 77.176 11.792 H 0.0 **** 0.0
5 H 39.004 77.035 10.559 H 0.0 **** 0.0
@<TRIPOS>BOND
1 1 2 1
2 1 3 1
3 1 4 1
4 1 5 1
@<TRIPOS>MOLECULE
CH4
5 4
SMALL
USER_CHARGES


@<TRIPOS>ATOM
1 C 44.469 31.307 11.763 C 0.0 **** 0.0
2 H 44.058 30.591 12.475 H 0.0 **** 0.0
3 H 44.874 32.164 12.303 H 0.0 **** 0.0
4 H 43.681 31.642 11.089 H 0.0 **** 0.0
5 H 45.263 30.832 11.187 H 0.0 **** 0.0
@<TRIPOS>BOND
1 1 2 1
2 1 3 1
3 1 4 1
4 1 5 1
@<TRIPOS>MOLECULE
CH4
5 4
SMALL
USER_CHARGES


@<TRIPOS>ATOM
1 C 22.049 27.933 24.159 C 0.0 **** 0.0
2 H 21.753 27.277 23.341 H 0.0 **** 0.0
3 H 21.86 27.435 25.11 H 0.0 **** 0.0
4 H 21.473 28.857 24.111 H 0.0 **** 0.0
5 H 23.111 28.163 24.074 H 0.0 **** 0.0
@<TRIPOS>BOND
1 1 2 1
2 1 3 1
3 1 4 1
4 1 5 1
@<TRIPOS>MOLECULE
CH4
5 4
SMALL
USER_CHARGES


@<TRIPOS>ATOM
1 C 78.368 91.55 57.558 C 0.0 **** 0.0
2 H 79.118 90.987 58.113 H 0.0 **** 0.0
3 H 78.863 92.229 56.864 H 0.0 **** 0.0
4 H 77.757 92.124 58.255 H 0.0 **** 0.0
5 H 77.733 90.86 57.002 H 0.0 **** 0.0
@<TRIPOS>BOND
1 1 2 1
2 1 3 1
3 1 4 1
4 1 5 1
@<TRIPOS>MOLECULE
CH4
5 4
SMALL
USER_CHARGES


@<TRIPOS>ATOM
1 C 78.889 93.784 28.368 C 0.0 **** 0.0
2 H 78.842 93.691 29.453 H 0.0 **** 0.0
3 H 79.93 93.765 28.047 H 0.0 **** 0.0
4 H 78.432 94.727 28.065 H 0.0 **** 0.0
5 H 78.35 92.956 27.909 H 0.0 **** 0.0
@<TRIPOS>BOND
1 1 2 1
2 1 3 1
3 1 4 1
4 1 5 1
@<TRIPOS>MOLECULE
CH4
5 4
SMALL
USER_CHARGES


@<TRIPOS>ATOM
1 C 57.253 10.404 62.849 C 0.0 **** 0.0
2 H 56.371 9.773 62.964 H 0.0 **** 0.0
3 H 58.137 9.855 63.175 H 0.0 **** 0.0
4 H 57.139 11.302 63.455 H 0.0 **** 0.0
5 H 57.365 10.683 61.801 H 0.0 **** 0.0
@<TRIPOS>BOND
1 1 2 1
2 1 3 1
3 1 4 1
4 1 5 1
@<TRIPOS>MOLECULE
CH4
5 4
SMALL
USER_CHARGES


@<TRIPOS>ATOM
1 C 31.413 91.957 52.162 C 0.0 **** 0.0
2 H 30.458 91.49 51.919 H 0.0 **** 0.0
3 H 32.218 91.416 51.664 H 0.0 **** 0.0
4 H 31.567 91.928 53.24 H 0.0 **** 0.0
5 H 31.406 92.993 51.823 H 0.0 **** 0.0
@<TRIPOS>BOND
1 1 5 1
2 1 2 1
3 1 3 1
4 1 4 1
@<TRIPOS>MOLECULE
CH4
5 4
SMALL
USER_CHARGES


@<TRIPOS>ATOM
1 C 4.682 48.519 94.494 C 0.0 **** 0.0
2 H 4.54 48.144 95.508 H 0.0 **** 0.0
3 H 3.8 48.287 93.896 H 0.0 **** 0.0
4 H 5.557 48.045 94.051 H 0.0 **** 0.0
5 H 4.828 49.598 94.524 H 0.0 **** 0.0
@<TRIPOS>BOND
1 1 2 1
2 1 3 1
3 1 4 1
4 1 5 1
@<TRIPOS>MOLECULE
CH4
5 4
SMALL
USER_CHARGES


@<TRIPOS>ATOM
1 C 7.76 42.497 62.888 C 0.0 **** 0.0
2 H 8.384 42.249 63.746 H 0.0 **** 0.0
3 H 8.348 43.055 62.159 H 0.0 **** 0.0
4 H 6.917 43.105 63.216 H 0.0 **** 0.0
5 H 7.39 41.58 62.43 H 0.0 **** 0.0
@<TRIPOS>BOND
1 1 2 1
2 1 3 1
3 1 4 1
4 1 5 1
@<TRIPOS>MOLECULE
CH4
5 4
SMALL
USER_CHARGES


@<TRIPOS>ATOM
1 C 13.311 67.603 61.148 C 0.0 **** 0.0
2 H 13.324 67.653 60.059 H 0.0 **** 0.0
3 H 13.927 66.768 61.48 H 0.0 **** 0.0
4 H 12.287 67.46 61.492 H 0.0 **** 0.0
5 H 13.705 68.533 61.558 H 0.0 **** 0.0
@<TRIPOS>BOND
1 1 2 1
2 1 3 1
3 1 4 1
4 1 5 1
@<TRIPOS>MOLECULE
CH4
5 4
SMALL
USER_CHARGES


@<TRIPOS>ATOM
1 C 22.978 73.596 88.531 C 0.0 **** 0.0
2 H 23.143 72.735 89.179 H 0.0 **** 0.0
3 H 23.243 74.508 89.065 H 0.0 **** 0.0
4 H 21.928 73.636 88.241 H 0.0 **** 0.0
5 H 23.598 73.503 87.639 H 0.0 **** 0.0
@<TRIPOS>BOND
1 1 2 1
2 1 3 1
3 1 4 1
4 1 5 1
@<TRIPOS>MOLECULE
CH4
5 4
SMALL
USER_CHARGES


@<TRIPOS>ATOM
1 C 26.408 89.647 58.061 C 0.0 **** 0.0
2 H 26.724 90.188 58.953 H 0.0 **** 0.0
3 H 26.497 90.298 57.192 H 0.0 **** 0.0
4 H 25.371 89.332 58.176 H 0.0 **** 0.0
5 H 27.042 88.77 57.926 H 0.0 **** 0.0
@<TRIPOS>BOND
1 1 2 1
2 1 3 1
3 1 4 1
4 1 5 1
@<TRIPOS>MOLECULE
CH4
5 4
SMALL
USER_CHARGES


@<TRIPOS>ATOM
1 C 9.541 8.816 21.57 C 0.0 **** 0.0
2 H 8.945 9.07 22.447 H 0.0 **** 0.0
3 H 10.15 7.938 21.787 H 0.0 **** 0.0
4 H 10.189 9.655 21.317 H 0.0 **** 0.0
5 H 8.879 8.602 20.731 H 0.0 **** 0.0
@<TRIPOS>BOND
1 1 2 1
2 1 3 1
3 1 4 1
4 1 5 1
@<TRIPOS>MOLECULE
CH4
5 4
SMALL
USER_CHARGES


@<TRIPOS>ATOM
1 C 39.069 24.066 14.97 C 0.0 **** 0.0
2 H 38.058 23.973 14.575 H 0.0 **** 0.0
3 H 39.704 23.298 14.527 H 0.0 **** 0.0
4 H 39.049 23.941 16.053 H 0.0 **** 0.0
5 H 39.465 25.051 14.726 H 0.0 **** 0.0
@<TRIPOS>BOND
1 1 2 1
2 1 3 1
3 1 4 1
4 1 5 1
@<TRIPOS>MOLECULE
CH4
5 4
SMALL
USER_CHARGES


@<TRIPOS>ATOM
1 C 76.371 77.559 42.808 C 0.0 **** 0.0
2 H 76.327 76.802 42.026 H 0.0 **** 0.0
3 H 77.412 77.768 43.054 H 0.0 **** 0.0
4 H 75.854 77.195 43.695 H 0.0 **** 0.0
5 H 75.89 78.472 42.456 H 0.0 **** 0.0
@<TRIPOS>BOND
1 1 2 1
2 1 3 1
3 1 4 1
4 1 5 1
@<TRIPOS>MOLECULE
CH4
5 4
SMALL
USER_CHARGES


@<TRIPOS>ATOM
1 C 74.334 27.872 80.315 C 0.0 **** 0.0
2 H 75.39 28.14 80.342 H 0.0 **** 0.0
3 H 74.086 27.283 81.199 H 0.0 **** 0.0
4 H 74.131 27.287 79.419 H 0.0 **** 0.0
5 H 73.729 28.78 80.302 H 0.0 **** 0.0
@<TRIPOS>BOND
1 1 2 1
2 1 3 1
3 1 4 1
4 1 5 1
@<TRIPOS>MOLECULE
CH4
5 4
SMALL
USER_CHARGES


@<TRIPOS>ATOM
1 C 4.02 11.84 85.906 C 0.0 **** 0.0
2 H 4.751 12.617 86.127 H 0.0 **** 0.0
3 H 4.349 11.268 85.039 H 0.0 **** 0.0
4 H 3.055 12.3 85.693 H 0.0 **** 0.0
5 H 3.924 11.177 86.765 H 0.0 **** 0.0
@<TRIPOS>BOND
1 1 2 1
2 1 3 1
3 1 4 1
4 1 5 1
@<TRIPOS>MOLECULE
CH4
5 4
SMALL
USER_CHARGES


@<TRIPOS>ATOM
1 C 36.603 53.492 6.336 C 0.0 **** 0.0
2 H 36.618 53.4 7.422 H 0.0 **** 0.0
3 H 35.57 53.548 5.99 H 0.0 **** 0.0
4 H 37.089 52.624 5.891 H 0.0 **** 0.0
5 H 37.134 54.397 6.041 H 0.0 **** 0.0
@<TRIPOS>BOND
1 1 2 1
2 1 3 1
3 1 4 1
4 1 5 1
@<TRIPOS>MOLECULE
CH4
5 4
SMALL
USER_CHARGES


@<TRIPOS>ATOM
1 C 41.808 55.1 22.077 C 0.0 **** 0.0
2 H 41.668 55.305 21.016 H 0.0 **** 0.0
3 H 42.782 54.634 22.231 H 0.0 **** 0.0
4 H 41.024 54.426 22.423 H 0.0 **** 0.0
5 H 41.759 56.034 22.637 H 0.0 **** 0.0
@<TRIPOS>BOND
1 1 2 1
2 1 3 1
3 1 4 1
4 1 5 1
@<TRIPOS>MOLECULE
CH4
5 4
SMALL
USER_CHARGES


@<TRIPOS>ATOM
1 C 5.429 49.168 27.728 C 0.0 **** 0.0
2 H 4.374 48.94 27.58 H 0.0 **** 0.0
3 H 5.55 49.747 28.644 H 0.0 **** 0.0
4 H 5.798 49.746 26.881 H 0.0 **** 0.0
5 H 5.993 48.239 27.807 H 0.0 **** 0.0
@<TRIPOS>BOND
1 1 2 1
2 1 3 1
3 1 4 1
4 1 5 1
@<TRIPOS>MOLECULE
CH4
5 4
SMALL
USER_CHARGES


@<TRIPOS>ATOM
1 C 33.924 74.178 88.414 C 0.0 **** 0.0
2 H 33.875 74.596 87.408 H 0.0 **** 0.0
3 H 33.486 74.882 89.121 H 0.0 **** 0.0
4 H 34.965 73.995 88.68 H 0.0 **** 0.0
5 H 33.371 73.24 88.445 H 0.0 **** 0.0
@<TRIPOS>BOND
1 1 2 1
2 1 3 1
3 1 4 1
4 1 5 1
@<TRIPOS>MOLECULE
CH4
5 4
SMALL
USER_CHARGES


@<TRIPOS>ATOM
1 C 41.757 0.834 25.283 C 0.0 **** 0.0
2 H 41.798 1.343 26.246 H 0.0 **** 0.0
3 H 40.748 0.46 25.113 H 0.0 **** 0.0
4 H 42.459 0.0 25.284 H 0.0 **** 0.0
5 H 42.025 1.534 24.491 H 0.0 **** 0.0
@<TRIPOS>BOND
1 1 2 1
2 1 3 1
3 1 4 1
4 1 5 1
@<TRIPOS>MOLECULE
CH4
5 4
SMALL
USER_CHARGES


@<TRIPOS>ATOM
1 C 70.983 79.306 69.692 C 0.0 **** 0.0
2 H 71.082 80.382 69.842 H 0.0 **** 0.0
3 H 71.768 78.79 70.244 H 0.0 **** 0.0
4 H 71.073 79.078 68.631 H 0.0 **** 0.0
5 H 70.008 78.978 70.053 H 0.0 **** 0.0
@<TRIPOS>BOND
1 1 2 1
2 1 3 1
3 1 4 1
4 1 5 1
@<TRIPOS>MOLECULE
CH4
5 4
SMALL
USER_CHARGES


@<TRIPOS>ATOM
1 C 43.408 21.149 36.183 C 0.0 **** 0.0
2 H 42.766 21.869 36.691 H 0.0 **** 0.0
3 H 43.592 20.299 36.84 H 0.0 **** 0.0
4 H 44.356 21.624 35.929 H 0.0 **** 0.0
5 H 42.918 20.805 35.272 H 0.0 **** 0.0
@<TRIPOS>BOND
1 1 5 1
2 1 2 1
3 1 3 1
4 1 4 1
@<TRIPOS>MOLECULE
CH4
5 4
SMALL
USER_CHARGES


@<TRIPOS>ATOM
1 C 29.22 36.874 1.295 C 0.0 **** 0.0
2 H 29.206 37.943 1.079 H 0.0 **** 0.0
3 H 30.176 36.608 1.747 H 0.0 **** 0.0
4 H 29.088 36.315 0.369 H 0.0 **** 0.0
5 H 28.412 36.632 1.985 H 0.0 **** 0.0
@<TRIPOS>BOND
1 1 2 1
2 1 3 1
3 1 4 1
4 1 5 1
@<TRIPOS>MOLECULE
CH4
5 4
SMALL
USER_CHARGES


@<TRIPOS>ATOM
1 C 36.28 95.283 24.272 C 0.0 **** 0.0
2 H 36.339 95.244 25.36 H 0.0 **** 0.0
3 H 35.419 95.883 23.976 H 0.0 **** 0.0
4 H 36.171 94.272 23.879 H 0.0 **** 0.0
5 H 37.19 95.732 23.875 H 0.0 **** 0.0
@<TRIPOS>BOND
1 1 2 1
2 1 4 1
3 1 5 1
4 1 3 1
@<TRIPOS>MOLECULE
CH4
5 4
SMALL
USER_CHARGES


@<TRIPOS>ATOM
1 C 0.59 70.31 88.582 C 0.0 **** 0.0
2 H 0.871 69.31 88.913 H 0.0 **** 0.0
3 H 0.001 70.237 87.667 H 0.0 **** 0.0
4 H 1.49 70.894 88.389 H 0.0 **** 0.0
5 H 0.0 70.797 89.358 H 0.0 **** 0.0
@<TRIPOS>BOND
1 1 2 1
2 1 3 1
3 1 4 1
4 1 5 1
@<TRIPOS>MOLECULE
CH4
5 4
SMALL
USER_CHARGES


@<TRIPOS>ATOM
1 C 32.153 4.322 96.356 C 0.0 **** 0.0
2 H 31.637 4.529 95.419 H 0.0 **** 0.0
3 H 32.079 3.259 96.584 H 0.0 **** 0.0
4 H 31.693 4.899 97.159 H 0.0 **** 0.0
5 H 33.203 4.602 96.263 H 0.0 **** 0.0
@<TRIPOS>BOND
1 1 2 1
2 1 3 1
3 1 4 1
4 1 5 1
@<TRIPOS>MOLECULE
CH4
5 4
SMALL
USER_CHARGES


@<TRIPOS>ATOM
1 C 63.396 79.661 53.671 C 0.0 **** 0.0
2 H 64.235 79.573 54.361 H 0.0 **** 0.0
3 H 63.643 79.164 52.733 H 0.0 **** 0.0
4 H 63.192 80.715 53.482 H 0.0 **** 0.0
5 H 62.514 79.193 54.11 H 0.0 **** 0.0
@<TRIPOS>BOND
1 1 2 1
2 1 3 1
3 1 4 1
4 1 5 1
@<TRIPOS>MOLECULE
CH4
5 4
SMALL
USER_CHARGES


@<TRIPOS>ATOM
1 C 37.871 25.84 42.137 C 0.0 **** 0.0
2 H 36.936 25.325 41.913 H 0.0 **** 0.0
3 H 37.681 26.64 42.853 H 0.0 **** 0.0
4 H 38.281 26.262 41.22 H 0.0 **** 0.0
5 H 38.582 25.133 42.562 H 0.0 **** 0.0
@<TRIPOS>BOND
1 1 2 1
2 1 3 1
3 1 4 1
4 1 5 1
@<TRIPOS>MOLECULE
CH4
5 4
SMALL
USER_CHARGES


@<TRIPOS>ATOM
1 C 67.732 17.364 45.096 C 0.0 **** 0.0
2 H 68.222 17.658 44.168 H 0.0 **** 0.0
3 H 67.421 18.256 45.64 H 0.0 **** 0.0
4 H 68.428 16.789 45.708 H 0.0 **** 0.0
5 H 66.859 16.753 44.868 H 0.0 **** 0.0
@<TRIPOS>BOND
1 1 2 1
2 1 3 1
3 1 4 1
4 1 5 1
@<TRIPOS>MOLECULE
CH4
5 4
SMALL
USER_CHARGES


@<TRIPOS>ATOM
1 C 60.738 83.128 4.179 C 0.0 **** 0.0
2 H 60.641 82.821 3.137 H 0.0 **** 0.0
3 H 61.543 83.858 4.269 H 0.0 **** 0.0
4 H 60.965 82.258 4.794 H 0.0 **** 0.0
5 H 59.802 83.575 4.513 H 0.0 **** 0.0
@<TRIPOS>BOND
1 1 2 1
2 1 3 1
3 1 4 1
4 1 5 1
@<TRIPOS>MOLECULE
CH4
5 4
SMALL
USER_CHARGES


@<TRIPOS>ATOM
1 C 79.101 32.561 95.101 C 0.0 **** 0.0
2 H 78.734 31.537 95.041 H 0.0 **** 0.0
3 H 80.126 32.558 95.471 H 0.0 **** 0.0
4 H 78.47 33.133 95.782 H 0.0 **** 0.0
5 H 79.073 33.016 94.111 H 0.0 **** 0.0
@<TRIPOS>BOND
1 1 2 1
2 1 3 1
3 1 4 1
4 1 5 1
@<TRIPOS>MOLECULE
CH4
5 4
SMALL
USER_CHARGES


@<TRIPOS>ATOM
1 C 8.715 85.162 64.839 C 0.0 **** 0.0
2 H 7.835 84.576 65.103 H 0.0 **** 0.0
3 H 9.467 85.06 65.622 H 0.0 **** 0.0
4 H 8.437 86.211 64.736 H 0.0 **** 0.0
5 H 9.122 84.8 63.895 H 0.0 **** 0.0
@<TRIPOS>BOND
1 1 2 1
2 1 3 1
3 1 4 1
4 1 5 1
@<TRIPOS>MOLECULE
CH4
5 4
SMALL
USER_CHARGES


@<TRIPOS>ATOM
1 C 20.679 22.264 59.028 C 0.0 **** 0.0
2 H 20.856 22.0 57.985 H 0.0 **** 0.0
3 H 20.961 21.427 59.667 H 0.0 **** 0.0
4 H 19.623 22.491 59.171 H 0.0 **** 0.0
5 H 21.277 23.138 59.287 H 0.0 **** 0.0
@<TRIPOS>BOND
1 1 2 1
2 1 3 1
3 1 4 1
4 1 5 1
@<TRIPOS>MOLECULE
CH4
5 4
SMALL
USER_CHARGES


@<TRIPOS>ATOM
1 C 59.212 74.093 53.393 C 0.0 **** 0.0
2 H 59.331 73.997 52.314 H 0.0 **** 0.0
3 H 60.184 74.278 53.851 H 0.0 **** 0.0
4 H 58.79 73.172 53.796 H 0.0 **** 0.0
5 H 58.542 74.925 53.612 H 0.0 **** 0.0
@<TRIPOS>BOND
1 1 2 1
2 1 3 1
3 1 4 1
4 1 5 1
@<TRIPOS>MOLECULE
CH4
5 4
SMALL
USER_CHARGES


@<TRIPOS>ATOM
1 C 54.4 26.173 39.741 C 0.0 **** 0.0
2 H 53.535 26.18 40.405 H 0.0 **** 0.0
3 H 54.096 25.832 38.751 H 0.0 **** 0.0
4 H 55.159 25.501 40.141 H 0.0 **** 0.0
5 H 54.809 27.181 39.669 H 0.0 **** 0.0
@<TRIPOS>BOND
1 1 2 1
2 1 3 1
3 1 4 1
4 1 5 1
@<TRIPOS>MOLECULE
CH4
5 4
SMALL
USER_CHARGES


@<TRIPOS>ATOM
1 C 72.535 58.837 82.774 C 0.0 **** 0.0
2 H 73.339 58.106 82.687 H 0.0 **** 0.0
3 H 72.311 59.008 83.827 H 0.0 **** 0.0
4 H 71.645 58.46 82.27 H 0.0 **** 0.0
5 H 72.845 59.774 82.312 H 0.0 **** 0.0
@<TRIPOS>BOND
1 1 2 1
2 1 3 1
3 1 4 1
4 1 5 1
@<TRIPOS>MOLECULE
CH4
5 4
SMALL
USER_CHARGES


@<TRIPOS>ATOM
1 C 23.47 40.116 62.064 C 0.0 **** 0.0
2 H 23.005 40.535 62.957 H 0.0 **** 0.0
3 H 22.736 40.072 61.259 H 0.0 **** 0.0
4 H 23.832 39.111 62.281 H 0.0 **** 0.0
5 H 24.306 40.746 61.761 H 0.0 **** 0.0
@<TRIPOS>BOND
1 1 2 1
2 1 3 1
3 1 4 1
4 1 5 1
@<TRIPOS>MOLECULE
CH4
5 4
SMALL
USER_CHARGES


@<TRIPOS>ATOM
1 C 25.338 28.834 51.259 C 0.0 **** 0.0
2 H 25.772 29.148 50.309 H 0.0 **** 0.0
3 H 25.844 27.935 51.609 H 0.0 **** 0.0
4 H 24.277 28.625 51.122 H 0.0 **** 0.0
5 H 25.46 29.63 51.993 H 0.0 **** 0.0
@<TRIPOS>BOND
1 1 2 1
2 1 3 1
3 1 4 1
4 1 5 1
@<TRIPOS>MOLECULE
CH4
5 4
SMALL
USER_CHARGES


@<TRIPOS>ATOM
1 C 86.521 92.798 54.193 C 0.0 **** 0.0
2 H 86.037 92.766 53.217 H 0.0 **** 0.0
3 H 87.516 93.23 54.091 H 0.0 **** 0.0
4 H 86.603 91.786 54.591 H 0.0 **** 0.0
5 H 85.927 93.409 54.873 H 0.0 **** 0.0
@<TRIPOS>BOND
1 1 4 1
2 1 5 1
3 1 3 1
4 1 2 1
@<TRIPOS>MOLECULE
CH4
5 4
SMALL
USER_CHARGES


@<TRIPOS>ATOM
1 C 59.932 47.852 94.261 C 0.0 **** 0.0
2 H 60.742 47.621 93.568 H 0.0 **** 0.0
3 H 59.617 46.94 94.767 H 0.0 **** 0.0
4 H 59.091 48.272 93.709 H 0.0 **** 0.0
5 H 60.281 48.576 94.998 H 0.0 **** 0.0
@<TRIPOS>BOND
1 1 2 1
2 1 3 1
3 1 4 1
4 1 5 1
@<TRIPOS>MOLECULE
CH4
5 4
SMALL
USER_CHARGES


@<TRIPOS>ATOM
1 C 72.761 29.071 69.218 C 0.0 **** 0.0
2 H 73.598 28.69 68.634 H 0.0 **** 0.0
3 H 72.813 28.67 70.231 H 0.0 **** 0.0
4 H 71.824 28.764 68.753 H 0.0 **** 0.0
5 H 72.809 30.159 69.255 H 0.0 **** 0.0
@<TRIPOS>BOND
1 1 2 1
2 1 3 1
3 1 4 1
4 1 5 1
@<TRIPOS>MOLECULE
CH4
5 4
SMALL
USER_CHARGES


@<TRIPOS>ATOM
1 C 28.225 24.643 2.448 C 0.0 **** 0.0
2 H 28.229 24.653 1.358 H 0.0 **** 0.0
3 H 29.118 24.132 2.809 H 0.0 **** 0.0
4 H 27.338 24.121 2.804 H 0.0 **** 0.0
5 H 28.217 25.668 2.82 H 0.0 **** 0.0
@<TRIPOS>BOND
1 1 2 1
2 1 3 1
3 1 4 1
4 1 5 1
@<TRIPOS>MOLECULE
CH4
5 4
SMALL
USER_CHARGES


@<TRIPOS>ATOM
1 C 78.063 3.421 29.547 C 0.0 **** 0.0
2 H 78.715 4.132 29.039 H 0.0 **** 0.0
3 H 78.665 2.616 29.971 H 0.0 **** 0.0
4 H 77.353 3.006 28.832 H 0.0 **** 0.0
5 H 77.522 3.929 30.344 H 0.0 **** 0.0
@<TRIPOS>BOND
1 1 2 1
2 1 3 1
3 1 4 1
4 1 5 1
@<TRIPOS>MOLECULE
CH4
5 4
SMALL
USER_CHARGES


@<TRIPOS>ATOM
1 C 22.513 1.048 86.605 C 0.0 **** 0.0
2 H 22.233 0.003 86.477 H 0.0 **** 0.0
3 H 23.151 1.357 85.777 H 0.0 **** 0.0
4 H 23.054 1.167 87.544 H 0.0 **** 0.0
5 H 21.615 1.665 86.622 H 0.0 **** 0.0
@<TRIPOS>BOND
1 1 2 1
2 1 3 1
3 1 4 1
4 1 5 1
@<TRIPOS>MOLECULE
CH4
5 4
SMALL
USER_CHARGES


@<TRIPOS>ATOM
1 C 3.331 64.191 70.773 C 0.0 **** 0.0
2 H 3.602 64.934 70.023 H 0.0 **** 0.0
3 H 2.576 63.52 70.364 H 0.0 **** 0.0
4 H 2.931 64.695 71.654 H 0.0 **** 0.0
5 H 4.215 63.618 71.053 H 0.0 **** 0.0
@<TRIPOS>BOND
1 1 2 1
2 1 3 1
3 1 4 1
4 1 5 1
@<TRIPOS>MOLECULE
CH4
5 4
SMALL
USER_CHARGES


@<TRIPOS>ATOM
1 C 15.389 89.98 85.523 C 0.0 **** 0.0
2 H 15.483 88.905 85.681 H 0.0 **** 0.0
3 H 15.567 90.209 84.472 H 0.0 **** 0.0
4 H 16.122 90.502 86.138 H 0.0 **** 0.0
5 H 14.386 90.301 85.802 H 0.0 **** 0.0
@<TRIPOS>BOND
1 1 2 1
2 1 3 1
3 1 4 1
4 1 5 1
@<TRIPOS>MOLECULE
CH4
5 4
SMALL
USER_CHARGES


@<TRIPOS>ATOM
1 C 6.316 1.564 28.453 C 0.0 **** 0.0
2 H 6.928 1.946 27.636 H 0.0 **** 0.0
3 H 6.941 0.988 29.136 H 0.0 **** 0.0
4 H 5.532 0.923 28.049 H 0.0 **** 0.0
5 H 5.864 2.398 28.989 H 0.0 **** 0.0
@<TRIPOS>BOND
1 1 2 1
2 1 3 1
3 1 4 1
4 1 5 1
@<TRIPOS>MOLECULE
CH4
5 4
SMALL
USER_CHARGES


@<TRIPOS>ATOM
1 C 15.034 1.56 39.304 C 0.0 **** 0.0
2 H 14.662 1.857 40.284 H 0.0 **** 0.0
3 H 16.065 1.216 39.396 H 0.0 **** 0.0
4 H 14.995 2.412 38.626 H 0.0 **** 0.0
5 H 14.415 0.753 38.91 H 0.0 **** 0.0
@<TRIPOS>BOND
1 1 2 1
2 1 3 1
3 1 4 1
4 1 5 1
@<TRIPOS>MOLECULE
CH4
5 4
SMALL
USER_CHARGES


@<TRIPOS>ATOM
1 C 91.094 80.5 36.277 C 0.0 **** 0.0
2 H 90.599 80.415 37.244 H 0.0 **** 0.0
3 H 91.365 79.506 35.92 H 0.0 **** 0.0
4 H 91.993 81.107 36.381 H 0.0 **** 0.0
5 H 90.418 80.971 35.563 H 0.0 **** 0.0
@<TRIPOS>BOND
1 1 2 1
2 1 3 1
3 1 4 1
4 1 5 1
@<TRIPOS>MOLECULE
CH4
5 4
SMALL
USER_CHARGES


@<TRIPOS>ATOM
1 C 52.578 97.582 88.813 C 0.0 **** 0.0
2 H 53.273 97.657 87.977 H 0.0 **** 0.0
3 H 51.999 96.662 88.722 H 0.0 **** 0.0
4 H 51.904 98.439 88.802 H 0.0 **** 0.0
5 H 53.135 97.57 89.749 H 0.0 **** 0.0
@<TRIPOS>BOND
1 1 2 1
2 1 3 1
3 1 4 1
4 1 5 1
@<TRIPOS>MOLECULE
CH4
5 4
SMALL
USER_CHARGES


@<TRIPOS>ATOM
1 C 19.545 97.691 65.483 C 0.0 **** 0.0
2 H 19.744 98.383 66.302 H 0.0 **** 0.0
3 H 19.166 96.752 65.886 H 0.0 **** 0.0
4 H 20.467 97.506 64.932 H 0.0 **** 0.0
5 H 18.802 98.126 64.814 H 0.0 **** 0.0
@<TRIPOS>BOND
1 1 2 1
2 1 3 1
3 1 4 1
4 1 5 1
@<TRIPOS>MOLECULE
CH4
5 4
SMALL
USER_CHARGES


@<TRIPOS>ATOM
1 C 10.401 71.304 16.737 C 0.0 **** 0.0
2 H 9.664 71.736 16.06 H 0.0 **** 0.0
3 H 10.12 70.278 16.974 H 0.0 **** 0.0
4 H 10.44 71.892 17.654 H 0.0 **** 0.0
5 H 11.381 71.312 16.259 H 0.0 **** 0.0
@<TRIPOS>BOND
1 1 2 1
2 1 3 1
3 1 4 1
4 1 5 1
@<TRIPOS>MOLECULE
CH4
5 4
SMALL
USER_CHARGES


@<TRIPOS>ATOM
1 C 0.878 52.862 47.237 C 0.0 **** 0.0
2 H 0.864 53.457 46.324 H 0.0 **** 0.0
3 H 0.971 53.523 48.099 H 0.0 **** 0.0
4 H 1.725 52.177 47.211 H 0.0 **** 0.0
5 H -0.048 52.293 47.313 H 0.0 **** 0.0
@<TRIPOS>BOND
1 1 2 1
2 1 3 1
3 1 4 1
4 1 5 1
@<TRIPOS>MOLECULE
CH4
5 4
SMALL
USER_CHARGES


@<TRIPOS>ATOM
1 C 87.969 0.957 58.783 C 0.0 **** 0.0
2 H 87.529 1.207 59.748 H 0.0 **** 0.0
3 H 88.606 0.078 58.891 H 0.0 **** 0.0
4 H 88.566 1.797 58.427 H 0.0 **** 0.0
5 H 87.176 0.745 58.066 H 0.0 **** 0.0
@<TRIPOS>BOND
1 1 2 1
2 1 3 1
3 1 4 1
4 1 5 1
@<TRIPOS>MOLECULE
CH4
5 4
SMALL
USER_CHARGES


@<TRIPOS>ATOM
1 C 18.317 75.2 53.492 C 0.0 **** 0.0
2 H 18.637 75.163 52.45 H 0.0 **** 0.0
3 H 18.932 74.522 54.085 H 0.0 **** 0.0
4 H 17.272 74.898 53.561 H 0.0 **** 0.0
5 H 18.427 76.216 53.87 H 0.0 **** 0.0
@<TRIPOS>BOND
1 1 2 1
2 1 3 1
3 1 4 1
4 1 5 1
@<TRIPOS>MOLECULE
CH4
5 4
SMALL
USER_CHARGES


@<TRIPOS>ATOM
1 C 69.125 47.963 35.835 C 0.0 **** 0.0
2 H 69.34 48.281 36.856 H 0.0 **** 0.0
3 H 69.442 46.928 35.703 H 0.0 **** 0.0
4 H 69.664 48.6 35.135 H 0.0 **** 0.0
5 H 68.054 48.042 35.648 H 0.0 **** 0.0
@<TRIPOS>BOND
1 1 3 1
2 1 4 1
3 1 5 1
4 1 2 1
@<TRIPOS>MOLECULE
CH4
5 4
SMALL
USER_CHARGES


@<TRIPOS>ATOM
1 C 25.281 17.884 1.985 C 0.0 **** 0.0
2 H 25.133 17.937 3.063 H 0.0 **** 0.0
3 H 25.52 16.859 1.701 H 0.0 **** 0.0
4 H 26.103 18.541 1.699 H 0.0 **** 0.0
5 H 24.37 18.2 1.477 H 0.0 **** 0.0
@<TRIPOS>BOND
1 1 2 1
2 1 3 1
3 1 4 1
4 1 5 1
@<TRIPOS>MOLECULE
CH4
5 4
SMALL
USER_CHARGES


@<TRIPOS>ATOM
1 C 11.025 85.715 53.005 C 0.0 **** 0.0
2 H 10.731 85.16 52.113 H 0.0 **** 0.0
3 H 10.974 86.785 52.8 H 0.0 **** 0.0
4 H 12.044 85.445 53.28 H 0.0 **** 0.0
5 H 10.349 85.469 53.824 H 0.0 **** 0.0
@<TRIPOS>BOND
1 1 2 1
2 1 3 1
3 1 4 1
4 1 5 1
@<TRIPOS>MOLECULE
CH4
5 4
SMALL
USER_CHARGES


@<TRIPOS>ATOM
1 C 85.145 34.977 24.084 C 0.0 **** 0.0
2 H 84.683 34.682 25.026 H 0.0 **** 0.0
3 H 84.428 35.544 23.49 H 0.0 **** 0.0
4 H 85.45 34.087 23.534 H 0.0 **** 0.0
5 H 86.019 35.597 24.286 H 0.0 **** 0.0
@<TRIPOS>BOND
1 1 2 1
2 1 3 1
3 1 4 1
4 1 5 1
@<TRIPOS>MOLECULE
CH4
5 4
SMALL
USER_CHARGES


@<TRIPOS>ATOM
1 C 69.588 28.899 88.508 C 0.0 **** 0.0
2 H 69.493 29.05 89.583 H 0.0 **** 0.0
3 H 69.183 29.764 87.982 H 0.0 **** 0.0
4 H 69.037 28.005 88.216 H 0.0 **** 0.0
5 H 70.641 28.777 88.25 H 0.0 **** 0.0
@<TRIPOS>BOND
1 1 2 1
2 1 3 1
3 1 4 1
4 1 5 1
@<TRIPOS>MOLECULE
CH4
5 4
SMALL
USER_CHARGES


@<TRIPOS>ATOM
1 C 4.74 27.411 41.586 C 0.0 **** 0.0
2 H 4.479 27.486 42.642 H 0.0 **** 0.0
3 H 4.03 26.756 41.082 H 0.0 **** 0.0
4 H 5.745 27.001 41.489 H 0.0 **** 0.0
5 H 4.706 28.402 41.133 H 0.0 **** 0.0
@<TRIPOS>BOND
1 1 2 1
2 1 3 1
3 1 4 1
4 1 5 1
@<TRIPOS>MOLECULE
CH4
5 4
SMALL
USER_CHARGES


@<TRIPOS>ATOM
1 C 81.839 17.737 96.153 C 0.0 **** 0.0
2 H 82.074 17.697 97.216 H 0.0 **** 0.0
3 H 82.035 16.764 95.701 H 0.0 **** 0.0
4 H 82.459 18.493 95.672 H 0.0 **** 0.0
5 H 80.787 17.993 96.023 H 0.0 **** 0.0
@<TRIPOS>BOND
1 1 2 1
2 1 3 1
3 1 4 1
4 1 5 1
@<TRIPOS>MOLECULE
CH4
5 4
SMALL
USER_CHARGES


@<TRIPOS>ATOM
1 C 91.005 47.469 36.779 C 0.0 **** 0.0
2 H 91.046 47.492 37.868 H 0.0 **** 0.0
3 H 91.195 46.454 36.43 H 0.0 **** 0.0
4 H 91.76 48.141 36.372 H 0.0 **** 0.0
5 H 90.017 47.789 36.447 H 0.0 **** 0.0
@<TRIPOS>BOND
1 1 2 1
2 1 3 1
3 1 4 1
4 1 5 1
@<TRIPOS>MOLECULE
CH4
5 4
SMALL
USER_CHARGES


@<TRIPOS>ATOM
1 C 48.145 45.217 63.264 C 0.0 **** 0.0
2 H 48.167 45.07 62.184 H 0.0 **** 0.0
3 H 48.714 46.11 63.521 H 0.0 **** 0.0
4 H 48.585 44.351 63.757 H 0.0 **** 0.0
5 H 47.112 45.337 63.593 H 0.0 **** 0.0
@<TRIPOS>BOND
1 1 2 1
2 1 3 1
3 1 4 1
4 1 5 1
@<TRIPOS>MOLECULE
CH4
5 4
SMALL
USER_CHARGES


@<TRIPOS>ATOM
1 C 66.921 31.311 51.937 C 0.0 **** 0.0
2 H 66.159 31.355 51.159 H 0.0 **** 0.0
3 H 67.747 31.972 51.674 H 0.0 **** 0.0
4 H 67.287 30.289 52.029 H 0.0 **** 0.0
5 H 66.488 31.629 52.886 H 0.0 **** 0.0
@<TRIPOS>BOND
1 1 2 1
2 1 3 1
3 1 4 1
4 1 5 1
@<TRIPOS>MOLECULE
CH4
5 4
SMALL
USER_CHARGES


@<TRIPOS>ATOM
1 C 77.669 63.368 90.106 C 0.0 **** 0.0
2 H 78.276 63.903 90.837 H 0.0 **** 0.0
3 H 78.179 62.449 89.814 H 0.0 **** 0.0
4 H 77.52 63.996 89.228 H 0.0 **** 0.0
5 H 76.703 63.123 90.546 H 0.0 **** 0.0
@<TRIPOS>BOND
1 1 2 1
2 1 3 1
3 1 4 1
4 1 5 1
@<TRIPOS>MOLECULE
CH4
5 4
SMALL
USER_CHARGES


@<TRIPOS>ATOM
1 C 2.078 31.197 6.212 C 0.0 **** 0.0
2 H 2.151 31.111 7.296 H 0.0 **** 0.0
3 H 2.94 30.717 5.75 H 0.0 **** 0.0
4 H 2.055 32.251 5.933 H 0.0 **** 0.0
5 H 1.164 30.711 5.87 H 0.0 **** 0.0
@<TRIPOS>BOND
1 1 2 1
2 1 3 1
3 1 4 1
4 1 5 1
@<TRIPOS>MOLECULE
CH4
5 4
SMALL
USER_CHARGES


@<TRIPOS>ATOM
1 C 29.391 73.995 13.584 C 0.0 **** 0.0
2 H 29.912 74.812 13.085 H 0.0 **** 0.0
3 H 29.076 74.318 14.577 H 0.0 **** 0.0
4 H 30.059 73.139 13.675 H 0.0 **** 0.0
5 H 28.515 73.712 13.0 H 0.0 **** 0.0
@<TRIPOS>BOND
1 1 2 1
2 1 3 1
3 1 4 1
4 1 5 1
@<TRIPOS>MOLECULE
CH4
5 4
SMALL
USER_CHARGES


@<TRIPOS>ATOM
1 C 92.21 2.392 18.735 C 0.0 **** 0.0
2 H 91.469 3.134 19.032 H 0.0 **** 0.0
3 H 92.225 2.308 17.648 H 0.0 **** 0.0
4 H 91.952 1.427 19.171 H 0.0 **** 0.0
5 H 93.194 2.699 19.09 H 0.0 **** 0.0
@<TRIPOS>BOND
1 1 2 1
2 1 3 1
3 1 4 1
4 1 5 1
@<TRIPOS>MOLECULE
CH4
5 4
SMALL
USER_CHARGES


@<TRIPOS>ATOM
1 C 61.191 49.489 64.847 C 0.0 **** 0.0
2 H 61.578 49.876 65.789 H 0.0 **** 0.0
3 H 61.432 48.429 64.763 H 0.0 **** 0.0
4 H 61.644 50.032 64.018 H 0.0 **** 0.0
5 H 60.109 49.619 64.818 H 0.0 **** 0.0
@<TRIPOS>BOND
1 1 2 1
2 1 3 1
3 1 4 1
4 1 5 1
@<TRIPOS>MOLECULE
CH4
5 4
SMALL
USER_CHARGES


@<TRIPOS>ATOM
1 C 89.644 79.215 33.611 C 0.0 **** 0.0
2 H 89.15 79.069 34.571 H 0.0 **** 0.0
3 H 89.194 80.064 33.096 H 0.0 **** 0.0
4 H 89.53 78.318 33.003 H 0.0 **** 0.0
5 H 90.704 79.41 33.774 H 0.0 **** 0.0
@<TRIPOS>BOND
1 1 2 1
2 1 3 1
3 1 4 1
4 1 5 1
@<TRIPOS>MOLECULE
CH4
5 4
SMALL
USER_CHARGES


@<TRIPOS>ATOM
1 C 34.49 16.591 82.397 C 0.0 **** 0.0
2 H 34.443 16.864 81.343 H 0.0 **** 0.0
3 H 33.862 17.268 82.977 H 0.0 **** 0.0
4 H 35.52 16.662 82.746 H 0.0 **** 0.0
5 H 34.134 15.568 82.523 H 0.0 **** 0.0
@<TRIPOS>BOND
1 1 2 1
2 1 3 1
3 1 4 1
4 1 5 1
@<TRIPOS>MOLECULE
CH4
5 4
SMALL
USER_CHARGES


@<TRIPOS>ATOM
1 C 28.348 87.246 27.243 C 0.0 **** 0.0
2 H 27.734 86.575 27.844 H 0.0 **** 0.0
3 H 28.202 87.023 26.186 H 0.0 **** 0.0
4 H 29.398 87.107 27.503 H 0.0 **** 0.0
5 H 28.058 88.277 27.441 H 0.0 **** 0.0
@<TRIPOS>BOND
1 1 2 1
2 1 3 1
3 1 4 1
4 1 5 1
@<TRIPOS>MOLECULE
CH4
5 4
SMALL
USER_CHARGES


@<TRIPOS>ATOM
1 C 77.037 30.64 29.943 C 0.0 **** 0.0
2 H 77.589 30.914 29.044 H 0.0 **** 0.0
3 H 76.003 30.972 29.85 H 0.0 **** 0.0
4 H 77.495 31.115 30.81 H 0.0 **** 0.0
5 H 77.061 29.557 30.067 H 0.0 **** 0.0
@<TRIPOS>BOND
1 1 2 1
2 1 3 1
3 1 4 1
4 1 5 1
@<TRIPOS>MOLECULE
CH4
5 4
SMALL
USER_CHARGES


@<TRIPOS>ATOM
1 C 61.509 92.53 43.603 C 0.0 **** 0.0
2 H 61.754 92.436 44.661 H 0.0 **** 0.0
3 H 61.649 91.568 43.11 H 0.0 **** 0.0
4 H 62.162 93.272 43.144 H 0.0 **** 0.0
5 H 60.471 92.845 43.497 H 0.0 **** 0.0
@<TRIPOS>BOND
1 1 2 1
2 1 3 1
3 1 4 1
4 1 5 1
@<TRIPOS>MOLECULE
CH4
5 4
SMALL
USER_CHARGES


@<TRIPOS>ATOM
1 C 42.745 86.231 42.713 C 0.0 **** 0.0
2 H 42.75 86.227 43.803 H 0.0 **** 0.0
3 H 42.109 85.424 42.35 H 0.0 **** 0.0
4 H 43.761 86.087 42.346 H 0.0 **** 0.0
5 H 42.361 87.187 42.356 H 0.0 **** 0.0
@<TRIPOS>BOND
1 1 2 1
2 1 3 1
3 1 4 1
4 1 5 1
@<TRIPOS>MOLECULE
CH4
5 4
SMALL
USER_CHARGES


@<TRIPOS>ATOM
1 C 11.101 36.464 27.016 C 0.0 **** 0.0
2 H 11.5 35.937 26.149 H 0.0 **** 0.0
3 H 10.331 35.854 27.489 H 0.0 **** 0.0
4 H 10.668 37.412 26.697 H 0.0 **** 0.0
5 H 11.904 36.653 27.728 H 0.0 **** 0.0
@<TRIPOS>BOND
1 1 2 1
2 1 3 1
3 1 4 1
4 1 5 1
@<TRIPOS>MOLECULE
CH4
5 4
SMALL
USER_CHARGES


@<TRIPOS>ATOM
1 C 34.447 7.144 84.052 C 0.0 **** 0.0
2 H 34.536 7.432 85.1 H 0.0 **** 0.0
3 H 35.148 7.727 83.455 H 0.0 **** 0.0
4 H 33.43 7.335 83.708 H 0.0 **** 0.0
5 H 34.673 6.083 83.946 H 0.0 **** 0.0
@<TRIPOS>BOND
1 1 2 1
2 1 3 1
3 1 4 1
4 1 5 1
@<TRIPOS>MOLECULE
CH4
5 4
SMALL
USER_CHARGES


@<TRIPOS>ATOM
1 C 10.096 86.837 60.745 C 0.0 **** 0.0
2 H 9.328 86.52 60.04 H 0.0 **** 0.0
3 H 11.078 86.741 60.281 H 0.0 **** 0.0
4 H 10.053 86.211 61.636 H 0.0 **** 0.0
5 H 9.926 87.877 61.023 H 0.0 **** 0.0
@<TRIPOS>BOND
1 1 2 1
2 1 3 1
3 1 4 1
4 1 5 1
@<TRIPOS>MOLECULE
CH4
5 4
SMALL
USER_CHARGES


@<TRIPOS>ATOM
1 C 38.236 34.702 7.152 C 0.0 **** 0.0
2 H 39.189 34.549 6.645 H 0.0 **** 0.0
3 H 38.231 35.682 7.63 H 0.0 **** 0.0
4 H 38.097 33.928 7.907 H 0.0 **** 0.0
5 H 37.426 34.649 6.424 H 0.0 **** 0.0
@<TRIPOS>BOND
1 1 2 1
2 1 3 1
3 1 4 1
4 1 5 1
@<TRIPOS>MOLECULE
CH4
5 4
SMALL
USER_CHARGES


@<TRIPOS>ATOM
1 C 89.511 8.947 56.227 C 0.0 **** 0.0
2 H 90.45 8.529 55.864 H 0.0 **** 0.0
3 H 88.679 8.344 55.863 H 0.0 **** 0.0
4 H 89.405 9.969 55.863 H 0.0 **** 0.0
5 H 89.511 8.947 57.317 H 0.0 **** 0.0
@<TRIPOS>BOND
1 1 2 1
2 1 3 1
3 1 4 1
4 1 5 1
@<TRIPOS>MOLECULE
CH4
5 4
SMALL
USER_CHARGES


@<TRIPOS>ATOM
1 C 87.747 57.23 17.992 C 0.0 **** 0.0
2 H 87.874 58.041 18.709 H 0.0 **** 0.0
3 H 88.476 56.447 18.197 H 0.0 **** 0.0
4 H 87.897 57.612 16.982 H 0.0 **** 0.0
5 H 86.74 56.822 18.081 H 0.0 **** 0.0
@<TRIPOS>BOND
1 1 2 1
2 1 3 1
3 1 4 1
4 1 5 1
@<TRIPOS>MOLECULE
CH4
5 4
SMALL
USER_CHARGES


@<TRIPOS>ATOM
1 C 51.346 64.071 45.464 C 0.0 **** 0.0
2 H 51.451 64.882 44.743 H 0.0 **** 0.0
3 H 52.024 63.259 45.199 H 0.0 **** 0.0
4 H 50.319 63.705 45.452 H 0.0 **** 0.0
5 H 51.589 64.437 46.461 H 0.0 **** 0.0
@<TRIPOS>BOND
1 1 2 1
2 1 3 1
3 1 4 1
4 1 5 1
@<TRIPOS>MOLECULE
CH4
5 4
SMALL
USER_CHARGES


@<TRIPOS>ATOM
1 C 2.008 14.965 84.645 C 0.0 **** 0.0
2 H 1.96 15.252 85.695 H 0.0 **** 0.0
3 H 1.574 13.972 84.52 H 0.0 **** 0.0
4 H 3.048 14.952 84.318 H 0.0 **** 0.0
5 H 1.448 15.684 84.046 H 0.0 **** 0.0
@<TRIPOS>BOND
1 1 2 1
2 1 3 1
3 1 4 1
4 1 5 1
@<TRIPOS>MOLECULE
CH4
5 4
SMALL
USER_CHARGES


@<TRIPOS>ATOM
1 C 67.625 90.781 59.391 C 0.0 **** 0.0
2 H 67.727 90.794 58.306 H 0.0 **** 0.0
3 H 67.013 89.928 59.687 H 0.0 **** 0.0
4 H 67.147 91.703 59.721 H 0.0 **** 0.0
5 H 68.61 90.698 59.848 H 0.0 **** 0.0
@<TRIPOS>BOND
1 1 2 1
2 1 3 1
3 1 4 1
4 1 5 1
@<TRIPOS>MOLECULE
CH4
5 4
SMALL
USER_CHARGES


@<TRIPOS>ATOM
1 C 30.549 66.652 7.483 C 0.0 **** 0.0
2 H 30.024 67.09 6.634 H 0.0 **** 0.0
3 H 30.255 65.608 7.592 H 0.0 **** 0.0
4 H 30.291 67.199 8.39 H 0.0 **** 0.0
5 H 31.624 66.713 7.316 H 0.0 **** 0.0
@<TRIPOS>BOND
1 1 2 1
2 1 3 1
3 1 4 1
4 1 5 1
@<TRIPOS>MOLECULE
CH4
5 4
SMALL
USER_CHARGES


@<TRIPOS>ATOM
1 C 25.092 72.162 56.368 C 0.0 **** 0.0
2 H 24.449 72.184 55.488 H 0.0 **** 0.0
3 H 25.196 73.171 56.767 H 0.0 **** 0.0
4 H 26.073 71.777 56.091 H 0.0 **** 0.0
5 H 24.648 71.515 57.125 H 0.0 **** 0.0
@<TRIPOS>BOND
1 1 2 1
2 1 3 1
3 1 4 1
4 1 5 1
@<TRIPOS>MOLECULE
CH4
5 4
SMALL
USER_CHARGES


@<TRIPOS>ATOM
1 C 33.269 95.306 47.935 C 0.0 **** 0.0
2 H 32.484 94.583 47.711 H 0.0 **** 0.0
3 H 33.328 95.454 49.014 H 0.0 **** 0.0
4 H 33.038 96.254 47.449 H 0.0 **** 0.0
5 H 34.224 94.931 47.567 H 0.0 **** 0.0
@<TRIPOS>BOND
1 1 2 1
2 1 3 1
3 1 4 1
4 1 5 1
@<TRIPOS>MOLECULE
CH4
5 4
SMALL
USER_CHARGES


@<TRIPOS>ATOM
1 C 61.413 23.181 32.044 C 0.0 **** 0.0
2 H 61.373 22.811 33.068 H 0.0 **** 0.0
3 H 60.944 24.164 31.995 H 0.0 **** 0.0
4 H 60.883 22.492 31.387 H 0.0 **** 0.0
5 H 62.453 23.259 31.726 H 0.0 **** 0.0
@<TRIPOS>BOND
1 1 2 1
2 1 3 1
3 1 4 1
4 1 5 1
@<TRIPOS>MOLECULE
CH4
5 4
SMALL
USER_CHARGES


@<TRIPOS>ATOM
1 C 16.5 9.326 64.217 C 0.0 **** 0.0
2 H 16.302 9.773 63.243 H 0.0 **** 0.0
3 H 15.907 9.835 64.978 H 0.0 **** 0.0
4 H 17.559 9.426 64.454 H 0.0 **** 0.0
5 H 16.231 8.27 64.193 H 0.0 **** 0.0
@<TRIPOS>BOND
1 1 2 1
2 1 3 1
3 1 4 1
4 1 5 1
@<TRIPOS>MOLECULE
CH4
5 4
SMALL
USER_CHARGES


@<TRIPOS>ATOM
1 C 84.689 59.273 83.489 C 0.0 **** 0.0
2 H 85.205 58.752 84.296 H 0.0 **** 0.0
3 H 83.657 59.465 83.783 H 0.0 **** 0.0
4 H 84.702 58.655 82.591 H 0.0 **** 0.0
5 H 85.192 60.218 83.288 H 0.0 **** 0.0
@<TRIPOS>BOND
1 1 2 1
2 1 3 1
3 1 4 1
4 1 5 1
@<TRIPOS>MOLECULE
CH4
5 4
SMALL
USER_CHARGES


@<TRIPOS>ATOM
1 C 82.176 58.924 8.373 C 0.0 **** 0.0
2 H 82.287 58.901 7.289 H 0.0 **** 0.0
3 H 81.133 59.118 8.626 H 0.0 **** 0.0
4 H 82.803 59.714 8.786 H 0.0 **** 0.0
5 H 82.479 57.963 8.789 H 0.0 **** 0.0
@<TRIPOS>BOND
1 1 2 1
2 1 3 1
3 1 4 1
4 1 5 1
@<TRIPOS>MOLECULE
CH4
5 4
SMALL
USER_CHARGES


@<TRIPOS>ATOM
1 C 7.449 49.826 3.981 C 0.0 **** 0.0
2 H 7.068 50.223 4.922 H 0.0 **** 0.0
3 H 7.764 50.651 3.34 H 0.0 **** 0.0
4 H 6.664 49.258 3.482 H 0.0 **** 0.0
5 H 8.299 49.175 4.179 H 0.0 **** 0.0
@<TRIPOS>BOND
1 1 2 1
2 1 3 1
3 1 4 1
4 1 5 1
@<TRIPOS>MOLECULE
CH4
5 4
SMALL
USER_CHARGES


@<TRIPOS>ATOM
1 C 38.17 13.797 45.486 C 0.0 **** 0.0
2 H 37.38 13.529 46.187 H 0.0 **** 0.0
3 H 37.726 14.141 44.552 H 0.0 **** 0.0
4 H 38.795 12.925 45.292 H 0.0 **** 0.0
5 H 38.78 14.593 45.914 H 0.0 **** 0.0
@<TRIPOS>BOND
1 1 2 1
2 1 3 1
3 1 4 1
4 1 5 1
@<TRIPOS>MOLECULE
CH4
5 4
SMALL
USER_CHARGES


@<TRIPOS>ATOM
1 C 53.656 30.922 8.967 C 0.0 **** 0.0
2 H 53.939 31.542 9.817 H 0.0 **** 0.0
3 H 53.343 31.561 8.14 H 0.0 **** 0.0
4 H 52.834 30.267 9.253 H 0.0 **** 0.0
5 H 54.51 30.32 8.657 H 0.0 **** 0.0
@<TRIPOS>BOND
1 1 2 1
2 1 3 1
3 1 4 1
4 1 5 1
@<TRIPOS>MOLECULE
CH4
5 4
SMALL
USER_CHARGES


@<TRIPOS>ATOM
1 C 41.181 57.113 82.266 C 0.0 **** 0.0
2 H 40.778 56.769 83.219 H 0.0 **** 0.0
3 H 41.335 56.259 81.607 H 0.0 **** 0.0
4 H 42.132 57.618 82.436 H 0.0 **** 0.0
5 H 40.479 57.807 81.805 H 0.0 **** 0.0
@<TRIPOS>BOND
1 1 2 1
2 1 3 1
3 1 4 1
4 1 5 1
@<TRIPOS>MOLECULE
CH4
5 4
SMALL
USER_CHARGES


@<TRIPOS>ATOM
1 C 63.995 78.623 34.634 C 0.0 **** 0.0
2 H 64.09 77.546 34.773 H 0.0 **** 0.0
3 H 64.972 79.047 34.402 H 0.0 **** 0.0
4 H 63.611 79.074 35.549 H 0.0 **** 0.0
5 H 63.307 78.824 33.813 H 0.0 **** 0.0
@<TRIPOS>BOND
1 1 2 1
2 1 3 1
3 1 4 1
4 1 5 1
@<TRIPOS>MOLECULE
CH4
5 4
SMALL
USER_CHARGES


@<TRIPOS>ATOM
1 C 40.809 41.716 17.749 C 0.0 **** 0.0
2 H 40.124 40.959 17.366 H 0.0 **** 0.0
3 H 41.699 41.23 18.151 H 0.0 **** 0.0
4 H 40.318 42.285 18.538 H 0.0 **** 0.0
5 H 41.096 42.388 16.94 H 0.0 **** 0.0
@<TRIPOS>BOND
1 1 2 1
2 1 3 1
3 1 4 1
4 1 5 1
@<TRIPOS>MOLECULE
CH4
5 4
SMALL
USER_CHARGES


@<TRIPOS>ATOM
1 C 85.857 85.852 53.403 C 0.0 **** 0.0
2 H 85.979 86.17 52.368 H 0.0 **** 0.0
3 H 86.504 84.996 53.598 H 0.0 **** 0.0
4 H 84.819 85.57 53.576 H 0.0 **** 0.0
5 H 86.128 86.671 54.069 H 0.0 **** 0.0
@<TRIPOS>BOND
1 1 2 1
2 1 3 1
3 1 4 1
4 1 5 1
@<TRIPOS>MOLECULE
CH4
5 4
SMALL
USER_CHARGES


@<TRIPOS>ATOM
1 C 20.519 9.469 97.389 C 0.0 **** 0.0
2 H 20.296 10.012 96.471 H 0.0 **** 0.0
3 H 20.397 8.399 97.217 H 0.0 **** 0.0
4 H 19.835 9.791 98.175 H 0.0 **** 0.0
5 H 21.545 9.674 97.693 H 0.0 **** 0.0
@<TRIPOS>BOND
1 1 2 1
2 1 3 1
3 1 4 1
4 1 5 1
@<TRIPOS>MOLECULE
CH4
5 4
SMALL
USER_CHARGES


@<TRIPOS>ATOM
1 C 60.488 31.716 91.909 C 0.0 **** 0.0
2 H 61.452 32.049 92.293 H 0.0 **** 0.0
3 H 60.541 30.656 91.661 H 0.0 **** 0.0
4 H 60.237 32.287 91.014 H 0.0 **** 0.0
5 H 59.721 31.875 92.667 H 0.0 **** 0.0
@<TRIPOS>BOND
1 1 2 1
2 1 3 1
3 1 4 1
4 1 5 1
@<TRIPOS>MOLECULE
CH4
5 4
SMALL
USER_CHARGES


@<TRIPOS>ATOM
1 C 59.158 19.977 52.968 C 0.0 **** 0.0
2 H 59.45 20.653 52.164 H 0.0 **** 0.0
3 H 59.581 18.989 52.783 H 0.0 **** 0.0
4 H 58.071 19.906 53.007 H 0.0 **** 0.0
5 H 59.531 20.36 53.918 H 0.0 **** 0.0
@<TRIPOS>BOND
1 1 2 1
2 1 3 1
3 1 4 1
4 1 5 1
@<TRIPOS>MOLECULE
CH4
5 4
SMALL
USER_CHARGES


@<TRIPOS>ATOM
1 C 7.296 45.958 55.431 C 0.0 **** 0.0
2 H 6.725 45.316 56.102 H 0.0 **** 0.0
3 H 8.199 46.299 55.938 H 0.0 **** 0.0
4 H 6.69 46.819 55.149 H 0.0 **** 0.0
5 H 7.569 45.398 54.537 H 0.0 **** 0.0
@<TRIPOS>BOND
1 1 2 1
2 1 3 1
3 1 4 1
4 1 5 1
@<TRIPOS>MOLECULE
CH4
5 4
SMALL
USER_CHARGES


@<TRIPOS>ATOM
1 C 95.94 24.67 87.183 C 0.0 **** 0.0
2 H 95.87 24.411 88.239 H 0.0 **** 0.0
3 H 96.759 24.114 86.726 H 0.0 **** 0.0
4 H 96.126 25.74 87.083 H 0.0 **** 0.0
5 H 95.005 24.416 86.684 H 0.0 **** 0.0
@<TRIPOS>BOND
1 1 2 1
2 1 3 1
3 1 4 1
4 1 5 1
@<TRIPOS>MOLECULE
CH4
5 4
SMALL
USER_CHARGES


@<TRIPOS>ATOM
1 C 54.616 51.182 78.953 C 0.0 **** 0.0
2 H 54.905 52.089 79.484 H 0.0 **** 0.0
3 H 54.151 50.486 79.651 H 0.0 **** 0.0
4 H 55.501 50.721 78.515 H 0.0 **** 0.0
5 H 53.908 51.434 78.164 H 0.0 **** 0.0
@<TRIPOS>BOND
1 1 2 1
2 1 3 1
3 1 4 1
4 1 5 1
@<TRIPOS>MOLECULE
CH4
5 4
SMALL
USER_CHARGES


@<TRIPOS>ATOM
1 C 51.37 24.183 17.941 C 0.0 **** 0.0
2 H 52.221 24.864 17.92 H 0.0 **** 0.0
3 H 51.688 23.215 18.326 H 0.0 **** 0.0
4 H 50.978 24.062 16.931 H 0.0 **** 0.0
5 H 50.592 24.594 18.585 H 0.0 **** 0.0
@<TRIPOS>BOND
1 1 5 1
2 1 3 1
3 1 2 1
4 1 4 1
@<TRIPOS>MOLECULE
CH4
5 4
SMALL
USER_CHARGES


@<TRIPOS>ATOM
1 C 1.308 40.817 66.739 C 0.0 **** 0.0
2 H 1.274 40.798 65.649 H 0.0 **** 0.0
3 H 1.695 39.867 67.107 H 0.0 **** 0.0
4 H 0.303 40.976 67.13 H 0.0 **** 0.0
5 H 1.958 41.627 67.067 H 0.0 **** 0.0
@<TRIPOS>BOND
1 1 2 1
2 1 3 1
3 1 4 1
4 1 5 1
@<TRIPOS>MOLECULE
CH4
5 4
SMALL
USER_CHARGES


@<TRIPOS>ATOM
1 C 52.11 56.229 7.378 C 0.0 **** 0.0
2 H 52.15 56.202 8.467 H 0.0 **** 0.0
3 H 51.19 56.721 7.06 H 0.0 **** 0.0
4 H 52.131 55.211 6.989 H 0.0 **** 0.0
5 H 52.968 56.781 6.996 H 0.0 **** 0.0
@<TRIPOS>BOND
1 1 2 1
2 1 3 1
3 1 4 1
4 1 5 1
@<TRIPOS>MOLECULE
CH4
5 4
SMALL
USER_CHARGES


@<TRIPOS>ATOM
1 C 25.588 59.791 22.176 C 0.0 **** 0.0
2 H 25.39 58.72 22.147 H 0.0 **** 0.0
3 H 24.799 60.291 22.737 H 0.0 **** 0.0
4 H 25.615 60.183 21.159 H 0.0 **** 0.0
5 H 26.548 59.97 22.66 H 0.0 **** 0.0
@<TRIPOS>BOND
1 1 2 1
2 1 3 1
3 1 4 1
4 1 5 1
@<TRIPOS>MOLECULE
CH4
5 4
SMALL
USER_CHARGES


@<TRIPOS>ATOM
1 C 70.046 30.842 19.766 C 0.0 **** 0.0
2 H 69.713 30.843 20.803 H 0.0 **** 0.0
3 H 71.093 30.539 19.721 H 0.0 **** 0.0
4 H 69.94 31.844 19.349 H 0.0 **** 0.0
5 H 69.44 30.143 19.19 H 0.0 **** 0.0
@<TRIPOS>BOND
1 1 2 1
2 1 3 1
3 1 4 1
4 1 5 1
@<TRIPOS>MOLECULE
CH4
5 4
SMALL
USER_CHARGES


@<TRIPOS>ATOM
1 C 59.165 81.642 33.752 C 0.0 **** 0.0
2 H 58.255 81.534 33.161 H 0.0 **** 0.0
3 H 58.91 81.651 34.812 H 0.0 **** 0.0
4 H 59.659 82.577 33.489 H 0.0 **** 0.0
5 H 59.834 80.807 33.545 H 0.0 **** 0.0
@<TRIPOS>BOND
1 1 2 1
2 1 3 1
3 1 4 1
4 1 5 1
@<TRIPOS>MOLECULE
CH4
5 4
SMALL
USER_CHARGES


@<TRIPOS>ATOM
1 C 35.145 11.114 48.584 C 0.0 **** 0.0
2 H 34.869 10.833 49.6 H 0.0 **** 0.0
3 H 34.415 11.822 48.192 H 0.0 **** 0.0
4 H 35.165 10.225 47.954 H 0.0 **** 0.0
5 H 36.132 11.577 48.592 H 0.0 **** 0.0
@<TRIPOS>BOND
1 1 2 1
2 1 3 1
3 1 4 1
4 1 5 1
@<TRIPOS>MOLECULE
CH4
5 4
SMALL
USER_CHARGES


@<TRIPOS>ATOM
1 C 24.23 24.73 43.393 C 0.0 **** 0.0
2 H 23.147 24.616 43.337 H 0.0 **** 0.0
3 H 24.593 24.294 44.324 H 0.0 **** 0.0
4 H 24.485 25.789 43.363 H 0.0 **** 0.0
5 H 24.693 24.22 42.548 H 0.0 **** 0.0
@<TRIPOS>BOND
1 1 2 1
2 1 3 1
3 1 4 1
4 1 5 1
@<TRIPOS>MOLECULE
CH4
5 4
SMALL
USER_CHARGES


@<TRIPOS>ATOM
1 C 50.62 9.275 43.239 C 0.0 **** 0.0
2 H 49.995 9.351 42.349 H 0.0 **** 0.0
3 H 51.186 10.198 43.366 H 0.0 **** 0.0
4 H 51.31 8.438 43.128 H 0.0 **** 0.0
5 H 49.989 9.112 44.113 H 0.0 **** 0.0
@<TRIPOS>BOND
1 1 2 1
2 1 3 1
3 1 4 1
4 1 5 1
@<TRIPOS>MOLECULE
CH4
5 4
SMALL
USER_CHARGES


@<TRIPOS>ATOM
1 C 39.791 30.638 6.595 C 0.0 **** 0.0
2 H 40.254 29.781 6.104 H 0.0 **** 0.0
3 H 38.708 30.52 6.586 H 0.0 **** 0.0
4 H 40.062 31.55 6.064 H 0.0 **** 0.0
5 H 40.142 30.699 7.625 H 0.0 **** 0.0
@<TRIPOS>BOND
1 1 2 1
2 1 3 1
3 1 4 1
4 1 5 1
@<TRIPOS>MOLECULE
CH4
5 4
SMALL
USER_CHARGES


@<TRIPOS>ATOM
1 C 19.841 31.471 31.196 C 0.0 **** 0.0
2 H 20.053 30.827 30.343 H 0.0 **** 0.0
3 H 20.507 31.213 32.02 H 0.0 **** 0.0
4 H 18.806 31.331 31.508 H 0.0 **** 0.0
5 H 19.998 32.512 30.913 H 0.0 **** 0.0
@<TRIPOS>BOND
1 1 2 1
2 1 3 1
3 1 4 1
4 1 5 1
@<TRIPOS>MOLECULE
CH4
5 4
SMALL
USER_CHARGES


@<TRIPOS>ATOM
1 C 46.676 35.863 63.481 C 0.0 **** 0.0
2 H 46.634 36.951 63.445 H 0.0 **** 0.0
3 H 45.674 35.456 63.338 H 0.0 **** 0.0
4 H 47.062 35.546 64.45 H 0.0 **** 0.0
5 H 47.333 35.498 62.691 H 0.0 **** 0.0
@<TRIPOS>BOND
1 1 2 1
2 1 3 1
3 1 4 1
4 1 5 1
@<TRIPOS>MOLECULE
CH4
5 4
SMALL
USER_CHARGES


@<TRIPOS>ATOM
1 C 9.215 77.267 77.71 C 0.0 **** 0.0
2 H 9.19 77.425 76.632 H 0.0 **** 0.0
3 H 8.39 77.805 78.175 H 0.0 **** 0.0
4 H 10.161 77.635 78.108 H 0.0 **** 0.0
5 H 9.122 76.202 77.923 H 0.0 **** 0.0
@<TRIPOS>BOND
1 1 2 1
2 1 3 1
3 1 4 1
4 1 5 1
@<TRIPOS>MOLECULE
CH4
5 4
SMALL
USER_CHARGES


@<TRIPOS>ATOM
1 C 73.69 33.979 13.924 C 0.0 **** 0.0
2 H 73.904 33.473 14.865 H 0.0 **** 0.0
3 H 74.342 33.586 13.143 H 0.0 **** 0.0
4 H 73.864 35.049 14.04 H 0.0 **** 0.0
5 H 72.649 33.808 13.649 H 0.0 **** 0.0
@<TRIPOS>BOND
1 1 2 1
2 1 3 1
3 1 4 1
4 1 5 1
@<TRIPOS>MOLECULE
CH4
5 4
SMALL
USER_CHARGES


@<TRIPOS>ATOM
1 C 56.445 76.454 19.886 C 0.0 **** 0.0
2 H 56.061 75.971 18.987 H 0.0 **** 0.0
3 H 57.052 77.316 19.604 H 0.0 **** 0.0
4 H 57.057 75.747 20.446 H 0.0 **** 0.0
5 H 55.611 76.784 20.505 H 0.0 **** 0.0
@<TRIPOS>BOND
1 1 2 1
2 1 3 1
3 1 4 1
4 1 5 1
@<TRIPOS>MOLECULE
CH4
5 4
SMALL
USER_CHARGES


@<TRIPOS>ATOM
1 C 56.262 35.353 11.165 C 0.0 **** 0.0
2 H 55.886 35.556 12.168 H 0.0 **** 0.0
3 H 56.694 36.263 10.748 H 0.0 **** 0.0
4 H 55.442 35.016 10.531 H 0.0 **** 0.0
5 H 57.026 34.577 11.213 H 0.0 **** 0.0
@<TRIPOS>BOND
1 1 2 1
2 1 3 1
3 1 4 1
4 1 5 1
@<TRIPOS>MOLECULE
CH4
5 4
SMALL
USER_CHARGES


@<TRIPOS>ATOM
1 C 42.56 71.838 74.628 C 0.0 **** 0.0
2 H 42.663 71.204 75.509 H 0.0 **** 0.0
3 H 41.704 71.505 74.04 H 0.0 **** 0.0
4 H 43.465 71.771 74.025 H 0.0 **** 0.0
5 H 42.406 72.871 74.941 H 0.0 **** 0.0
@<TRIPOS>BOND
1 1 2 1
2 1 3 1
3 1 4 1
4 1 5 1
@<TRIPOS>MOLECULE
CH4
5 4
SMALL
USER_CHARGES


@<TRIPOS>ATOM
1 C 40.037 94.36 58.75 C 0.0 **** 0.0
2 H 40.481 95.355 58.792 H 0.0 **** 0.0
3 H 39.676 94.082 59.74 H 0.0 **** 0.0
4 H 40.788 93.642 58.421 H 0.0 **** 0.0
5 H 39.205 94.363 58.046 H 0.0 **** 0.0
@<TRIPOS>BOND
1 1 4 1
2 1 5 1
3 1 2 1
4 1 3 1
@<TRIPOS>MOLECULE
CH4
5 4
SMALL
USER_CHARGES


@<TRIPOS>ATOM
1 C 15.359 12.613 29.326 C 0.0 **** 0.0
2 H 14.992 12.593 28.299 H 0.0 **** 0.0
3 H 14.577 12.256 29.997 H 0.0 **** 0.0
4 H 15.631 13.634 29.595 H 0.0 **** 0.0
5 H 16.234 11.969 29.411 H 0.0 **** 0.0
@<TRIPOS>BOND
1 1 2 1
2 1 3 1
3 1 4 1
4 1 5 1
@<TRIPOS>MOLECULE
CH4
5 4
SMALL
USER_CHARGES


@<TRIPOS>ATOM
1 C 92.333 19.435 13.254 C 0.0 **** 0.0
2 H 92.596 19.38 14.311 H 0.0 **** 0.0
3 H 92.744 20.349 12.825 H 0.0 **** 0.0
4 H 91.248 19.439 13.149 H 0.0 **** 0.0
5 H 92.745 18.571 12.733 H 0.0 **** 0.0
@<TRIPOS>BOND
1 1 2 1
2 1 3 1
3 1 4 1
4 1 5 1
@<TRIPOS>MOLECULE
CH4
5 4
SMALL
USER_CHARGES


@<TRIPOS>ATOM
1 C 63.056 32.307 20.076 C 0.0 **** 0.0
2 H 63.135 32.18 21.156 H 0.0 **** 0.0
3 H 62.243 32.997 19.851 H 0.0 **** 0.0
4 H 62.853 31.342 19.611 H 0.0 **** 0.0
5 H 63.992 32.708 19.688 H 0.0 **** 0.0
@<TRIPOS>BOND
1 1 2 1
2 1 3 1
3 1 4 1
4 1 5 1
@<TRIPOS>MOLECULE
CH4
5 4
SMALL
USER_CHARGES


@<TRIPOS>ATOM
1 C 37.28 76.428 41.161 C 0.0 **** 0.0
2 H 37.217 76.214 40.094 H 0.0 **** 0.0
3 H 36.828 77.4 41.363 H 0.0 **** 0.0
4 H 38.325 76.442 41.468 H 0.0 **** 0.0
5 H 36.747 75.657 41.718 H 0.0 **** 0.0
@<TRIPOS>BOND
1 1 2 1
2 1 3 1
3 1 4 1
4 1 5 1
@<TRIPOS>MOLECULE
CH4
5 4
SMALL
USER_CHARGES


@<TRIPOS>ATOM
1 C 30.535 20.515 34.273 C 0.0 **** 0.0
2 H 30.756 20.626 35.335 H 0.0 **** 0.0
3 H 30.079 21.432 33.9 H 0.0 **** 0.0
4 H 29.848 19.682 34.13 H 0.0 **** 0.0
5 H 31.46 20.321 33.729 H 0.0 **** 0.0
@<TRIPOS>BOND
1 1 2 1
2 1 3 1
3 1 4 1
4 1 5 1
@<TRIPOS>MOLECULE
CH4
5 4
SMALL
USER_CHARGES


@<TRIPOS>ATOM
1 C 71.232 29.915 33.828 C 0.0 **** 0.0
2 H 71.227 29.903 34.918 H 0.0 **** 0.0
3 H 70.375 29.355 33.454 H 0.0 **** 0.0
4 H 72.152 29.458 33.464 H 0.0 **** 0.0
5 H 71.174 30.945 33.476 H 0.0 **** 0.0
@<TRIPOS>BOND
1 1 2 1
2 1 3 1
3 1 4 1
4 1 5 1
@<TRIPOS>MOLECULE
CH4
5 4
SMALL
USER_CHARGES


@<TRIPOS>ATOM
1 C 32.292 89.586 42.17 C 0.0 **** 0.0
2 H 31.695 90.308 41.613 H 0.0 **** 0.0
3 H 31.65 88.777 42.52 H 0.0 **** 0.0
4 H 32.754 90.08 43.025 H 0.0 **** 0.0
5 H 33.069 89.179 41.521 H 0.0 **** 0.0
@<TRIPOS>BOND
1 1 2 1
2 1 3 1
3 1 4 1
4 1 5 1
@<TRIPOS>MOLECULE
CH4
5 4
SMALL
USER_CHARGES


@<TRIPOS>ATOM
1 C 98.061 84.097 39.4 C 0.0 **** 0.0
2 H 97.936 83.031 39.211 H 0.0 **** 0.0
3 H 97.082 84.578 39.43 H 0.0 **** 0.0
4 H 98.659 84.54 38.603 H 0.0 **** 0.0
5 H 98.566 84.241 40.355 H 0.0 **** 0.0
@<TRIPOS>BOND
1 1 2 1
2 1 3 1
3 1 4 1
4 1 5 1
@<TRIPOS>MOLECULE
CH4
5 4
SMALL
USER_CHARGES


@<TRIPOS>ATOM
1 C 27.233 45.462 46.503 C 0.0 **** 0.0
2 H 26.199 45.361 46.171 H 0.0 **** 0.0
3 H 27.802 44.588 46.188 H 0.0 **** 0.0
4 H 27.259 45.542 47.589 H 0.0 **** 0.0
5 H 27.669 46.359 46.062 H 0.0 **** 0.0
@<TRIPOS>BOND
1 1 2 1
2 1 3 1
3 1 4 1
4 1 5 1
@<TRIPOS>MOLECULE
CH4
5 4
SMALL
USER_CHARGES


@<TRIPOS>ATOM
1 C 83.475 53.133 12.987 C 0.0 **** 0.0
2 H 83.632 52.182 13.496 H 0.0 **** 0.0
3 H 83.915 53.937 13.577 H 0.0 **** 0.0
4 H 82.406 53.31 12.871 H 0.0 **** 0.0
5 H 83.947 53.101 12.005 H 0.0 **** 0.0
@<TRIPOS>BOND
1 1 2 1
2 1 3 1
3 1 4 1
4 1 5 1
@<TRIPOS>MOLECULE
CH4
5 4
SMALL
USER_CHARGES


@<TRIPOS>ATOM
1 C 81.567 68.175 16.564 C 0.0 **** 0.0
2 H 81.604 67.33 17.252 H 0.0 **** 0.0
3 H 82.029 67.893 15.617 H 0.0 **** 0.0
4 H 82.107 69.018 16.995 H 0.0 **** 0.0
5 H 80.529 68.457 16.392 H 0.0 **** 0.0
@<TRIPOS>BOND
1 1 2 1
2 1 3 1
3 1 4 1
4 1 5 1
@<TRIPOS>MOLECULE
CH4
5 4
SMALL
USER_CHARGES


@<TRIPOS>ATOM
1 C 75.208 84.598 60.679 C 0.0 **** 0.0
2 H 75.201 84.426 61.755 H 0.0 **** 0.0
3 H 75.512 85.625 60.477 H 0.0 **** 0.0
4 H 74.209 84.428 60.278 H 0.0 **** 0.0
5 H 75.911 83.911 60.207 H 0.0 **** 0.0
@<TRIPOS>BOND
1 1 2 1
2 1 3 1
3 1 4 1
4 1 5 1
@<TRIPOS>MOLECULE
CH4
5 4
SMALL
USER_CHARGES


@<TRIPOS>ATOM
1 C 49.813 91.106 90.204 C 0.0 **** 0.0
2 H 49.08 91.585 89.554 H 0.0 **** 0.0
3 H 49.985 91.732 91.08 H 0.0 **** 0.0
4 H 50.749 90.975 89.661 H 0.0 **** 0.0
5 H 49.436 90.133 90.519 H 0.0 **** 0.0
@<TRIPOS>BOND
1 1 2 1
2 1 3 1
3 1 4 1
4 1 5 1
@<TRIPOS>MOLECULE
CH4
5 4
SMALL
USER_CHARGES


@<TRIPOS>ATOM
1 C 64.451 54.993 66.498 C 0.0 **** 0.0
2 H 64.574 55.666 67.346 H 0.0 **** 0.0
3 H 65.144 55.277 65.705 H 0.0 **** 0.0
4 H 63.428 55.058 66.128 H 0.0 **** 0.0
5 H 64.659 53.97 66.813 H 0.0 **** 0.0
@<TRIPOS>BOND
1 1 2 1
2 1 3 1
3 1 4 1
4 1 5 1
@<TRIPOS>MOLECULE
CH4
5 4
SMALL
USER_CHARGES


@<TRIPOS>ATOM
1 C 75.729 28.18 92.084 C 0.0 **** 0.0
2 H 76.171 27.63 92.914 H 0.0 **** 0.0
3 H 74.696 27.861 91.945 H 0.0 **** 0.0
4 H 76.296 27.982 91.174 H 0.0 **** 0.0
5 H 75.754 29.248 92.302 H 0.0 **** 0.0
@<TRIPOS>BOND
1 1 2 1
2 1 3 1
3 1 4 1
4 1 5 1
@<TRIPOS>MOLECULE
CH4
5 4
SMALL
USER_CHARGES


@<TRIPOS>ATOM
1 C 36.97 19.248 7.388 C 0.0 **** 0.0
2 H 37.013 18.833 6.381 H 0.0 **** 0.0
3 H 35.991 19.699 7.553 H 0.0 **** 0.0
4 H 37.744 20.006 7.502 H 0.0 **** 0.0
5 H 37.13 18.452 8.115 H 0.0 **** 0.0
@<TRIPOS>BOND
1 1 2 1
2 1 3 1
3 1 5 1
4 1 4 1
@<TRIPOS>MOLECULE
CH4
5 4
SMALL
USER_CHARGES


@<TRIPOS>ATOM
1 C 9.637 71.52 62.924 C 0.0 **** 0.0
2 H 9.653 71.523 64.014 H 0.0 **** 0.0
3 H 9.417 70.514 62.566 H 0.0 **** 0.0
4 H 10.609 71.837 62.546 H 0.0 **** 0.0
5 H 8.868 72.208 62.57 H 0.0 **** 0.0
@<TRIPOS>BOND
1 1 3 1
2 1 4 1
3 1 5 1
4 1 2 1
@<TRIPOS>MOLECULE
CH4
5 4
SMALL
USER_CHARGES


@<TRIPOS>ATOM
1 C 49.978 5.449 16.674 C 0.0 **** 0.0
2 H 49.788 5.209 15.627 H 0.0 **** 0.0
3 H 50.346 6.472 16.75 H 0.0 **** 0.0
4 H 50.724 4.763 17.074 H 0.0 **** 0.0
5 H 49.053 5.351 17.242 H 0.0 **** 0.0
@<TRIPOS>BOND
1 1 2 1
2 1 3 1
3 1 4 1
4 1 5 1
@<TRIPOS>MOLECULE
CH4
5 4
SMALL
USER_CHARGES


@<TRIPOS>ATOM
1 C 96.457 90.721 57.406 C 0.0 **** 0.0
2 H 96.269 91.39 56.566 H 0.0 **** 0.0
3 H 96.54 89.696 57.042 H 0.0 **** 0.0
4 H 95.633 90.789 58.116 H 0.0 **** 0.0
5 H 97.386 91.008 57.899 H 0.0 **** 0.0
@<TRIPOS>BOND
1 1 2 1
2 1 3 1
3 1 4 1
4 1 5 1
@<TRIPOS>MOLECULE
CH4
5 4
SMALL
USER_CHARGES


@<TRIPOS>ATOM
1 C 60.354 79.4 93.633 C 0.0 **** 0.0
2 H 60.11 79.602 94.676 H 0.0 **** 0.0
3 H 61.116 78.622 93.582 H 0.0 **** 0.0
4 H 60.732 80.31 93.166 H 0.0 **** 0.0
5 H 59.458 79.068 93.108 H 0.0 **** 0.0
@<TRIPOS>BOND
1 1 2 1
2 1 3 1
3 1 4 1
4 1 5 1
@<TRIPOS>MOLECULE
CH4
5 4
SMALL
USER_CHARGES


@<TRIPOS>ATOM
1 C 47.39 37.746 29.097 C 0.0 **** 0.0
2 H 47.851 36.901 29.608 H 0.0 **** 0.0
3 H 47.584 37.672 28.026 H 0.0 **** 0.0
4 H 47.811 38.675 29.48 H 0.0 **** 0.0
5 H 46.315 37.734 29.273 H 0.0 **** 0.0
@<TRIPOS>BOND
1 1 2 1
2 1 3 1
3 1 4 1
4 1 5 1
@<TRIPOS>MOLECULE
CH4
5 4
SMALL
USER_CHARGES


@<TRIPOS>ATOM
1 C 66.021 38.388 27.483 C 0.0 **** 0.0
2 H 66.867 38.262 26.808 H 0.0 **** 0.0
3 H 66.306 38.072 28.486 H 0.0 **** 0.0
4 H 65.185 37.781 27.134 H 0.0 **** 0.0
5 H 65.725 39.437 27.502 H 0.0 **** 0.0
@<TRIPOS>BOND
1 1 2 1
2 1 3 1
3 1 4 1
4 1 5 1
@<TRIPOS>MOLECULE
CH4
5 4
SMALL
USER_CHARGES


@<TRIPOS>ATOM
1 C 64.523 67.394 48.795 C 0.0 **** 0.0
2 H 64.971 66.911 49.663 H 0.0 **** 0.0
3 H 64.563 66.717 47.942 H 0.0 **** 0.0
4 H 65.074 68.306 48.563 H 0.0 **** 0.0
5 H 63.485 67.643 49.014 H 0.0 **** 0.0
@<TRIPOS>BOND
1 1 2 1
2 1 3 1
3 1 4 1
4 1 5 1
@<TRIPOS>MOLECULE
CH4
5 4
SMALL
USER_CHARGES


@<TRIPOS>ATOM
1 C 40.433 12.216 96.872 C 0.0 **** 0.0
2 H 41.411 11.834 96.577 H 0.0 **** 0.0
3 H 40.489 13.298 96.997 H 0.0 **** 0.0
4 H 40.132 11.756 97.813 H 0.0 **** 0.0
5 H 39.702 11.976 96.1 H 0.0 **** 0.0
@<TRIPOS>BOND
1 1 2 1
2 1 3 1
3 1 4 1
4 1 5 1
@<TRIPOS>MOLECULE
CH4
5 4
SMALL
USER_CHARGES


@<TRIPOS>ATOM
1 C 23.09 79.409 19.998 C 0.0 **** 0.0
2 H 22.791 79.147 21.013 H 0.0 **** 0.0
3 H 22.718 80.404 19.755 H 0.0 **** 0.0
4 H 22.673 78.684 19.299 H 0.0 **** 0.0
5 H 24.178 79.399 19.926 H 0.0 **** 0.0
@<TRIPOS>BOND
1 1 2 1
2 1 3 1
3 1 4 1
4 1 5 1
@<TRIPOS>MOLECULE
CH4
5 4
SMALL
USER_CHARGES


@<TRIPOS>ATOM
1 C 22.569 75.722 46.886 C 0.0 **** 0.0
2 H 22.683 76.531 46.165 H 0.0 **** 0.0
3 H 23.035 74.818 46.493 H 0.0 **** 0.0
4 H 21.51 75.538 47.062 H 0.0 **** 0.0
5 H 23.051 76.001 47.823 H 0.0 **** 0.0
@<TRIPOS>BOND
1 1 2 1
2 1 3 1
3 1 4 1
4 1 5 1
@<TRIPOS>MOLECULE
CH4
5 4
SMALL
USER_CHARGES


@<TRIPOS>ATOM
1 C 62.657 14.11 67.863 C 0.0 **** 0.0
2 H 62.933 14.253 66.819 H 0.0 **** 0.0
3 H 63.511 14.344 68.5 H 0.0 **** 0.0
4 H 62.36 13.073 68.021 H 0.0 **** 0.0
5 H 61.826 14.769 68.113 H 0.0 **** 0.0
@<TRIPOS>BOND
1 1 2 1
2 1 3 1
3 1 4 1
4 1 5 1
@<TRIPOS>MOLECULE
CH4
5 4
SMALL
USER_CHARGES


@<TRIPOS>ATOM
1 C 21.81 8.987 30.082 C 0.0 **** 0.0
2 H 22.368 9.148 31.004 H 0.0 **** 0.0
3 H 21.234 8.064 30.163 H 0.0 **** 0.0
4 H 22.505 8.91 29.246 H 0.0 **** 0.0
5 H 21.133 9.825 29.916 H 0.0 **** 0.0
@<TRIPOS>BOND
1 1 2 1
2 1 3 1
3 1 4 1
4 1 5 1
@<TRIPOS>MOLECULE
CH4
5 4
SMALL
USER_CHARGES


@<TRIPOS>ATOM
1 C 80.589 70.794 79.115 C 0.0 **** 0.0
2 H 80.76 70.566 78.063 H 0.0 **** 0.0
3 H 80.631 71.873 79.264 H 0.0 **** 0.0
4 H 81.357 70.313 79.72 H 0.0 **** 0.0
5 H 79.607 70.424 79.411 H 0.0 **** 0.0
@<TRIPOS>BOND
1 1 2 1
2 1 3 1
3 1 4 1
4 1 5 1
@<TRIPOS>MOLECULE
CH4
5 4
SMALL
USER_CHARGES


@<TRIPOS>ATOM
1 C 81.893 41.614 12.405 C 0.0 **** 0.0
2 H 81.192 41.974 11.652 H 0.0 **** 0.0
3 H 81.602 40.612 12.721 H 0.0 **** 0.0
4 H 81.881 42.284 13.264 H 0.0 **** 0.0
5 H 82.897 41.585 11.981 H 0.0 **** 0.0
@<TRIPOS>BOND
1 1 2 1
2 1 3 1
3 1 4 1
4 1 5 1
@<TRIPOS>MOLECULE
CH4
5 4
SMALL
USER_CHARGES


@<TRIPOS>ATOM
1 C 59.837 1.283 23.015 C 0.0 **** 0.0
2 H 59.549 0.877 22.045 H 0.0 **** 0.0
3 H 59.081 1.994 23.35 H 0.0 **** 0.0
4 H 60.798 1.789 22.926 H 0.0 **** 0.0
5 H 59.919 0.472 23.738 H 0.0 **** 0.0
@<TRIPOS>BOND
1 1 2 1
2 1 3 1
3 1 4 1
4 1 5 1
@<TRIPOS>MOLECULE
CH4
5 4
SMALL
USER_CHARGES


@<TRIPOS>ATOM
1 C 86.939 14.008 59.505 C 0.0 **** 0.0
2 H 86.302 13.762 60.355 H 0.0 **** 0.0
3 H 87.882 13.468 59.59 H 0.0 **** 0.0
4 H 87.133 15.081 59.495 H 0.0 **** 0.0
5 H 86.437 13.721 58.581 H 0.0 **** 0.0
@<TRIPOS>BOND
1 1 2 1
2 1 3 1
3 1 4 1
4 1 5 1
@<TRIPOS>MOLECULE
CH4
5 4
SMALL
USER_CHARGES


@<TRIPOS>ATOM
1 C 87.114 25.826 31.241 C 0.0 **** 0.0
2 H 87.455 26.862 31.245 H 0.0 **** 0.0
3 H 87.002 25.477 32.267 H 0.0 **** 0.0
4 H 87.846 25.206 30.723 H 0.0 **** 0.0
5 H 86.155 25.761 30.727 H 0.0 **** 0.0
@<TRIPOS>BOND
1 1 2 1
2 1 3 1
3 1 4 1
4 1 5 1
@<TRIPOS>MOLECULE
CH4
5 4
SMALL
USER_CHARGES


@<TRIPOS>ATOM
1 C 43.213 84.02 7.822 C 0.0 **** 0.0
2 H 43.786 84.242 8.723 H 0.0 **** 0.0
3 H 42.994 84.948 7.294 H 0.0 **** 0.0
4 H 42.279 83.53 8.097 H 0.0 **** 0.0
5 H 43.793 83.362 7.176 H 0.0 **** 0.0
@<TRIPOS>BOND
1 1 2 1
2 1 3 1
3 1 4 1
4 1 5 1
@<TRIPOS>MOLECULE
CH4
5 4
SMALL
USER_CHARGES


@<TRIPOS>ATOM
1 C 66.435 38.211 4.364 C 0.0 **** 0.0
2 H 67.292 37.569 4.568 H 0.0 **** 0.0
3 H 66.579 39.174 4.853 H 0.0 **** 0.0
4 H 65.53 37.74 4.747 H 0.0 **** 0.0
5 H 66.341 38.36 3.288 H 0.0 **** 0.0
@<TRIPOS>BOND
1 1 2 1
2 1 3 1
3 1 4 1
4 1 5 1
@<TRIPOS>MOLECULE
CH4
5 4
SMALL
USER_CHARGES


@<TRIPOS>ATOM
1 C 69.418 11.31 25.314 C 0.0 **** 0.0
2 H 68.892 11.302 26.269 H 0.0 **** 0.0
3 H 68.879 10.69 24.598 H 0.0 **** 0.0
4 H 70.425 10.916 25.452 H 0.0 **** 0.0
5 H 69.475 12.332 24.94 H 0.0 **** 0.0
@<TRIPOS>BOND
1 1 2 1
2 1 3 1
3 1 4 1
4 1 5 1
@<TRIPOS>MOLECULE
CH4
5 4
SMALL
USER_CHARGES


@<TRIPOS>ATOM
1 C 46.449 74.693 73.527 C 0.0 **** 0.0
2 H 46.455 74.766 74.615 H 0.0 **** 0.0
3 H 47.269 75.284 73.119 H 0.0 **** 0.0
4 H 45.502 75.071 73.143 H 0.0 **** 0.0
5 H 46.57 73.65 73.233 H 0.0 **** 0.0
@<TRIPOS>BOND
1 1 2 1
2 1 3 1
3 1 4 1
4 1 5 1
@<TRIPOS>MOLECULE
CH4
5 4
SMALL
USER_CHARGES


@<TRIPOS>ATOM
1 C 35.573 28.815 48.019 C 0.0 **** 0.0
2 H 35.173 29.286 48.917 H 0.0 **** 0.0
3 H 36.055 27.874 48.285 H 0.0 **** 0.0
4 H 36.304 29.479 47.556 H 0.0 **** 0.0
5 H 34.762 28.623 47.317 H 0.0 **** 0.0
@<TRIPOS>BOND
1 1 2 1
2 1 3 1
3 1 4 1
4 1 5 1
@<TRIPOS>MOLECULE
CH4
5 4
SMALL
USER_CHARGES


@<TRIPOS>ATOM
1 C 26.999 5.933 27.97 C 0.0 **** 0.0
2 H 27.548 6.868 27.854 H 0.0 **** 0.0
3 H 25.929 6.129 27.896 H 0.0 **** 0.0
4 H 27.223 5.499 28.944 H 0.0 **** 0.0
5 H 27.296 5.238 27.185 H 0.0 **** 0.0
@<TRIPOS>BOND
1 1 2 1
2 1 3 1
3 1 4 1
4 1 5 1
@<TRIPOS>MOLECULE
CH4
5 4
SMALL
USER_CHARGES


@<TRIPOS>ATOM
1 C 53.197 11.339 69.777 C 0.0 **** 0.0
2 H 53.92 11.768 70.471 H 0.0 **** 0.0
3 H 52.193 11.656 70.057 H 0.0 **** 0.0
4 H 53.26 10.251 69.814 H 0.0 **** 0.0
5 H 53.418 11.681 68.766 H 0.0 **** 0.0
@<TRIPOS>BOND
1 1 2 1
2 1 3 1
3 1 4 1
4 1 5 1
@<TRIPOS>MOLECULE
CH4
5 4
SMALL
USER_CHARGES


@<TRIPOS>ATOM
1 C 81.992 44.723 67.461 C 0.0 **** 0.0
2 H 81.111 44.233 67.046 H 0.0 **** 0.0
3 H 81.696 45.654 67.944 H 0.0 **** 0.0
4 H 82.699 44.938 66.659 H 0.0 **** 0.0
5 H 82.462 44.066 68.193 H 0.0 **** 0.0
@<TRIPOS>BOND
1 1 2 1
2 1 3 1
3 1 4 1
4 1 5 1
@<TRIPOS>MOLECULE
CH4
5 4
SMALL
USER_CHARGES


@<TRIPOS>ATOM
1 C 73.334 73.764 4.777 C 0.0 **** 0.0
2 H 72.418 73.221 5.007 H 0.0 **** 0.0
3 H 73.598 73.604 3.731 H 0.0 **** 0.0
4 H 74.141 73.404 5.415 H 0.0 **** 0.0
5 H 73.179 74.829 4.954 H 0.0 **** 0.0
@<TRIPOS>BOND
1 1 4 1
2 1 5 1
3 1 2 1
4 1 3 1
@<TRIPOS>MOLECULE
CH4
5 4
SMALL
USER_CHARGES


@<TRIPOS>ATOM
1 C 51.266 76.651 15.736 C 0.0 **** 0.0
2 H 52.228 77.031 15.391 H 0.0 **** 0.0
3 H 50.629 76.442 14.876 H 0.0 **** 0.0
4 H 50.788 77.396 16.371 H 0.0 **** 0.0
5 H 51.421 75.734 16.304 H 0.0 **** 0.0
@<TRIPOS>BOND
1 1 2 1
2 1 3 1
3 1 4 1
4 1 5 1
@<TRIPOS>MOLECULE
CH4
5 4
SMALL
USER_CHARGES


@<TRIPOS>ATOM
1 C 36.894 47.521 29.572 C 0.0 **** 0.0
2 H 36.832 47.639 28.49 H 0.0 **** 0.0
3 H 36.412 48.369 30.058 H 0.0 **** 0.0
4 H 37.941 47.477 29.873 H 0.0 **** 0.0
5 H 36.392 46.599 29.867 H 0.0 **** 0.0
@<TRIPOS>BOND
1 1 2 1
2 1 3 1
3 1 4 1
4 1 5 1
@<TRIPOS>MOLECULE
CH4
5 4
SMALL
USER_CHARGES


@<TRIPOS>ATOM
1 C 75.036 13.602 15.462 C 0.0 **** 0.0
2 H 76.109 13.772 15.55 H 0.0 **** 0.0
3 H 74.855 12.564 15.181 H 0.0 **** 0.0
4 H 74.625 14.262 14.699 H 0.0 **** 0.0
5 H 74.555 13.808 16.418 H 0.0 **** 0.0
@<TRIPOS>BOND
1 1 2 1
2 1 3 1
3 1 4 1
4 1 5 1
@<TRIPOS>MOLECULE
CH4
5 4
SMALL
USER_CHARGES


@<TRIPOS>ATOM
1 C 91.288 33.606 95.946 C 0.0 **** 0.0
2 H 90.579 33.302 95.175 H 0.0 **** 0.0
3 H 91.346 34.695 95.976 H 0.0 **** 0.0
4 H 92.271 33.196 95.717 H 0.0 **** 0.0
5 H 90.954 33.233 96.914 H 0.0 **** 0.0
@<TRIPOS>BOND
1 1 2 1
2 1 3 1
3 1 4 1
4 1 5 1
@<TRIPOS>MOLECULE
CH4
5 4
SMALL
USER_CHARGES


@<TRIPOS>ATOM
1 C 17.452 26.915 80.015 C 0.0 **** 0.0
2 H 17.327 26.848 78.934 H 0.0 **** 0.0
3 H 17.59 27.958 80.3 H 0.0 **** 0.0
4 H 18.326 26.337 80.316 H 0.0 **** 0.0
5 H 16.566 26.516 80.508 H 0.0 **** 0.0
@<TRIPOS>BOND
1 1 2 1
2 1 3 1
3 1 4 1
4 1 5 1
@<TRIPOS>MOLECULE
CH4
5 4
SMALL
USER_CHARGES


@<TRIPOS>ATOM
1 C 89.137 50.169 35.575 C 0.0 **** 0.0
2 H 89.637 50.051 36.537 H 0.0 **** 0.0
3 H 89.214 51.208 35.252 H 0.0 **** 0.0
4 H 88.087 49.897 35.677 H 0.0 **** 0.0
5 H 89.611 49.522 34.838 H 0.0 **** 0.0
@<TRIPOS>BOND
1 1 2 1
2 1 3 1
3 1 4 1
4 1 5 1
@<TRIPOS>MOLECULE
CH4
5 4
SMALL
USER_CHARGES


@<TRIPOS>ATOM
1 C 64.767 29.342 91.966 C 0.0 **** 0.0
2 H 65.607 29.244 92.653 H 0.0 **** 0.0
3 H 64.048 28.545 92.156 H 0.0 **** 0.0
4 H 65.127 29.27 90.939 H 0.0 **** 0.0
5 H 64.286 30.309 92.115 H 0.0 **** 0.0
@<TRIPOS>BOND
1 1 2 1
2 1 3 1
3 1 4 1
4 1 5 1
@<TRIPOS>MOLECULE
CH4
5 4
SMALL
USER_CHARGES


@<TRIPOS>ATOM
1 C 27.692 42.713 76.77 C 0.0 **** 0.0
2 H 27.387 42.532 77.801 H 0.0 **** 0.0
3 H 27.607 41.789 76.199 H 0.0 **** 0.0
4 H 28.726 43.058 76.753 H 0.0 **** 0.0
5 H 27.047 43.474 76.329 H 0.0 **** 0.0
@<TRIPOS>BOND
1 1 2 1
2 1 3 1
3 1 4 1
4 1 5 1
@<TRIPOS>MOLECULE
CH4
5 4
SMALL
USER_CHARGES


@<TRIPOS>ATOM
1 C 57.907 55.848 89.401 C 0.0 **** 0.0
2 H 58.567 55.591 90.23 H 0.0 **** 0.0
3 H 57.685 56.915 89.431 H 0.0 **** 0.0
4 H 56.98 55.281 89.486 H 0.0 **** 0.0
5 H 58.397 55.604 88.458 H 0.0 **** 0.0
@<TRIPOS>BOND
1 1 2 1
2 1 3 1
3 1 4 1
4 1 5 1
@<TRIPOS>MOLECULE
CH4
5 4
SMALL
USER_CHARGES


@<TRIPOS>ATOM
1 C 45.435 58.036 2.06 C 0.0 **** 0.0
2 H 45.051 59.022 1.802 H 0.0 **** 0.0
3 H 45.73 57.512 1.151 H 0.0 **** 0.0
4 H 44.66 57.467 2.573 H 0.0 **** 0.0
5 H 46.3 58.143 2.715 H 0.0 **** 0.0
@<TRIPOS>BOND
1 1 2 1
2 1 3 1
3 1 4 1
4 1 5 1
@<TRIPOS>MOLECULE
CH4
5 4
SMALL
USER_CHARGES


@<TRIPOS>ATOM
1 C 15.397 80.576 52.2 C 0.0 **** 0.0
2 H 15.889 79.664 52.537 H 0.0 **** 0.0
3 H 14.437 80.325 51.748 H 0.0 **** 0.0
4 H 16.025 81.077 51.464 H 0.0 **** 0.0
5 H 15.236 81.238 53.051 H 0.0 **** 0.0
@<TRIPOS>BOND
1 1 2 1
2 1 3 1
3 1 4 1
4 1 5 1
@<TRIPOS>MOLECULE
CH4
5 4
SMALL
USER_CHARGES


@<TRIPOS>ATOM
1 C 52.852 31.587 3.946 C 0.0 **** 0.0
2 H 53.608 32.294 3.604 H 0.0 **** 0.0
3 H 52.709 31.699 5.021 H 0.0 **** 0.0
4 H 53.181 30.571 3.727 H 0.0 **** 0.0
5 H 51.912 31.783 3.431 H 0.0 **** 0.0
@<TRIPOS>BOND
1 1 2 1
2 1 3 1
3 1 4 1
4 1 5 1
@<TRIPOS>MOLECULE
CH4
5 4
SMALL
USER_CHARGES


@<TRIPOS>ATOM
1 C 13.005 22.18 13.253 C 0.0 **** 0.0
2 H 12.569 22.043 14.242 H 0.0 **** 0.0
3 H 12.215 22.155 12.502 H 0.0 **** 0.0
4 H 13.719 21.38 13.057 H 0.0 **** 0.0
5 H 13.517 23.141 13.211 H 0.0 **** 0.0
@<TRIPOS>BOND
1 1 2 1
2 1 3 1
3 1 4 1
4 1 5 1
@<TRIPOS>MOLECULE
CH4
5 4
SMALL
USER_CHARGES


@<TRIPOS>ATOM
1 C 89.803 73.661 4.495 C 0.0 **** 0.0
2 H 89.87 73.626 3.407 H 0.0 **** 0.0
3 H 88.782 73.906 4.788 H 0.0 **** 0.0
4 H 90.484 74.422 4.876 H 0.0 **** 0.0
5 H 90.076 72.689 4.906 H 0.0 **** 0.0
@<TRIPOS>BOND
1 1 2 1
2 1 3 1
3 1 4 1
4 1 5 1
@<TRIPOS>MOLECULE
CH4
5 4
SMALL
USER_CHARGES


@<TRIPOS>ATOM
1 C 26.879 18.127 95.936 C 0.0 **** 0.0
2 H 27.695 18.506 96.552 H 0.0 **** 0.0
3 H 25.926 18.362 96.41 H 0.0 **** 0.0
4 H 26.976 17.046 95.831 H 0.0 **** 0.0
5 H 26.921 18.593 94.952 H 0.0 **** 0.0
@<TRIPOS>BOND
1 1 2 1
2 1 3 1
3 1 4 1
4 1 5 1
@<TRIPOS>MOLECULE
CH4
5 4
SMALL
USER_CHARGES


@<TRIPOS>ATOM
1 C 70.295 51.869 34.616 C 0.0 **** 0.0
2 H 69.747 52.712 34.195 H 0.0 **** 0.0
3 H 69.622 51.02 34.73 H 0.0 **** 0.0
4 H 70.698 52.148 35.589 H 0.0 **** 0.0
5 H 71.113 51.598 33.948 H 0.0 **** 0.0
@<TRIPOS>BOND
1 1 2 1
2 1 3 1
3 1 4 1
4 1 5 1
@<TRIPOS>MOLECULE
CH4
5 4
SMALL
USER_CHARGES


@<TRIPOS>ATOM
1 C 69.583 45.215 25.702 C 0.0 **** 0.0
2 H 70.168 45.898 26.318 H 0.0 **** 0.0
3 H 69.817 44.186 25.977 H 0.0 **** 0.0
4 H 69.826 45.375 24.652 H 0.0 **** 0.0
5 H 68.521 45.401 25.862 H 0.0 **** 0.0
@<TRIPOS>BOND
1 1 2 1
2 1 3 1
3 1 4 1
4 1 5 1
@<TRIPOS>MOLECULE
CH4
5 4
SMALL
USER_CHARGES


@<TRIPOS>ATOM
1 C 59.885 86.889 42.549 C 0.0 **** 0.0
2 H 59.761 87.535 43.419 H 0.0 **** 0.0
3 H 60.263 87.477 41.712 H 0.0 **** 0.0
4 H 58.923 86.452 42.281 H 0.0 **** 0.0
5 H 60.593 86.095 42.784 H 0.0 **** 0.0
@<TRIPOS>BOND
1 1 2 1
2 1 3 1
3 1 4 1
4 1 5 1
@<TRIPOS>MOLECULE
CH4
5 4
SMALL
USER_CHARGES


@<TRIPOS>ATOM
1 C 92.585 74.649 2.702 C 0.0 **** 0.0
2 H 91.652 74.991 2.254 H 0.0 **** 0.0
3 H 93.021 75.454 3.294 H 0.0 **** 0.0
4 H 93.281 74.358 1.915 H 0.0 **** 0.0
5 H 92.386 73.791 3.345 H 0.0 **** 0.0
@<TRIPOS>BOND
1 1 2 1
2 1 3 1
3 1 4 1
4 1 5 1
@<TRIPOS>MOLECULE
CH4
5 4
SMALL
USER_CHARGES


@<TRIPOS>ATOM
1 C 13.058 24.842 68.973 C 0.0 **** 0.0
2 H 14.013 25.269 68.666 H 0.0 **** 0.0
3 H 13.226 24.103 69.757 H 0.0 **** 0.0
4 H 12.583 24.363 68.117 H 0.0 **** 0.0
5 H 12.412 25.634 69.352 H 0.0 **** 0.0
@<TRIPOS>BOND
1 1 2 1
2 1 3 1
3 1 4 1
4 1 5 1
@<TRIPOS>MOLECULE
CH4
5 4
SMALL
USER_CHARGES


@<TRIPOS>ATOM
1 C 76.062 21.843 23.539 C 0.0 **** 0.0
2 H 75.656 20.903 23.165 H 0.0 **** 0.0
3 H 77.078 21.973 23.168 H 0.0 **** 0.0
4 H 76.072 21.826 24.629 H 0.0 **** 0.0
5 H 75.44 22.669 23.195 H 0.0 **** 0.0
@<TRIPOS>BOND
1 1 2 1
2 1 3 1
3 1 4 1
4 1 5 1
@<TRIPOS>MOLECULE
CH4
5 4
SMALL
USER_CHARGES


@<TRIPOS>ATOM
1 C 69.382 49.706 94.982 C 0.0 **** 0.0
2 H 69.764 49.815 93.967 H 0.0 **** 0.0
3 H 68.815 48.778 95.058 H 0.0 **** 0.0
4 H 68.733 50.549 95.219 H 0.0 **** 0.0
5 H 70.216 49.681 95.683 H 0.0 **** 0.0
@<TRIPOS>BOND
1 1 2 1
2 1 3 1
3 1 4 1
4 1 5 1
@<TRIPOS>MOLECULE
CH4
5 4
SMALL
USER_CHARGES


@<TRIPOS>ATOM
1 C 88.822 84.25 47.926 C 0.0 **** 0.0
2 H 89.208 85.076 48.523 H 0.0 **** 0.0
3 H 89.63 83.826 47.329 H 0.0 **** 0.0
4 H 88.035 84.615 47.266 H 0.0 **** 0.0
5 H 88.416 83.484 48.586 H 0.0 **** 0.0
@<TRIPOS>BOND
1 1 2 1
2 1 3 1
3 1 4 1
4 1 5 1
@<TRIPOS>MOLECULE
CH4
5 4
SMALL
USER_CHARGES


@<TRIPOS>ATOM
1 C 88.425 11.688 89.712 C 0.0 **** 0.0
2 H 88.324 11.399 90.759 H 0.0 **** 0.0
3 H 87.928 10.95 89.082 H 0.0 **** 0.0
4 H 89.482 11.739 89.45 H 0.0 **** 0.0
5 H 87.965 12.665 89.56 H 0.0 **** 0.0
@<TRIPOS>BOND
1 1 2 1
2 1 3 1
3 1 4 1
4 1 5 1
@<TRIPOS>MOLECULE
CH4
5 4
SMALL
USER_CHARGES


@<TRIPOS>ATOM
1 C 57.668 28.974 6.981 C 0.0 **** 0.0
2 H 58.283 28.123 6.687 H 0.0 **** 0.0
3 H 56.969 29.21 6.18 H 0.0 **** 0.0
4 H 58.308 29.836 7.172 H 0.0 **** 0.0
5 H 57.114 28.725 7.886 H 0.0 **** 0.0
@<TRIPOS>BOND
1 1 2 1
2 1 3 1
3 1 4 1
4 1 5 1
@<TRIPOS>MOLECULE
CH4
5 4
SMALL
USER_CHARGES


@<TRIPOS>ATOM
1 C 46.755 69.956 68.131 C 0.0 **** 0.0
2 H 47.09 69.036 68.608 H 0.0 **** 0.0
3 H 46.444 69.742 67.108 H 0.0 **** 0.0
4 H 47.572 70.678 68.119 H 0.0 **** 0.0
5 H 45.914 70.369 68.688 H 0.0 **** 0.0
@<TRIPOS>BOND
1 1 2 1
2 1 3 1
3 1 4 1
4 1 5 1
@<TRIPOS>MOLECULE
CH4
5 4
SMALL
USER_CHARGES


@<TRIPOS>ATOM
1 C 84.856 15.51 95.329 C 0.0 **** 0.0
2 H 84.557 15.72 96.356 H 0.0 **** 0.0
3 H 85.636 16.208 95.028 H 0.0 **** 0.0
4 H 83.994 15.621 94.671 H 0.0 **** 0.0
5 H 85.235 14.49 95.263 H 0.0 **** 0.0
@<TRIPOS>BOND
1 1 2 1
2 1 3 1
3 1 4 1
4 1 5 1
@<TRIPOS>MOLECULE
CH4
5 4
SMALL
USER_CHARGES


@<TRIPOS>ATOM
1 C 66.409 65.782 23.694 C 0.0 **** 0.0
2 H 66.282 64.993 24.435 H 0.0 **** 0.0
3 H 66.036 65.437 22.729 H 0.0 **** 0.0
4 H 67.467 66.031 23.607 H 0.0 **** 0.0
5 H 65.852 66.665 24.005 H 0.0 **** 0.0
@<TRIPOS>BOND
1 1 2 1
2 1 3 1
3 1 4 1
4 1 5 1
@<TRIPOS>MOLECULE
CH4
5 4
SMALL
USER_CHARGES


@<TRIPOS>ATOM
1 C 0.591 57.851 50.199 C 0.0 **** 0.0
2 H 0.0 58.303 50.996 H 0.0 **** 0.0
3 H 0.002 57.081 49.702 H 0.0 **** 0.0
4 H 1.491 57.405 50.623 H 0.0 **** 0.0
5 H 0.872 58.617 49.476 H 0.0 **** 0.0
@<TRIPOS>BOND
1 1 2 1
2 1 3 1
3 1 4 1
4 1 5 1
@<TRIPOS>MOLECULE
CH4
5 4
SMALL
USER_CHARGES


@<TRIPOS>ATOM
1 C 2.992 94.403 34.427 C 0.0 **** 0.0
2 H 3.6 94.47 35.329 H 0.0 **** 0.0
3 H 2.099 93.813 34.635 H 0.0 **** 0.0
4 H 3.568 93.924 33.635 H 0.0 **** 0.0
5 H 2.7 95.404 34.11 H 0.0 **** 0.0
@<TRIPOS>BOND
1 1 2 1
2 1 3 1
3 1 4 1
4 1 5 1
@<TRIPOS>MOLECULE
CH4
5 4
SMALL
USER_CHARGES


@<TRIPOS>ATOM
1 C 85.059 74.756 33.464 C 0.0 **** 0.0
2 H 84.657 74.826 32.453 H 0.0 **** 0.0
3 H 84.312 75.106 34.177 H 0.0 **** 0.0
4 H 85.954 75.374 33.542 H 0.0 **** 0.0
5 H 85.314 73.719 33.683 H 0.0 **** 0.0
@<TRIPOS>BOND
1 1 2 1
2 1 3 1
3 1 4 1
4 1 5 1
@<TRIPOS>MOLECULE
CH4
5 4
SMALL
USER_CHARGES


@<TRIPOS>ATOM
1 C 44.329 83.727 17.168 C 0.0 **** 0.0
2 H 43.99 84.146 16.221 H 0.0 **** 0.0
3 H 43.6 83.0 17.526 H 0.0 **** 0.0
4 H 44.434 84.527 17.902 H 0.0 **** 0.0
5 H 45.292 83.237 17.025 H 0.0 **** 0.0
@<TRIPOS>BOND
1 1 2 1
2 1 3 1
3 1 4 1
4 1 5 1
@<TRIPOS>MOLECULE
CH4
5 4
SMALL
USER_CHARGES


@<TRIPOS>ATOM
1 C 97.028 6.0 37.509 C 0.0 **** 0.0
2 H 96.887 7.063 37.31 H 0.0 **** 0.0
3 H 96.715 5.423 36.639 H 0.0 **** 0.0
4 H 96.428 5.71 38.372 H 0.0 **** 0.0
5 H 98.08 5.806 37.716 H 0.0 **** 0.0
@<TRIPOS>BOND
1 1 2 1
2 1 3 1
3 1 4 1
4 1 5 1
@<TRIPOS>MOLECULE
CH4
5 4
SMALL
USER_CHARGES


@<TRIPOS>ATOM
1 C 40.117 23.881 40.355 C 0.0 **** 0.0
2 H 40.29 23.787 41.427 H 0.0 **** 0.0
3 H 39.47 24.738 40.166 H 0.0 **** 0.0
4 H 39.638 22.975 39.983 H 0.0 **** 0.0
5 H 41.069 24.025 39.844 H 0.0 **** 0.0
@<TRIPOS>BOND
1 1 2 1
2 1 3 1
3 1 4 1
4 1 5 1
@<TRIPOS>MOLECULE
CH4
5 4
SMALL
USER_CHARGES


@<TRIPOS>ATOM
1 C 1.046 70.118 14.206 C 0.0 **** 0.0
2 H 2.119 69.931 14.255 H 0.0 **** 0.0
3 H 0.729 70.649 15.104 H 0.0 **** 0.0
4 H 0.514 69.169 14.139 H 0.0 **** 0.0
5 H 0.822 70.724 13.328 H 0.0 **** 0.0
@<TRIPOS>BOND
1 1 2 1
2 1 3 1
3 1 4 1
4 1 5 1
@<TRIPOS>MOLECULE
CH4
5 4
SMALL
USER_CHARGES


@<TRIPOS>ATOM
1 C 53.609 57.843 75.979 C 0.0 **** 0.0
2 H 54.396 58.35 75.421 H 0.0 **** 0.0
3 H 53.811 57.924 77.047 H 0.0 **** 0.0
4 H 53.582 56.791 75.693 H 0.0 **** 0.0
5 H 52.648 58.306 75.753 H 0.0 **** 0.0
@<TRIPOS>BOND
1 1 2 1
2 1 3 1
3 1 4 1
4 1 5 1
@<TRIPOS>MOLECULE
CH4
5 4
SMALL
USER_CHARGES


@<TRIPOS>ATOM
1 C 29.441 6.707 59.221 C 0.0 **** 0.0
2 H 28.858 6.474 60.112 H 0.0 **** 0.0
3 H 29.937 5.804 58.865 H 0.0 **** 0.0
4 H 30.19 7.461 59.465 H 0.0 **** 0.0
5 H 28.779 7.09 58.444 H 0.0 **** 0.0
@<TRIPOS>BOND
1 1 2 1
2 1 3 1
3 1 4 1
4 1 5 1
@<TRIPOS>MOLECULE
CH4
5 4
SMALL
USER_CHARGES


@<TRIPOS>ATOM
1 C 15.01 93.82 6.961 C 0.0 **** 0.0
2 H 14.052 93.324 6.803 H 0.0 **** 0.0
3 H 15.318 94.316 6.041 H 0.0 **** 0.0
4 H 15.759 93.08 7.244 H 0.0 **** 0.0
5 H 14.909 94.558 7.757 H 0.0 **** 0.0
@<TRIPOS>BOND
1 1 2 1
2 1 3 1
3 1 4 1
4 1 5 1
@<TRIPOS>MOLECULE
CH4
5 4
SMALL
USER_CHARGES


@<TRIPOS>ATOM
1 C 81.743 88.89 45.476 C 0.0 **** 0.0
2 H 81.455 89.902 45.19 H 0.0 **** 0.0
3 H 80.908 88.404 45.981 H 0.0 **** 0.0
4 H 82.599 88.934 46.149 H 0.0 **** 0.0
5 H 82.01 88.323 44.585 H 0.0 **** 0.0
@<TRIPOS>BOND
1 1 2 1
2 1 3 1
3 1 4 1
4 1 5 1
@<TRIPOS>MOLECULE
CH4
5 4
SMALL
USER_CHARGES


@<TRIPOS>ATOM
1 C 23.171 25.085 72.885 C 0.0 **** 0.0
2 H 22.931 24.804 71.86 H 0.0 **** 0.0
3 H 22.751 26.068 73.1 H 0.0 **** 0.0
4 H 24.254 25.118 73.008 H 0.0 **** 0.0
5 H 22.749 24.351 73.572 H 0.0 **** 0.0
@<TRIPOS>BOND
1 1 2 1
2 1 3 1
3 1 4 1
4 1 5 1
@<TRIPOS>MOLECULE
CH4
5 4
SMALL
USER_CHARGES


@<TRIPOS>ATOM
1 C 30.169 45.941 34.485 C 0.0 **** 0.0
2 H 30.163 45.973 35.575 H 0.0 **** 0.0
3 H 29.176 45.671 34.124 H 0.0 **** 0.0
4 H 30.893 45.2 34.148 H 0.0 **** 0.0
5 H 30.444 46.921 34.095 H 0.0 **** 0.0
@<TRIPOS>BOND
1 1 2 1
2 1 3 1
3 1 4 1
4 1 5 1
@<TRIPOS>MOLECULE
CH4
5 4
SMALL
USER_CHARGES


@<TRIPOS>ATOM
1 C 57.111 29.067 38.934 C 0.0 **** 0.0
2 H 57.241 30.115 38.664 H 0.0 **** 0.0
3 H 56.383 28.607 38.265 H 0.0 **** 0.0
4 H 56.754 28.999 39.962 H 0.0 **** 0.0
5 H 58.065 28.548 38.846 H 0.0 **** 0.0
@<TRIPOS>BOND
1 1 4 1
2 1 5 1
3 1 2 1
4 1 3 1
@<TRIPOS>MOLECULE
CH4
5 4
SMALL
USER_CHARGES


@<TRIPOS>ATOM
1 C 67.128 29.333 42.204 C 0.0 **** 0.0
2 H 66.111 29.327 42.597 H 0.0 **** 0.0
3 H 67.256 28.496 41.517 H 0.0 **** 0.0
4 H 67.836 29.24 43.027 H 0.0 **** 0.0
5 H 67.306 30.269 41.674 H 0.0 **** 0.0
@<TRIPOS>BOND
1 1 2 1
2 1 3 1
3 1 4 1
4 1 5 1
@<TRIPOS>MOLECULE
CH4
5 4
SMALL
USER_CHARGES


@<TRIPOS>ATOM
1 C 52.661 48.905 33.518 C 0.0 **** 0.0
2 H 52.922 49.415 34.445 H 0.0 **** 0.0
3 H 51.68 49.243 33.181 H 0.0 **** 0.0
4 H 52.636 47.829 33.689 H 0.0 **** 0.0
5 H 53.406 49.134 32.755 H 0.0 **** 0.0
@<TRIPOS>BOND
1 1 2 1
2 1 3 1
3 1 4 1
4 1 5 1
@<TRIPOS>MOLECULE
CH4
5 4
SMALL
USER_CHARGES


@<TRIPOS>ATOM
1 C 20.165 5.276 2.464 C 0.0 **** 0.0
2 H 20.133 6.102 1.754 H 0.0 **** 0.0
3 H 21.202 4.99 2.643 H 0.0 **** 0.0
4 H 19.619 4.425 2.056 H 0.0 **** 0.0
5 H 19.705 5.586 3.402 H 0.0 **** 0.0
@<TRIPOS>BOND
1 1 2 1
2 1 3 1
3 1 4 1
4 1 5 1
@<TRIPOS>MOLECULE
CH4
5 4
SMALL
USER_CHARGES


@<TRIPOS>ATOM
1 C 76.528 97.229 59.545 C 0.0 **** 0.0
2 H 75.686 97.873 59.8 H 0.0 **** 0.0
3 H 76.658 97.214 58.462 H 0.0 **** 0.0
4 H 76.332 96.218 59.901 H 0.0 **** 0.0
5 H 77.433 97.612 60.015 H 0.0 **** 0.0
@<TRIPOS>BOND
1 1 2 1
2 1 3 1
3 1 4 1
4 1 5 1
@<TRIPOS>MOLECULE
CH4
5 4
SMALL
USER_CHARGES


@<TRIPOS>ATOM
1 C 16.421 56.478 63.028 C 0.0 **** 0.0
2 H 16.325 56.494 61.942 H 0.0 **** 0.0
3 H 15.71 55.765 63.444 H 0.0 **** 0.0
4 H 16.213 57.472 63.424 H 0.0 **** 0.0
5 H 17.434 56.183 63.299 H 0.0 **** 0.0
@<TRIPOS>BOND
1 1 2 1
2 1 3 1
3 1 4 1
4 1 5 1
@<TRIPOS>MOLECULE
CH4
5 4
SMALL
USER_CHARGES


@<TRIPOS>ATOM
1 C 69.298 19.633 23.157 C 0.0 **** 0.0
2 H 69.388 20.408 22.397 H 0.0 **** 0.0
3 H 69.288 18.654 22.678 H 0.0 **** 0.0
4 H 68.37 19.775 23.712 H 0.0 **** 0.0
5 H 70.144 19.695 23.841 H 0.0 **** 0.0
@<TRIPOS>BOND
1 1 2 1
2 1 3 1
3 1 4 1
4 1 5 1
@<TRIPOS>MOLECULE
CH4
5 4
SMALL
USER_CHARGES


@<TRIPOS>ATOM
1 C 77.03 41.279 4.63 C 0.0 **** 0.0
2 H 76.786 41.646 3.633 H 0.0 **** 0.0
3 H 76.915 42.086 5.353 H 0.0 **** 0.0
4 H 78.06 40.922 4.643 H 0.0 **** 0.0
5 H 76.359 40.46 4.889 H 0.0 **** 0.0
@<TRIPOS>BOND
1 1 2 1
2 1 3 1
3 1 4 1
4 1 5 1
@<TRIPOS>MOLECULE
CH4
5 4
SMALL
USER_CHARGES


@<TRIPOS>ATOM
1 C 22.349 15.453 77.662 C 0.0 **** 0.0
2 H 22.462 15.851 78.671 H 0.0 **** 0.0
3 H 23.244 15.679 77.081 H 0.0 **** 0.0
4 H 21.481 15.91 77.187 H 0.0 **** 0.0
5 H 22.211 14.373 77.712 H 0.0 **** 0.0
@<TRIPOS>BOND
1 1 2 1
2 1 3 1
3 1 4 1
4 1 5 1
@<TRIPOS>MOLECULE
CH4
5 4
SMALL
USER_CHARGES


@<TRIPOS>ATOM
1 C 89.485 45.06 93.602 C 0.0 **** 0.0
2 H 90.495 44.781 93.903 H 0.0 **** 0.0
3 H 88.763 44.444 94.138 H 0.0 **** 0.0
4 H 89.37 44.906 92.529 H 0.0 **** 0.0
5 H 89.313 46.11 93.838 H 0.0 **** 0.0
@<TRIPOS>BOND
1 1 2 1
2 1 3 1
3 1 4 1
4 1 5 1
@<TRIPOS>MOLECULE
CH4
5 4
SMALL
USER_CHARGES


@<TRIPOS>ATOM
1 C 3.287 45.8 80.827 C 0.0 **** 0.0
2 H 2.966 45.619 81.853 H 0.0 **** 0.0
3 H 3.378 46.873 80.659 H 0.0 **** 0.0
4 H 2.551 45.385 80.138 H 0.0 **** 0.0
5 H 4.252 45.322 80.659 H 0.0 **** 0.0
@<TRIPOS>BOND
1 1 2 1
2 1 3 1
3 1 4 1
4 1 5 1
@<TRIPOS>MOLECULE
CH4
5 4
SMALL
USER_CHARGES


@<TRIPOS>ATOM
1 C 39.289 62.443 27.68 C 0.0 **** 0.0
2 H 39.656 62.314 26.663 H 0.0 **** 0.0
3 H 39.571 63.431 28.045 H 0.0 **** 0.0
4 H 39.725 61.68 28.324 H 0.0 **** 0.0
5 H 38.203 62.349 27.689 H 0.0 **** 0.0
@<TRIPOS>BOND
1 1 2 1
2 1 3 1
3 1 4 1
4 1 5 1
@<TRIPOS>MOLECULE
CH4
5 4
SMALL
USER_CHARGES


@<TRIPOS>ATOM
1 C 71.181 67.887 88.352 C 0.0 **** 0.0
2 H 71.115 68.223 89.386 H 0.0 **** 0.0
3 H 70.257 68.135 87.83 H 0.0 **** 0.0
4 H 71.334 66.808 88.329 H 0.0 **** 0.0
5 H 72.02 68.382 87.862 H 0.0 **** 0.0
@<TRIPOS>BOND
1 1 2 1
2 1 3 1
3 1 4 1
4 1 5 1
@<TRIPOS>MOLECULE
CH4
5 4
SMALL
USER_CHARGES


@<TRIPOS>ATOM
1 C 92.532 90.436 96.296 C 0.0 **** 0.0
2 H 92.887 90.738 95.311 H 0.0 **** 0.0
3 H 92.758 91.221 97.019 H 0.0 **** 0.0
4 H 93.028 89.513 96.594 H 0.0 **** 0.0
5 H 91.454 90.275 96.26 H 0.0 **** 0.0
@<TRIPOS>BOND
1 1 2 1
2 1 3 1
3 1 4 1
4 1 5 1
@<TRIPOS>MOLECULE
CH4
5 4
SMALL
USER_CHARGES


@<TRIPOS>ATOM
1 C 86.964 59.512 43.847 C 0.0 **** 0.0
2 H 86.615 58.707 43.2 H 0.0 **** 0.0
3 H 87.341 59.091 44.779 H 0.0 **** 0.0
4 H 86.138 60.19 44.062 H 0.0 **** 0.0
5 H 87.763 60.06 43.346 H 0.0 **** 0.0
@<TRIPOS>BOND
1 1 2 1
2 1 3 1
3 1 4 1
4 1 5 1
@<TRIPOS>MOLECULE
CH4
5 4
SMALL
USER_CHARGES


@<TRIPOS>ATOM
1 C 35.811 95.006 2.019 C 0.0 **** 0.0
2 H 35.808 95.008 3.109 H 0.0 **** 0.0
3 H 35.784 93.978 1.658 H 0.0 **** 0.0
4 H 36.716 95.494 1.658 H 0.0 **** 0.0
5 H 34.937 95.544 1.653 H 0.0 **** 0.0
@<TRIPOS>BOND
1 1 2 1
2 1 3 1
3 1 4 1
4 1 5 1
@<TRIPOS>MOLECULE
CH4
5 4
SMALL
USER_CHARGES


@<TRIPOS>ATOM
1 C 5.136 82.554 35.459 C 0.0 **** 0.0
2 H 5.219 81.977 36.38 H 0.0 **** 0.0
3 H 6.052 82.442 34.877 H 0.0 **** 0.0
4 H 4.986 83.606 35.702 H 0.0 **** 0.0
5 H 4.289 82.191 34.878 H 0.0 **** 0.0
@<TRIPOS>BOND
1 1 2 1
2 1 3 1
3 1 4 1
4 1 5 1
@<TRIPOS>MOLECULE
CH4
5 4
SMALL
USER_CHARGES


@<TRIPOS>ATOM
1 C 90.472 32.041 43.814 C 0.0 **** 0.0
2 H 90.405 31.999 44.901 H 0.0 **** 0.0
3 H 89.476 32.183 43.394 H 0.0 **** 0.0
4 H 90.894 31.108 43.44 H 0.0 **** 0.0
5 H 91.112 32.873 43.522 H 0.0 **** 0.0
@<TRIPOS>BOND
1 1 3 1
2 1 4 1
3 1 5 1
4 1 2 1
@<TRIPOS>MOLECULE
CH4
5 4
SMALL
USER_CHARGES


@<TRIPOS>ATOM
1 C 42.353 47.82 9.27 C 0.0 **** 0.0
2 H 42.116 47.16 8.437 H 0.0 **** 0.0
3 H 43.376 47.635 9.601 H 0.0 **** 0.0
4 H 41.664 47.629 10.093 H 0.0 **** 0.0
5 H 42.258 48.858 8.95 H 0.0 **** 0.0
@<TRIPOS>BOND
1 1 2 1
2 1 3 1
3 1 4 1
4 1 5 1
@<TRIPOS>MOLECULE
CH4
5 4
SMALL
USER_CHARGES


@<TRIPOS>ATOM
1 C 42.206 64.423 29.191 C 0.0 **** 0.0
2 H 41.801 65.413 28.985 H 0.0 **** 0.0
3 H 43.028 64.507 29.902 H 0.0 **** 0.0
4 H 42.571 63.98 28.264 H 0.0 **** 0.0
5 H 41.423 63.791 29.612 H 0.0 **** 0.0
@<TRIPOS>BOND
1 1 2 1
2 1 3 1
3 1 4 1
4 1 5 1
@<TRIPOS>MOLECULE
CH4
5 4
SMALL
USER_CHARGES


@<TRIPOS>ATOM
1 C 19.131 57.894 31.775 C 0.0 **** 0.0
2 H 18.989 58.879 32.22 H 0.0 **** 0.0
3 H 19.791 57.301 32.409 H 0.0 **** 0.0
4 H 19.577 58.003 30.787 H 0.0 **** 0.0
5 H 18.167 57.394 31.685 H 0.0 **** 0.0
@<TRIPOS>BOND
1 1 2 1
2 1 3 1
3 1 4 1
4 1 5 1
@<TRIPOS>MOLECULE
CH4
5 4
SMALL
USER_CHARGES


@<TRIPOS>ATOM
1 C 4.408 61.064 16.573 C 0.0 **** 0.0
2 H 4.178 62.057 16.958 H 0.0 **** 0.0
3 H 4.314 61.065 15.486 H 0.0 **** 0.0
4 H 3.713 60.34 16.997 H 0.0 **** 0.0
5 H 5.427 60.794 16.849 H 0.0 **** 0.0
@<TRIPOS>BOND
1 1 2 1
2 1 3 1
3 1 4 1
4 1 5 1
@<TRIPOS>MOLECULE
CH4
5 4
SMALL
USER_CHARGES


@<TRIPOS>ATOM
1 C 70.606 15.032 54.463 C 0.0 **** 0.0
2 H 71.209 15.764 53.924 H 0.0 **** 0.0
3 H 69.637 14.932 53.975 H 0.0 **** 0.0
4 H 70.464 15.366 55.491 H 0.0 **** 0.0
5 H 71.117 14.069 54.46 H 0.0 **** 0.0
@<TRIPOS>BOND
1 1 2 1
2 1 3 1
3 1 4 1
4 1 5 1
@<TRIPOS>MOLECULE
CH4
5 4
SMALL
USER_CHARGES


@<TRIPOS>ATOM
1 C 60.791 87.34 95.461 C 0.0 **** 0.0
2 H 61.647 87.874 95.05 H 0.0 **** 0.0
3 H 61.135 86.438 95.968 H 0.0 **** 0.0
4 H 60.112 87.066 94.654 H 0.0 **** 0.0
5 H 60.27 87.981 96.173 H 0.0 **** 0.0
@<TRIPOS>BOND
1 1 2 1
2 1 3 1
3 1 4 1
4 1 5 1
@<TRIPOS>MOLECULE
CH4
5 4
SMALL
USER_CHARGES


@<TRIPOS>ATOM
1 C 12.112 92.037 94.509 C 0.0 **** 0.0
2 H 12.559 92.951 94.118 H 0.0 **** 0.0
3 H 12.657 91.174 94.125 H 0.0 **** 0.0
4 H 11.07 91.978 94.194 H 0.0 **** 0.0
5 H 12.163 92.044 95.598 H 0.0 **** 0.0
@<TRIPOS>BOND
1 1 2 1
2 1 3 1
3 1 4 1
4 1 5 1
@<TRIPOS>MOLECULE
CH4
5 4
SMALL
USER_CHARGES


@<TRIPOS>ATOM
1 C 44.024 16.481 68.706 C 0.0 **** 0.0
2 H 42.939 16.413 68.625 H 0.0 **** 0.0
3 H 44.479 15.626 68.208 H 0.0 **** 0.0
4 H 44.309 16.484 69.758 H 0.0 **** 0.0
5 H 44.366 17.402 68.235 H 0.0 **** 0.0
@<TRIPOS>BOND
1 1 2 1
2 1 3 1
3 1 4 1
4 1 5 1
@<TRIPOS>MOLECULE
CH4
5 4
SMALL
USER_CHARGES


@<TRIPOS>ATOM
1 C 96.266 96.528 79.287 C 0.0 **** 0.0
2 H 96.335 97.307 78.528 H 0.0 **** 0.0
3 H 97.172 96.531 79.895 H 0.0 **** 0.0
4 H 96.157 95.557 78.803 H 0.0 **** 0.0
5 H 95.401 96.716 79.923 H 0.0 **** 0.0
@<TRIPOS>BOND
1 1 2 1
2 1 3 1
3 1 4 1
4 1 5 1
@<TRIPOS>MOLECULE
CH4
5 4
SMALL
USER_CHARGES


@<TRIPOS>ATOM
1 C 12.329 18.514 11.905 C 0.0 **** 0.0
2 H 12.924 17.834 11.295 H 0.0 **** 0.0
3 H 11.273 18.393 11.659 H 0.0 **** 0.0
4 H 12.633 19.542 11.704 H 0.0 **** 0.0
5 H 12.485 18.289 12.959 H 0.0 **** 0.0
@<TRIPOS>BOND
1 1 2 1
2 1 3 1
3 1 4 1
4 1 5 1
@<TRIPOS>MOLECULE
CH4
5 4
SMALL
USER_CHARGES


@<TRIPOS>ATOM
1 C 13.354 27.359 6.314 C 0.0 **** 0.0
2 H 12.458 27.667 5.774 H 0.0 **** 0.0
3 H 14.236 27.592 5.716 H 0.0 **** 0.0
4 H 13.314 26.286 6.5 H 0.0 **** 0.0
5 H 13.407 27.891 7.263 H 0.0 **** 0.0
@<TRIPOS>BOND
1 1 2 1
2 1 3 1
3 1 4 1
4 1 5 1
@<TRIPOS>MOLECULE
CH4
5 4
SMALL
USER_CHARGES


@<TRIPOS>ATOM
1 C 46.997 92.909 40.282 C 0.0 **** 0.0
2 H 46.771 92.329 41.177 H 0.0 **** 0.0
3 H 46.477 92.476 39.428 H 0.0 **** 0.0
4 H 48.072 92.892 40.101 H 0.0 **** 0.0
5 H 46.669 93.939 40.424 H 0.0 **** 0.0
@<TRIPOS>BOND
1 1 2 1
2 1 3 1
3 1 4 1
4 1 5 1
@<TRIPOS>MOLECULE
CH4
5 4
SMALL
USER_CHARGES


@<TRIPOS>ATOM
1 C 54.131 8.787 31.538 C 0.0 **** 0.0
2 H 54.441 8.59 32.564 H 0.0 **** 0.0
3 H 55.002 8.752 30.883 H 0.0 **** 0.0
4 H 53.672 9.774 31.481 H 0.0 **** 0.0
5 H 53.41 8.032 31.225 H 0.0 **** 0.0
@<TRIPOS>BOND
1 1 2 1
2 1 3 1
3 1 4 1
4 1 5 1
@<TRIPOS>MOLECULE
CH4
5 4
SMALL
USER_CHARGES


@<TRIPOS>ATOM
1 C 66.252 12.14 83.985 C 0.0 **** 0.0
2 H 65.918 12.418 84.984 H 0.0 **** 0.0
3 H 66.491 13.04 83.418 H 0.0 **** 0.0
4 H 65.459 11.59 83.477 H 0.0 **** 0.0
5 H 67.139 11.511 84.06 H 0.0 **** 0.0
@<TRIPOS>BOND
1 1 2 1
2 1 3 1
3 1 4 1
4 1 5 1
@<TRIPOS>MOLECULE
CH4
5 4
SMALL
USER_CHARGES


@<TRIPOS>ATOM
1 C 80.654 16.117 43.973 C 0.0 **** 0.0
2 H 80.131 15.933 44.912 H 0.0 **** 0.0
3 H 79.926 16.236 43.17 H 0.0 **** 0.0
4 H 81.308 15.275 43.75 H 0.0 **** 0.0
5 H 81.249 17.026 44.062 H 0.0 **** 0.0
@<TRIPOS>BOND
1 1 2 1
2 1 3 1
3 1 4 1
4 1 5 1
@<TRIPOS>MOLECULE
CH4
5 4
SMALL
USER_CHARGES


@<TRIPOS>ATOM
1 C 68.289 27.352 0.851 C 0.0 **** 0.0
2 H 68.774 28.295 1.103 H 0.0 **** 0.0
3 H 68.21 26.734 1.745 H 0.0 **** 0.0
4 H 68.88 26.83 0.098 H 0.0 **** 0.0
5 H 67.293 27.551 0.457 H 0.0 **** 0.0
@<TRIPOS>BOND
1 1 2 1
2 1 3 1
3 1 4 1
4 1 5 1
@<TRIPOS>MOLECULE
CH4
5 4
SMALL
USER_CHARGES


@<TRIPOS>ATOM
1 C 51.829 44.144 18.307 C 0.0 **** 0.0
2 H 52.325 44.195 19.276 H 0.0 **** 0.0
3 H 51.973 43.153 17.877 H 0.0 **** 0.0
4 H 52.256 44.894 17.641 H 0.0 **** 0.0
5 H 50.764 44.335 18.434 H 0.0 **** 0.0
@<TRIPOS>BOND
1 1 2 1
2 1 3 1
3 1 4 1
4 1 5 1
@<TRIPOS>MOLECULE
CH4
5 4
SMALL
USER_CHARGES


@<TRIPOS>ATOM
1 C 93.981 57.529 88.797 C 0.0 **** 0.0
2 H 95.018 57.832 88.655 H 0.0 **** 0.0
3 H 93.941 56.684 89.486 H 0.0 **** 0.0
4 H 93.553 57.237 87.838 H 0.0 **** 0.0
5 H 93.412 58.362 89.211 H 0.0 **** 0.0
@<TRIPOS>BOND
1 1 2 1
2 1 3 1
3 1 4 1
4 1 5 1
@<TRIPOS>MOLECULE
CH4
5 4
SMALL
USER_CHARGES


@<TRIPOS>ATOM
1 C 25.726 89.013 79.872 C 0.0 **** 0.0
2 H 26.055 88.224 79.197 H 0.0 **** 0.0
3 H 24.922 89.581 79.403 H 0.0 **** 0.0
4 H 26.563 89.678 80.088 H 0.0 **** 0.0
5 H 25.366 88.57 80.801 H 0.0 **** 0.0
@<TRIPOS>BOND
1 1 2 1
2 1 3 1
3 1 4 1
4 1 5 1
@<TRIPOS>MOLECULE
CH4
5 4
SMALL
USER_CHARGES


@<TRIPOS>ATOM
1 C 76.647 74.829 22.918 C 0.0 **** 0.0
2 H 77.409 75.603 22.834 H 0.0 **** 0.0
3 H 76.939 74.115 23.688 H 0.0 **** 0.0
4 H 76.546 74.313 21.963 H 0.0 **** 0.0
5 H 75.694 75.285 23.187 H 0.0 **** 0.0
@<TRIPOS>BOND
1 1 2 1
2 1 3 1
3 1 4 1
4 1 5 1
@<TRIPOS>MOLECULE
CH4
5 4
SMALL
USER_CHARGES


@<TRIPOS>ATOM
1 C 38.893 75.075 38.025 C 0.0 **** 0.0
2 H 39.883 75.202 38.463 H 0.0 **** 0.0
3 H 38.943 74.34 37.222 H 0.0 **** 0.0
4 H 38.547 76.028 37.625 H 0.0 **** 0.0
5 H 38.199 74.73 38.792 H 0.0 **** 0.0
@<TRIPOS>BOND
1 1 2 1
2 1 3 1
3 1 4 1
4 1 5 1
@<TRIPOS>MOLECULE
CH4
5 4
SMALL
USER_CHARGES


@<TRIPOS>ATOM
1 C 4.257 72.881 90.494 C 0.0 **** 0.0
2 H 4.095 72.851 91.571 H 0.0 **** 0.0
3 H 4.028 71.905 90.065 H 0.0 **** 0.0
4 H 5.298 73.131 90.29 H 0.0 **** 0.0
5 H 3.608 73.635 90.05 H 0.0 **** 0.0
@<TRIPOS>BOND
1 1 2 1
2 1 3 1
3 1 4 1
4 1 5 1
@<TRIPOS>MOLECULE
CH4
5 4
SMALL
USER_CHARGES


@<TRIPOS>ATOM
1 C 87.583 62.514 68.81 C 0.0 **** 0.0
2 H 87.161 63.234 68.109 H 0.0 **** 0.0
3 H 88.609 62.283 68.52 H 0.0 **** 0.0
4 H 86.987 61.601 68.797 H 0.0 **** 0.0
5 H 87.576 62.938 69.814 H 0.0 **** 0.0
@<TRIPOS>BOND
1 1 2 1
2 1 3 1
3 1 4 1
4 1 5 1
@<TRIPOS>MOLECULE
CH4
5 4
SMALL
USER_CHARGES


@<TRIPOS>ATOM
1 C 43.405 76.381 84.547 C 0.0 **** 0.0
2 H 42.851 76.897 85.331 H 0.0 **** 0.0
3 H 44.411 76.795 84.481 H 0.0 **** 0.0
4 H 42.894 76.513 83.594 H 0.0 **** 0.0
5 H 43.464 75.319 84.784 H 0.0 **** 0.0
@<TRIPOS>BOND
1 1 2 1
2 1 3 1
3 1 4 1
4 1 5 1
@<TRIPOS>MOLECULE
CH4
5 4
SMALL
USER_CHARGES


@<TRIPOS>ATOM
1 C 55.327 63.45 51.414 C 0.0 **** 0.0
2 H 55.05 63.919 52.358 H 0.0 **** 0.0
3 H 55.412 62.372 51.554 H 0.0 **** 0.0
4 H 56.284 63.85 51.077 H 0.0 **** 0.0
5 H 54.562 63.66 50.666 H 0.0 **** 0.0
@<TRIPOS>BOND
1 1 2 1
2 1 3 1
3 1 4 1
4 1 5 1
@<TRIPOS>MOLECULE
CH4
5 4
SMALL
USER_CHARGES


@<TRIPOS>ATOM
1 C 47.913 38.175 79.335 C 0.0 **** 0.0
2 H 47.012 37.936 78.771 H 0.0 **** 0.0
3 H 47.654 38.332 80.383 H 0.0 **** 0.0
4 H 48.365 39.081 78.932 H 0.0 **** 0.0
5 H 48.62 37.35 79.255 H 0.0 **** 0.0
@<TRIPOS>BOND
1 1 2 1
2 1 3 1
3 1 4 1
4 1 5 1
@<TRIPOS>MOLECULE
CH4
5 4
SMALL
USER_CHARGES


@<TRIPOS>ATOM
1 C 19.253 44.149 39.263 C 0.0 **** 0.0
2 H 19.566 44.685 38.368 H 0.0 **** 0.0
3 H 19.751 43.179 39.298 H 0.0 **** 0.0
4 H 18.173 44.003 39.241 H 0.0 **** 0.0
5 H 19.523 44.728 40.146 H 0.0 **** 0.0
@<TRIPOS>BOND
1 1 2 1
2 1 3 1
3 1 4 1
4 1 5 1
@<TRIPOS>MOLECULE
CH4
5 4
SMALL
USER_CHARGES


@<TRIPOS>ATOM
1 C 41.877 63.807 13.213 C 0.0 **** 0.0
2 H 41.826 63.991 12.14 H 0.0 **** 0.0
3 H 41.025 63.201 13.519 H 0.0 **** 0.0
4 H 41.857 64.758 13.746 H 0.0 **** 0.0
5 H 42.802 63.28 13.447 H 0.0 **** 0.0
@<TRIPOS>BOND
1 1 2 1
2 1 3 1
3 1 4 1
4 1 5 1
@<TRIPOS>MOLECULE
CH4
5 4
SMALL
USER_CHARGES


@<TRIPOS>ATOM
1 C 41.666 56.042 28.638 C 0.0 **** 0.0
2 H 42.755 56.072 28.652 H 0.0 **** 0.0
3 H 41.29 56.023 29.661 H 0.0 **** 0.0
4 H 41.334 55.147 28.111 H 0.0 **** 0.0
5 H 41.285 56.927 28.127 H 0.0 **** 0.0
@<TRIPOS>BOND
1 1 2 1
2 1 3 1
3 1 4 1
4 1 5 1
@<TRIPOS>MOLECULE
CH4
5 4
SMALL
USER_CHARGES


@<TRIPOS>ATOM
1 C 39.82 48.2 22.551 C 0.0 **** 0.0
2 H 39.777 48.857 23.419 H 0.0 **** 0.0
3 H 40.537 47.4 22.736 H 0.0 **** 0.0
4 H 40.133 48.773 21.678 H 0.0 **** 0.0
5 H 38.835 47.772 22.37 H 0.0 **** 0.0
@<TRIPOS>BOND
1 1 2 1
2 1 3 1
3 1 4 1
4 1 5 1
@<TRIPOS>MOLECULE
CH4
5 4
SMALL
USER_CHARGES


@<TRIPOS>ATOM
1 C 67.374 45.076 29.396 C 0.0 **** 0.0
2 H 66.861 45.239 30.344 H 0.0 **** 0.0
3 H 67.977 45.952 29.154 H 0.0 **** 0.0
4 H 66.637 44.913 28.609 H 0.0 **** 0.0
5 H 68.018 44.201 29.477 H 0.0 **** 0.0
@<TRIPOS>BOND
1 1 2 1
2 1 3 1
3 1 4 1
4 1 5 1
@<TRIPOS>MOLECULE
CH4
5 4
SMALL
USER_CHARGES


@<TRIPOS>ATOM
1 C 0.493 22.723 52.663 C 0.0 **** 0.0
2 H 0.027 23.652 52.336 H 0.0 **** 0.0
3 H 0.02 22.385 53.586 H 0.0 **** 0.0
4 H 1.555 22.892 52.839 H 0.0 **** 0.0
5 H 0.368 21.963 51.892 H 0.0 **** 0.0
@<TRIPOS>BOND
1 1 2 1
2 1 3 1
3 1 4 1
4 1 5 1
@<TRIPOS>MOLECULE
CH4
5 4
SMALL
USER_CHARGES


@<TRIPOS>ATOM
1 C 61.042 57.225 1.048 C 0.0 **** 0.0
2 H 61.779 57.966 1.356 H 0.0 **** 0.0
3 H 61.047 56.394 1.754 H 0.0 **** 0.0
4 H 61.29 56.858 0.052 H 0.0 **** 0.0
5 H 60.053 57.682 1.032 H 0.0 **** 0.0
@<TRIPOS>BOND
1 1 3 1
2 1 2 1
3 1 4 1
4 1 5 1
@<TRIPOS>MOLECULE
CH4
5 4
SMALL
USER_CHARGES


@<TRIPOS>ATOM
1 C 60.693 24.985 3.347 C 0.0 **** 0.0
2 H 59.708 25.17 2.918 H 0.0 **** 0.0
3 H 61.347 24.562 2.584 H 0.0 **** 0.0
4 H 60.601 24.285 4.177 H 0.0 **** 0.0
5 H 61.114 25.923 3.708 H 0.0 **** 0.0
@<TRIPOS>BOND
1 1 2 1
2 1 3 1
3 1 4 1
4 1 5 1
@<TRIPOS>MOLECULE
CH4
5 4
SMALL
USER_CHARGES


@<TRIPOS>ATOM
1 C 6.872 41.208 5.918 C 0.0 **** 0.0
2 H 6.437 42.029 6.487 H 0.0 **** 0.0
3 H 7.619 40.699 6.527 H 0.0 **** 0.0
4 H 7.344 41.6 5.017 H 0.0 **** 0.0
5 H 6.088 40.503 5.64 H 0.0 **** 0.0
@<TRIPOS>BOND
1 1 2 1
2 1 3 1
3 1 4 1
4 1 5 1
@<TRIPOS>MOLECULE
CH4
5 4
SMALL
USER_CHARGES


@<TRIPOS>ATOM
1 C 1.268 10.972 51.061 C 0.0 **** 0.0
2 H 0.946 10.749 50.044 H 0.0 **** 0.0
3 H 2.167 11.588 51.031 H 0.0 **** 0.0
4 H 1.482 10.041 51.586 H 0.0 **** 0.0
5 H 0.476 11.509 51.582 H 0.0 **** 0.0
@<TRIPOS>BOND
1 1 2 1
2 1 3 1
3 1 4 1
4 1 5 1
@<TRIPOS>MOLECULE
CH4
5 4
SMALL
USER_CHARGES


@<TRIPOS>ATOM
1 C 50.008 9.663 37.456 C 0.0 **** 0.0
2 H 50.823 10.377 37.344 H 0.0 **** 0.0
3 H 50.417 8.676 37.674 H 0.0 **** 0.0
4 H 49.432 9.621 36.531 H 0.0 **** 0.0
5 H 49.359 9.977 38.274 H 0.0 **** 0.0
@<TRIPOS>BOND
1 1 2 1
2 1 3 1
3 1 4 1
4 1 5 1
@<TRIPOS>MOLECULE
CH4
5 4
SMALL
USER_CHARGES


@<TRIPOS>ATOM
1 C 57.264 23.103 69.273 C 0.0 **** 0.0
2 H 57.2 23.312 68.205 H 0.0 **** 0.0
3 H 57.643 22.092 69.424 H 0.0 **** 0.0
4 H 56.273 23.19 69.719 H 0.0 **** 0.0
5 H 57.938 23.819 69.743 H 0.0 **** 0.0
@<TRIPOS>BOND
1 1 2 1
2 1 3 1
3 1 4 1
4 1 5 1
@<TRIPOS>MOLECULE
CH4
5 4
SMALL
USER_CHARGES


@<TRIPOS>ATOM
1 C 63.873 29.255 58.62 C 0.0 **** 0.0
2 H 64.068 28.917 59.638 H 0.0 **** 0.0
3 H 64.407 30.188 58.439 H 0.0 **** 0.0
4 H 62.803 29.418 58.49 H 0.0 **** 0.0
5 H 64.214 28.498 57.915 H 0.0 **** 0.0
@<TRIPOS>BOND
1 1 2 1
2 1 3 1
3 1 4 1
4 1 5 1
@<TRIPOS>MOLECULE
CH4
5 4
SMALL
USER_CHARGES


@<TRIPOS>ATOM
1 C 91.112 8.784 90.907 C 0.0 **** 0.0
2 H 91.357 9.827 91.107 H 0.0 **** 0.0
3 H 91.426 8.524 89.896 H 0.0 **** 0.0
4 H 90.035 8.64 91.002 H 0.0 **** 0.0
5 H 91.628 8.145 91.624 H 0.0 **** 0.0
@<TRIPOS>BOND
1 1 2 1
2 1 3 1
3 1 4 1
4 1 5 1
@<TRIPOS>MOLECULE
CH4
5 4
SMALL
USER_CHARGES


@<TRIPOS>ATOM
1 C 81.112 7.567 62.571 C 0.0 **** 0.0
2 H 81.156 7.784 63.638 H 0.0 **** 0.0
3 H 80.252 6.93 62.365 H 0.0 **** 0.0
4 H 82.025 7.055 62.267 H 0.0 **** 0.0
5 H 81.015 8.499 62.014 H 0.0 **** 0.0
@<TRIPOS>BOND
1 1 2 1
2 1 3 1
3 1 4 1
4 1 5 1
@<TRIPOS>MOLECULE
CH4
5 4
SMALL
USER_CHARGES


@<TRIPOS>ATOM
1 C 32.839 49.058 22.432 C 0.0 **** 0.0
2 H 32.75 48.507 21.496 H 0.0 **** 0.0
3 H 33.772 49.623 22.433 H 0.0 **** 0.0
4 H 32.837 48.358 23.268 H 0.0 **** 0.0
5 H 31.999 49.745 22.531 H 0.0 **** 0.0
@<TRIPOS>BOND
1 1 2 1
2 1 3 1
3 1 4 1
4 1 5 1
@<TRIPOS>MOLECULE
CH4
5 4
SMALL
USER_CHARGES


@<TRIPOS>ATOM
1 C 47.579 2.161 92.58 C 0.0 **** 0.0
2 H 47.082 1.508 91.862 H 0.0 **** 0.0
3 H 47.355 1.825 93.592 H 0.0 **** 0.0
4 H 47.222 3.182 92.448 H 0.0 **** 0.0
5 H 48.656 2.128 92.415 H 0.0 **** 0.0
@<TRIPOS>BOND
1 1 2 1
2 1 3 1
3 1 4 1
4 1 5 1
@<TRIPOS>MOLECULE
CH4
5 4
SMALL
USER_CHARGES


@<TRIPOS>ATOM
1 C 97.775 36.614 41.909 C 0.0 **** 0.0
2 H 98.427 36.339 42.738 H 0.0 **** 0.0
3 H 97.471 35.715 41.373 H 0.0 **** 0.0
4 H 98.31 37.279 41.231 H 0.0 **** 0.0
5 H 96.892 37.123 42.296 H 0.0 **** 0.0
@<TRIPOS>BOND
1 1 2 1
2 1 3 1
3 1 4 1
4 1 5 1
@<TRIPOS>MOLECULE
CH4
5 4
SMALL
USER_CHARGES


@<TRIPOS>ATOM
1 C 22.082 32.583 70.015 C 0.0 **** 0.0
2 H 22.983 32.551 70.627 H 0.0 **** 0.0
3 H 22.278 33.159 69.11 H 0.0 **** 0.0
4 H 21.276 33.053 70.578 H 0.0 **** 0.0
5 H 21.791 31.568 69.744 H 0.0 **** 0.0
@<TRIPOS>BOND
1 1 2 1
2 1 3 1
3 1 4 1
4 1 5 1
@<TRIPOS>MOLECULE
CH4
5 4
SMALL
USER_CHARGES


@<TRIPOS>ATOM
1 C 18.21 64.159 50.366 C 0.0 **** 0.0
2 H 18.184 63.291 49.707 H 0.0 **** 0.0
3 H 19.173 64.661 50.267 H 0.0 **** 0.0
4 H 18.073 63.836 51.398 H 0.0 **** 0.0
5 H 17.411 64.848 50.092 H 0.0 **** 0.0
@<TRIPOS>BOND
1 1 2 1
2 1 3 1
3 1 4 1
4 1 5 1
@<TRIPOS>MOLECULE
CH4
5 4
SMALL
USER_CHARGES


@<TRIPOS>ATOM
1 C 17.591 60.005 57.81 C 0.0 **** 0.0
2 H 18.212 59.11 57.859 H 0.0 **** 0.0
3 H 17.0 60.087 58.722 H 0.0 **** 0.0
4 H 16.926 59.938 56.95 H 0.0 **** 0.0
5 H 18.228 60.883 57.709 H 0.0 **** 0.0
@<TRIPOS>BOND
1 1 2 1
2 1 3 1
3 1 4 1
4 1 5 1
@<TRIPOS>MOLECULE
CH4
5 4
SMALL
USER_CHARGES


@<TRIPOS>ATOM
1 C 2.264 74.266 6.867 C 0.0 **** 0.0
2 H 1.447 74.147 7.579 H 0.0 **** 0.0
3 H 3.148 74.635 7.388 H 0.0 **** 0.0
4 H 1.973 74.978 6.096 H 0.0 **** 0.0
5 H 2.488 73.303 6.408 H 0.0 **** 0.0
@<TRIPOS>BOND
1 1 2 1
2 1 3 1
3 1 4 1
4 1 5 1
@<TRIPOS>MOLECULE
CH4
5 4
SMALL
USER_CHARGES


@<TRIPOS>ATOM
1 C 20.713 75.364 14.217 C 0.0 **** 0.0
2 H 20.53 75.645 15.254 H 0.0 **** 0.0
3 H 20.446 74.317 14.072 H 0.0 **** 0.0
4 H 21.768 75.506 13.984 H 0.0 **** 0.0
5 H 20.108 75.989 13.559 H 0.0 **** 0.0
@<TRIPOS>BOND
1 1 2 1
2 1 3 1
3 1 4 1
4 1 5 1
@<TRIPOS>MOLECULE
CH4
5 4
SMALL
USER_CHARGES


@<TRIPOS>ATOM
1 C 78.303 6.398 47.79 C 0.0 **** 0.0
2 H 78.607 5.906 48.714 H 0.0 **** 0.0
3 H 77.217 6.491 47.769 H 0.0 **** 0.0
4 H 78.633 5.804 46.937 H 0.0 **** 0.0
5 H 78.755 7.388 47.74 H 0.0 **** 0.0
@<TRIPOS>BOND
1 1 5 1
2 1 3 1
3 1 2 1
4 1 4 1
@<TRIPOS>MOLECULE
CH4
5 4
SMALL
USER_CHARGES


@<TRIPOS>ATOM
1 C 23.894 54.762 44.087 C 0.0 **** 0.0
2 H 24.731 54.61 44.768 H 0.0 **** 0.0
3 H 24.157 54.386 43.099 H 0.0 **** 0.0
4 H 23.666 55.826 44.023 H 0.0 **** 0.0
5 H 23.021 54.226 44.46 H 0.0 **** 0.0
@<TRIPOS>BOND
1 1 2 1
2 1 3 1
3 1 4 1
4 1 5 1
@<TRIPOS>MOLECULE
CH4
5 4
SMALL
USER_CHARGES


@<TRIPOS>ATOM
1 C 53.005 69.559 91.29 C 0.0 **** 0.0
2 H 52.002 69.695 90.884 H 0.0 **** 0.0
3 H 53.209 70.34 92.023 H 0.0 **** 0.0
4 H 53.734 69.618 90.483 H 0.0 **** 0.0
5 H 53.072 68.583 91.77 H 0.0 **** 0.0
@<TRIPOS>BOND
1 1 2 1
2 1 3 1
3 1 4 1
4 1 5 1
@<TRIPOS>MOLECULE
CH4
5 4
SMALL
USER_CHARGES


@<TRIPOS>ATOM
1 C 29.764 25.349 98.461 C 0.0 **** 0.0
2 H 28.713 25.349 98.751 H 0.0 **** 0.0
3 H 29.845 25.174 97.388 H 0.0 **** 0.0
4 H 30.289 24.559 98.999 H 0.0 **** 0.0
5 H 30.208 26.313 98.707 H 0.0 **** 0.0
@<TRIPOS>BOND
1 1 2 1
2 1 3 1
3 1 4 1
4 1 5 1
@<TRIPOS>MOLECULE
CH4
5 4
SMALL
USER_CHARGES


@<TRIPOS>ATOM
1 C 38.467 34.49 22.883 C 0.0 **** 0.0
2 H 38.187 35.309 23.546 H 0.0 **** 0.0
3 H 39.551 34.379 22.881 H 0.0 **** 0.0
4 H 38.121 34.707 21.872 H 0.0 **** 0.0
5 H 38.007 33.566 23.234 H 0.0 **** 0.0
@<TRIPOS>BOND
1 1 2 1
2 1 3 1
3 1 4 1
4 1 5 1
@<TRIPOS>MOLECULE
CH4
5 4
SMALL
USER_CHARGES


@<TRIPOS>ATOM
1 C 50.408 58.561 1.02 C 0.0 **** 0.0
2 H 49.767 59.423 1.206 H 0.0 **** 0.0
3 H 51.453 58.866 1.079 H 0.0 **** 0.0
4 H 50.201 58.162 0.026 H 0.0 **** 0.0
5 H 50.21 57.793 1.767 H 0.0 **** 0.0
@<TRIPOS>BOND
1 1 2 1
2 1 3 1
3 1 4 1
4 1 5 1
@<TRIPOS>MOLECULE
CH4
5 4
SMALL
USER_CHARGES


@<TRIPOS>ATOM
1 C 34.8 8.301 55.832 C 0.0 **** 0.0
2 H 34.604 9.174 56.453 H 0.0 **** 0.0
3 H 35.781 7.893 56.078 H 0.0 **** 0.0
4 H 34.78 8.591 54.781 H 0.0 **** 0.0
5 H 34.036 7.546 56.015 H 0.0 **** 0.0
@<TRIPOS>BOND
1 1 2 1
2 1 3 1
3 1 4 1
4 1 5 1
@<TRIPOS>MOLECULE
CH4
5 4
SMALL
USER_CHARGES


@<TRIPOS>ATOM
1 C 10.679 76.032 9.038 C 0.0 **** 0.0
2 H 10.065 76.878 8.728 H 0.0 **** 0.0
3 H 11.722 76.23 8.787 H 0.0 **** 0.0
4 H 10.345 75.132 8.522 H 0.0 **** 0.0
5 H 10.585 75.891 10.115 H 0.0 **** 0.0
@<TRIPOS>BOND
1 1 2 1
2 1 3 1
3 1 4 1
4 1 5 1
@<TRIPOS>MOLECULE
CH4
5 4
SMALL
USER_CHARGES


@<TRIPOS>ATOM
1 C 82.547 63.517 16.818 C 0.0 **** 0.0
2 H 82.69 63.089 17.81 H 0.0 **** 0.0
3 H 81.736 62.993 16.31 H 0.0 **** 0.0
4 H 83.466 63.412 16.241 H 0.0 **** 0.0
5 H 82.295 64.573 16.912 H 0.0 **** 0.0
@<TRIPOS>BOND
1 1 2 1
2 1 3 1
3 1 4 1
4 1 5 1
@<TRIPOS>MOLECULE
CH4
5 4
SMALL
USER_CHARGES


@<TRIPOS>ATOM
1 C 89.375 47.556 79.758 C 0.0 **** 0.0
2 H 89.707 47.919 80.731 H 0.0 **** 0.0
3 H 89.405 46.466 79.748 H 0.0 **** 0.0
4 H 90.034 47.945 78.982 H 0.0 **** 0.0
5 H 88.356 47.894 79.572 H 0.0 **** 0.0
@<TRIPOS>BOND
1 1 2 1
2 1 3 1
3 1 4 1
4 1 5 1
@<TRIPOS>MOLECULE
CH4
5 4
SMALL
USER_CHARGES


@<TRIPOS>ATOM
1 C 27.003 53.662 72.201 C 0.0 **** 0.0
2 H 26.754 53.678 71.14 H 0.0 **** 0.0
3 H 27.806 54.372 72.397 H 0.0 **** 0.0
4 H 27.326 52.66 72.484 H 0.0 **** 0.0
5 H 26.124 53.937 72.784 H 0.0 **** 0.0
@<TRIPOS>BOND
1 1 2 1
2 1 3 1
3 1 4 1
4 1 5 1
@<TRIPOS>MOLECULE
CH4
5 4
SMALL
USER_CHARGES


@<TRIPOS>ATOM
1 C 51.418 80.034 42.956 C 0.0 **** 0.0
2 H 52.13 79.489 42.335 H 0.0 **** 0.0
3 H 50.689 80.534 42.319 H 0.0 **** 0.0
4 H 51.95 80.775 43.552 H 0.0 **** 0.0
5 H 50.905 79.336 43.618 H 0.0 **** 0.0
@<TRIPOS>BOND
1 1 2 1
2 1 3 1
3 1 4 1
4 1 5 1
@<TRIPOS>MOLECULE
CH4
5 4
SMALL
USER_CHARGES


@<TRIPOS>ATOM
1 C 58.826 16.112 36.481 C 0.0 **** 0.0
2 H 59.436 15.371 35.965 H 0.0 **** 0.0
3 H 59.475 16.804 37.02 H 0.0 **** 0.0
4 H 58.165 15.61 37.187 H 0.0 **** 0.0
5 H 58.231 16.663 35.754 H 0.0 **** 0.0
@<TRIPOS>BOND
1 1 2 1
2 1 3 1
3 1 4 1
4 1 5 1
@<TRIPOS>MOLECULE
CH4
5 4
SMALL
USER_CHARGES


@<TRIPOS>ATOM
1 C 75.932 63.896 7.331 C 0.0 **** 0.0
2 H 75.925 64.568 6.473 H 0.0 **** 0.0
3 H 76.831 64.073 7.923 H 0.0 **** 0.0
4 H 75.924 62.863 6.983 H 0.0 **** 0.0
5 H 75.05 64.081 7.944 H 0.0 **** 0.0
@<TRIPOS>BOND
1 1 2 1
2 1 3 1
3 1 4 1
4 1 5 1
@<TRIPOS>MOLECULE
CH4
5 4
SMALL
USER_CHARGES


@<TRIPOS>ATOM
1 C 47.876 63.142 78.409 C 0.0 **** 0.0
2 H 47.001 62.493 78.424 H 0.0 **** 0.0
3 H 47.597 64.135 78.762 H 0.0 **** 0.0
4 H 48.259 63.213 77.391 H 0.0 **** 0.0
5 H 48.646 62.728 79.059 H 0.0 **** 0.0
@<TRIPOS>BOND
1 1 2 1
2 1 3 1
3 1 4 1
4 1 5 1
@<TRIPOS>MOLECULE
CH4
5 4
SMALL
USER_CHARGES


@<TRIPOS>ATOM
1 C 45.149 30.453 3.418 C 0.0 **** 0.0
2 H 46.11 30.126 3.815 H 0.0 **** 0.0
3 H 45.028 30.076 2.402 H 0.0 **** 0.0
4 H 45.111 31.542 3.408 H 0.0 **** 0.0
5 H 44.346 30.067 4.047 H 0.0 **** 0.0
@<TRIPOS>BOND
1 1 2 1
2 1 3 1
3 1 4 1
4 1 5 1
@<TRIPOS>MOLECULE
CH4
5 4
SMALL
USER_CHARGES


@<TRIPOS>ATOM
1 C 50.685 36.783 64.874 C 0.0 **** 0.0
2 H 50.457 36.624 65.928 H 0.0 **** 0.0
3 H 50.935 37.832 64.711 H 0.0 **** 0.0
4 H 49.817 36.517 64.271 H 0.0 **** 0.0
5 H 51.532 36.159 64.588 H 0.0 **** 0.0
@<TRIPOS>BOND
1 1 2 1
2 1 3 1
3 1 4 1
4 1 5 1
@<TRIPOS>MOLECULE
CH4
5 4
SMALL
USER_CHARGES


@<TRIPOS>ATOM
1 C 20.432 60.154 40.904 C 0.0 **** 0.0
2 H 20.586 59.114 40.615 H 0.0 **** 0.0
3 H 21.384 60.684 40.875 H 0.0 **** 0.0
4 H 20.024 60.193 41.914 H 0.0 **** 0.0
5 H 19.733 60.623 40.211 H 0.0 **** 0.0
@<TRIPOS>BOND
1 1 2 1
2 1 3 1
3 1 4 1
4 1 5 1
@<TRIPOS>MOLECULE
CH4
5 4
SMALL
USER_CHARGES


@<TRIPOS>ATOM
1 C 92.532 29.881 21.446 C 0.0 **** 0.0
2 H 93.005 29.038 21.949 H 0.0 **** 0.0
3 H 92.118 30.561 22.19 H 0.0 **** 0.0
4 H 91.733 29.517 20.8 H 0.0 **** 0.0
5 H 93.274 30.408 20.845 H 0.0 **** 0.0
@<TRIPOS>BOND
1 1 2 1
2 1 3 1
3 1 4 1
4 1 5 1
@<TRIPOS>MOLECULE
CH4
5 4
SMALL
USER_CHARGES


@<TRIPOS>ATOM
1 C 76.205 45.931 4.348 C 0.0 **** 0.0
2 H 76.206 45.791 3.267 H 0.0 **** 0.0
3 H 76.047 46.985 4.577 H 0.0 **** 0.0
4 H 77.164 45.61 4.756 H 0.0 **** 0.0
5 H 75.405 45.339 4.791 H 0.0 **** 0.0
@<TRIPOS>BOND
1 1 2 1
2 1 3 1
3 1 4 1
4 1 5 1
@<TRIPOS>MOLECULE
CH4
5 4
SMALL
USER_CHARGES


@<TRIPOS>ATOM
1 C 9.098 35.512 31.536 C 0.0 **** 0.0
2 H 8.721 34.557 31.903 H 0.0 **** 0.0
3 H 10.121 35.657 31.886 H 0.0 **** 0.0
4 H 8.468 36.319 31.909 H 0.0 **** 0.0
5 H 9.083 35.513 30.446 H 0.0 **** 0.0
@<TRIPOS>BOND
1 1 2 1
2 1 3 1
3 1 4 1
4 1 5 1
@<TRIPOS>MOLECULE
CH4
5 4
SMALL
USER_CHARGES


@<TRIPOS>ATOM
1 C 4.885 7.199 38.389 C 0.0 **** 0.0
2 H 4.713 7.663 39.36 H 0.0 **** 0.0
3 H 3.966 6.721 38.047 H 0.0 **** 0.0
4 H 5.673 6.451 38.477 H 0.0 **** 0.0
5 H 5.187 7.962 37.671 H 0.0 **** 0.0
@<TRIPOS>BOND
1 1 2 1
2 1 3 1
3 1 4 1
4 1 5 1
@<TRIPOS>MOLECULE
CH4
5 4
SMALL
USER_CHARGES


@<TRIPOS>ATOM
1 C 78.835 91.936 41.68 C 0.0 **** 0.0
2 H 79.756 91.369 41.541 H 0.0 **** 0.0
3 H 78.275 91.953 40.744 H 0.0 **** 0.0
4 H 79.078 92.956 41.976 H 0.0 **** 0.0
5 H 78.232 91.466 42.456 H 0.0 **** 0.0
@<TRIPOS>BOND
1 1 4 1
2 1 2 1
3 1 5 1
4 1 3 1
@<TRIPOS>MOLECULE
CH4
5 4
SMALL
USER_CHARGES


@<TRIPOS>ATOM
1 C 66.272 22.676 75.626 C 0.0 **** 0.0
2 H 66.041 23.499 76.302 H 0.0 **** 0.0
3 H 67.303 22.358 75.781 H 0.0 **** 0.0
4 H 66.145 23.007 74.595 H 0.0 **** 0.0
5 H 65.599 21.842 75.825 H 0.0 **** 0.0
@<TRIPOS>BOND
1 1 2 1
2 1 3 1
3 1 4 1
4 1 5 1
@<TRIPOS>MOLECULE
CH4
5 4
SMALL
USER_CHARGES


@<TRIPOS>ATOM
1 C 89.476 23.798 35.008 C 0.0 **** 0.0
2 H 89.811 23.444 35.983 H 0.0 **** 0.0
3 H 89.536 22.983 34.286 H 0.0 **** 0.0
4 H 90.113 24.62 34.682 H 0.0 **** 0.0
5 H 88.445 24.144 35.082 H 0.0 **** 0.0
@<TRIPOS>BOND
1 1 2 1
2 1 3 1
3 1 4 1
4 1 5 1
@<TRIPOS>MOLECULE
CH4
5 4
SMALL
USER_CHARGES


@<TRIPOS>ATOM
1 C 50.809 10.977 79.144 C 0.0 **** 0.0
2 H 50.984 10.668 78.113 H 0.0 **** 0.0
3 H 50.323 11.953 79.153 H 0.0 **** 0.0
4 H 51.762 11.039 79.67 H 0.0 **** 0.0
5 H 50.168 10.246 79.638 H 0.0 **** 0.0
@<TRIPOS>BOND
1 1 2 1
2 1 3 1
3 1 4 1
4 1 5 1
@<TRIPOS>MOLECULE
CH4
5 4
SMALL
USER_CHARGES


@<TRIPOS>ATOM
1 C 89.091 56.057 45.817 C 0.0 **** 0.0
2 H 89.06 56.22 46.894 H 0.0 **** 0.0
3 H 90.028 55.568 45.551 H 0.0 **** 0.0
4 H 89.022 57.016 45.303 H 0.0 **** 0.0
5 H 88.254 55.426 45.521 H 0.0 **** 0.0
@<TRIPOS>BOND
1 1 2 1
2 1 3 1
3 1 4 1
4 1 5 1
@<TRIPOS>MOLECULE
CH4
5 4
SMALL
USER_CHARGES


@<TRIPOS>ATOM
1 C 39.585 90.73 24.862 C 0.0 **** 0.0
2 H 40.022 91.279 24.028 H 0.0 **** 0.0
3 H 40.297 90.696 25.687 H 0.0 **** 0.0
4 H 39.347 89.716 24.544 H 0.0 **** 0.0
5 H 38.674 91.232 25.19 H 0.0 **** 0.0
@<TRIPOS>BOND
1 1 2 1
2 1 3 1
3 1 4 1
4 1 5 1
@<TRIPOS>MOLECULE
CH4
5 4
SMALL
USER_CHARGES


@<TRIPOS>ATOM
1 C 41.481 38.478 3.205 C 0.0 **** 0.0
2 H 42.103 37.727 3.692 H 0.0 **** 0.0
3 H 40.905 39.016 3.958 H 0.0 **** 0.0
4 H 40.801 37.989 2.507 H 0.0 **** 0.0
5 H 42.115 39.179 2.662 H 0.0 **** 0.0
@<TRIPOS>BOND
1 1 2 1
2 1 3 1
3 1 4 1
4 1 5 1
@<TRIPOS>MOLECULE
CH4
5 4
SMALL
USER_CHARGES


@<TRIPOS>ATOM
1 C 61.951 71.361 84.688 C 0.0 **** 0.0
2 H 61.99 72.247 85.322 H 0.0 **** 0.0
3 H 61.175 70.687 85.051 H 0.0 **** 0.0
4 H 62.915 70.853 84.714 H 0.0 **** 0.0
5 H 61.725 71.658 83.664 H 0.0 **** 0.0
@<TRIPOS>BOND
1 1 2 1
2 1 3 1
3 1 4 1
4 1 5 1
@<TRIPOS>MOLECULE
CH4
5 4
SMALL
USER_CHARGES


@<TRIPOS>ATOM
1 C 90.991 25.807 67.94 C 0.0 **** 0.0
2 H 91.16 25.858 66.865 H 0.0 **** 0.0
3 H 90.492 26.718 68.272 H 0.0 **** 0.0
4 H 91.947 25.708 68.454 H 0.0 **** 0.0
5 H 90.364 24.945 68.169 H 0.0 **** 0.0
@<TRIPOS>BOND
1 1 2 1
2 1 3 1
3 1 4 1
4 1 5 1
@<TRIPOS>MOLECULE
CH4
5 4
SMALL
USER_CHARGES


@<TRIPOS>ATOM
1 C 89.81 58.82 72.961 C 0.0 **** 0.0
2 H 89.738 58.212 72.06 H 0.0 **** 0.0
3 H 89.015 59.566 72.961 H 0.0 **** 0.0
4 H 90.778 59.321 72.984 H 0.0 **** 0.0
5 H 89.71 58.182 73.839 H 0.0 **** 0.0
@<TRIPOS>BOND
1 1 2 1
2 1 3 1
3 1 4 1
4 1 5 1
@<TRIPOS>MOLECULE
CH4
5 4
SMALL
USER_CHARGES


@<TRIPOS>ATOM
1 C 90.969 75.002 74.344 C 0.0 **** 0.0
2 H 90.963 75.114 75.428 H 0.0 **** 0.0
3 H 91.888 74.504 74.036 H 0.0 **** 0.0
4 H 90.913 75.985 73.877 H 0.0 **** 0.0
5 H 90.111 74.404 74.036 H 0.0 **** 0.0
@<TRIPOS>BOND
1 1 2 1
2 1 3 1
3 1 4 1
4 1 5 1
@<TRIPOS>MOLECULE
CH4
5 4
SMALL
USER_CHARGES


@<TRIPOS>ATOM
1 C 90.103 90.432 38.793 C 0.0 **** 0.0
2 H 90.221 90.381 37.711 H 0.0 **** 0.0
3 H 89.093 90.125 39.063 H 0.0 **** 0.0
4 H 90.274 91.455 39.129 H 0.0 **** 0.0
5 H 90.825 89.768 39.269 H 0.0 **** 0.0
@<TRIPOS>BOND
1 1 5 1
2 1 2 1
3 1 3 1
4 1 4 1
@<TRIPOS>MOLECULE
CH4
5 4
SMALL
USER_CHARGES


@<TRIPOS>ATOM
1 C 81.435 6.097 85.548 C 0.0 **** 0.0
2 H 81.48 6.132 86.637 H 0.0 **** 0.0
3 H 80.999 7.023 85.173 H 0.0 **** 0.0
4 H 80.819 5.253 85.237 H 0.0 **** 0.0
5 H 82.441 5.979 85.146 H 0.0 **** 0.0
@<TRIPOS>BOND
1 1 3 1
2 1 4 1
3 1 5 1
4 1 2 1
@<TRIPOS>MOLECULE
CH4
5 4
SMALL
USER_CHARGES


@<TRIPOS>ATOM
1 C 78.394 44.492 15.561 C 0.0 **** 0.0
2 H 78.941 44.732 16.473 H 0.0 **** 0.0
3 H 77.563 43.828 15.799 H 0.0 **** 0.0
4 H 79.064 43.998 14.856 H 0.0 **** 0.0
5 H 78.011 45.41 15.115 H 0.0 **** 0.0
@<TRIPOS>BOND
1 1 2 1
2 1 3 1
3 1 4 1
4 1 5 1
@<TRIPOS>MOLECULE
CH4
5 4
SMALL
USER_CHARGES


@<TRIPOS>ATOM
1 C 35.383 37.745 74.629 C 0.0 **** 0.0
2 H 34.719 37.296 75.367 H 0.0 **** 0.0
3 H 34.919 37.691 73.643 H 0.0 **** 0.0
4 H 36.329 37.205 74.615 H 0.0 **** 0.0
5 H 35.563 38.788 74.889 H 0.0 **** 0.0
@<TRIPOS>BOND
1 1 2 1
2 1 3 1
3 1 4 1
4 1 5 1
@<TRIPOS>MOLECULE
CH4
5 4
SMALL
USER_CHARGES


@<TRIPOS>ATOM
1 C 4.121 39.589 21.255 C 0.0 **** 0.0
2 H 4.155 38.5 21.27 H 0.0 **** 0.0
3 H 3.449 39.921 20.463 H 0.0 **** 0.0
4 H 5.121 39.981 21.07 H 0.0 **** 0.0
5 H 3.76 39.955 22.216 H 0.0 **** 0.0
@<TRIPOS>BOND
1 1 2 1
2 1 3 1
3 1 4 1
4 1 5 1
@<TRIPOS>MOLECULE
CH4
5 4
SMALL
USER_CHARGES


@<TRIPOS>ATOM
1 C 67.781 86.988 58.882 C 0.0 **** 0.0
2 H 67.185 86.128 59.187 H 0.0 **** 0.0
3 H 68.834 86.708 58.85 H 0.0 **** 0.0
4 H 67.641 87.799 59.597 H 0.0 **** 0.0
5 H 67.463 87.317 57.892 H 0.0 **** 0.0
@<TRIPOS>BOND
1 1 2 1
2 1 3 1
3 1 4 1
4 1 5 1
@<TRIPOS>MOLECULE
CH4
5 4
SMALL
USER_CHARGES


@<TRIPOS>ATOM
1 C 40.588 21.097 31.26 C 0.0 **** 0.0
2 H 40.591 20.959 32.341 H 0.0 **** 0.0
3 H 39.59 21.392 30.934 H 0.0 **** 0.0
4 H 40.868 20.162 30.774 H 0.0 **** 0.0
5 H 41.303 21.874 30.991 H 0.0 **** 0.0
@<TRIPOS>BOND
1 1 2 1
2 1 3 1
3 1 4 1
4 1 5 1
@<TRIPOS>MOLECULE
CH4
5 4
SMALL
USER_CHARGES


@<TRIPOS>ATOM
1 C 64.926 38.453 33.481 C 0.0 **** 0.0
2 H 65.818 38.954 33.104 H 0.0 **** 0.0
3 H 64.273 39.184 33.957 H 0.0 **** 0.0
4 H 65.216 37.695 34.208 H 0.0 **** 0.0
5 H 64.399 37.98 32.652 H 0.0 **** 0.0
@<TRIPOS>BOND
1 1 2 1
2 1 3 1
3 1 4 1
4 1 5 1
@<TRIPOS>MOLECULE
CH4
5 4
SMALL
USER_CHARGES


@<TRIPOS>ATOM
1 C 92.181 51.522 40.974 C 0.0 **** 0.0
2 H 92.755 51.851 41.84 H 0.0 **** 0.0
3 H 91.323 50.937 41.308 H 0.0 **** 0.0
4 H 92.812 50.908 40.332 H 0.0 **** 0.0
5 H 91.833 52.392 40.417 H 0.0 **** 0.0
@<TRIPOS>BOND
1 1 2 1
2 1 3 1
3 1 4 1
4 1 5 1
@<TRIPOS>MOLECULE
CH4
5 4
SMALL
USER_CHARGES


@<TRIPOS>ATOM
1 C 64.087 77.651 90.985 C 0.0 **** 0.0
2 H 63.785 78.042 91.957 H 0.0 **** 0.0
3 H 65.1 77.985 90.758 H 0.0 **** 0.0
4 H 63.403 78.016 90.218 H 0.0 **** 0.0
5 H 64.06 76.562 91.008 H 0.0 **** 0.0
@<TRIPOS>BOND
1 1 2 1
2 1 3 1
3 1 4 1
4 1 5 1
@<TRIPOS>MOLECULE
CH4
5 4
SMALL
USER_CHARGES


@<TRIPOS>ATOM
1 C 28.097 41.188 46.984 C 0.0 **** 0.0
2 H 28.406 40.143 46.973 H 0.0 **** 0.0
3 H 28.868 41.8 46.515 H 0.0 **** 0.0
4 H 27.951 41.512 48.014 H 0.0 **** 0.0
5 H 27.162 41.296 46.433 H 0.0 **** 0.0
@<TRIPOS>BOND
1 1 2 1
2 1 3 1
3 1 4 1
4 1 5 1
@<TRIPOS>MOLECULE
CH4
5 4
SMALL
USER_CHARGES


@<TRIPOS>ATOM
1 C 71.814 25.138 84.506 C 0.0 **** 0.0
2 H 70.768 25.351 84.284 H 0.0 **** 0.0
3 H 72.338 26.071 84.713 H 0.0 **** 0.0
4 H 72.273 24.645 83.649 H 0.0 **** 0.0
5 H 71.874 24.485 85.377 H 0.0 **** 0.0
@<TRIPOS>BOND
1 1 2 1
2 1 3 1
3 1 4 1
4 1 5 1
@<TRIPOS>MOLECULE
CH4
5 4
SMALL
USER_CHARGES


@<TRIPOS>ATOM
1 C 4.575 42.818 38.801 C 0.0 **** 0.0
2 H 4.57 42.031 39.554 H 0.0 **** 0.0
3 H 3.78 42.635 38.077 H 0.0 **** 0.0
4 H 5.538 42.825 38.289 H 0.0 **** 0.0
5 H 4.414 43.783 39.283 H 0.0 **** 0.0
@<TRIPOS>BOND
1 1 2 1
2 1 3 1
3 1 4 1
4 1 5 1
@<TRIPOS>MOLECULE
CH4
5 4
SMALL
USER_CHARGES


@<TRIPOS>ATOM
1 C 84.384 61.861 92.317 C 0.0 **** 0.0
2 H 84.946 61.859 91.383 H 0.0 **** 0.0
3 H 85.023 61.506 93.125 H 0.0 **** 0.0
4 H 83.519 61.205 92.221 H 0.0 **** 0.0
5 H 84.048 62.875 92.536 H 0.0 **** 0.0
@<TRIPOS>BOND
1 1 2 1
2 1 3 1
3 1 4 1
4 1 5 1
@<TRIPOS>MOLECULE
CH4
5 4
SMALL
USER_CHARGES


@<TRIPOS>ATOM
1 C 34.898 96.067 82.435 C 0.0 **** 0.0
2 H 34.841 96.162 81.351 H 0.0 **** 0.0
3 H 34.905 97.06 82.886 H 0.0 **** 0.0
4 H 35.813 95.539 82.706 H 0.0 **** 0.0
5 H 34.035 95.509 82.797 H 0.0 **** 0.0
@<TRIPOS>BOND
1 1 2 1
2 1 3 1
3 1 4 1
4 1 5 1
@<TRIPOS>MOLECULE
CH4
5 4
SMALL
USER_CHARGES


@<TRIPOS>ATOM
1 C 17.908 57.602 39.911 C 0.0 **** 0.0
2 H 18.074 57.79 38.851 H 0.0 **** 0.0
3 H 16.912 57.182 40.054 H 0.0 **** 0.0
4 H 17.991 58.538 40.464 H 0.0 **** 0.0
5 H 18.655 56.897 40.276 H 0.0 **** 0.0
@<TRIPOS>BOND
1 1 2 1
2 1 3 1
3 1 4 1
4 1 5 1
@<TRIPOS>MOLECULE
CH4
5 4
SMALL
USER_CHARGES


@<TRIPOS>ATOM
1 C 89.667 44.593 20.806 C 0.0 **** 0.0
2 H 89.441 45.139 19.891 H 0.0 **** 0.0
3 H 89.47 43.532 20.655 H 0.0 **** 0.0
4 H 89.041 44.967 21.616 H 0.0 **** 0.0
5 H 90.717 44.735 21.064 H 0.0 **** 0.0
@<TRIPOS>BOND
1 1 2 1
2 1 3 1
3 1 4 1
4 1 5 1
@<TRIPOS>MOLECULE
CH4
5 4
SMALL
USER_CHARGES


@<TRIPOS>ATOM
1 C 22.981 10.894 40.172 C 0.0 **** 0.0
2 H 21.993 10.506 40.421 H 0.0 **** 0.0
3 H 23.624 10.841 41.05 H 0.0 **** 0.0
4 H 22.892 11.931 39.848 H 0.0 **** 0.0
5 H 23.413 10.298 39.368 H 0.0 **** 0.0
@<TRIPOS>BOND
1 1 2 1
2 1 3 1
3 1 4 1
4 1 5 1
@<TRIPOS>MOLECULE
CH4
5 4
SMALL
USER_CHARGES


@<TRIPOS>ATOM
1 C 75.132 35.569 75.714 C 0.0 **** 0.0
2 H 76.089 35.534 75.192 H 0.0 **** 0.0
3 H 75.046 36.513 76.252 H 0.0 **** 0.0
4 H 75.074 34.741 76.42 H 0.0 **** 0.0
5 H 74.321 35.488 74.99 H 0.0 **** 0.0
@<TRIPOS>BOND
1 1 2 1
2 1 3 1
3 1 4 1
4 1 5 1
@<TRIPOS>MOLECULE
CH4
5 4
SMALL
USER_CHARGES


@<TRIPOS>ATOM
1 C 54.236 30.303 47.319 C 0.0 **** 0.0
2 H 54.862 29.809 46.575 H 0.0 **** 0.0
3 H 53.218 30.387 46.939 H 0.0 **** 0.0
4 H 54.632 31.297 47.524 H 0.0 **** 0.0
5 H 54.234 29.716 48.238 H 0.0 **** 0.0
@<TRIPOS>BOND
1 1 2 1
2 1 3 1
3 1 4 1
4 1 5 1
@<TRIPOS>MOLECULE
CH4
5 4
SMALL
USER_CHARGES


@<TRIPOS>ATOM
1 C 72.07 74.632 42.784 C 0.0 **** 0.0
2 H 72.453 75.586 42.42 H 0.0 **** 0.0
3 H 71.579 74.102 41.968 H 0.0 **** 0.0
4 H 71.352 74.812 43.585 H 0.0 **** 0.0
5 H 72.896 74.031 43.164 H 0.0 **** 0.0
@<TRIPOS>BOND
1 1 2 1
2 1 3 1
3 1 4 1
4 1 5 1
@<TRIPOS>MOLECULE
CH4
5 4
SMALL
USER_CHARGES


@<TRIPOS>ATOM
1 C 6.52 38.31 96.407 C 0.0 **** 0.0
2 H 6.135 38.225 95.391 H 0.0 **** 0.0
3 H 7.322 37.587 96.553 H 0.0 **** 0.0
4 H 5.717 38.11 97.117 H 0.0 **** 0.0
5 H 6.904 39.317 96.567 H 0.0 **** 0.0
@<TRIPOS>BOND
1 1 2 1
2 1 3 1
3 1 4 1
4 1 5 1
@<TRIPOS>MOLECULE
CH4
5 4
SMALL
USER_CHARGES


@<TRIPOS>ATOM
1 C 66.732 35.031 5.202 C 0.0 **** 0.0
2 H 65.701 35.382 5.154 H 0.0 **** 0.0
3 H 67.258 35.326 4.293 H 0.0 **** 0.0
4 H 66.742 33.945 5.292 H 0.0 **** 0.0
5 H 67.225 35.473 6.067 H 0.0 **** 0.0
@<TRIPOS>BOND
1 1 2 1
2 1 3 1
3 1 4 1
4 1 5 1
@<TRIPOS>MOLECULE
CH4
5 4
SMALL
USER_CHARGES


@<TRIPOS>ATOM
1 C 19.084 57.718 21.204 C 0.0 **** 0.0
2 H 19.917 57.169 20.764 H 0.0 **** 0.0
3 H 19.319 57.968 22.238 H 0.0 **** 0.0
4 H 18.186 57.1 21.175 H 0.0 **** 0.0
5 H 18.913 58.634 20.638 H 0.0 **** 0.0
@<TRIPOS>BOND
1 1 2 1
2 1 3 1
3 1 4 1
4 1 5 1
@<TRIPOS>MOLECULE
CH4
5 4
SMALL
USER_CHARGES


@<TRIPOS>ATOM
1 C 43.488 53.367 67.979 C 0.0 **** 0.0
2 H 42.968 54.324 68.004 H 0.0 **** 0.0
3 H 43.656 53.018 68.998 H 0.0 **** 0.0
4 H 44.446 53.488 67.473 H 0.0 **** 0.0
5 H 42.883 52.638 67.44 H 0.0 **** 0.0
@<TRIPOS>BOND
1 1 2 1
2 1 3 1
3 1 4 1
4 1 5 1
@<TRIPOS>MOLECULE
CH4
5 4
SMALL
USER_CHARGES


@<TRIPOS>ATOM
1 C 89.839 38.811 60.276 C 0.0 **** 0.0
2 H 89.868 39.649 60.972 H 0.0 **** 0.0
3 H 90.735 38.824 59.655 H 0.0 **** 0.0
4 H 88.956 38.896 59.642 H 0.0 **** 0.0
5 H 89.797 37.876 60.834 H 0.0 **** 0.0
@<TRIPOS>BOND
1 1 2 1
2 1 3 1
3 1 4 1
4 1 5 1
@<TRIPOS>MOLECULE
CH4
5 4
SMALL
USER_CHARGES


@<TRIPOS>ATOM
1 C 62.896 72.429 97.382 C 0.0 **** 0.0
2 H 63.232 72.167 98.386 H 0.0 **** 0.0
3 H 62.544 71.532 96.872 H 0.0 **** 0.0
4 H 63.726 72.864 96.824 H 0.0 **** 0.0
5 H 62.084 73.153 97.448 H 0.0 **** 0.0
@<TRIPOS>BOND
1 1 4 1
2 1 5 1
3 1 3 1
4 1 2 1
@<TRIPOS>MOLECULE
CH4
5 4
SMALL
USER_CHARGES


@<TRIPOS>ATOM
1 C 53.801 82.106 77.463 C 0.0 **** 0.0
2 H 52.91 81.612 77.85 H 0.0 **** 0.0
3 H 54.167 82.822 78.199 H 0.0 **** 0.0
4 H 53.555 82.628 76.539 H 0.0 **** 0.0
5 H 54.572 81.361 77.266 H 0.0 **** 0.0
@<TRIPOS>BOND
1 1 2 1
2 1 3 1
3 1 4 1
4 1 5 1
@<TRIPOS>MOLECULE
CH4
5 4
SMALL
USER_CHARGES


@<TRIPOS>ATOM
1 C 55.405 52.819 72.414 C 0.0 **** 0.0
2 H 55.55 52.857 71.334 H 0.0 **** 0.0
3 H 54.48 53.335 72.674 H 0.0 **** 0.0
4 H 56.244 53.306 72.91 H 0.0 **** 0.0
5 H 55.345 51.78 72.736 H 0.0 **** 0.0
@<TRIPOS>BOND
1 1 2 1
2 1 3 1
3 1 4 1
4 1 5 1
@<TRIPOS>MOLECULE
CH4
5 4
SMALL
USER_CHARGES


@<TRIPOS>ATOM
1 C 58.395 50.791 97.097 C 0.0 **** 0.0
2 H 58.336 50.285 98.061 H 0.0 **** 0.0
3 H 58.485 51.866 97.256 H 0.0 **** 0.0
4 H 57.492 50.583 96.523 H 0.0 **** 0.0
5 H 59.265 50.429 96.549 H 0.0 **** 0.0
@<TRIPOS>BOND
1 1 2 1
2 1 3 1
3 1 4 1
4 1 5 1
@<TRIPOS>MOLECULE
CH4
5 4
SMALL
USER_CHARGES


@<TRIPOS>ATOM
1 C 10.936 18.081 43.031 C 0.0 **** 0.0
2 H 11.019 18.001 44.115 H 0.0 **** 0.0
3 H 10.318 18.943 42.776 H 0.0 **** 0.0
4 H 10.479 17.175 42.633 H 0.0 **** 0.0
5 H 11.93 18.206 42.599 H 0.0 **** 0.0
@<TRIPOS>BOND
1 1 2 1
2 1 3 1
3 1 4 1
4 1 5 1
@<TRIPOS>MOLECULE
CH4
5 4
SMALL
USER_CHARGES


@<TRIPOS>ATOM
1 C 94.921 61.989 46.054 C 0.0 **** 0.0
2 H 94.224 61.821 46.875 H 0.0 **** 0.0
3 H 95.909 61.625 46.336 H 0.0 **** 0.0
4 H 94.974 63.056 45.835 H 0.0 **** 0.0
5 H 94.576 61.454 45.169 H 0.0 **** 0.0
@<TRIPOS>BOND
1 1 2 1
2 1 3 1
3 1 4 1
4 1 5 1
@<TRIPOS>MOLECULE
CH4
5 4
SMALL
USER_CHARGES


@<TRIPOS>ATOM
1 C 1.788 37.621 76.677 C 0.0 **** 0.0
2 H 1.651 37.631 77.758 H 0.0 **** 0.0
3 H 2.543 36.88 76.413 H 0.0 **** 0.0
4 H 2.112 38.606 76.342 H 0.0 **** 0.0
5 H 0.844 37.366 76.194 H 0.0 **** 0.0
@<TRIPOS>BOND
1 1 2 1
2 1 3 1
3 1 4 1
4 1 5 1
@<TRIPOS>MOLECULE
CH4
5 4
SMALL
USER_CHARGES


@<TRIPOS>ATOM
1 C 70.847 53.487 94.968 C 0.0 **** 0.0
2 H 71.466 52.71 94.521 H 0.0 **** 0.0
3 H 71.008 53.504 96.046 H 0.0 **** 0.0
4 H 69.797 53.28 94.761 H 0.0 **** 0.0
5 H 71.116 54.455 94.545 H 0.0 **** 0.0
@<TRIPOS>BOND
1 1 2 1
2 1 3 1
3 1 4 1
4 1 5 1
@<TRIPOS>MOLECULE
CH4
5 4
SMALL
USER_CHARGES


@<TRIPOS>ATOM
1 C 88.423 43.143 81.08 C 0.0 **** 0.0
2 H 88.018 43.144 82.092 H 0.0 **** 0.0
3 H 89.312 43.773 81.044 H 0.0 **** 0.0
4 H 87.674 43.531 80.39 H 0.0 **** 0.0
5 H 88.687 42.125 80.795 H 0.0 **** 0.0
@<TRIPOS>BOND
1 1 3 1
2 1 4 1
3 1 5 1
4 1 2 1
@<TRIPOS>MOLECULE
CH4
5 4
SMALL
USER_CHARGES


@<TRIPOS>ATOM
1 C 66.569 96.168 96.734 C 0.0 **** 0.0
2 H 65.817 95.747 96.066 H 0.0 **** 0.0
3 H 66.883 97.142 96.36 H 0.0 **** 0.0
4 H 67.429 95.5 96.779 H 0.0 **** 0.0
5 H 66.145 96.281 97.732 H 0.0 **** 0.0
@<TRIPOS>BOND
1 1 2 1
2 1 3 1
3 1 4 1
4 1 5 1
@<TRIPOS>MOLECULE
CH4
5 4
SMALL
USER_CHARGES


@<TRIPOS>ATOM
1 C 93.411 63.768 69.66 C 0.0 **** 0.0
2 H 94.21 63.528 68.958 H 0.0 **** 0.0
3 H 92.779 64.549 69.237 H 0.0 **** 0.0
4 H 93.844 64.119 70.597 H 0.0 **** 0.0
5 H 92.812 62.877 69.847 H 0.0 **** 0.0
@<TRIPOS>BOND
1 1 2 1
2 1 3 1
3 1 4 1
4 1 5 1
@<TRIPOS>MOLECULE
CH4
5 4
SMALL
USER_CHARGES


@<TRIPOS>ATOM
1 C 37.648 30.836 4.141 C 0.0 **** 0.0
2 H 37.29 30.111 4.872 H 0.0 **** 0.0
3 H 38.431 30.382 3.533 H 0.0 **** 0.0
4 H 38.05 31.706 4.66 H 0.0 **** 0.0
5 H 36.822 31.144 3.5 H 0.0 **** 0.0
@<TRIPOS>BOND
1 1 2 1
2 1 3 1
3 1 4 1
4 1 5 1
@<TRIPOS>MOLECULE
CH4
5 4
SMALL
USER_CHARGES


@<TRIPOS>ATOM
1 C 64.967 52.905 78.554 C 0.0 **** 0.0
2 H 64.222 53.587 78.144 H 0.0 **** 0.0
3 H 65.557 52.481 77.74 H 0.0 **** 0.0
4 H 64.466 52.102 79.095 H 0.0 **** 0.0
5 H 65.623 53.448 79.234 H 0.0 **** 0.0
@<TRIPOS>BOND
1 1 2 1
2 1 3 1
3 1 4 1
4 1 5 1
@<TRIPOS>MOLECULE
CH4
5 4
SMALL
USER_CHARGES


@<TRIPOS>ATOM
1 C 43.327 98.383 55.63 C 0.0 **** 0.0
2 H 43.432 99.0 54.737 H 0.0 **** 0.0
3 H 44.294 97.952 55.889 H 0.0 **** 0.0
4 H 42.612 97.584 55.436 H 0.0 **** 0.0
5 H 42.969 98.998 56.455 H 0.0 **** 0.0
@<TRIPOS>BOND
1 1 2 1
2 1 3 1
3 1 4 1
4 1 5 1
@<TRIPOS>MOLECULE
CH4
5 4
SMALL
USER_CHARGES


@<TRIPOS>ATOM
1 C 56.001 8.026 2.354 C 0.0 **** 0.0
2 H 55.178 8.419 2.95 H 0.0 **** 0.0
3 H 56.944 8.425 2.729 H 0.0 **** 0.0
4 H 55.87 8.321 1.313 H 0.0 **** 0.0
5 H 56.013 6.938 2.424 H 0.0 **** 0.0
@<TRIPOS>BOND
1 1 2 1
2 1 3 1
3 1 4 1
4 1 5 1
@<TRIPOS>MOLECULE
CH4
5 4
SMALL
USER_CHARGES


@<TRIPOS>ATOM
1 C 33.808 70.896 90.611 C 0.0 **** 0.0
2 H 34.09 70.689 89.579 H 0.0 **** 0.0
3 H 33.512 69.968 91.1 H 0.0 **** 0.0
4 H 32.974 71.597 90.626 H 0.0 **** 0.0
5 H 34.658 71.331 91.139 H 0.0 **** 0.0
@<TRIPOS>BOND
1 1 2 1
2 1 3 1
3 1 4 1
4 1 5 1
@<TRIPOS>MOLECULE
CH4
5 4
SMALL
USER_CHARGES


@<TRIPOS>ATOM
1 C 1.042 94.498 38.439 C 0.0 **** 0.0
2 H 0.08 94.259 37.986 H 0.0 **** 0.0
3 H 0.882 95.085 39.343 H 0.0 **** 0.0
4 H 1.642 95.074 37.734 H 0.0 **** 0.0
5 H 1.564 93.575 38.691 H 0.0 **** 0.0
@<TRIPOS>BOND
1 1 2 1
2 1 3 1
3 1 4 1
4 1 5 1
@<TRIPOS>MOLECULE
CH4
5 4
SMALL
USER_CHARGES


@<TRIPOS>ATOM
1 C 31.644 78.946 37.732 C 0.0 **** 0.0
2 H 32.053 79.655 38.451 H 0.0 **** 0.0
3 H 30.621 79.229 37.483 H 0.0 **** 0.0
4 H 31.65 77.946 38.164 H 0.0 **** 0.0
5 H 32.254 78.954 36.828 H 0.0 **** 0.0
@<TRIPOS>BOND
1 1 2 1
2 1 3 1
3 1 4 1
4 1 5 1
@<TRIPOS>MOLECULE
CH4
5 4
SMALL
USER_CHARGES


@<TRIPOS>ATOM
1 C 27.685 65.579 54.5 C 0.0 **** 0.0
2 H 27.752 66.324 53.707 H 0.0 **** 0.0
3 H 26.748 65.03 54.404 H 0.0 **** 0.0
4 H 27.718 66.075 55.469 H 0.0 **** 0.0
5 H 28.522 64.885 54.417 H 0.0 **** 0.0
@<TRIPOS>BOND
1 1 2 1
2 1 3 1
3 1 4 1
4 1 5 1
@<TRIPOS>MOLECULE
CH4
5 4
SMALL
USER_CHARGES


@<TRIPOS>ATOM
1 C 29.966 54.222 4.333 C 0.0 **** 0.0
2 H 29.762 53.347 3.716 H 0.0 **** 0.0
3 H 30.24 55.062 3.693 H 0.0 **** 0.0
4 H 30.786 54.002 5.016 H 0.0 **** 0.0
5 H 29.074 54.478 4.906 H 0.0 **** 0.0
@<TRIPOS>BOND
1 1 2 1
2 1 3 1
3 1 4 1
4 1 5 1
@<TRIPOS>MOLECULE
CH4
5 4
SMALL
USER_CHARGES


@<TRIPOS>ATOM
1 C 45.136 40.477 85.114 C 0.0 **** 0.0
2 H 45.673 39.812 85.79 H 0.0 **** 0.0
3 H 45.509 41.494 85.233 H 0.0 **** 0.0
4 H 44.072 40.45 85.347 H 0.0 **** 0.0
5 H 45.292 40.151 84.085 H 0.0 **** 0.0
@<TRIPOS>BOND
1 1 2 1
2 1 3 1
3 1 4 1
4 1 5 1
@<TRIPOS>MOLECULE
CH4
5 4
SMALL
USER_CHARGES


@<TRIPOS>ATOM
1 C 54.359 80.777 45.285 C 0.0 **** 0.0
2 H 54.081 79.76 45.563 H 0.0 **** 0.0
3 H 55.326 81.022 45.725 H 0.0 **** 0.0
4 H 53.605 81.473 45.652 H 0.0 **** 0.0
5 H 54.424 80.851 44.199 H 0.0 **** 0.0
@<TRIPOS>BOND
1 1 2 1
2 1 3 1
3 1 4 1
4 1 5 1
@<TRIPOS>MOLECULE
CH4
5 4
SMALL
USER_CHARGES


@<TRIPOS>ATOM
1 C 39.291 2.181 42.574 C 0.0 **** 0.0
2 H 39.493 2.349 43.632 H 0.0 **** 0.0
3 H 40.078 2.641 41.977 H 0.0 **** 0.0
4 H 38.33 2.625 42.314 H 0.0 **** 0.0
5 H 39.262 1.11 42.375 H 0.0 **** 0.0
@<TRIPOS>BOND
1 1 2 1
2 1 3 1
3 1 4 1
4 1 5 1
@<TRIPOS>MOLECULE
CH4
5 4
SMALL
USER_CHARGES


@<TRIPOS>ATOM
1 C 71.085 58.379 47.357 C 0.0 **** 0.0
2 H 70.965 58.401 46.273 H 0.0 **** 0.0
3 H 72.145 58.326 47.604 H 0.0 **** 0.0
4 H 70.573 57.505 47.76 H 0.0 **** 0.0
5 H 70.655 59.283 47.788 H 0.0 **** 0.0
@<TRIPOS>BOND
1 1 2 1
2 1 3 1
3 1 4 1
4 1 5 1
@<TRIPOS>MOLECULE
CH4
5 4
SMALL
USER_CHARGES


@<TRIPOS>ATOM
1 C 9.079 15.381 69.235 C 0.0 **** 0.0
2 H 10.011 14.818 69.183 H 0.0 **** 0.0
3 H 8.532 15.265 68.299 H 0.0 **** 0.0
4 H 9.301 16.436 69.399 H 0.0 **** 0.0
5 H 8.474 15.005 70.06 H 0.0 **** 0.0
@<TRIPOS>BOND
1 1 2 1
2 1 3 1
3 1 4 1
4 1 5 1
@<TRIPOS>MOLECULE
CH4
5 4
SMALL
USER_CHARGES


@<TRIPOS>ATOM
1 C 29.499 98.494 77.633 C 0.0 **** 0.0
2 H 29.266 98.534 76.569 H 0.0 **** 0.0
3 H 28.709 98.992 78.196 H 0.0 **** 0.0
4 H 30.448 98.997 77.815 H 0.0 **** 0.0
5 H 29.572 97.454 77.95 H 0.0 **** 0.0
@<TRIPOS>BOND
1 1 2 1
2 1 3 1
3 1 4 1
4 1 5 1
@<TRIPOS>MOLECULE
CH4
5 4
SMALL
USER_CHARGES


@<TRIPOS>ATOM
1 C 70.581 64.403 75.343 C 0.0 **** 0.0
2 H 69.672 64.657 75.888 H 0.0 **** 0.0
3 H 70.809 63.347 75.49 H 0.0 **** 0.0
4 H 71.408 65.009 75.714 H 0.0 **** 0.0
5 H 70.435 64.599 74.281 H 0.0 **** 0.0
@<TRIPOS>BOND
1 1 2 1
2 1 3 1
3 1 4 1
4 1 5 1
@<TRIPOS>MOLECULE
CH4
5 4
SMALL
USER_CHARGES


@<TRIPOS>ATOM
1 C 48.579 15.334 86.8 C 0.0 **** 0.0
2 H 49.635 15.509 86.593 H 0.0 **** 0.0
3 H 48.257 15.985 87.613 H 0.0 **** 0.0
4 H 48.433 14.293 87.089 H 0.0 **** 0.0
5 H 47.993 15.55 85.907 H 0.0 **** 0.0
@<TRIPOS>BOND
1 1 2 1
2 1 3 1
3 1 4 1
4 1 5 1
@<TRIPOS>MOLECULE
CH4
5 4
SMALL
USER_CHARGES


@<TRIPOS>ATOM
1 C 53.005 79.336 98.073 C 0.0 **** 0.0
2 H 52.891 79.213 96.996 H 0.0 **** 0.0
3 H 53.597 78.512 98.472 H 0.0 **** 0.0
4 H 52.022 79.339 98.544 H 0.0 **** 0.0
5 H 53.51 80.28 98.279 H 0.0 **** 0.0
@<TRIPOS>BOND
1 1 2 1
2 1 3 1
3 1 4 1
4 1 5 1
@<TRIPOS>MOLECULE
CH4
5 4
SMALL
USER_CHARGES


@<TRIPOS>ATOM
1 C 68.696 16.152 73.433 C 0.0 **** 0.0
2 H 69.589 16.063 74.051 H 0.0 **** 0.0
3 H 67.824 15.839 74.007 H 0.0 **** 0.0
4 H 68.799 15.519 72.552 H 0.0 **** 0.0
5 H 68.573 17.19 73.121 H 0.0 **** 0.0
@<TRIPOS>BOND
1 1 2 1
2 1 3 1
3 1 4 1
4 1 5 1
@<TRIPOS>MOLECULE
CH4
5 4
SMALL
USER_CHARGES


@<TRIPOS>ATOM
1 C 38.761 73.816 65.85 C 0.0 **** 0.0
2 H 38.3 74.794 65.709 H 0.0 **** 0.0
3 H 38.19 73.063 65.305 H 0.0 **** 0.0
4 H 38.771 73.569 66.911 H 0.0 **** 0.0
5 H 39.784 73.84 65.473 H 0.0 **** 0.0
@<TRIPOS>BOND
1 1 2 1
2 1 3 1
3 1 4 1
4 1 5 1
@<TRIPOS>MOLECULE
CH4
5 4
SMALL
USER_CHARGES


@<TRIPOS>ATOM
1 C 80.628 12.744 95.47 C 0.0 **** 0.0
2 H 80.525 12.632 96.549 H 0.0 **** 0.0
3 H 80.897 13.775 95.236 H 0.0 **** 0.0
4 H 79.683 12.496 94.987 H 0.0 **** 0.0
5 H 81.408 12.074 95.108 H 0.0 **** 0.0
@<TRIPOS>BOND
1 1 2 1
2 1 3 1
3 1 4 1
4 1 5 1
@<TRIPOS>MOLECULE
CH4
5 4
SMALL
USER_CHARGES


@<TRIPOS>ATOM
1 C 69.656 7.073 71.296 C 0.0 **** 0.0
2 H 69.683 7.026 72.384 H 0.0 **** 0.0
3 H 68.986 6.302 70.916 H 0.0 **** 0.0
4 H 70.659 6.911 70.9 H 0.0 **** 0.0
5 H 69.296 8.053 70.984 H 0.0 **** 0.0
@<TRIPOS>BOND
1 1 2 1
2 1 3 1
3 1 4 1
4 1 5 1
@<TRIPOS>MOLECULE
CH4
5 4
SMALL
USER_CHARGES


@<TRIPOS>ATOM
1 C 21.415 73.174 18.654 C 0.0 **** 0.0
2 H 21.967 74.111 18.582 H 0.0 **** 0.0
3 H 21.017 73.063 19.662 H 0.0 **** 0.0
4 H 22.083 72.341 18.433 H 0.0 **** 0.0
5 H 20.594 73.18 17.937 H 0.0 **** 0.0
@<TRIPOS>BOND
1 1 2 1
2 1 3 1
3 1 4 1
4 1 5 1
@<TRIPOS>MOLECULE
CH4
5 4
SMALL
USER_CHARGES


@<TRIPOS>ATOM
1 C 25.887 39.645 35.928 C 0.0 **** 0.0
2 H 26.155 40.149 34.999 H 0.0 **** 0.0
3 H 24.98 40.092 36.335 H 0.0 **** 0.0
4 H 26.7 39.754 36.647 H 0.0 **** 0.0
5 H 25.715 38.587 35.731 H 0.0 **** 0.0
@<TRIPOS>BOND
1 1 2 1
2 1 3 1
3 1 4 1
4 1 5 1
@<TRIPOS>MOLECULE
CH4
5 4
SMALL
USER_CHARGES


@<TRIPOS>ATOM
1 C 65.523 71.384 53.066 C 0.0 **** 0.0
2 H 64.779 71.131 52.31 H 0.0 **** 0.0
3 H 65.718 72.456 53.038 H 0.0 **** 0.0
4 H 66.446 70.841 52.863 H 0.0 **** 0.0
5 H 65.148 71.107 54.051 H 0.0 **** 0.0
@<TRIPOS>BOND
1 1 2 1
2 1 3 1
3 1 4 1
4 1 5 1
@<TRIPOS>MOLECULE
CH4
5 4
SMALL
USER_CHARGES


@<TRIPOS>ATOM
1 C 79.835 15.974 0.674 C 0.0 **** 0.0
2 H 80.244 15.966 1.684 H 0.0 **** 0.0
3 H 78.889 16.516 0.67 H 0.0 **** 0.0
4 H 79.667 14.949 0.342 H 0.0 **** 0.0
5 H 80.538 16.463 0.0 H 0.0 **** 0.0
@<TRIPOS>BOND
1 1 2 1
2 1 3 1
3 1 4 1
4 1 5 1
@<TRIPOS>MOLECULE
CH4
5 4
SMALL
USER_CHARGES


@<TRIPOS>ATOM
1 C 13.292 1.258 17.078 C 0.0 **** 0.0
2 H 12.345 1.776 17.229 H 0.0 **** 0.0
3 H 13.968 1.897 16.509 H 0.0 **** 0.0
4 H 13.116 0.334 16.527 H 0.0 **** 0.0
5 H 13.738 1.027 18.045 H 0.0 **** 0.0
@<TRIPOS>BOND
1 1 2 1
2 1 3 1
3 1 4 1
4 1 5 1
@<TRIPOS>MOLECULE
CH4
5 4
SMALL
USER_CHARGES


@<TRIPOS>ATOM
1 C 77.501 12.575 12.965 C 0.0 **** 0.0
2 H 77.75 12.576 14.026 H 0.0 **** 0.0
3 H 78.389 12.327 12.384 H 0.0 **** 0.0
4 H 77.141 13.563 12.676 H 0.0 **** 0.0
5 H 76.723 11.835 12.775 H 0.0 **** 0.0
@<TRIPOS>BOND
1 1 2 1
2 1 3 1
3 1 4 1
4 1 5 1
@<TRIPOS>MOLECULE
CH4
5 4
SMALL
USER_CHARGES


@<TRIPOS>ATOM
1 C 29.89 33.772 84.444 C 0.0 **** 0.0
2 H 29.587 34.487 85.209 H 0.0 **** 0.0
3 H 30.286 32.875 84.922 H 0.0 **** 0.0
4 H 30.659 34.218 83.814 H 0.0 **** 0.0
5 H 29.027 33.507 83.833 H 0.0 **** 0.0
@<TRIPOS>BOND
1 1 2 1
2 1 3 1
3 1 4 1
4 1 5 1
@<TRIPOS>MOLECULE
CH4
5 4
SMALL
USER_CHARGES


@<TRIPOS>ATOM
1 C 35.265 27.212 80.796 C 0.0 **** 0.0
2 H 35.063 26.823 79.798 H 0.0 **** 0.0
3 H 36.129 26.697 81.218 H 0.0 **** 0.0
4 H 34.396 27.047 81.432 H 0.0 **** 0.0
5 H 35.473 28.28 80.734 H 0.0 **** 0.0
@<TRIPOS>BOND
1 1 2 1
2 1 3 1
3 1 4 1
4 1 5 1
@<TRIPOS>MOLECULE
CH4
5 4
SMALL
USER_CHARGES


@<TRIPOS>ATOM
1 C 8.184 19.515 39.661 C 0.0 **** 0.0
2 H 8.811 18.95 38.971 H 0.0 **** 0.0
3 H 8.773 20.308 40.121 H 0.0 **** 0.0
4 H 7.804 18.848 40.435 H 0.0 **** 0.0
5 H 7.348 19.952 39.116 H 0.0 **** 0.0
@<TRIPOS>BOND
1 1 2 1
2 1 3 1
3 1 4 1
4 1 5 1
@<TRIPOS>MOLECULE
CH4
5 4
SMALL
USER_CHARGES


@<TRIPOS>ATOM
1 C 59.067 31.881 40.047 C 0.0 **** 0.0
2 H 59.019 31.952 38.96 H 0.0 **** 0.0
3 H 58.523 30.996 40.377 H 0.0 **** 0.0
4 H 58.619 32.771 40.489 H 0.0 **** 0.0
5 H 60.109 31.805 40.359 H 0.0 **** 0.0
@<TRIPOS>BOND
1 1 3 1
2 1 4 1
3 1 5 1
4 1 2 1
@<TRIPOS>MOLECULE
CH4
5 4
SMALL
USER_CHARGES


@<TRIPOS>ATOM
1 C 7.916 9.984 48.423 C 0.0 **** 0.0
2 H 7.802 10.382 49.431 H 0.0 **** 0.0
3 H 8.289 8.96 48.477 H 0.0 **** 0.0
4 H 8.624 10.599 47.867 H 0.0 **** 0.0
5 H 6.951 9.993 47.917 H 0.0 **** 0.0
@<TRIPOS>BOND
1 1 2 1
2 1 3 1
3 1 4 1
4 1 5 1
@<TRIPOS>MOLECULE
CH4
5 4
SMALL
USER_CHARGES


@<TRIPOS>ATOM
1 C 20.993 12.944 38.298 C 0.0 **** 0.0
2 H 20.977 12.948 39.387 H 0.0 **** 0.0
3 H 20.966 13.971 37.931 H 0.0 **** 0.0
4 H 20.125 12.401 37.924 H 0.0 **** 0.0
5 H 21.904 12.457 37.949 H 0.0 **** 0.0
@<TRIPOS>BOND
1 1 2 1
2 1 3 1
3 1 4 1
4 1 5 1
@<TRIPOS>MOLECULE
CH4
5 4
SMALL
USER_CHARGES


@<TRIPOS>ATOM
1 C 76.679 82.821 13.024 C 0.0 **** 0.0
2 H 76.655 82.529 11.974 H 0.0 **** 0.0
3 H 76.408 81.966 13.645 H 0.0 **** 0.0
4 H 75.969 83.631 13.192 H 0.0 **** 0.0
5 H 77.682 83.157 13.285 H 0.0 **** 0.0
@<TRIPOS>BOND
1 1 2 1
2 1 3 1
3 1 4 1
4 1 5 1
@<TRIPOS>MOLECULE
CH4
5 4
SMALL
USER_CHARGES


@<TRIPOS>ATOM
1 C 76.586 46.915 82.516 C 0.0 **** 0.0
2 H 76.481 46.856 83.6 H 0.0 **** 0.0
3 H 76.904 47.92 82.237 H 0.0 **** 0.0
4 H 75.628 46.694 82.046 H 0.0 **** 0.0
5 H 77.33 46.192 82.183 H 0.0 **** 0.0
@<TRIPOS>BOND
1 1 2 1
2 1 3 1
3 1 4 1
4 1 5 1
@<TRIPOS>MOLECULE
CH4
5 4
SMALL
USER_CHARGES


@<TRIPOS>ATOM
1 C 53.665 80.63 28.644 C 0.0 **** 0.0
2 H 53.108 79.963 27.986 H 0.0 **** 0.0
3 H 53.0 81.02 29.415 H 0.0 **** 0.0
4 H 54.071 81.457 28.062 H 0.0 **** 0.0
5 H 54.481 80.08 29.112 H 0.0 **** 0.0
@<TRIPOS>BOND
1 1 2 1
2 1 3 1
3 1 4 1
4 1 5 1
@<TRIPOS>MOLECULE
CH4
5 4
SMALL
USER_CHARGES


@<TRIPOS>ATOM
1 C 2.857 56.118 52.28 C 0.0 **** 0.0
2 H 3.555 56.036 51.446 H 0.0 **** 0.0
3 H 1.886 55.722 51.981 H 0.0 **** 0.0
4 H 2.751 57.166 52.562 H 0.0 **** 0.0
5 H 3.237 55.55 53.128 H 0.0 **** 0.0
@<TRIPOS>BOND
1 1 2 1
2 1 3 1
3 1 4 1
4 1 5 1
@<TRIPOS>MOLECULE
CH4
5 4
SMALL
USER_CHARGES


@<TRIPOS>ATOM
1 C 30.38 44.788 74.784 C 0.0 **** 0.0
2 H 30.527 44.782 75.864 H 0.0 **** 0.0
3 H 31.188 45.347 74.311 H 0.0 **** 0.0
4 H 29.426 45.26 74.551 H 0.0 **** 0.0
5 H 30.38 43.764 74.411 H 0.0 **** 0.0
@<TRIPOS>BOND
1 1 2 1
2 1 3 1
3 1 4 1
4 1 5 1
@<TRIPOS>MOLECULE
CH4
5 4
SMALL
USER_CHARGES


@<TRIPOS>ATOM
1 C 60.828 69.401 72.73 C 0.0 **** 0.0
2 H 60.78 68.642 71.949 H 0.0 **** 0.0
3 H 60.294 69.049 73.613 H 0.0 **** 0.0
4 H 60.367 70.321 72.37 H 0.0 **** 0.0
5 H 61.87 69.593 72.986 H 0.0 **** 0.0
@<TRIPOS>BOND
1 1 2 1
2 1 3 1
3 1 4 1
4 1 5 1
@<TRIPOS>MOLECULE
CH4
5 4
SMALL
USER_CHARGES


@<TRIPOS>ATOM
1 C 34.694 6.574 52.31 C 0.0 **** 0.0
2 H 33.944 6.426 53.087 H 0.0 **** 0.0
3 H 35.244 7.495 52.507 H 0.0 **** 0.0
4 H 34.203 6.644 51.34 H 0.0 **** 0.0
5 H 35.385 5.731 52.308 H 0.0 **** 0.0
@<TRIPOS>BOND
1 1 2 1
2 1 3 1
3 1 4 1
4 1 5 1
@<TRIPOS>MOLECULE
CH4
5 4
SMALL
USER_CHARGES


@<TRIPOS>ATOM
1 C 71.386 75.882 50.512 C 0.0 **** 0.0
2 H 71.396 75.862 51.602 H 0.0 **** 0.0
3 H 72.078 76.646 50.157 H 0.0 **** 0.0
4 H 70.38 76.111 50.162 H 0.0 **** 0.0
5 H 71.691 74.909 50.128 H 0.0 **** 0.0
@<TRIPOS>BOND
1 1 2 1
2 1 3 1
3 1 4 1
4 1 5 1
@<TRIPOS>MOLECULE
CH4
5 4
SMALL
USER_CHARGES


@<TRIPOS>ATOM
1 C 1.83 89.684 79.823 C 0.0 **** 0.0
2 H 2.452 89.796 78.935 H 0.0 **** 0.0
3 H 2.216 88.868 80.436 H 0.0 **** 0.0
4 H 0.806 89.461 79.524 H 0.0 **** 0.0
5 H 1.847 90.61 80.398 H 0.0 **** 0.0
@<TRIPOS>BOND
1 1 2 1
2 1 3 1
3 1 4 1
4 1 5 1
@<TRIPOS>MOLECULE
CH4
5 4
SMALL
USER_CHARGES


@<TRIPOS>ATOM
1 C 65.601 76.175 26.508 C 0.0 **** 0.0
2 H 65.994 75.707 25.606 H 0.0 **** 0.0
3 H 64.85 76.917 26.235 H 0.0 **** 0.0
4 H 66.414 76.663 27.048 H 0.0 **** 0.0
5 H 65.148 75.415 27.144 H 0.0 **** 0.0
@<TRIPOS>BOND
1 1 2 1
2 1 3 1
3 1 4 1
4 1 5 1
@<TRIPOS>MOLECULE
CH4
5 4
SMALL
USER_CHARGES


@<TRIPOS>ATOM
1 C 81.651 37.592 9.788 C 0.0 **** 0.0
2 H 82.195 37.671 10.73 H 0.0 **** 0.0
3 H 80.601 37.38 9.992 H 0.0 **** 0.0
4 H 82.075 36.785 9.19 H 0.0 **** 0.0
5 H 81.733 38.531 9.242 H 0.0 **** 0.0
@<TRIPOS>BOND
1 1 2 1
2 1 3 1
3 1 4 1
4 1 5 1
@<TRIPOS>MOLECULE
CH4
5 4
SMALL
USER_CHARGES


@<TRIPOS>ATOM
1 C 47.992 42.521 85.465 C 0.0 **** 0.0
2 H 47.874 42.336 84.397 H 0.0 **** 0.0
3 H 47.586 41.679 86.026 H 0.0 **** 0.0
4 H 47.458 43.431 85.737 H 0.0 **** 0.0
5 H 49.051 42.637 85.698 H 0.0 **** 0.0
@<TRIPOS>BOND
1 1 2 1
2 1 3 1
3 1 4 1
4 1 5 1
@<TRIPOS>MOLECULE
CH4
5 4
SMALL
USER_CHARGES


@<TRIPOS>ATOM
1 C 41.93 87.191 69.354 C 0.0 **** 0.0
2 H 41.649 87.464 68.337 H 0.0 **** 0.0
3 H 42.128 86.12 69.401 H 0.0 **** 0.0
4 H 41.116 87.441 70.035 H 0.0 **** 0.0
5 H 42.826 87.74 69.643 H 0.0 **** 0.0
@<TRIPOS>BOND
1 1 2 1
2 1 3 1
3 1 4 1
4 1 5 1
@<TRIPOS>MOLECULE
CH4
5 4
SMALL
USER_CHARGES


@<TRIPOS>ATOM
1 C 48.317 74.366 93.075 C 0.0 **** 0.0
2 H 48.404 75.189 93.784 H 0.0 **** 0.0
3 H 47.782 74.707 92.188 H 0.0 **** 0.0
4 H 47.769 73.545 93.537 H 0.0 **** 0.0
5 H 49.312 74.024 92.79 H 0.0 **** 0.0
@<TRIPOS>BOND
1 1 2 1
2 1 3 1
3 1 4 1
4 1 5 1
@<TRIPOS>MOLECULE
CH4
5 4
SMALL
USER_CHARGES


@<TRIPOS>ATOM
1 C 68.619 53.582 66.798 C 0.0 **** 0.0
2 H 69.154 54.384 67.307 H 0.0 **** 0.0
3 H 69.049 52.621 67.081 H 0.0 **** 0.0
4 H 68.704 53.715 65.72 H 0.0 **** 0.0
5 H 67.567 53.608 67.085 H 0.0 **** 0.0
@<TRIPOS>BOND
1 1 2 1
2 1 3 1
3 1 4 1
4 1 5 1
@<TRIPOS>MOLECULE
CH4
5 4
SMALL
USER_CHARGES


@<TRIPOS>ATOM
1 C 59.517 40.451 66.545 C 0.0 **** 0.0
2 H 59.451 40.94 67.517 H 0.0 **** 0.0
3 H 58.52 40.367 66.112 H 0.0 **** 0.0
4 H 59.946 39.457 66.667 H 0.0 **** 0.0
5 H 60.152 41.042 65.885 H 0.0 **** 0.0
@<TRIPOS>BOND
1 1 2 1
2 1 3 1
3 1 4 1
4 1 5 1
@<TRIPOS>MOLECULE
CH4
5 4
SMALL
USER_CHARGES


@<TRIPOS>ATOM
1 C 29.807 52.474 12.523 C 0.0 **** 0.0
2 H 29.967 52.459 11.445 H 0.0 **** 0.0
3 H 30.249 51.582 12.968 H 0.0 **** 0.0
4 H 28.737 52.491 12.73 H 0.0 **** 0.0
5 H 30.273 53.362 12.948 H 0.0 **** 0.0
@<TRIPOS>BOND
1 1 2 1
2 1 3 1
3 1 4 1
4 1 5 1
@<TRIPOS>MOLECULE
CH4
5 4
SMALL
USER_CHARGES


@<TRIPOS>ATOM
1 C 72.64 71.448 85.959 C 0.0 **** 0.0
2 H 73.325 72.285 86.097 H 0.0 **** 0.0
3 H 72.757 71.046 84.952 H 0.0 **** 0.0
4 H 71.615 71.791 86.097 H 0.0 **** 0.0
5 H 72.865 70.671 86.689 H 0.0 **** 0.0
@<TRIPOS>BOND
1 1 2 1
2 1 3 1
3 1 4 1
4 1 5 1
@<TRIPOS>MOLECULE
CH4
5 4
SMALL
USER_CHARGES


@<TRIPOS>ATOM
1 C 60.512 0.996 48.0 C 0.0 **** 0.0
2 H 60.881 1.119 46.981 H 0.0 **** 0.0
3 H 61.289 0.539 48.614 H 0.0 **** 0.0
4 H 59.631 0.354 47.991 H 0.0 **** 0.0
5 H 60.248 1.97 48.411 H 0.0 **** 0.0
@<TRIPOS>BOND
1 1 2 1
2 1 3 1
3 1 4 1
4 1 5 1
@<TRIPOS>MOLECULE
CH4
5 4
SMALL
USER_CHARGES


@<TRIPOS>ATOM
1 C 27.557 59.136 82.566 C 0.0 **** 0.0
2 H 27.168 59.591 83.477 H 0.0 **** 0.0
3 H 28.02 59.904 81.946 H 0.0 **** 0.0
4 H 26.74 58.668 82.016 H 0.0 **** 0.0
5 H 28.299 58.381 82.826 H 0.0 **** 0.0
@<TRIPOS>BOND
1 1 2 1
2 1 3 1
3 1 4 1
4 1 5 1
@<TRIPOS>MOLECULE
CH4
5 4
SMALL
USER_CHARGES


@<TRIPOS>ATOM
1 C 65.475 57.483 29.261 C 0.0 **** 0.0
2 H 65.02 57.518 28.271 H 0.0 **** 0.0
3 H 64.697 57.553 30.021 H 0.0 **** 0.0
4 H 66.167 58.318 29.372 H 0.0 **** 0.0
5 H 66.016 56.544 29.38 H 0.0 **** 0.0
@<TRIPOS>BOND
1 1 2 1
2 1 3 1
3 1 4 1
4 1 5 1
@<TRIPOS>MOLECULE
CH4
5 4
SMALL
USER_CHARGES


@<TRIPOS>ATOM
1 C 36.889 2.888 20.94 C 0.0 **** 0.0
2 H 37.268 3.079 21.944 H 0.0 **** 0.0
3 H 37.68 2.449 20.331 H 0.0 **** 0.0
4 H 36.562 3.825 20.49 H 0.0 **** 0.0
5 H 36.047 2.198 20.995 H 0.0 **** 0.0
@<TRIPOS>BOND
1 1 2 1
2 1 3 1
3 1 4 1
4 1 5 1
@<TRIPOS>MOLECULE
CH4
5 4
SMALL
USER_CHARGES


@<TRIPOS>ATOM
1 C 55.006 18.827 11.915 C 0.0 **** 0.0
2 H 55.7 18.335 11.233 H 0.0 **** 0.0
3 H 55.454 18.887 12.907 H 0.0 **** 0.0
4 H 54.081 18.254 11.967 H 0.0 **** 0.0
5 H 54.792 19.832 11.551 H 0.0 **** 0.0
@<TRIPOS>BOND
1 1 2 1
2 1 3 1
3 1 4 1
4 1 5 1
@<TRIPOS>MOLECULE
CH4
5 4
SMALL
USER_CHARGES


@<TRIPOS>ATOM
1 C 49.082 73.502 76.075 C 0.0 **** 0.0
2 H 49.089 73.463 77.164 H 0.0 **** 0.0
3 H 48.917 74.53 75.75 H 0.0 **** 0.0
4 H 48.282 72.867 75.694 H 0.0 **** 0.0
5 H 50.039 73.149 75.692 H 0.0 **** 0.0
@<TRIPOS>BOND
1 1 2 1
2 1 3 1
3 1 4 1
4 1 5 1
@<TRIPOS>MOLECULE
CH4
5 4
SMALL
USER_CHARGES


@<TRIPOS>ATOM
1 C 80.514 9.817 21.362 C 0.0 **** 0.0
2 H 81.503 10.255 21.229 H 0.0 **** 0.0
3 H 80.359 9.038 20.615 H 0.0 **** 0.0
4 H 79.756 10.591 21.243 H 0.0 **** 0.0
5 H 80.439 9.385 22.36 H 0.0 **** 0.0
@<TRIPOS>BOND
1 1 2 1
2 1 3 1
3 1 4 1
4 1 5 1
@<TRIPOS>MOLECULE
CH4
5 4
SMALL
USER_CHARGES


@<TRIPOS>ATOM
1 C 58.653 28.743 45.963 C 0.0 **** 0.0
2 H 59.396 29.54 45.962 H 0.0 **** 0.0
3 H 58.465 28.424 46.989 H 0.0 **** 0.0
4 H 59.026 27.899 45.383 H 0.0 **** 0.0
5 H 57.727 29.109 45.52 H 0.0 **** 0.0
@<TRIPOS>BOND
1 1 2 1
2 1 3 1
3 1 4 1
4 1 5 1
@<TRIPOS>MOLECULE
CH4
5 4
SMALL
USER_CHARGES


@<TRIPOS>ATOM
1 C 50.81 49.644 28.152 C 0.0 **** 0.0
2 H 50.961 49.397 29.203 H 0.0 **** 0.0
3 H 49.99 50.357 28.061 H 0.0 **** 0.0
4 H 50.567 48.738 27.597 H 0.0 **** 0.0
5 H 51.722 50.085 27.748 H 0.0 **** 0.0
@<TRIPOS>BOND
1 1 2 1
2 1 3 1
3 1 4 1
4 1 5 1
@<TRIPOS>MOLECULE
CH4
5 4
SMALL
USER_CHARGES


@<TRIPOS>ATOM
1 C 8.925 65.782 43.161 C 0.0 **** 0.0
2 H 8.147 65.7 43.92 H 0.0 **** 0.0
3 H 9.516 66.68 43.343 H 0.0 **** 0.0
4 H 8.466 65.842 42.175 H 0.0 **** 0.0
5 H 9.571 64.905 43.208 H 0.0 **** 0.0
@<TRIPOS>BOND
1 1 2 1
2 1 3 1
3 1 4 1
4 1 5 1
@<TRIPOS>MOLECULE
CH4
5 4
SMALL
USER_CHARGES


@<TRIPOS>ATOM
1 C 15.837 66.728 52.375 C 0.0 **** 0.0
2 H 16.034 65.798 51.84 H 0.0 **** 0.0
3 H 16.358 66.712 53.333 H 0.0 **** 0.0
4 H 14.765 66.829 52.545 H 0.0 **** 0.0
5 H 16.192 67.57 51.781 H 0.0 **** 0.0
@<TRIPOS>BOND
1 1 2 1
2 1 3 1
3 1 4 1
4 1 5 1
@<TRIPOS>MOLECULE
CH4
5 4
SMALL
USER_CHARGES


@<TRIPOS>ATOM
1 C 96.169 85.407 42.444 C 0.0 **** 0.0
2 H 95.206 85.027 42.785 H 0.0 **** 0.0
3 H 96.332 86.404 42.853 H 0.0 **** 0.0
4 H 96.174 85.456 41.355 H 0.0 **** 0.0
5 H 96.963 84.741 42.781 H 0.0 **** 0.0
@<TRIPOS>BOND
1 1 2 1
2 1 3 1
3 1 4 1
4 1 5 1
@<TRIPOS>MOLECULE
CH4
5 4
SMALL
USER_CHARGES


@<TRIPOS>ATOM
1 C 33.238 5.946 10.405 C 0.0 **** 0.0
2 H 32.674 5.215 9.826 H 0.0 **** 0.0
3 H 34.176 5.5 10.737 H 0.0 **** 0.0
4 H 32.654 6.252 11.272 H 0.0 **** 0.0
5 H 33.45 6.816 9.784 H 0.0 **** 0.0
@<TRIPOS>BOND
1 1 2 1
2 1 3 1
3 1 4 1
4 1 5 1
@<TRIPOS>MOLECULE
CH4
5 4
SMALL
USER_CHARGES


@<TRIPOS>ATOM
1 C 10.316 43.501 46.724 C 0.0 **** 0.0
2 H 10.111 42.449 46.921 H 0.0 **** 0.0
3 H 9.386 44.067 46.77 H 0.0 **** 0.0
4 H 10.757 43.604 45.732 H 0.0 **** 0.0
5 H 11.011 43.882 47.472 H 0.0 **** 0.0
@<TRIPOS>BOND
1 1 2 1
2 1 3 1
3 1 4 1
4 1 5 1
@<TRIPOS>MOLECULE
CH4
5 4
SMALL
USER_CHARGES


@<TRIPOS>ATOM
1 C 89.763 81.404 58.564 C 0.0 **** 0.0
2 H 90.687 80.83 58.635 H 0.0 **** 0.0
3 H 89.519 81.572 57.515 H 0.0 **** 0.0
4 H 89.893 82.364 59.065 H 0.0 **** 0.0
5 H 88.955 80.851 59.042 H 0.0 **** 0.0
@<TRIPOS>BOND
1 1 2 1
2 1 3 1
3 1 4 1
4 1 5 1
@<TRIPOS>MOLECULE
CH4
5 4
SMALL
USER_CHARGES


@<TRIPOS>ATOM
1 C 53.186 67.627 81.125 C 0.0 **** 0.0
2 H 53.493 68.02 80.155 H 0.0 **** 0.0
3 H 52.111 67.446 81.12 H 0.0 **** 0.0
4 H 53.43 68.351 81.903 H 0.0 **** 0.0
5 H 53.712 66.693 81.32 H 0.0 **** 0.0
@<TRIPOS>BOND
1 1 2 1
2 1 3 1
3 1 4 1
4 1 5 1
@<TRIPOS>MOLECULE
CH4
5 4
SMALL
USER_CHARGES


@<TRIPOS>ATOM
1 C 80.769 87.57 37.101 C 0.0 **** 0.0
2 H 81.091 87.016 36.22 H 0.0 **** 0.0
3 H 79.984 87.012 37.613 H 0.0 **** 0.0
4 H 80.384 88.543 36.797 H 0.0 **** 0.0
5 H 81.616 87.707 37.773 H 0.0 **** 0.0
@<TRIPOS>BOND
1 1 2 1
2 1 3 1
3 1 4 1
4 1 5 1
@<TRIPOS>MOLECULE
CH4
5 4
SMALL
USER_CHARGES


@<TRIPOS>ATOM
1 C 16.255 84.175 52.315 C 0.0 **** 0.0
2 H 16.38 83.602 51.395 H 0.0 **** 0.0
3 H 15.385 83.804 52.857 H 0.0 **** 0.0
4 H 16.11 85.227 52.07 H 0.0 **** 0.0
5 H 17.145 84.065 52.935 H 0.0 **** 0.0
@<TRIPOS>BOND
1 1 2 1
2 1 3 1
3 1 4 1
4 1 5 1
@<TRIPOS>MOLECULE
CH4
5 4
SMALL
USER_CHARGES


@<TRIPOS>ATOM
1 C 57.6 11.05 41.414 C 0.0 **** 0.0
2 H 57.348 10.121 41.926 H 0.0 **** 0.0
3 H 58.394 11.561 41.959 H 0.0 **** 0.0
4 H 56.719 11.69 41.368 H 0.0 **** 0.0
5 H 57.939 10.825 40.402 H 0.0 **** 0.0
@<TRIPOS>BOND
1 1 2 1
2 1 3 1
3 1 4 1
4 1 5 1
@<TRIPOS>MOLECULE
CH4
5 4
SMALL
USER_CHARGES


@<TRIPOS>ATOM
1 C 74.297 81.434 26.955 C 0.0 **** 0.0
2 H 73.466 81.758 26.329 H 0.0 **** 0.0
3 H 74.746 80.537 26.527 H 0.0 **** 0.0
4 H 73.932 81.214 27.958 H 0.0 **** 0.0
5 H 75.044 82.226 27.006 H 0.0 **** 0.0
@<TRIPOS>BOND
1 1 2 1
2 1 3 1
3 1 4 1
4 1 5 1
@<TRIPOS>MOLECULE
CH4
5 4
SMALL
USER_CHARGES


@<TRIPOS>ATOM
1 C 92.262 15.33 68.745 C 0.0 **** 0.0
2 H 92.806 15.232 67.806 H 0.0 **** 0.0
3 H 92.899 15.814 69.485 H 0.0 **** 0.0
4 H 91.974 14.341 69.103 H 0.0 **** 0.0
5 H 91.368 15.932 68.585 H 0.0 **** 0.0
@<TRIPOS>BOND
1 1 2 1
2 1 3 1
3 1 4 1
4 1 5 1
@<TRIPOS>MOLECULE
CH4
5 4
SMALL
USER_CHARGES


@<TRIPOS>ATOM
1 C 29.948 82.835 91.477 C 0.0 **** 0.0
2 H 29.714 82.858 90.413 H 0.0 **** 0.0
3 H 29.547 83.728 91.956 H 0.0 **** 0.0
4 H 31.029 82.805 91.61 H 0.0 **** 0.0
5 H 29.501 81.949 91.928 H 0.0 **** 0.0
@<TRIPOS>BOND
1 1 2 1
2 1 3 1
3 1 4 1
4 1 5 1
@<TRIPOS>MOLECULE
CH4
5 4
SMALL
USER_CHARGES


@<TRIPOS>ATOM
1 C 57.888 81.56 2.717 C 0.0 **** 0.0
2 H 57.991 82.405 3.398 H 0.0 **** 0.0
3 H 58.857 81.332 2.273 H 0.0 **** 0.0
4 H 57.178 81.813 1.929 H 0.0 **** 0.0
5 H 57.526 80.692 3.267 H 0.0 **** 0.0
@<TRIPOS>BOND
1 1 2 1
2 1 3 1
3 1 4 1
4 1 5 1
@<TRIPOS>MOLECULE
CH4
5 4
SMALL
USER_CHARGES


@<TRIPOS>ATOM
1 C 43.53 34.139 72.876 C 0.0 **** 0.0
2 H 44.398 34.394 73.484 H 0.0 **** 0.0
3 H 42.899 33.437 73.422 H 0.0 **** 0.0
4 H 43.861 33.682 71.944 H 0.0 **** 0.0
5 H 42.963 35.043 72.657 H 0.0 **** 0.0
@<TRIPOS>BOND
1 1 2 1
2 1 3 1
3 1 4 1
4 1 5 1
@<TRIPOS>MOLECULE
CH4
5 4
SMALL
USER_CHARGES


@<TRIPOS>ATOM
1 C 78.061 24.268 74.331 C 0.0 **** 0.0
2 H 77.249 23.549 74.437 H 0.0 **** 0.0
3 H 77.672 25.278 74.464 H 0.0 **** 0.0
4 H 78.5 24.176 73.337 H 0.0 **** 0.0
5 H 78.823 24.07 75.084 H 0.0 **** 0.0
@<TRIPOS>BOND
1 1 2 1
2 1 3 1
3 1 4 1
4 1 5 1
@<TRIPOS>MOLECULE
CH4
5 4
SMALL
USER_CHARGES


@<TRIPOS>ATOM
1 C 49.116 49.804 49.22 C 0.0 **** 0.0
2 H 50.007 50.293 49.613 H 0.0 **** 0.0
3 H 49.129 48.749 49.497 H 0.0 **** 0.0
4 H 49.1 49.894 48.134 H 0.0 **** 0.0
5 H 48.228 50.278 49.638 H 0.0 **** 0.0
@<TRIPOS>BOND
1 1 2 1
2 1 3 1
3 1 4 1
4 1 5 1
@<TRIPOS>MOLECULE
CH4
5 4
SMALL
USER_CHARGES


@<TRIPOS>ATOM
1 C 18.267 75.949 11.637 C 0.0 **** 0.0
2 H 18.178 76.489 12.579 H 0.0 **** 0.0
3 H 17.424 75.265 11.529 H 0.0 **** 0.0
4 H 19.198 75.383 11.629 H 0.0 **** 0.0
5 H 18.266 76.659 10.81 H 0.0 **** 0.0
@<TRIPOS>BOND
1 1 2 1
2 1 3 1
3 1 4 1
4 1 5 1
@<TRIPOS>MOLECULE
CH4
5 4
SMALL
USER_CHARGES


@<TRIPOS>ATOM
1 C 13.032 18.296 60.285 C 0.0 **** 0.0
2 H 12.786 17.364 59.775 H 0.0 **** 0.0
3 H 12.416 19.102 59.886 H 0.0 **** 0.0
4 H 14.085 18.529 60.127 H 0.0 **** 0.0
5 H 12.84 18.186 61.353 H 0.0 **** 0.0
@<TRIPOS>BOND
1 1 2 1
2 1 3 1
3 1 4 1
4 1 5 1
@<TRIPOS>MOLECULE
CH4
5 4
SMALL
USER_CHARGES


@<TRIPOS>ATOM
1 C 91.97 48.697 47.718 C 0.0 **** 0.0
2 H 92.809 48.079 48.035 H 0.0 **** 0.0
3 H 92.165 49.09 46.72 H 0.0 **** 0.0
4 H 91.844 49.525 48.416 H 0.0 **** 0.0
5 H 91.062 48.095 47.7 H 0.0 **** 0.0
@<TRIPOS>BOND
1 1 2 1
2 1 3 1
3 1 4 1
4 1 5 1
@<TRIPOS>MOLECULE
CH4
5 4
SMALL
USER_CHARGES


@<TRIPOS>ATOM
1 C 75.016 90.89 11.345 C 0.0 **** 0.0
2 H 75.261 90.155 12.111 H 0.0 **** 0.0
3 H 74.532 90.391 10.505 H 0.0 **** 0.0
4 H 75.929 91.377 11.003 H 0.0 **** 0.0
5 H 74.34 91.637 11.762 H 0.0 **** 0.0
@<TRIPOS>BOND
1 1 2 1
2 1 3 1
3 1 4 1
4 1 5 1
@<TRIPOS>MOLECULE
CH4
5 4
SMALL
USER_CHARGES


@<TRIPOS>ATOM
1 C 57.589 9.983 12.618 C 0.0 **** 0.0
2 H 57.99 10.992 12.709 H 0.0 **** 0.0
3 H 58.407 9.263 12.635 H 0.0 **** 0.0
4 H 57.044 9.892 11.678 H 0.0 **** 0.0
5 H 56.913 9.784 13.45 H 0.0 **** 0.0
@<TRIPOS>BOND
1 1 2 1
2 1 3 1
3 1 4 1
4 1 5 1
@<TRIPOS>MOLECULE
CH4
5 4
SMALL
USER_CHARGES


@<TRIPOS>ATOM
1 C 86.166 2.386 79.203 C 0.0 **** 0.0
2 H 85.954 1.446 79.713 H 0.0 **** 0.0
3 H 86.613 2.178 78.231 H 0.0 **** 0.0
4 H 86.857 2.977 79.803 H 0.0 **** 0.0
5 H 85.238 2.941 79.065 H 0.0 **** 0.0
@<TRIPOS>BOND
1 1 2 1
2 1 3 1
3 1 4 1
4 1 5 1
@<TRIPOS>MOLECULE
CH4
5 4
SMALL
USER_CHARGES


@<TRIPOS>ATOM
1 C 8.405 16.532 21.492 C 0.0 **** 0.0
2 H 8.252 16.449 20.416 H 0.0 **** 0.0
3 H 7.522 16.164 22.013 H 0.0 **** 0.0
4 H 8.574 17.576 21.755 H 0.0 **** 0.0
5 H 9.273 15.939 21.782 H 0.0 **** 0.0
@<TRIPOS>BOND
1 1 3 1
2 1 4 1
3 1 2 1
4 1 5 1
@<TRIPOS>MOLECULE
CH4
5 4
SMALL
USER_CHARGES


@<TRIPOS>ATOM
1 C 88.81 6.852 30.647 C 0.0 **** 0.0
2 H 87.821 7.235 30.398 H 0.0 **** 0.0
3 H 89.248 6.377 29.769 H 0.0 **** 0.0
4 H 88.725 6.122 31.452 H 0.0 **** 0.0
5 H 89.447 7.676 30.97 H 0.0 **** 0.0
@<TRIPOS>BOND
1 1 2 1
2 1 3 1
3 1 4 1
4 1 5 1
@<TRIPOS>MOLECULE
CH4
5 4
SMALL
USER_CHARGES


@<TRIPOS>ATOM
1 C 75.313 51.08 22.447 C 0.0 **** 0.0
2 H 74.962 50.871 21.437 H 0.0 **** 0.0
3 H 75.456 50.142 22.984 H 0.0 **** 0.0
4 H 74.576 51.69 22.969 H 0.0 **** 0.0
5 H 76.26 51.619 22.398 H 0.0 **** 0.0
@<TRIPOS>BOND
1 1 2 1
2 1 3 1
3 1 4 1
4 1 5 1
@<TRIPOS>MOLECULE
CH4
5 4
SMALL
USER_CHARGES


@<TRIPOS>ATOM
1 C 49.214 60.093 48.988 C 0.0 **** 0.0
2 H 49.34 60.848 49.764 H 0.0 **** 0.0
3 H 50.179 59.639 48.762 H 0.0 **** 0.0
4 H 48.812 60.56 48.089 H 0.0 **** 0.0
5 H 48.524 59.325 49.338 H 0.0 **** 0.0
@<TRIPOS>BOND
1 1 2 1
2 1 3 1
3 1 4 1
4 1 5 1
@<TRIPOS>MOLECULE
CH4
5 4
SMALL
USER_CHARGES


@<TRIPOS>ATOM
1 C 91.815 70.341 68.983 C 0.0 **** 0.0
2 H 91.808 71.431 68.997 H 0.0 **** 0.0
3 H 90.989 69.965 69.587 H 0.0 **** 0.0
4 H 92.758 69.979 69.392 H 0.0 **** 0.0
5 H 91.706 69.991 67.957 H 0.0 **** 0.0
@<TRIPOS>BOND
1 1 2 1
2 1 3 1
3 1 4 1
4 1 5 1
@<TRIPOS>MOLECULE
CH4
5 4
SMALL
USER_CHARGES


@<TRIPOS>ATOM
1 C 20.685 34.622 41.937 C 0.0 **** 0.0
2 H 20.852 34.604 40.86 H 0.0 **** 0.0
3 H 21.164 35.504 42.363 H 0.0 **** 0.0
4 H 21.109 33.724 42.386 H 0.0 **** 0.0
5 H 19.614 34.657 42.137 H 0.0 **** 0.0
@<TRIPOS>BOND
1 1 2 1
2 1 3 1
3 1 4 1
4 1 5 1
@<TRIPOS>MOLECULE
CH4
5 4
SMALL
USER_CHARGES


@<TRIPOS>ATOM
1 C 28.411 23.585 36.272 C 0.0 **** 0.0
2 H 28.314 23.008 37.191 H 0.0 **** 0.0
3 H 27.733 23.185 35.518 H 0.0 **** 0.0
4 H 29.437 23.522 35.91 H 0.0 **** 0.0
5 H 28.159 24.627 36.47 H 0.0 **** 0.0
@<TRIPOS>BOND
1 1 2 1
2 1 3 1
3 1 4 1
4 1 5 1
@<TRIPOS>MOLECULE
CH4
5 4
SMALL
USER_CHARGES


@<TRIPOS>ATOM
1 C 5.911 14.351 79.876 C 0.0 **** 0.0
2 H 6.597 14.736 80.631 H 0.0 **** 0.0
3 H 4.887 14.435 80.238 H 0.0 **** 0.0
4 H 6.142 13.305 79.676 H 0.0 **** 0.0
5 H 6.021 14.929 78.958 H 0.0 **** 0.0
@<TRIPOS>BOND
1 1 2 1
2 1 3 1
3 1 4 1
4 1 5 1
@<TRIPOS>MOLECULE
CH4
5 4
SMALL
USER_CHARGES


@<TRIPOS>ATOM
1 C 77.458 9.579 54.115 C 0.0 **** 0.0
2 H 77.077 9.524 55.134 H 0.0 **** 0.0
3 H 77.121 10.506 53.651 H 0.0 **** 0.0
4 H 77.085 8.729 53.542 H 0.0 **** 0.0
5 H 78.547 9.555 54.133 H 0.0 **** 0.0
@<TRIPOS>BOND
1 1 2 1
2 1 3 1
3 1 4 1
4 1 5 1
@<TRIPOS>MOLECULE
CH4
5 4
SMALL
USER_CHARGES


@<TRIPOS>ATOM
1 C 34.997 13.988 39.517 C 0.0 **** 0.0
2 H 34.824 14.343 40.533 H 0.0 **** 0.0
3 H 34.449 13.059 39.359 H 0.0 **** 0.0
4 H 36.063 13.811 39.372 H 0.0 **** 0.0
5 H 34.653 14.739 38.807 H 0.0 **** 0.0
@<TRIPOS>BOND
1 1 2 1
2 1 3 1
3 1 4 1
4 1 5 1
@<TRIPOS>MOLECULE
CH4
5 4
SMALL
USER_CHARGES


@<TRIPOS>ATOM
1 C 88.75 94.69 63.555 C 0.0 **** 0.0
2 H 88.267 93.784 63.19 H 0.0 **** 0.0
3 H 88.056 95.528 63.48 H 0.0 **** 0.0
4 H 89.635 94.897 62.953 H 0.0 **** 0.0
5 H 89.042 94.552 64.596 H 0.0 **** 0.0
@<TRIPOS>BOND
1 1 2 1
2 1 3 1
3 1 4 1
4 1 5 1
@<TRIPOS>MOLECULE
CH4
5 4
SMALL
USER_CHARGES


@<TRIPOS>ATOM
1 C 26.755 71.553 96.273 C 0.0 **** 0.0
2 H 27.719 72.061 96.305 H 0.0 **** 0.0
3 H 26.538 71.25 95.248 H 0.0 **** 0.0
4 H 25.976 72.229 96.625 H 0.0 **** 0.0
5 H 26.788 70.672 96.914 H 0.0 **** 0.0
@<TRIPOS>BOND
1 1 2 1
2 1 3 1
3 1 4 1
4 1 5 1
@<TRIPOS>MOLECULE
CH4
5 4
SMALL
USER_CHARGES


@<TRIPOS>ATOM
1 C 34.506 39.176 60.476 C 0.0 **** 0.0
2 H 35.072 39.061 61.401 H 0.0 **** 0.0
3 H 33.734 39.933 60.614 H 0.0 **** 0.0
4 H 34.041 38.226 60.214 H 0.0 **** 0.0
5 H 35.178 39.484 59.675 H 0.0 **** 0.0
@<TRIPOS>BOND
1 1 2 1
2 1 3 1
3 1 4 1
4 1 5 1
@<TRIPOS>MOLECULE
CH4
5 4
SMALL
USER_CHARGES


@<TRIPOS>ATOM
1 C 17.229 30.937 91.848 C 0.0 **** 0.0
2 H 16.546 30.853 91.003 H 0.0 **** 0.0
3 H 17.331 29.964 92.329 H 0.0 **** 0.0
4 H 16.835 31.658 92.563 H 0.0 **** 0.0
5 H 18.204 31.271 91.494 H 0.0 **** 0.0
@<TRIPOS>BOND
1 1 2 1
2 1 3 1
3 1 4 1
4 1 5 1
@<TRIPOS>MOLECULE
CH4
5 4
SMALL
USER_CHARGES


@<TRIPOS>ATOM
1 C 93.915 78.861 33.432 C 0.0 **** 0.0
2 H 93.613 78.181 34.228 H 0.0 **** 0.0
3 H 94.739 78.421 32.871 H 0.0 **** 0.0
4 H 94.235 79.809 33.866 H 0.0 **** 0.0
5 H 93.071 79.034 32.764 H 0.0 **** 0.0
@<TRIPOS>BOND
1 1 5 1
2 1 2 1
3 1 3 1
4 1 4 1
@<TRIPOS>MOLECULE
CH4
5 4
SMALL
USER_CHARGES


@<TRIPOS>ATOM
1 C 17.166 74.496 86.473 C 0.0 **** 0.0
2 H 18.151 74.616 86.926 H 0.0 **** 0.0
3 H 17.253 73.889 85.572 H 0.0 **** 0.0
4 H 16.763 75.475 86.215 H 0.0 **** 0.0
5 H 16.499 74.003 87.181 H 0.0 **** 0.0
@<TRIPOS>BOND
1 1 2 1
2 1 3 1
3 1 4 1
4 1 5 1
@<TRIPOS>MOLECULE
CH4
5 4
SMALL
USER_CHARGES


@<TRIPOS>ATOM
1 C 32.726 35.667 46.851 C 0.0 **** 0.0
2 H 32.831 34.975 47.687 H 0.0 **** 0.0
3 H 31.707 35.617 46.464 H 0.0 **** 0.0
4 H 33.428 35.393 46.063 H 0.0 **** 0.0
5 H 32.937 36.681 47.189 H 0.0 **** 0.0
@<TRIPOS>BOND
1 1 2 1
2 1 3 1
3 1 4 1
4 1 5 1
@<TRIPOS>MOLECULE
CH4
5 4
SMALL
USER_CHARGES


@<TRIPOS>ATOM
1 C 7.31 18.758 91.209 C 0.0 **** 0.0
2 H 6.952 18.878 92.231 H 0.0 **** 0.0
3 H 8.211 18.144 91.209 H 0.0 **** 0.0
4 H 7.537 19.737 90.787 H 0.0 **** 0.0
5 H 6.54 18.273 90.609 H 0.0 **** 0.0
@<TRIPOS>BOND
1 1 2 1
2 1 3 1
3 1 4 1
4 1 5 1
@<TRIPOS>MOLECULE
CH4
5 4
SMALL
USER_CHARGES


@<TRIPOS>ATOM
1 C 88.001 90.243 44.977 C 0.0 **** 0.0
2 H 88.954 90.381 45.488 H 0.0 **** 0.0
3 H 88.172 90.173 43.903 H 0.0 **** 0.0
4 H 87.351 91.092 45.187 H 0.0 **** 0.0
5 H 87.529 89.327 45.331 H 0.0 **** 0.0
@<TRIPOS>BOND
1 1 2 1
2 1 3 1
3 1 4 1
4 1 5 1
@<TRIPOS>MOLECULE
CH4
5 4
SMALL
USER_CHARGES


@<TRIPOS>ATOM
1 C 78.63 4.971 11.077 C 0.0 **** 0.0
2 H 77.564 4.761 11.162 H 0.0 **** 0.0
3 H 79.017 4.516 10.165 H 0.0 **** 0.0
4 H 79.152 4.557 11.939 H 0.0 **** 0.0
5 H 78.786 6.049 11.04 H 0.0 **** 0.0
@<TRIPOS>BOND
1 1 2 1
2 1 3 1
3 1 4 1
4 1 5 1
@<TRIPOS>MOLECULE
CH4
5 4
SMALL
USER_CHARGES


@<TRIPOS>ATOM
1 C 36.068 32.318 93.709 C 0.0 **** 0.0
2 H 36.51 32.761 92.816 H 0.0 **** 0.0
3 H 34.981 32.327 93.619 H 0.0 **** 0.0
4 H 36.365 32.895 94.585 H 0.0 **** 0.0
5 H 36.416 31.291 93.815 H 0.0 **** 0.0
@<TRIPOS>BOND
1 1 2 1
2 1 3 1
3 1 4 1
4 1 5 1
@<TRIPOS>MOLECULE
CH4
5 4
SMALL
USER_CHARGES


@<TRIPOS>ATOM
1 C 55.52 44.495 76.903 C 0.0 **** 0.0
2 H 55.687 43.799 77.724 H 0.0 **** 0.0
3 H 55.683 45.515 77.252 H 0.0 **** 0.0
4 H 54.496 44.394 76.543 H 0.0 **** 0.0
5 H 56.213 44.273 76.092 H 0.0 **** 0.0
@<TRIPOS>BOND
1 1 2 1
2 1 3 1
3 1 4 1
4 1 5 1
@<TRIPOS>MOLECULE
CH4
5 4
SMALL
USER_CHARGES


@<TRIPOS>ATOM
1 C 29.291 34.829 56.293 C 0.0 **** 0.0
2 H 30.252 35.122 55.871 H 0.0 **** 0.0
3 H 28.608 34.558 55.487 H 0.0 **** 0.0
4 H 28.873 35.662 56.859 H 0.0 **** 0.0
5 H 29.43 33.974 56.954 H 0.0 **** 0.0
@<TRIPOS>BOND
1 1 2 1
2 1 3 1
3 1 4 1
4 1 5 1
@<TRIPOS>MOLECULE
CH4
5 4
SMALL
USER_CHARGES


@<TRIPOS>ATOM
1 C 44.631 59.305 31.499 C 0.0 **** 0.0
2 H 44.008 59.977 30.908 H 0.0 **** 0.0
3 H 44.367 59.399 32.553 H 0.0 **** 0.0
4 H 45.68 59.567 31.362 H 0.0 **** 0.0
5 H 44.467 58.278 31.173 H 0.0 **** 0.0
@<TRIPOS>BOND
1 1 2 1
2 1 3 1
3 1 4 1
4 1 5 1
@<TRIPOS>MOLECULE
CH4
5 4
SMALL
USER_CHARGES


@<TRIPOS>ATOM
1 C 41.912 91.271 83.918 C 0.0 **** 0.0
2 H 41.563 92.3 84.004 H 0.0 **** 0.0
3 H 42.923 91.195 84.32 H 0.0 **** 0.0
4 H 41.915 90.974 82.869 H 0.0 **** 0.0
5 H 41.248 90.614 84.48 H 0.0 **** 0.0
@<TRIPOS>BOND
1 1 2 1
2 1 3 1
3 1 4 1
4 1 5 1
@<TRIPOS>MOLECULE
CH4
5 4
SMALL
USER_CHARGES


@<TRIPOS>ATOM
1 C 39.318 67.888 37.778 C 0.0 **** 0.0
2 H 38.956 66.873 37.618 H 0.0 **** 0.0
3 H 39.686 68.295 36.836 H 0.0 **** 0.0
4 H 40.127 67.874 38.508 H 0.0 **** 0.0
5 H 38.504 68.51 38.15 H 0.0 **** 0.0
@<TRIPOS>BOND
1 1 2 1
2 1 3 1
3 1 4 1
4 1 5 1
@<TRIPOS>MOLECULE
CH4
5 4
SMALL
USER_CHARGES


@<TRIPOS>ATOM
1 C 66.173 41.106 51.422 C 0.0 **** 0.0
2 H 66.079 41.04 52.506 H 0.0 **** 0.0
3 H 67.213 41.299 51.159 H 0.0 **** 0.0
4 H 65.547 41.917 51.052 H 0.0 **** 0.0
5 H 65.853 40.166 50.972 H 0.0 **** 0.0
@<TRIPOS>BOND
1 1 2 1
2 1 3 1
3 1 4 1
4 1 5 1
@<TRIPOS>MOLECULE
CH4
5 4
SMALL
USER_CHARGES


@<TRIPOS>ATOM
1 C 10.169 81.449 97.506 C 0.0 **** 0.0
2 H 10.508 81.538 96.474 H 0.0 **** 0.0
3 H 9.221 80.909 97.531 H 0.0 **** 0.0
4 H 10.032 82.443 97.93 H 0.0 **** 0.0
5 H 10.913 80.904 98.087 H 0.0 **** 0.0
@<TRIPOS>BOND
1 1 2 1
2 1 3 1
3 1 4 1
4 1 5 1
@<TRIPOS>MOLECULE
CH4
5 4
SMALL
USER_CHARGES


@<TRIPOS>ATOM
1 C 55.52 97.598 56.228 C 0.0 **** 0.0
2 H 55.512 97.515 57.315 H 0.0 **** 0.0
3 H 55.2 98.598 55.937 H 0.0 **** 0.0
4 H 54.84 96.86 55.803 H 0.0 **** 0.0
5 H 56.53 97.418 55.858 H 0.0 **** 0.0
@<TRIPOS>BOND
1 1 2 1
2 1 3 1
3 1 4 1
4 1 5 1
@<TRIPOS>MOLECULE
CH4
5 4
SMALL
USER_CHARGES


@<TRIPOS>ATOM
1 C 36.977 71.779 23.195 C 0.0 **** 0.0
2 H 37.588 72.476 22.621 H 0.0 **** 0.0
3 H 36.813 70.874 22.61 H 0.0 **** 0.0
4 H 36.018 72.242 23.426 H 0.0 **** 0.0
5 H 37.491 71.525 24.122 H 0.0 **** 0.0
@<TRIPOS>BOND
1 1 2 1
2 1 3 1
3 1 4 1
4 1 5 1
@<TRIPOS>MOLECULE
CH4
5 4
SMALL
USER_CHARGES


@<TRIPOS>ATOM
1 C 51.621 33.875 8.129 C 0.0 **** 0.0
2 H 50.991 34.748 7.959 H 0.0 **** 0.0
3 H 51.874 33.417 7.173 H 0.0 **** 0.0
4 H 51.084 33.155 8.747 H 0.0 **** 0.0
5 H 52.535 34.181 8.639 H 0.0 **** 0.0
@<TRIPOS>BOND
1 1 2 1
2 1 3 1
3 1 4 1
4 1 5 1
@<TRIPOS>MOLECULE
CH4
5 4
SMALL
USER_CHARGES


@<TRIPOS>ATOM
1 C 28.187 45.065 56.094 C 0.0 **** 0.0
2 H 28.329 44.852 55.034 H 0.0 **** 0.0
3 H 28.356 46.126 56.277 H 0.0 **** 0.0
4 H 28.894 44.477 56.68 H 0.0 **** 0.0
5 H 27.169 44.803 56.383 H 0.0 **** 0.0
@<TRIPOS>BOND
1 1 2 1
2 1 3 1
3 1 4 1
4 1 5 1
@<TRIPOS>MOLECULE
CH4
5 4
SMALL
USER_CHARGES


@<TRIPOS>ATOM
1 C 89.337 53.878 97.085 C 0.0 **** 0.0
2 H 89.644 54.02 96.049 H 0.0 **** 0.0
3 H 90.218 53.714 97.706 H 0.0 **** 0.0
4 H 88.678 53.012 97.153 H 0.0 **** 0.0
5 H 88.807 54.765 97.431 H 0.0 **** 0.0
@<TRIPOS>BOND
1 1 2 1
2 1 3 1
3 1 4 1
4 1 5 1
@<TRIPOS>MOLECULE
CH4
5 4
SMALL
USER_CHARGES


@<TRIPOS>ATOM
1 C 86.694 0.72 7.102 C 0.0 **** 0.0
2 H 87.496 1.458 7.14 H 0.0 **** 0.0
3 H 86.83 0.081 6.229 H 0.0 **** 0.0
4 H 85.734 1.231 7.032 H 0.0 **** 0.0
5 H 86.717 0.111 8.006 H 0.0 **** 0.0
@<TRIPOS>BOND
1 1 2 1
2 1 3 1
3 1 4 1
4 1 5 1
@<TRIPOS>MOLECULE
CH4
5 4
SMALL
USER_CHARGES


@<TRIPOS>ATOM
1 C 69.567 63.081 14.731 C 0.0 **** 0.0
2 H 69.287 62.83 13.708 H 0.0 **** 0.0
3 H 70.515 63.62 14.726 H 0.0 **** 0.0
4 H 69.672 62.166 15.313 H 0.0 **** 0.0
5 H 68.794 63.708 15.176 H 0.0 **** 0.0
@<TRIPOS>BOND
1 1 2 1
2 1 3 1
3 1 4 1
4 1 5 1
@<TRIPOS>MOLECULE
CH4
5 4
SMALL
USER_CHARGES


@<TRIPOS>ATOM
1 C 9.094 43.8 93.183 C 0.0 **** 0.0
2 H 9.802 44.349 93.804 H 0.0 **** 0.0
3 H 8.306 43.385 93.811 H 0.0 **** 0.0
4 H 9.613 42.991 92.669 H 0.0 **** 0.0
5 H 8.656 44.475 92.448 H 0.0 **** 0.0
@<TRIPOS>BOND
1 1 2 1
2 1 3 1
3 1 4 1
4 1 5 1
@<TRIPOS>MOLECULE
CH4
5 4
SMALL
USER_CHARGES


@<TRIPOS>ATOM
1 C 82.912 33.743 49.72 C 0.0 **** 0.0
2 H 82.52 33.139 48.902 H 0.0 **** 0.0
3 H 83.993 33.839 49.615 H 0.0 **** 0.0
4 H 82.68 33.262 50.67 H 0.0 **** 0.0
5 H 82.455 34.733 49.692 H 0.0 **** 0.0
@<TRIPOS>BOND
1 1 2 1
2 1 3 1
3 1 4 1
4 1 5 1
@<TRIPOS>MOLECULE
CH4
5 4
SMALL
USER_CHARGES


@<TRIPOS>ATOM
1 C 39.4 78.381 7.157 C 0.0 **** 0.0
2 H 39.896 79.06 7.85 H 0.0 **** 0.0
3 H 40.085 78.122 6.349 H 0.0 **** 0.0
4 H 38.517 78.868 6.742 H 0.0 **** 0.0
5 H 39.102 77.476 7.686 H 0.0 **** 0.0
@<TRIPOS>BOND
1 1 2 1
2 1 3 1
3 1 4 1
4 1 5 1
@<TRIPOS>MOLECULE
CH4
5 4
SMALL
USER_CHARGES


@<TRIPOS>ATOM
1 C 9.706 90.367 1.883 C 0.0 **** 0.0
2 H 9.772 90.123 0.823 H 0.0 **** 0.0
3 H 8.717 90.772 2.101 H 0.0 **** 0.0
4 H 10.465 91.108 2.133 H 0.0 **** 0.0
5 H 9.869 89.466 2.474 H 0.0 **** 0.0
@<TRIPOS>BOND
1 1 2 1
2 1 3 1
3 1 4 1
4 1 5 1
@<TRIPOS>MOLECULE
CH4
5 4
SMALL
USER_CHARGES


@<TRIPOS>ATOM
1 C 36.879 41.214 46.578 C 0.0 **** 0.0
2 H 36.211 41.576 45.796 H 0.0 **** 0.0
3 H 36.868 41.912 47.415 H 0.0 **** 0.0
4 H 37.892 41.137 46.182 H 0.0 **** 0.0
5 H 36.545 40.234 46.916 H 0.0 **** 0.0
@<TRIPOS>BOND
1 1 2 1
2 1 3 1
3 1 4 1
4 1 5 1
@<TRIPOS>MOLECULE
CH4
5 4
SMALL
USER_CHARGES


@<TRIPOS>ATOM
1 C 96.181 4.361 98.202 C 0.0 **** 0.0
2 H 97.205 4.087 98.453 H 0.0 **** 0.0
3 H 96.132 4.666 97.156 H 0.0 **** 0.0
4 H 95.861 5.188 98.837 H 0.0 **** 0.0
5 H 95.526 3.505 98.363 H 0.0 **** 0.0
@<TRIPOS>BOND
1 1 2 1
2 1 3 1
3 1 4 1
4 1 5 1
@<TRIPOS>MOLECULE
CH4
5 4
SMALL
USER_CHARGES


@<TRIPOS>ATOM
1 C 35.353 62.159 52.4 C 0.0 **** 0.0
2 H 35.505 61.097 52.21 H 0.0 **** 0.0
3 H 35.236 62.684 51.451 H 0.0 **** 0.0
4 H 36.216 62.56 52.933 H 0.0 **** 0.0
5 H 34.457 62.296 53.004 H 0.0 **** 0.0
@<TRIPOS>BOND
1 1 2 1
2 1 3 1
3 1 4 1
4 1 5 1
@<TRIPOS>MOLECULE
CH4
5 4
SMALL
USER_CHARGES


@<TRIPOS>ATOM
1 C 84.117 52.278 60.787 C 0.0 **** 0.0
2 H 84.087 51.295 61.258 H 0.0 **** 0.0
3 H 84.982 52.83 61.155 H 0.0 **** 0.0
4 H 83.206 52.825 61.031 H 0.0 **** 0.0
5 H 84.192 52.161 59.706 H 0.0 **** 0.0
@<TRIPOS>BOND
1 1 2 1
2 1 3 1
3 1 4 1
4 1 5 1
@<TRIPOS>MOLECULE
CH4
5 4
SMALL
USER_CHARGES


@<TRIPOS>ATOM
1 C 14.42 65.657 10.676 C 0.0 **** 0.0
2 H 14.442 65.558 9.591 H 0.0 **** 0.0
3 H 14.053 64.73 11.117 H 0.0 **** 0.0
4 H 13.758 66.478 10.952 H 0.0 **** 0.0
5 H 15.425 65.862 11.042 H 0.0 **** 0.0
@<TRIPOS>BOND
1 1 2 1
2 1 3 1
3 1 4 1
4 1 5 1
@<TRIPOS>MOLECULE
CH4
5 4
SMALL
USER_CHARGES


@<TRIPOS>ATOM
1 C 7.289 90.729 58.131 C 0.0 **** 0.0
2 H 7.146 91.052 59.163 H 0.0 **** 0.0
3 H 6.455 90.094 57.831 H 0.0 **** 0.0
4 H 8.22 90.168 58.052 H 0.0 **** 0.0
5 H 7.334 91.602 57.48 H 0.0 **** 0.0
@<TRIPOS>BOND
1 1 2 1
2 1 3 1
3 1 4 1
4 1 5 1
@<TRIPOS>MOLECULE
CH4
5 4
SMALL
USER_CHARGES


@<TRIPOS>ATOM
1 C 95.636 97.787 37.008 C 0.0 **** 0.0
2 H 96.351 98.579 36.782 H 0.0 **** 0.0
3 H 94.736 98.224 37.442 H 0.0 **** 0.0
4 H 96.08 97.09 37.719 H 0.0 **** 0.0
5 H 95.379 97.258 36.091 H 0.0 **** 0.0
@<TRIPOS>BOND
1 1 2 1
2 1 3 1
3 1 4 1
4 1 5 1
@<TRIPOS>MOLECULE
CH4
5 4
SMALL
USER_CHARGES


@<TRIPOS>ATOM
1 C 93.413 1.188 69.596 C 0.0 **** 0.0
2 H 93.049 1.156 68.57 H 0.0 **** 0.0
3 H 92.757 1.82 70.195 H 0.0 **** 0.0
4 H 94.424 1.596 69.61 H 0.0 **** 0.0
5 H 93.423 0.179 70.009 H 0.0 **** 0.0
@<TRIPOS>BOND
1 1 2 1
2 1 3 1
3 1 4 1
4 1 5 1
@<TRIPOS>MOLECULE
CH4
5 4
SMALL
USER_CHARGES


@<TRIPOS>ATOM
1 C 32.965 74.58 76.597 C 0.0 **** 0.0
2 H 32.953 74.533 75.508 H 0.0 **** 0.0
3 H 32.101 74.046 76.994 H 0.0 **** 0.0
4 H 32.926 75.622 76.916 H 0.0 **** 0.0
5 H 33.88 74.12 76.971 H 0.0 **** 0.0
@<TRIPOS>BOND
1 1 5 1
2 1 2 1
3 1 3 1
4 1 4 1
@<TRIPOS>MOLECULE
CH4
5 4
SMALL
USER_CHARGES


@<TRIPOS>ATOM
1 C 49.888 56.529 80.752 C 0.0 **** 0.0
2 H 50.313 57.524 80.617 H 0.0 **** 0.0
3 H 50.362 56.045 81.607 H 0.0 **** 0.0
4 H 50.062 55.935 79.855 H 0.0 **** 0.0
5 H 48.816 56.613 80.93 H 0.0 **** 0.0
@<TRIPOS>BOND
1 1 3 1
2 1 4 1
3 1 5 1
4 1 2 1
@<TRIPOS>MOLECULE
CH4
5 4
SMALL
USER_CHARGES


@<TRIPOS>ATOM
1 C 77.738 51.191 34.32 C 0.0 **** 0.0
2 H 78.439 51.24 35.154 H 0.0 **** 0.0
3 H 77.097 52.073 34.333 H 0.0 **** 0.0
4 H 77.125 50.295 34.413 H 0.0 **** 0.0
5 H 78.292 51.157 33.382 H 0.0 **** 0.0
@<TRIPOS>BOND
1 1 2 1
2 1 3 1
3 1 4 1
4 1 5 1
@<TRIPOS>MOLECULE
CH4
5 4
SMALL
USER_CHARGES


@<TRIPOS>ATOM
1 C 33.261 37.424 66.257 C 0.0 **** 0.0
2 H 33.815 37.776 65.387 H 0.0 **** 0.0
3 H 33.96 37.055 67.008 H 0.0 **** 0.0
4 H 32.589 36.62 65.958 H 0.0 **** 0.0
5 H 32.68 38.247 66.674 H 0.0 **** 0.0
@<TRIPOS>BOND
1 1 2 1
2 1 3 1
3 1 4 1
4 1 5 1
@<TRIPOS>MOLECULE
CH4
5 4
SMALL
USER_CHARGES


@<TRIPOS>ATOM
1 C 65.965 44.402 32.715 C 0.0 **** 0.0
2 H 66.556 45.313 32.615 H 0.0 **** 0.0
3 H 66.314 43.662 31.995 H 0.0 **** 0.0
4 H 64.916 44.628 32.525 H 0.0 **** 0.0
5 H 66.075 44.008 33.725 H 0.0 **** 0.0
@<TRIPOS>BOND
1 1 2 1
2 1 3 1
3 1 4 1
4 1 5 1
@<TRIPOS>MOLECULE
CH4
5 4
SMALL
USER_CHARGES


@<TRIPOS>ATOM
1 C 11.222 90.551 42.976 C 0.0 **** 0.0
2 H 10.569 91.335 42.593 H 0.0 **** 0.0
3 H 11.122 90.493 44.06 H 0.0 **** 0.0
4 H 12.255 90.781 42.717 H 0.0 **** 0.0
5 H 10.94 89.595 42.533 H 0.0 **** 0.0
@<TRIPOS>BOND
1 1 2 1
2 1 3 1
3 1 4 1
4 1 5 1
@<TRIPOS>MOLECULE
CH4
5 4
SMALL
USER_CHARGES


@<TRIPOS>ATOM
1 C 97.318 12.953 36.68 C 0.0 **** 0.0
2 H 97.303 13.013 35.592 H 0.0 **** 0.0
3 H 97.434 13.953 37.098 H 0.0 **** 0.0
4 H 98.153 12.327 36.997 H 0.0 **** 0.0
5 H 96.383 12.517 37.032 H 0.0 **** 0.0
@<TRIPOS>BOND
1 1 2 1
2 1 3 1
3 1 4 1
4 1 5 1
@<TRIPOS>MOLECULE
CH4
5 4
SMALL
USER_CHARGES


@<TRIPOS>ATOM
1 C 13.555 96.069 54.194 C 0.0 **** 0.0
2 H 13.763 95.961 53.129 H 0.0 **** 0.0
3 H 13.019 95.19 54.55 H 0.0 **** 0.0
4 H 12.945 96.958 54.356 H 0.0 **** 0.0
5 H 14.494 96.168 54.738 H 0.0 **** 0.0
@<TRIPOS>BOND
1 1 2 1
2 1 3 1
3 1 4 1
4 1 5 1
@<TRIPOS>MOLECULE
CH4
5 4
SMALL
USER_CHARGES


@<TRIPOS>ATOM
1 C 10.466 6.241 3.371 C 0.0 **** 0.0
2 H 9.916 6.098 4.301 H 0.0 **** 0.0
3 H 11.247 5.485 3.291 H 0.0 **** 0.0
4 H 10.918 7.233 3.365 H 0.0 **** 0.0
5 H 9.782 6.148 2.527 H 0.0 **** 0.0
@<TRIPOS>BOND
1 1 2 1
2 1 3 1
3 1 4 1
4 1 5 1
@<TRIPOS>MOLECULE
CH4
5 4
SMALL
USER_CHARGES


@<TRIPOS>ATOM
1 C 85.386 4.472 8.537 C 0.0 **** 0.0
2 H 84.416 4.17 8.142 H 0.0 **** 0.0
3 H 85.963 4.958 7.751 H 0.0 **** 0.0
4 H 85.923 3.592 8.891 H 0.0 **** 0.0
5 H 85.241 5.166 9.365 H 0.0 **** 0.0
@<TRIPOS>BOND
1 1 2 1
2 1 3 1
3 1 4 1
4 1 5 1
@<TRIPOS>MOLECULE
CH4
5 4
SMALL
USER_CHARGES


@<TRIPOS>ATOM
1 C 91.069 8.642 17.641 C 0.0 **** 0.0
2 H 91.093 8.624 16.552 H 0.0 **** 0.0
3 H 91.44 9.603 17.997 H 0.0 **** 0.0
4 H 91.699 7.842 18.031 H 0.0 **** 0.0
5 H 90.045 8.497 17.984 H 0.0 **** 0.0
@<TRIPOS>BOND
1 1 2 1
2 1 3 1
3 1 4 1
4 1 5 1
@<TRIPOS>MOLECULE
CH4
5 4
SMALL
USER_CHARGES


@<TRIPOS>ATOM
1 C 61.862 35.157 70.325 C 0.0 **** 0.0
2 H 61.912 34.507 71.199 H 0.0 **** 0.0
3 H 62.501 34.757 69.538 H 0.0 **** 0.0
4 H 62.201 36.156 70.596 H 0.0 **** 0.0
5 H 60.833 35.206 69.968 H 0.0 **** 0.0
@<TRIPOS>BOND
1 1 2 1
2 1 3 1
3 1 4 1
4 1 5 1
@<TRIPOS>MOLECULE
CH4
5 4
SMALL
USER_CHARGES


@<TRIPOS>ATOM
1 C 82.385 30.809 63.317 C 0.0 **** 0.0
2 H 81.481 31.078 63.865 H 0.0 **** 0.0
3 H 83.206 30.666 64.02 H 0.0 **** 0.0
4 H 82.638 31.607 62.62 H 0.0 **** 0.0
5 H 82.213 29.885 62.765 H 0.0 **** 0.0
@<TRIPOS>BOND
1 1 2 1
2 1 3 1
3 1 4 1
4 1 5 1
@<TRIPOS>MOLECULE
CH4
5 4
SMALL
USER_CHARGES


@<TRIPOS>ATOM
1 C 26.411 82.732 47.216 C 0.0 **** 0.0
2 H 27.174 82.357 47.898 H 0.0 **** 0.0
3 H 25.636 81.975 47.087 H 0.0 **** 0.0
4 H 26.865 82.956 46.251 H 0.0 **** 0.0
5 H 25.968 83.638 47.629 H 0.0 **** 0.0
@<TRIPOS>BOND
1 1 2 1
2 1 3 1
3 1 4 1
4 1 5 1
@<TRIPOS>MOLECULE
CH4
5 4
SMALL
USER_CHARGES


@<TRIPOS>ATOM
1 C 52.225 30.584 33.937 C 0.0 **** 0.0
2 H 51.233 30.415 34.355 H 0.0 **** 0.0
3 H 52.366 29.945 33.065 H 0.0 **** 0.0
4 H 52.98 30.348 34.687 H 0.0 **** 0.0
5 H 52.32 31.629 33.642 H 0.0 **** 0.0
@<TRIPOS>BOND
1 1 2 1
2 1 3 1
3 1 4 1
4 1 5 1
@<TRIPOS>MOLECULE
CH4
5 4
SMALL
USER_CHARGES


@<TRIPOS>ATOM
1 C 59.912 50.264 25.033 C 0.0 **** 0.0
2 H 60.009 49.701 25.961 H 0.0 **** 0.0
3 H 60.426 51.22 25.132 H 0.0 **** 0.0
4 H 58.856 50.438 24.823 H 0.0 **** 0.0
5 H 60.355 49.695 24.216 H 0.0 **** 0.0
@<TRIPOS>BOND
1 1 2 1
2 1 3 1
3 1 4 1
4 1 5 1
@<TRIPOS>MOLECULE
CH4
5 4
SMALL
USER_CHARGES


@<TRIPOS>ATOM
1 C 86.099 67.884 35.612 C 0.0 **** 0.0
2 H 87.141 68.125 35.402 H 0.0 **** 0.0
3 H 86.003 66.813 35.792 H 0.0 **** 0.0
4 H 85.482 68.166 34.759 H 0.0 **** 0.0
5 H 85.771 68.432 36.495 H 0.0 **** 0.0
@<TRIPOS>BOND
1 1 2 1
2 1 3 1
3 1 4 1
4 1 5 1
@<TRIPOS>MOLECULE
CH4
5 4
SMALL
USER_CHARGES


@<TRIPOS>ATOM
1 C 28.147 43.159 25.548 C 0.0 **** 0.0
2 H 27.229 43.348 24.992 H 0.0 **** 0.0
3 H 28.124 43.713 26.487 H 0.0 **** 0.0
4 H 29.003 43.482 24.956 H 0.0 **** 0.0
5 H 28.231 42.092 25.758 H 0.0 **** 0.0
@<TRIPOS>BOND
1 1 2 1
2 1 3 1
3 1 4 1
4 1 5 1
@<TRIPOS>MOLECULE
CH4
5 4
SMALL
USER_CHARGES


@<TRIPOS>ATOM
1 C 23.339 68.688 6.291 C 0.0 **** 0.0
2 H 23.626 67.638 6.349 H 0.0 **** 0.0
3 H 22.259 68.763 6.163 H 0.0 **** 0.0
4 H 23.839 69.155 5.443 H 0.0 **** 0.0
5 H 23.632 69.196 7.21 H 0.0 **** 0.0
@<TRIPOS>BOND
1 1 2 1
2 1 3 1
3 1 4 1
4 1 5 1
@<TRIPOS>MOLECULE
CH4
5 4
SMALL
USER_CHARGES


@<TRIPOS>ATOM
1 C 74.464 5.421 7.033 C 0.0 **** 0.0
2 H 74.002 5.126 6.091 H 0.0 **** 0.0
3 H 73.692 5.751 7.728 H 0.0 **** 0.0
4 H 75.165 6.236 6.854 H 0.0 **** 0.0
5 H 74.996 4.57 7.459 H 0.0 **** 0.0
@<TRIPOS>BOND
1 1 2 1
2 1 3 1
3 1 4 1
4 1 5 1
@<TRIPOS>MOLECULE
CH4
5 4
SMALL
USER_CHARGES


@<TRIPOS>ATOM
1 C 33.352 89.954 75.567 C 0.0 **** 0.0
2 H 33.07 89.813 74.524 H 0.0 **** 0.0
3 H 33.583 91.005 75.742 H 0.0 **** 0.0
4 H 34.228 89.347 75.792 H 0.0 **** 0.0
5 H 32.525 89.653 76.211 H 0.0 **** 0.0
@<TRIPOS>BOND
1 1 2 1
2 1 3 1
3 1 4 1
4 1 5 1
@<TRIPOS>MOLECULE
CH4
5 4
SMALL
USER_CHARGES


@<TRIPOS>ATOM
1 C 46.394 94.367 3.717 C 0.0 **** 0.0
2 H 46.266 95.209 3.036 H 0.0 **** 0.0
3 H 46.127 94.675 4.728 H 0.0 **** 0.0
4 H 47.434 94.041 3.699 H 0.0 **** 0.0
5 H 45.75 93.546 3.404 H 0.0 **** 0.0
@<TRIPOS>BOND
1 1 2 1
2 1 3 1
3 1 4 1
4 1 5 1
@<TRIPOS>MOLECULE
CH4
5 4
SMALL
USER_CHARGES


@<TRIPOS>ATOM
1 C 11.846 8.709 76.533 C 0.0 **** 0.0
2 H 11.726 7.669 76.838 H 0.0 **** 0.0
3 H 12.907 8.954 76.49 H 0.0 **** 0.0
4 H 11.352 9.359 77.255 H 0.0 **** 0.0
5 H 11.399 8.852 75.549 H 0.0 **** 0.0
@<TRIPOS>BOND
1 1 2 1
2 1 3 1
3 1 4 1
4 1 5 1
@<TRIPOS>MOLECULE
CH4
5 4
SMALL
USER_CHARGES


@<TRIPOS>ATOM
1 C 32.347 5.761 67.454 C 0.0 **** 0.0
2 H 31.363 5.75 66.984 H 0.0 **** 0.0
3 H 32.261 6.154 68.467 H 0.0 **** 0.0
4 H 33.018 6.393 66.874 H 0.0 **** 0.0
5 H 32.743 4.746 67.489 H 0.0 **** 0.0
@<TRIPOS>BOND
1 1 2 1
2 1 3 1
3 1 4 1
4 1 5 1
@<TRIPOS>MOLECULE
CH4
5 4
SMALL
USER_CHARGES


@<TRIPOS>ATOM
1 C 93.81 52.206 73.344 C 0.0 **** 0.0
2 H 93.81 52.205 72.254 H 0.0 **** 0.0
3 H 92.806 51.986 73.707 H 0.0 **** 0.0
4 H 94.121 53.186 73.706 H 0.0 **** 0.0
5 H 94.503 51.448 73.708 H 0.0 **** 0.0
@<TRIPOS>BOND
1 1 2 1
2 1 3 1
3 1 4 1
4 1 5 1
@<TRIPOS>MOLECULE
CH4
5 4
SMALL
USER_CHARGES


@<TRIPOS>ATOM
1 C 75.303 19.757 53.82 C 0.0 **** 0.0
2 H 74.451 19.585 54.478 H 0.0 **** 0.0
3 H 76.211 19.844 54.417 H 0.0 **** 0.0
4 H 75.147 20.679 53.259 H 0.0 **** 0.0
5 H 75.401 18.922 53.127 H 0.0 **** 0.0
@<TRIPOS>BOND
1 1 2 1
2 1 3 1
3 1 4 1
4 1 5 1
@<TRIPOS>MOLECULE
CH4
5 4
SMALL
USER_CHARGES


@<TRIPOS>ATOM
1 C 18.579 47.276 11.404 C 0.0 **** 0.0
2 H 17.612 47.767 11.508 H 0.0 **** 0.0
3 H 18.897 47.317 10.362 H 0.0 **** 0.0
4 H 18.493 46.235 11.718 H 0.0 **** 0.0
5 H 19.314 47.784 12.029 H 0.0 **** 0.0
@<TRIPOS>BOND
1 1 2 1
2 1 3 1
3 1 4 1
4 1 5 1
@<TRIPOS>MOLECULE
CH4
5 4
SMALL
USER_CHARGES


@<TRIPOS>ATOM
1 C 63.282 21.463 21.462 C 0.0 **** 0.0
2 H 64.299 21.82 21.62 H 0.0 **** 0.0
3 H 62.88 21.084 22.402 H 0.0 **** 0.0
4 H 63.288 20.665 20.72 H 0.0 **** 0.0
5 H 62.66 22.285 21.106 H 0.0 **** 0.0
@<TRIPOS>BOND
1 1 2 1
2 1 3 1
3 1 4 1
4 1 5 1
@<TRIPOS>MOLECULE
CH4
5 4
SMALL
USER_CHARGES


@<TRIPOS>ATOM
1 C 40.907 56.088 59.65 C 0.0 **** 0.0
2 H 41.62 56.469 60.381 H 0.0 **** 0.0
3 H 40.711 55.034 59.848 H 0.0 **** 0.0
4 H 41.321 56.199 58.648 H 0.0 **** 0.0
5 H 39.977 56.651 59.723 H 0.0 **** 0.0
@<TRIPOS>BOND
1 1 2 1
2 1 3 1
3 1 4 1
4 1 5 1
@<TRIPOS>MOLECULE
CH4
5 4
SMALL
USER_CHARGES


@<TRIPOS>ATOM
1 C 80.741 69.882 20.737 C 0.0 **** 0.0
2 H 80.924 70.052 19.676 H 0.0 **** 0.0
3 H 81.545 69.274 21.152 H 0.0 **** 0.0
4 H 79.791 69.362 20.863 H 0.0 **** 0.0
5 H 80.703 70.839 21.257 H 0.0 **** 0.0
@<TRIPOS>BOND
1 1 2 1
2 1 3 1
3 1 4 1
4 1 5 1
@<TRIPOS>MOLECULE
CH4
5 4
SMALL
USER_CHARGES


@<TRIPOS>ATOM
1 C 79.629 33.494 29.787 C 0.0 **** 0.0
2 H 79.699 33.419 30.873 H 0.0 **** 0.0
3 H 79.933 34.493 29.473 H 0.0 **** 0.0
4 H 78.601 33.312 29.476 H 0.0 **** 0.0
5 H 80.285 32.754 29.329 H 0.0 **** 0.0
@<TRIPOS>BOND
1 1 2 1
2 1 3 1
3 1 4 1
4 1 5 1
@<TRIPOS>MOLECULE
CH4
5 4
SMALL
USER_CHARGES


@<TRIPOS>ATOM
1 C 65.299 54.377 84.583 C 0.0 **** 0.0
2 H 65.985 53.876 85.266 H 0.0 **** 0.0
3 H 65.236 53.81 83.653 H 0.0 **** 0.0
4 H 65.666 55.381 84.372 H 0.0 **** 0.0
5 H 64.312 54.438 85.039 H 0.0 **** 0.0
@<TRIPOS>BOND
1 1 2 1
2 1 3 1
3 1 4 1
4 1 5 1
@<TRIPOS>MOLECULE
CH4
5 4
SMALL
USER_CHARGES


@<TRIPOS>ATOM
1 C 53.68 24.369 95.342 C 0.0 **** 0.0
2 H 53.765 23.301 95.138 H 0.0 **** 0.0
3 H 53.084 24.52 96.242 H 0.0 **** 0.0
4 H 53.196 24.862 94.498 H 0.0 **** 0.0
5 H 54.674 24.791 95.488 H 0.0 **** 0.0
@<TRIPOS>BOND
1 1 2 1
2 1 3 1
3 1 4 1
4 1 5 1
@<TRIPOS>MOLECULE
CH4
5 4
SMALL
USER_CHARGES


@<TRIPOS>ATOM
1 C 83.837 11.672 49.081 C 0.0 **** 0.0
2 H 83.785 12.177 50.045 H 0.0 **** 0.0
3 H 82.844 11.642 48.632 H 0.0 **** 0.0
4 H 84.202 10.654 49.224 H 0.0 **** 0.0
5 H 84.518 12.213 48.424 H 0.0 **** 0.0
@<TRIPOS>BOND
1 1 2 1
2 1 3 1
3 1 4 1
4 1 5 1
@<TRIPOS>MOLECULE
CH4
5 4
SMALL
USER_CHARGES


@<TRIPOS>ATOM
1 C 69.605 59.923 33.936 C 0.0 **** 0.0
2 H 69.688 59.426 32.97 H 0.0 **** 0.0
3 H 68.579 59.848 34.296 H 0.0 **** 0.0
4 H 69.878 60.973 33.83 H 0.0 **** 0.0
5 H 70.276 59.443 34.649 H 0.0 **** 0.0
@<TRIPOS>BOND
1 1 3 1
2 1 4 1
3 1 2 1
4 1 5 1
@<TRIPOS>MOLECULE
CH4
5 4
SMALL
USER_CHARGES


@<TRIPOS>ATOM
1 C 23.141 2.317 95.477 C 0.0 **** 0.0
2 H 22.649 3.252 95.212 H 0.0 **** 0.0
3 H 22.757 1.963 96.434 H 0.0 **** 0.0
4 H 24.216 2.483 95.556 H 0.0 **** 0.0
5 H 22.944 1.571 94.707 H 0.0 **** 0.0
@<TRIPOS>BOND
1 1 2 1
2 1 3 1
3 1 4 1
4 1 5 1
@<TRIPOS>MOLECULE
CH4
5 4
SMALL
USER_CHARGES


@<TRIPOS>ATOM
1 C 81.351 5.321 47.868 C 0.0 **** 0.0
2 H 80.835 5.619 46.955 H 0.0 **** 0.0
3 H 80.948 5.88 48.712 H 0.0 **** 0.0
4 H 82.416 5.529 47.768 H 0.0 **** 0.0
5 H 81.204 4.254 48.035 H 0.0 **** 0.0
@<TRIPOS>BOND
1 1 2 1
2 1 3 1
3 1 4 1
4 1 5 1
@<TRIPOS>MOLECULE
CH4
5 4
SMALL
USER_CHARGES


@<TRIPOS>ATOM
1 C 58.678 14.049 49.621 C 0.0 **** 0.0
2 H 58.587 12.963 49.592 H 0.0 **** 0.0
3 H 57.926 14.458 50.296 H 0.0 **** 0.0
4 H 58.527 14.453 48.62 H 0.0 **** 0.0
5 H 59.672 14.321 49.977 H 0.0 **** 0.0
@<TRIPOS>BOND
1 1 2 1
2 1 3 1
3 1 4 1
4 1 5 1
@<TRIPOS>MOLECULE
CH4
5 4
SMALL
USER_CHARGES


@<TRIPOS>ATOM
1 C 40.399 73.403 18.306 C 0.0 **** 0.0
2 H 40.384 73.434 17.217 H 0.0 **** 0.0
3 H 40.585 72.381 18.638 H 0.0 **** 0.0
4 H 39.437 73.741 18.692 H 0.0 **** 0.0
5 H 41.189 74.056 18.677 H 0.0 **** 0.0
@<TRIPOS>BOND
1 1 2 1
2 1 3 1
3 1 4 1
4 1 5 1
@<TRIPOS>MOLECULE
CH4
5 4
SMALL
USER_CHARGES


@<TRIPOS>ATOM
1 C 73.918 51.845 96.129 C 0.0 **** 0.0
2 H 74.101 52.585 96.908 H 0.0 **** 0.0
3 H 72.845 51.761 95.953 H 0.0 **** 0.0
4 H 74.311 50.879 96.446 H 0.0 **** 0.0
5 H 74.414 52.155 95.209 H 0.0 **** 0.0
@<TRIPOS>BOND
1 1 2 1
2 1 3 1
3 1 4 1
4 1 5 1
@<TRIPOS>MOLECULE
CH4
5 4
SMALL
USER_CHARGES


@<TRIPOS>ATOM
1 C 23.929 82.918 34.942 C 0.0 **** 0.0
2 H 23.715 83.803 34.343 H 0.0 **** 0.0
3 H 23.201 82.14 34.714 H 0.0 **** 0.0
4 H 23.87 83.174 36.0 H 0.0 **** 0.0
5 H 24.931 82.558 34.711 H 0.0 **** 0.0
@<TRIPOS>BOND
1 1 2 1
2 1 3 1
3 1 4 1
4 1 5 1
@<TRIPOS>MOLECULE
CH4
5 4
SMALL
USER_CHARGES


@<TRIPOS>ATOM
1 C 14.179 80.616 89.553 C 0.0 **** 0.0
2 H 14.247 80.586 90.64 H 0.0 **** 0.0
3 H 15.015 81.19 89.152 H 0.0 **** 0.0
4 H 13.241 81.087 89.261 H 0.0 **** 0.0
5 H 14.214 79.6 89.159 H 0.0 **** 0.0
@<TRIPOS>BOND
1 1 2 1
2 1 3 1
3 1 4 1
4 1 5 1
@<TRIPOS>MOLECULE
CH4
5 4
SMALL
USER_CHARGES


@<TRIPOS>ATOM
1 C 66.515 15.046 85.473 C 0.0 **** 0.0
2 H 66.735 15.964 86.02 H 0.0 **** 0.0
3 H 66.314 14.242 86.181 H 0.0 **** 0.0
4 H 67.371 14.78 84.853 H 0.0 **** 0.0
5 H 65.642 15.201 84.84 H 0.0 **** 0.0
@<TRIPOS>BOND
1 1 2 1
2 1 3 1
3 1 4 1
4 1 5 1
@<TRIPOS>MOLECULE
CH4
5 4
SMALL
USER_CHARGES


@<TRIPOS>ATOM
1 C 28.691 30.444 82.048 C 0.0 **** 0.0
2 H 28.554 31.189 82.831 H 0.0 **** 0.0
3 H 27.886 30.533 81.318 H 0.0 **** 0.0
4 H 28.673 29.447 82.488 H 0.0 **** 0.0
5 H 29.649 30.606 81.554 H 0.0 **** 0.0
@<TRIPOS>BOND
1 1 2 1
2 1 3 1
3 1 4 1
4 1 5 1
@<TRIPOS>MOLECULE
CH4
5 4
SMALL
USER_CHARGES


@<TRIPOS>ATOM
1 C 63.209 70.711 89.62 C 0.0 **** 0.0
2 H 63.648 70.2 90.477 H 0.0 **** 0.0
3 H 62.59 70.011 89.059 H 0.0 **** 0.0
4 H 64.004 71.089 88.977 H 0.0 **** 0.0
5 H 62.596 71.542 89.967 H 0.0 **** 0.0
@<TRIPOS>BOND
1 1 2 1
2 1 3 1
3 1 4 1
4 1 5 1
@<TRIPOS>MOLECULE
CH4
5 4
SMALL
USER_CHARGES


@<TRIPOS>ATOM
1 C 4.18 19.665 91.739 C 0.0 **** 0.0
2 H 4.201 19.688 90.649 H 0.0 **** 0.0
3 H 3.148 19.584 92.08 H 0.0 **** 0.0
4 H 4.621 20.582 92.13 H 0.0 **** 0.0
5 H 4.749 18.807 92.095 H 0.0 **** 0.0
@<TRIPOS>BOND
1 1 2 1
2 1 3 1
3 1 4 1
4 1 5 1
@<TRIPOS>MOLECULE
CH4
5 4
SMALL
USER_CHARGES


@<TRIPOS>ATOM
1 C 15.378 53.517 61.149 C 0.0 **** 0.0
2 H 15.306 54.239 60.336 H 0.0 **** 0.0
3 H 14.898 52.585 60.849 H 0.0 **** 0.0
4 H 14.88 53.915 62.033 H 0.0 **** 0.0
5 H 16.427 53.329 61.376 H 0.0 **** 0.0
@<TRIPOS>BOND
1 1 2 1
2 1 3 1
3 1 4 1
4 1 5 1
@<TRIPOS>MOLECULE
CH4
5 4
SMALL
USER_CHARGES


@<TRIPOS>ATOM
1 C 87.865 13.501 41.66 C 0.0 **** 0.0
2 H 87.861 13.655 42.739 H 0.0 **** 0.0
3 H 88.491 12.641 41.419 H 0.0 **** 0.0
4 H 88.262 14.389 41.168 H 0.0 **** 0.0
5 H 86.848 13.319 41.315 H 0.0 **** 0.0
@<TRIPOS>BOND
1 1 2 1
2 1 3 1
3 1 4 1
4 1 5 1
@<TRIPOS>MOLECULE
CH4
5 4
SMALL
USER_CHARGES


@<TRIPOS>ATOM
1 C 47.99 40.175 50.95 C 0.0 **** 0.0
2 H 48.151 39.98 49.89 H 0.0 **** 0.0
3 H 48.916 39.998 51.497 H 0.0 **** 0.0
4 H 47.212 39.512 51.327 H 0.0 **** 0.0
5 H 47.68 41.212 51.085 H 0.0 **** 0.0
@<TRIPOS>BOND
1 1 2 1
2 1 3 1
3 1 4 1
4 1 5 1
@<TRIPOS>MOLECULE
CH4
5 4
SMALL
USER_CHARGES


@<TRIPOS>ATOM
1 C 71.856 15.897 81.466 C 0.0 **** 0.0
2 H 72.071 14.918 81.038 H 0.0 **** 0.0
3 H 72.783 16.352 81.815 H 0.0 **** 0.0
4 H 71.169 15.783 82.305 H 0.0 **** 0.0
5 H 71.401 16.534 80.708 H 0.0 **** 0.0
@<TRIPOS>BOND
1 1 2 1
2 1 3 1
3 1 4 1
4 1 5 1
@<TRIPOS>MOLECULE
CH4
5 4
SMALL
USER_CHARGES


@<TRIPOS>ATOM
1 C 68.9 35.489 88.726 C 0.0 **** 0.0
2 H 69.171 35.642 87.681 H 0.0 **** 0.0
3 H 68.298 36.329 89.072 H 0.0 **** 0.0
4 H 69.805 35.417 89.329 H 0.0 **** 0.0
5 H 68.327 34.567 88.821 H 0.0 **** 0.0
@<TRIPOS>BOND
1 1 2 1
2 1 3 1
3 1 4 1
4 1 5 1
@<TRIPOS>MOLECULE
CH4
5 4
SMALL
USER_CHARGES


@<TRIPOS>ATOM
1 C 63.943 94.56 45.43 C 0.0 **** 0.0
2 H 64.131 94.653 46.5 H 0.0 **** 0.0
3 H 64.247 95.478 44.927 H 0.0 **** 0.0
4 H 62.88 94.388 45.261 H 0.0 **** 0.0
5 H 64.515 93.721 45.033 H 0.0 **** 0.0
@<TRIPOS>BOND
1 1 2 1
2 1 3 1
3 1 4 1
4 1 5 1
@<TRIPOS>MOLECULE
CH4
5 4
SMALL
USER_CHARGES


@<TRIPOS>ATOM
1 C 83.536 96.202 11.821 C 0.0 **** 0.0
2 H 83.929 95.781 12.746 H 0.0 **** 0.0
3 H 82.454 96.076 11.795 H 0.0 **** 0.0
4 H 83.983 95.687 10.97 H 0.0 **** 0.0
5 H 83.781 97.263 11.772 H 0.0 **** 0.0
@<TRIPOS>BOND
1 1 2 1
2 1 3 1
3 1 4 1
4 1 5 1
@<TRIPOS>MOLECULE
CH4
5 4
SMALL
USER_CHARGES


@<TRIPOS>ATOM
1 C 41.585 22.17 70.616 C 0.0 **** 0.0
2 H 40.894 21.429 70.215 H 0.0 **** 0.0
3 H 41.039 23.082 70.86 H 0.0 **** 0.0
4 H 42.35 22.393 69.871 H 0.0 **** 0.0
5 H 42.057 21.777 71.516 H 0.0 **** 0.0
@<TRIPOS>BOND
1 1 2 1
2 1 3 1
3 1 4 1
4 1 5 1
@<TRIPOS>MOLECULE
CH4
5 4
SMALL
USER_CHARGES


@<TRIPOS>ATOM
1 C 65.951 16.929 88.888 C 0.0 **** 0.0
2 H 65.255 16.663 89.684 H 0.0 **** 0.0
3 H 66.767 17.521 89.301 H 0.0 **** 0.0
4 H 65.428 17.509 88.127 H 0.0 **** 0.0
5 H 66.352 16.02 88.439 H 0.0 **** 0.0
@<TRIPOS>BOND
1 1 2 1
2 1 3 1
3 1 4 1
4 1 5 1
@<TRIPOS>MOLECULE
CH4
5 4
SMALL
USER_CHARGES


@<TRIPOS>ATOM
1 C 13.084 37.021 33.976 C 0.0 **** 0.0
2 H 13.091 37.089 32.888 H 0.0 **** 0.0
3 H 13.471 37.947 34.4 H 0.0 **** 0.0
4 H 13.712 36.187 34.291 H 0.0 **** 0.0
5 H 12.064 36.859 34.323 H 0.0 **** 0.0
@<TRIPOS>BOND
1 1 2 1
2 1 3 1
3 1 4 1
4 1 5 1
@<TRIPOS>MOLECULE
CH4
5 4
SMALL
USER_CHARGES


@<TRIPOS>ATOM
1 C 94.866 87.31 77.366 C 0.0 **** 0.0
2 H 95.243 86.888 78.298 H 0.0 **** 0.0
3 H 95.285 86.761 76.523 H 0.0 **** 0.0
4 H 95.157 88.358 77.298 H 0.0 **** 0.0
5 H 93.779 87.232 77.346 H 0.0 **** 0.0
@<TRIPOS>BOND
1 1 2 1
2 1 3 1
3 1 4 1
4 1 5 1
@<TRIPOS>MOLECULE
CH4
5 4
SMALL
USER_CHARGES


@<TRIPOS>ATOM
1 C 51.603 36.617 56.321 C 0.0 **** 0.0
2 H 51.658 36.58 55.233 H 0.0 **** 0.0
3 H 50.563 36.526 56.635 H 0.0 **** 0.0
4 H 52.008 37.566 56.673 H 0.0 **** 0.0
5 H 52.184 35.796 56.741 H 0.0 **** 0.0
@<TRIPOS>BOND
1 1 2 1
2 1 3 1
3 1 4 1
4 1 5 1
@<TRIPOS>MOLECULE
CH4
5 4
SMALL
USER_CHARGES


@<TRIPOS>ATOM
1 C 98.439 4.165 90.528 C 0.0 **** 0.0
2 H 98.97 4.749 91.28 H 0.0 **** 0.0
3 H 98.335 3.137 90.875 H 0.0 **** 0.0
4 H 99.0 4.179 89.594 H 0.0 **** 0.0
5 H 97.451 4.596 90.365 H 0.0 **** 0.0
@<TRIPOS>BOND
1 1 2 1
2 1 3 1
3 1 4 1
4 1 5 1
@<TRIPOS>MOLECULE
CH4
5 4
SMALL
USER_CHARGES


@<TRIPOS>ATOM
1 C 72.966 58.729 76.526 C 0.0 **** 0.0
2 H 72.364 59.638 76.537 H 0.0 **** 0.0
3 H 72.709 58.134 75.649 H 0.0 **** 0.0
4 H 72.767 58.151 77.428 H 0.0 **** 0.0
5 H 74.022 58.993 76.49 H 0.0 **** 0.0
@<TRIPOS>BOND
1 1 2 1
2 1 3 1
3 1 4 1
4 1 5 1
@<TRIPOS>MOLECULE
CH4
5 4
SMALL
USER_CHARGES


@<TRIPOS>ATOM
1 C 42.377 39.21 6.973 C 0.0 **** 0.0
2 H 41.47 39.337 7.565 H 0.0 **** 0.0
3 H 43.076 40.015 7.202 H 0.0 **** 0.0
4 H 42.125 39.238 5.913 H 0.0 **** 0.0
5 H 42.835 38.251 7.212 H 0.0 **** 0.0
@<TRIPOS>BOND
1 1 2 1
2 1 3 1
3 1 4 1
4 1 5 1
@<TRIPOS>MOLECULE
CH4
5 4
SMALL
USER_CHARGES


@<TRIPOS>ATOM
1 C 24.618 2.811 51.107 C 0.0 **** 0.0
2 H 23.604 2.886 51.498 H 0.0 **** 0.0
3 H 24.932 3.782 50.724 H 0.0 **** 0.0
4 H 24.644 2.076 50.303 H 0.0 **** 0.0
5 H 25.293 2.5 51.905 H 0.0 **** 0.0
@<TRIPOS>BOND
1 1 2 1
2 1 3 1
3 1 4 1
4 1 5 1
@<TRIPOS>MOLECULE
CH4
5 4
SMALL
USER_CHARGES


@<TRIPOS>ATOM
1 C 0.875 35.048 92.323 C 0.0 **** 0.0
2 H -0.0 34.425 92.136 H 0.0 **** 0.0
3 H 0.713 36.039 91.899 H 0.0 **** 0.0
4 H 1.75 34.593 91.86 H 0.0 **** 0.0
5 H 1.036 35.134 93.398 H 0.0 **** 0.0
@<TRIPOS>BOND
1 1 2 1
2 1 3 1
3 1 4 1
4 1 5 1
@<TRIPOS>MOLECULE
CH4
5 4
SMALL
USER_CHARGES


@<TRIPOS>ATOM
1 C 29.79 76.13 88.685 C 0.0 **** 0.0
2 H 30.69 76.612 88.303 H 0.0 **** 0.0
3 H 29.306 76.787 89.408 H 0.0 **** 0.0
4 H 30.059 75.191 89.169 H 0.0 **** 0.0
5 H 29.107 75.931 87.86 H 0.0 **** 0.0
@<TRIPOS>BOND
1 1 2 1
2 1 3 1
3 1 4 1
4 1 5 1
@<TRIPOS>MOLECULE
CH4
5 4
SMALL
USER_CHARGES


@<TRIPOS>ATOM
1 C 61.998 82.44 64.352 C 0.0 **** 0.0
2 H 61.95 82.372 63.265 H 0.0 **** 0.0
3 H 61.153 83.025 64.716 H 0.0 **** 0.0
4 H 62.929 82.925 64.645 H 0.0 **** 0.0
5 H 61.959 81.439 64.781 H 0.0 **** 0.0
@<TRIPOS>BOND
1 1 2 1
2 1 3 1
3 1 4 1
4 1 5 1
@<TRIPOS>MOLECULE
CH4
5 4
SMALL
USER_CHARGES


@<TRIPOS>ATOM
1 C 59.635 94.477 5.105 C 0.0 **** 0.0
2 H 60.637 94.864 4.919 H 0.0 **** 0.0
3 H 58.938 95.309 5.21 H 0.0 **** 0.0
4 H 59.637 93.887 6.021 H 0.0 **** 0.0
5 H 59.327 93.849 4.269 H 0.0 **** 0.0
@<TRIPOS>BOND
1 1 2 1
2 1 3 1
3 1 4 1
4 1 5 1
@<TRIPOS>MOLECULE
CH4
5 4
SMALL
USER_CHARGES


@<TRIPOS>ATOM
1 C 38.584 25.363 73.33 C 0.0 **** 0.0
2 H 39.254 25.356 72.47 H 0.0 **** 0.0
3 H 37.955 26.253 73.292 H 0.0 **** 0.0
4 H 39.172 25.372 74.247 H 0.0 **** 0.0
5 H 37.956 24.473 73.308 H 0.0 **** 0.0
@<TRIPOS>BOND
1 1 2 1
2 1 3 1
3 1 4 1
4 1 5 1
@<TRIPOS>MOLECULE
CH4
5 4
SMALL
USER_CHARGES


@<TRIPOS>ATOM
1 C 28.209 30.092 92.201 C 0.0 **** 0.0
2 H 28.085 30.095 91.119 H 0.0 **** 0.0
3 H 28.026 31.094 92.591 H 0.0 **** 0.0
4 H 29.226 29.785 92.449 H 0.0 **** 0.0
5 H 27.5 29.394 92.646 H 0.0 **** 0.0
@<TRIPOS>BOND
1 1 2 1
2 1 3 1
3 1 4 1
4 1 5 1
@<TRIPOS>MOLECULE
CH4
5 4
SMALL
USER_CHARGES


@<TRIPOS>ATOM
1 C 35.003 48.424 46.438 C 0.0 **** 0.0
2 H 35.342 47.631 47.105 H 0.0 **** 0.0
3 H 34.951 48.043 45.418 H 0.0 **** 0.0
4 H 35.703 49.258 46.48 H 0.0 **** 0.0
5 H 34.015 48.763 46.751 H 0.0 **** 0.0
@<TRIPOS>BOND
1 1 4 1
2 1 5 1
3 1 2 1
4 1 3 1
@<TRIPOS>MOLECULE
CH4
5 4
SMALL
USER_CHARGES


@<TRIPOS>ATOM
1 C 38.412 39.718 72.019 C 0.0 **** 0.0
2 H 37.824 39.51 71.125 H 0.0 **** 0.0
3 H 38.348 38.871 72.702 H 0.0 **** 0.0
4 H 38.022 40.611 72.51 H 0.0 **** 0.0
5 H 39.452 39.882 71.74 H 0.0 **** 0.0
@<TRIPOS>BOND
1 1 2 1
2 1 3 1
3 1 4 1
4 1 5 1
@<TRIPOS>MOLECULE
CH4
5 4
SMALL
USER_CHARGES


@<TRIPOS>ATOM
1 C 26.62 23.041 87.845 C 0.0 **** 0.0
2 H 26.095 22.895 86.901 H 0.0 **** 0.0
3 H 25.975 23.58 88.539 H 0.0 **** 0.0
4 H 27.528 23.618 87.67 H 0.0 **** 0.0
5 H 26.882 22.072 88.269 H 0.0 **** 0.0
@<TRIPOS>BOND
1 1 2 1
2 1 3 1
3 1 4 1
4 1 5 1
@<TRIPOS>MOLECULE
CH4
5 4
SMALL
USER_CHARGES


@<TRIPOS>ATOM
1 C 11.716 75.271 5.995 C 0.0 **** 0.0
2 H 12.031 74.668 6.846 H 0.0 **** 0.0
3 H 10.627 75.301 5.955 H 0.0 **** 0.0
4 H 12.101 74.829 5.075 H 0.0 **** 0.0
5 H 12.105 76.283 6.103 H 0.0 **** 0.0
@<TRIPOS>BOND
1 1 2 1
2 1 3 1
3 1 4 1
4 1 5 1
@<TRIPOS>MOLECULE
CH4
5 4
SMALL
USER_CHARGES


@<TRIPOS>ATOM
1 C 55.049 93.363 71.543 C 0.0 **** 0.0
2 H 55.006 93.703 72.578 H 0.0 **** 0.0
3 H 56.068 93.463 71.17 H 0.0 **** 0.0
4 H 54.377 93.967 70.934 H 0.0 **** 0.0
5 H 54.744 92.317 71.492 H 0.0 **** 0.0
@<TRIPOS>BOND
1 1 2 1
2 1 3 1
3 1 4 1
4 1 5 1
@<TRIPOS>MOLECULE
CH4
5 4
SMALL
USER_CHARGES


@<TRIPOS>ATOM
1 C 30.911 41.594 78.706 C 0.0 **** 0.0
2 H 31.115 41.588 77.635 H 0.0 **** 0.0
3 H 30.899 42.622 79.067 H 0.0 **** 0.0
4 H 31.688 41.034 79.226 H 0.0 **** 0.0
5 H 29.943 41.13 78.893 H 0.0 **** 0.0
@<TRIPOS>BOND
1 1 2 1
2 1 3 1
3 1 4 1
4 1 5 1
@<TRIPOS>MOLECULE
CH4
5 4
SMALL
USER_CHARGES


@<TRIPOS>ATOM
1 C 83.477 24.972 54.504 C 0.0 **** 0.0
2 H 83.24 25.056 53.444 H 0.0 **** 0.0
3 H 83.276 25.923 54.998 H 0.0 **** 0.0
4 H 84.531 24.718 54.622 H 0.0 **** 0.0
5 H 82.863 24.192 54.953 H 0.0 **** 0.0
@<TRIPOS>BOND
1 1 2 1
2 1 3 1
3 1 4 1
4 1 5 1
@<TRIPOS>MOLECULE
CH4
5 4
SMALL
USER_CHARGES


@<TRIPOS>ATOM
1 C 57.129 45.924 93.547 C 0.0 **** 0.0
2 H 57.658 45.84 92.598 H 0.0 **** 0.0
3 H 57.169 46.957 93.894 H 0.0 **** 0.0
4 H 57.601 45.275 94.284 H 0.0 **** 0.0
5 H 56.09 45.625 93.411 H 0.0 **** 0.0
@<TRIPOS>BOND
1 1 2 1
2 1 3 1
3 1 4 1
4 1 5 1
@<TRIPOS>MOLECULE
CH4
5 4
SMALL
USER_CHARGES


@<TRIPOS>ATOM
1 C 45.03 53.85 81.929 C 0.0 **** 0.0
2 H 44.458 53.78 81.004 H 0.0 **** 0.0
3 H 45.572 52.918 82.092 H 0.0 **** 0.0
4 H 44.351 54.026 82.763 H 0.0 **** 0.0
5 H 45.738 54.675 81.857 H 0.0 **** 0.0
@<TRIPOS>BOND
1 1 2 1
2 1 3 1
3 1 4 1
4 1 5 1
@<TRIPOS>MOLECULE
CH4
5 4
SMALL
USER_CHARGES


@<TRIPOS>ATOM
1 C 36.615 15.712 3.451 C 0.0 **** 0.0
2 H 35.713 15.943 4.017 H 0.0 **** 0.0
3 H 36.417 15.835 2.386 H 0.0 **** 0.0
4 H 36.914 14.683 3.649 H 0.0 **** 0.0
5 H 37.416 16.388 3.753 H 0.0 **** 0.0
@<TRIPOS>BOND
1 1 2 1
2 1 3 1
3 1 4 1
4 1 5 1
@<TRIPOS>MOLECULE
CH4
5 4
SMALL
USER_CHARGES


@<TRIPOS>ATOM
1 C 22.668 5.511 29.15 C 0.0 **** 0.0
2 H 23.349 4.778 29.582 H 0.0 **** 0.0
3 H 22.694 5.433 28.063 H 0.0 **** 0.0
4 H 22.975 6.513 29.451 H 0.0 **** 0.0
5 H 21.656 5.32 29.505 H 0.0 **** 0.0
@<TRIPOS>BOND
1 1 2 1
2 1 3 1
3 1 4 1
4 1 5 1
@<TRIPOS>MOLECULE
CH4
5 4
SMALL
USER_CHARGES


@<TRIPOS>ATOM
1 C 24.838 37.111 75.456 C 0.0 **** 0.0
2 H 25.216 36.092 75.372 H 0.0 **** 0.0
3 H 25.361 37.752 74.747 H 0.0 **** 0.0
4 H 25.004 37.477 76.469 H 0.0 **** 0.0
5 H 23.77 37.121 75.236 H 0.0 **** 0.0
@<TRIPOS>BOND
1 1 2 1
2 1 3 1
3 1 4 1
4 1 5 1
@<TRIPOS>MOLECULE
CH4
5 4
SMALL
USER_CHARGES


@<TRIPOS>ATOM
1 C 54.428 46.063 36.463 C 0.0 **** 0.0
2 H 55.111 45.499 37.099 H 0.0 **** 0.0
3 H 53.404 45.901 36.798 H 0.0 **** 0.0
4 H 54.531 45.726 35.431 H 0.0 **** 0.0
5 H 54.668 47.124 36.524 H 0.0 **** 0.0
@<TRIPOS>BOND
1 1 2 1
2 1 3 1
3 1 4 1
4 1 5 1
@<TRIPOS>MOLECULE
CH4
5 4
SMALL
USER_CHARGES


@<TRIPOS>ATOM
1 C 88.17 69.45 29.074 C 0.0 **** 0.0
2 H 87.848 68.513 29.529 H 0.0 **** 0.0
3 H 89.162 69.71 29.443 H 0.0 **** 0.0
4 H 87.466 70.241 29.334 H 0.0 **** 0.0
5 H 88.203 69.335 27.991 H 0.0 **** 0.0
@<TRIPOS>BOND
1 1 2 1
2 1 3 1
3 1 4 1
4 1 5 1
@<TRIPOS>MOLECULE
CH4
5 4
SMALL
USER_CHARGES


@<TRIPOS>ATOM
1 C 42.495 75.111 79.574 C 0.0 **** 0.0
2 H 42.56 75.093 78.486 H 0.0 **** 0.0
3 H 41.995 76.027 79.892 H 0.0 **** 0.0
4 H 43.498 75.078 79.998 H 0.0 **** 0.0
5 H 41.926 74.248 79.919 H 0.0 **** 0.0
@<TRIPOS>BOND
1 1 2 1
2 1 3 1
3 1 4 1
4 1 5 1
@<TRIPOS>MOLECULE
CH4
5 4
SMALL
USER_CHARGES


@<TRIPOS>ATOM
1 C 22.175 28.202 82.867 C 0.0 **** 0.0
2 H 21.328 27.81 82.303 H 0.0 **** 0.0
3 H 21.814 28.886 83.635 H 0.0 **** 0.0
4 H 22.846 28.733 82.192 H 0.0 **** 0.0
5 H 22.71 27.377 83.337 H 0.0 **** 0.0
@<TRIPOS>BOND
1 1 2 1
2 1 3 1
3 1 4 1
4 1 5 1
@<TRIPOS>MOLECULE
CH4
5 4
SMALL
USER_CHARGES


@<TRIPOS>ATOM
1 C 82.265 69.08 39.403 C 0.0 **** 0.0
2 H 82.415 68.747 40.429 H 0.0 **** 0.0
3 H 82.332 68.225 38.73 H 0.0 **** 0.0
4 H 83.032 69.809 39.141 H 0.0 **** 0.0
5 H 81.281 69.54 39.311 H 0.0 **** 0.0
@<TRIPOS>BOND
1 1 2 1
2 1 3 1
3 1 4 1
4 1 5 1
@<TRIPOS>MOLECULE
CH4
5 4
SMALL
USER_CHARGES


@<TRIPOS>ATOM
1 C 8.102 5.648 47.18 C 0.0 **** 0.0
2 H 8.585 6.323 47.886 H 0.0 **** 0.0
3 H 8.782 5.439 46.354 H 0.0 **** 0.0
4 H 7.195 6.114 46.795 H 0.0 **** 0.0
5 H 7.845 4.717 47.685 H 0.0 **** 0.0
@<TRIPOS>BOND
1 1 2 1
2 1 3 1
3 1 4 1
4 1 5 1
@<TRIPOS>MOLECULE
CH4
5 4
SMALL
USER_CHARGES


@<TRIPOS>ATOM
1 C 75.999 70.079 85.779 C 0.0 **** 0.0
2 H 75.808 69.87 86.832 H 0.0 **** 0.0
3 H 75.406 69.404 85.162 H 0.0 **** 0.0
4 H 77.057 69.932 85.566 H 0.0 **** 0.0
5 H 75.723 71.11 85.558 H 0.0 **** 0.0
@<TRIPOS>BOND
1 1 2 1
2 1 3 1
3 1 4 1
4 1 5 1
@<TRIPOS>MOLECULE
CH4
5 4
SMALL
USER_CHARGES


@<TRIPOS>ATOM
1 C 73.233 73.314 39.798 C 0.0 **** 0.0
2 H 73.047 73.458 38.734 H 0.0 **** 0.0
3 H 74.08 72.641 39.931 H 0.0 **** 0.0
4 H 72.348 72.882 40.266 H 0.0 **** 0.0
5 H 73.456 74.276 40.26 H 0.0 **** 0.0
@<TRIPOS>BOND
1 1 2 1
2 1 3 1
3 1 4 1
4 1 5 1
@<TRIPOS>MOLECULE
CH4
5 4
SMALL
USER_CHARGES


@<TRIPOS>ATOM
1 C 54.766 79.67 15.995 C 0.0 **** 0.0
2 H 55.361 78.757 16.017 H 0.0 **** 0.0
3 H 53.901 79.555 16.649 H 0.0 **** 0.0
4 H 54.429 79.859 14.976 H 0.0 **** 0.0
5 H 55.373 80.508 16.338 H 0.0 **** 0.0
@<TRIPOS>BOND
1 1 2 1
2 1 3 1
3 1 4 1
4 1 5 1
@<TRIPOS>MOLECULE
CH4
5 4
SMALL
USER_CHARGES


@<TRIPOS>ATOM
1 C 16.508 38.304 45.287 C 0.0 **** 0.0
2 H 16.25 38.771 46.237 H 0.0 **** 0.0
3 H 16.258 37.244 45.324 H 0.0 **** 0.0
4 H 17.576 38.419 45.104 H 0.0 **** 0.0
5 H 15.948 38.782 44.483 H 0.0 **** 0.0
@<TRIPOS>BOND
1 1 2 1
2 1 3 1
3 1 4 1
4 1 5 1
@<TRIPOS>MOLECULE
CH4
5 4
SMALL
USER_CHARGES


@<TRIPOS>ATOM
1 C 25.85 3.724 38.479 C 0.0 **** 0.0
2 H 25.304 2.781 38.46 H 0.0 **** 0.0
3 H 25.858 4.159 37.48 H 0.0 **** 0.0
4 H 26.874 3.544 38.805 H 0.0 **** 0.0
5 H 25.364 4.411 39.172 H 0.0 **** 0.0
@<TRIPOS>BOND
1 1 3 1
2 1 4 1
3 1 5 1
4 1 2 1
@<TRIPOS>MOLECULE
CH4
5 4
SMALL
USER_CHARGES


@<TRIPOS>ATOM
1 C 42.744 21.432 39.459 C 0.0 **** 0.0
2 H 43.029 21.149 40.473 H 0.0 **** 0.0
3 H 41.788 21.954 39.483 H 0.0 **** 0.0
4 H 42.654 20.536 38.844 H 0.0 **** 0.0
5 H 43.507 22.087 39.037 H 0.0 **** 0.0
@<TRIPOS>BOND
1 1 2 1
2 1 3 1
3 1 4 1
4 1 5 1
@<TRIPOS>MOLECULE
CH4
5 4
SMALL
USER_CHARGES


@<TRIPOS>ATOM
1 C 20.831 75.139 33.519 C 0.0 **** 0.0
2 H 20.414 75.009 34.517 H 0.0 **** 0.0
3 H 21.852 75.513 33.598 H 0.0 **** 0.0
4 H 20.225 75.853 32.962 H 0.0 **** 0.0
5 H 20.834 74.181 32.998 H 0.0 **** 0.0
@<TRIPOS>BOND
1 1 2 1
2 1 3 1
3 1 4 1
4 1 5 1
@<TRIPOS>MOLECULE
CH4
5 4
SMALL
USER_CHARGES


@<TRIPOS>ATOM
1 C 20.975 77.449 35.793 C 0.0 **** 0.0
2 H 20.594 77.847 36.734 H 0.0 **** 0.0
3 H 21.802 78.069 35.446 H 0.0 **** 0.0
4 H 20.18 77.453 35.048 H 0.0 **** 0.0
5 H 21.326 76.429 35.946 H 0.0 **** 0.0
@<TRIPOS>BOND
1 1 2 1
2 1 3 1
3 1 4 1
4 1 5 1
@<TRIPOS>MOLECULE
CH4
5 4
SMALL
USER_CHARGES


@<TRIPOS>ATOM
1 C 37.885 70.263 41.038 C 0.0 **** 0.0
2 H 38.214 71.008 40.314 H 0.0 **** 0.0
3 H 37.778 69.298 40.542 H 0.0 **** 0.0
4 H 36.926 70.563 41.459 H 0.0 **** 0.0
5 H 38.623 70.182 41.836 H 0.0 **** 0.0
@<TRIPOS>BOND
1 1 2 1
2 1 3 1
3 1 4 1
4 1 5 1
@<TRIPOS>MOLECULE
CH4
5 4
SMALL
USER_CHARGES


@<TRIPOS>ATOM
1 C 61.08 69.602 7.428 C 0.0 **** 0.0
2 H 61.108 69.447 6.349 H 0.0 **** 0.0
3 H 61.629 70.51 7.679 H 0.0 **** 0.0
4 H 61.538 68.749 7.929 H 0.0 **** 0.0
5 H 60.045 69.702 7.754 H 0.0 **** 0.0
@<TRIPOS>BOND
1 1 2 1
2 1 3 1
3 1 4 1
4 1 5 1
@<TRIPOS>MOLECULE
CH4
5 4
SMALL
USER_CHARGES


@<TRIPOS>ATOM
1 C 67.829 68.126 19.598 C 0.0 **** 0.0
2 H 68.19 69.086 19.969 H 0.0 **** 0.0
3 H 68.679 67.506 19.312 H 0.0 **** 0.0
4 H 67.19 68.289 18.731 H 0.0 **** 0.0
5 H 67.26 67.625 20.381 H 0.0 **** 0.0
@<TRIPOS>BOND
1 1 2 1
2 1 3 1
3 1 4 1
4 1 5 1
@<TRIPOS>MOLECULE
CH4
5 4
SMALL
USER_CHARGES


@<TRIPOS>ATOM
1 C 91.354 47.268 20.873 C 0.0 **** 0.0
2 H 91.562 47.114 19.814 H 0.0 **** 0.0
3 H 91.961 46.583 21.466 H 0.0 **** 0.0
4 H 90.298 47.079 21.067 H 0.0 **** 0.0
5 H 91.595 48.296 21.144 H 0.0 **** 0.0
@<TRIPOS>BOND
1 1 2 1
2 1 3 1
3 1 4 1
4 1 5 1
@<TRIPOS>MOLECULE
CH4
5 4
SMALL
USER_CHARGES


@<TRIPOS>ATOM
1 C 5.463 23.37 38.537 C 0.0 **** 0.0
2 H 5.754 23.408 37.488 H 0.0 **** 0.0
3 H 6.021 24.12 39.097 H 0.0 **** 0.0
4 H 5.681 22.38 38.938 H 0.0 **** 0.0
5 H 4.395 23.57 38.625 H 0.0 **** 0.0
@<TRIPOS>BOND
1 1 2 1
2 1 3 1
3 1 4 1
4 1 5 1
@<TRIPOS>MOLECULE
CH4
5 4
SMALL
USER_CHARGES


@<TRIPOS>ATOM
1 C 31.509 58.574 49.45 C 0.0 **** 0.0
2 H 31.336 58.561 48.374 H 0.0 **** 0.0
3 H 31.146 59.515 49.865 H 0.0 **** 0.0
4 H 32.576 58.476 49.648 H 0.0 **** 0.0
5 H 30.976 57.743 49.913 H 0.0 **** 0.0
@<TRIPOS>BOND
1 1 2 1
2 1 3 1
3 1 4 1
4 1 5 1
@<TRIPOS>MOLECULE
CH4
5 4
SMALL
USER_CHARGES


@<TRIPOS>ATOM
1 C 71.819 29.647 92.836 C 0.0 **** 0.0
2 H 71.534 30.141 93.764 H 0.0 **** 0.0
3 H 72.899 29.501 92.818 H 0.0 **** 0.0
4 H 71.522 30.265 91.989 H 0.0 **** 0.0
5 H 71.32 28.679 92.772 H 0.0 **** 0.0
@<TRIPOS>BOND
1 1 2 1
2 1 3 1
3 1 4 1
4 1 5 1
@<TRIPOS>MOLECULE
CH4
5 4
SMALL
USER_CHARGES


@<TRIPOS>ATOM
1 C 80.279 66.419 90.644 C 0.0 **** 0.0
2 H 79.498 67.165 90.498 H 0.0 **** 0.0
3 H 79.968 65.715 91.416 H 0.0 **** 0.0
4 H 81.2 66.913 90.953 H 0.0 **** 0.0
5 H 80.449 65.883 89.71 H 0.0 **** 0.0
@<TRIPOS>BOND
1 1 2 1
2 1 3 1
3 1 4 1
4 1 5 1
@<TRIPOS>MOLECULE
CH4
5 4
SMALL
USER_CHARGES


@<TRIPOS>ATOM
1 C 39.908 67.791 13.046 C 0.0 **** 0.0
2 H 39.144 67.142 12.618 H 0.0 **** 0.0
3 H 40.057 68.654 12.397 H 0.0 **** 0.0
4 H 40.844 67.238 13.137 H 0.0 **** 0.0
5 H 39.588 68.127 14.032 H 0.0 **** 0.0
@<TRIPOS>BOND
1 1 2 1
2 1 3 1
3 1 4 1
4 1 5 1
@<TRIPOS>MOLECULE
CH4
5 4
SMALL
USER_CHARGES


@<TRIPOS>ATOM
1 C 54.629 87.777 96.478 C 0.0 **** 0.0
2 H 55.002 87.944 95.467 H 0.0 **** 0.0
3 H 55.044 88.532 97.146 H 0.0 **** 0.0
4 H 54.93 86.786 96.816 H 0.0 **** 0.0
5 H 53.542 87.848 96.48 H 0.0 **** 0.0
@<TRIPOS>BOND
1 1 2 1
2 1 3 1
3 1 4 1
4 1 5 1
@<TRIPOS>MOLECULE
CH4
5 4
SMALL
USER_CHARGES


@<TRIPOS>ATOM
1 C 65.717 57.802 57.826 C 0.0 **** 0.0
2 H 65.12 56.897 57.937 H 0.0 **** 0.0
3 H 65.136 58.558 57.298 H 0.0 **** 0.0
4 H 66.619 57.574 57.259 H 0.0 **** 0.0
5 H 65.993 58.178 58.811 H 0.0 **** 0.0
@<TRIPOS>BOND
1 1 2 1
2 1 3 1
3 1 4 1
4 1 5 1
@<TRIPOS>MOLECULE
CH4
5 4
SMALL
USER_CHARGES


@<TRIPOS>ATOM
1 C 24.045 25.54 90.736 C 0.0 **** 0.0
2 H 23.838 24.652 90.14 H 0.0 **** 0.0
3 H 23.385 26.349 90.424 H 0.0 **** 0.0
4 H 25.083 25.841 90.592 H 0.0 **** 0.0
5 H 23.875 25.318 91.79 H 0.0 **** 0.0
@<TRIPOS>BOND
1 1 2 1
2 1 3 1
3 1 4 1
4 1 5 1
@<TRIPOS>MOLECULE
CH4
5 4
SMALL
USER_CHARGES


@<TRIPOS>ATOM
1 C 8.107 12.036 81.321 C 0.0 **** 0.0
2 H 7.065 11.988 81.637 H 0.0 **** 0.0
3 H 8.595 12.882 81.806 H 0.0 **** 0.0
4 H 8.154 12.16 80.24 H 0.0 **** 0.0
5 H 8.615 11.113 81.603 H 0.0 **** 0.0
@<TRIPOS>BOND
1 1 2 1
2 1 3 1
3 1 4 1
4 1 5 1
@<TRIPOS>MOLECULE
CH4
5 4
SMALL
USER_CHARGES


@<TRIPOS>ATOM
1 C 5.838 17.807 80.16 C 0.0 **** 0.0
2 H 5.946 18.826 79.79 H 0.0 **** 0.0
3 H 5.927 17.107 79.329 H 0.0 **** 0.0
4 H 4.86 17.694 80.629 H 0.0 **** 0.0
5 H 6.618 17.602 80.894 H 0.0 **** 0.0
@<TRIPOS>BOND
1 1 2 1
2 1 3 1
3 1 4 1
4 1 5 1
@<TRIPOS>MOLECULE
CH4
5 4
SMALL
USER_CHARGES


@<TRIPOS>ATOM
1 C 84.433 80.375 29.301 C 0.0 **** 0.0
2 H 85.09 79.973 30.072 H 0.0 **** 0.0
3 H 85.03 80.886 28.545 H 0.0 **** 0.0
4 H 83.734 81.08 29.75 H 0.0 **** 0.0
5 H 83.878 79.56 28.835 H 0.0 **** 0.0
@<TRIPOS>BOND
1 1 2 1
2 1 3 1
3 1 4 1
4 1 5 1
@<TRIPOS>MOLECULE
CH4
5 4
SMALL
USER_CHARGES


@<TRIPOS>ATOM
1 C 47.99 93.73 48.226 C 0.0 **** 0.0
2 H 47.895 94.09 49.251 H 0.0 **** 0.0
3 H 48.624 94.413 47.659 H 0.0 **** 0.0
4 H 47.003 93.682 47.765 H 0.0 **** 0.0
5 H 48.438 92.736 48.23 H 0.0 **** 0.0
@<TRIPOS>BOND
1 1 2 1
2 1 3 1
3 1 4 1
4 1 5 1
@<TRIPOS>MOLECULE
CH4
5 4
SMALL
USER_CHARGES


@<TRIPOS>ATOM
1 C 54.394 40.834 34.546 C 0.0 **** 0.0
2 H 54.253 40.228 35.441 H 0.0 **** 0.0
3 H 54.224 41.883 34.787 H 0.0 **** 0.0
4 H 53.686 40.518 33.779 H 0.0 **** 0.0
5 H 55.411 40.705 34.177 H 0.0 **** 0.0
@<TRIPOS>BOND
1 1 2 1
2 1 3 1
3 1 4 1
4 1 5 1
@<TRIPOS>MOLECULE
CH4
5 4
SMALL
USER_CHARGES


@<TRIPOS>ATOM
1 C 24.59 62.381 79.102 C 0.0 **** 0.0
2 H 24.443 62.436 80.181 H 0.0 **** 0.0
3 H 25.15 61.478 78.858 H 0.0 **** 0.0
4 H 25.146 63.256 78.767 H 0.0 **** 0.0
5 H 23.62 62.353 78.605 H 0.0 **** 0.0
@<TRIPOS>BOND
1 1 2 1
2 1 3 1
3 1 4 1
4 1 5 1
@<TRIPOS>MOLECULE
CH4
5 4
SMALL
USER_CHARGES


@<TRIPOS>ATOM
1 C 40.643 46.062 5.315 C 0.0 **** 0.0
2 H 41.009 46.842 4.648 H 0.0 **** 0.0
3 H 39.927 45.435 4.782 H 0.0 **** 0.0
4 H 40.155 46.52 6.176 H 0.0 **** 0.0
5 H 41.48 45.451 5.653 H 0.0 **** 0.0
@<TRIPOS>BOND
1 1 2 1
2 1 3 1
3 1 4 1
4 1 5 1
@<TRIPOS>MOLECULE
CH4
5 4
SMALL
USER_CHARGES


@<TRIPOS>ATOM
1 C 61.748 25.879 89.329 C 0.0 **** 0.0
2 H 61.982 26.446 90.23 H 0.0 **** 0.0
3 H 61.177 24.99 89.597 H 0.0 **** 0.0
4 H 62.673 25.582 88.836 H 0.0 **** 0.0
5 H 61.159 26.499 88.653 H 0.0 **** 0.0
@<TRIPOS>BOND
1 1 2 1
2 1 3 1
3 1 4 1
4 1 5 1
@<TRIPOS>MOLECULE
CH4
5 4
SMALL
USER_CHARGES


@<TRIPOS>ATOM
1 C 31.793 28.84 51.95 C 0.0 **** 0.0
2 H 31.243 28.553 52.846 H 0.0 **** 0.0
3 H 32.44 28.019 51.642 H 0.0 **** 0.0
4 H 32.399 29.721 52.163 H 0.0 **** 0.0
5 H 31.089 29.069 51.15 H 0.0 **** 0.0
@<TRIPOS>BOND
1 1 2 1
2 1 3 1
3 1 4 1
4 1 5 1
@<TRIPOS>MOLECULE
CH4
5 4
SMALL
USER_CHARGES


@<TRIPOS>ATOM
1 C 86.771 18.606 57.429 C 0.0 **** 0.0
2 H 87.459 19.188 56.817 H 0.0 **** 0.0
3 H 85.755 18.729 57.052 H 0.0 **** 0.0
4 H 86.82 18.954 58.461 H 0.0 **** 0.0
5 H 87.049 17.553 57.387 H 0.0 **** 0.0
@<TRIPOS>BOND
1 1 2 1
2 1 3 1
3 1 4 1
4 1 5 1
@<TRIPOS>MOLECULE
CH4
5 4
SMALL
USER_CHARGES


@<TRIPOS>ATOM
1 C 57.613 88.448 50.969 C 0.0 **** 0.0
2 H 57.539 89.392 50.429 H 0.0 **** 0.0
3 H 58.664 88.2 51.124 H 0.0 **** 0.0
4 H 57.136 87.659 50.388 H 0.0 **** 0.0
5 H 57.115 88.541 51.934 H 0.0 **** 0.0
@<TRIPOS>BOND
1 1 2 1
2 1 3 1
3 1 4 1
4 1 5 1
@<TRIPOS>MOLECULE
CH4
5 4
SMALL
USER_CHARGES


@<TRIPOS>ATOM
1 C 61.122 16.88 66.791 C 0.0 **** 0.0
2 H 60.536 15.967 66.691 H 0.0 **** 0.0
3 H 60.997 17.492 65.898 H 0.0 **** 0.0
4 H 62.175 16.625 66.913 H 0.0 **** 0.0
5 H 60.781 17.437 67.664 H 0.0 **** 0.0
@<TRIPOS>BOND
1 1 2 1
2 1 3 1
3 1 4 1
4 1 5 1
@<TRIPOS>MOLECULE
CH4
5 4
SMALL
USER_CHARGES


@<TRIPOS>ATOM
1 C 41.565 41.125 33.873 C 0.0 **** 0.0
2 H 42.492 40.581 34.056 H 0.0 **** 0.0
3 H 41.453 41.304 32.804 H 0.0 **** 0.0
4 H 41.595 42.079 34.4 H 0.0 **** 0.0
5 H 40.722 40.537 34.234 H 0.0 **** 0.0
@<TRIPOS>BOND
1 1 2 1
2 1 3 1
3 1 4 1
4 1 5 1
@<TRIPOS>MOLECULE
CH4
5 4
SMALL
USER_CHARGES


@<TRIPOS>ATOM
1 C 34.083 43.608 92.202 C 0.0 **** 0.0
2 H 33.511 42.82 91.711 H 0.0 **** 0.0
3 H 33.823 44.572 91.764 H 0.0 **** 0.0
4 H 35.148 43.422 92.064 H 0.0 **** 0.0
5 H 33.85 43.617 93.267 H 0.0 **** 0.0
@<TRIPOS>BOND
1 1 2 1
2 1 3 1
3 1 4 1
4 1 5 1
@<TRIPOS>MOLECULE
CH4
5 4
SMALL
USER_CHARGES


@<TRIPOS>ATOM
1 C 77.472 9.129 49.447 C 0.0 **** 0.0
2 H 77.07 9.673 50.301 H 0.0 **** 0.0
3 H 78.485 9.476 49.241 H 0.0 **** 0.0
4 H 76.843 9.305 48.575 H 0.0 **** 0.0
5 H 77.492 8.063 49.672 H 0.0 **** 0.0
@<TRIPOS>BOND
1 1 2 1
2 1 3 1
3 1 4 1
4 1 5 1
@<TRIPOS>MOLECULE
CH4
5 4
SMALL
USER_CHARGES


@<TRIPOS>ATOM
1 C 95.462 18.775 16.637 C 0.0 **** 0.0
2 H 95.429 19.513 15.835 H 0.0 **** 0.0
3 H 96.5 18.563 16.892 H 0.0 **** 0.0
4 H 94.974 17.858 16.307 H 0.0 **** 0.0
5 H 94.945 19.168 17.512 H 0.0 **** 0.0
@<TRIPOS>BOND
1 1 2 1
2 1 4 1
3 1 5 1
4 1 3 1
@<TRIPOS>MOLECULE
CH4
5 4
SMALL
USER_CHARGES


@<TRIPOS>ATOM
1 C 34.621 64.9 11.386 C 0.0 **** 0.0
2 H 34.683 64.972 10.3 H 0.0 **** 0.0
3 H 34.53 65.899 11.812 H 0.0 **** 0.0
4 H 35.522 64.421 11.769 H 0.0 **** 0.0
5 H 33.749 64.306 11.661 H 0.0 **** 0.0
@<TRIPOS>BOND
1 1 2 1
2 1 3 1
3 1 4 1
4 1 5 1
@<TRIPOS>MOLECULE
CH4
5 4
SMALL
USER_CHARGES


@<TRIPOS>ATOM
1 C 92.334 73.164 95.429 C 0.0 **** 0.0
2 H 92.154 72.685 96.391 H 0.0 **** 0.0
3 H 91.681 74.031 95.328 H 0.0 **** 0.0
4 H 92.125 72.456 94.627 H 0.0 **** 0.0
5 H 93.374 73.484 95.371 H 0.0 **** 0.0
@<TRIPOS>BOND
1 1 2 1
2 1 3 1
3 1 4 1
4 1 5 1
@<TRIPOS>MOLECULE
CH4
5 4
SMALL
USER_CHARGES


@<TRIPOS>ATOM
1 C 21.421 82.501 50.373 C 0.0 **** 0.0
2 H 21.187 81.8 49.572 H 0.0 **** 0.0
3 H 20.752 82.325 51.216 H 0.0 **** 0.0
4 H 21.291 83.521 50.013 H 0.0 **** 0.0
5 H 22.453 82.357 50.692 H 0.0 **** 0.0
@<TRIPOS>BOND
1 1 2 1
2 1 3 1
3 1 4 1
4 1 5 1
@<TRIPOS>MOLECULE
CH4
5 4
SMALL
USER_CHARGES


@<TRIPOS>ATOM
1 C 51.623 27.016 89.002 C 0.0 **** 0.0
2 H 51.47 26.969 87.924 H 0.0 **** 0.0
3 H 52.646 26.723 89.237 H 0.0 **** 0.0
4 H 50.928 26.337 89.497 H 0.0 **** 0.0
5 H 51.446 28.033 89.351 H 0.0 **** 0.0
@<TRIPOS>BOND
1 1 2 1
2 1 3 1
3 1 4 1
4 1 5 1
@<TRIPOS>MOLECULE
CH4
5 4
SMALL
USER_CHARGES


@<TRIPOS>ATOM
1 C 65.876 69.504 15.989 C 0.0 **** 0.0
2 H 65.327 70.373 16.353 H 0.0 **** 0.0
3 H 65.262 68.962 15.27 H 0.0 **** 0.0
4 H 66.117 68.85 16.827 H 0.0 **** 0.0
5 H 66.796 69.832 15.507 H 0.0 **** 0.0
@<TRIPOS>BOND
1 1 2 1
2 1 3 1
3 1 4 1
4 1 5 1
@<TRIPOS>MOLECULE
CH4
5 4
SMALL
USER_CHARGES


@<TRIPOS>ATOM
1 C 13.146 69.623 21.165 C 0.0 **** 0.0
2 H 12.659 69.637 20.19 H 0.0 **** 0.0
3 H 13.467 70.632 21.425 H 0.0 **** 0.0
4 H 14.014 68.964 21.128 H 0.0 **** 0.0
5 H 12.446 69.259 21.916 H 0.0 **** 0.0
@<TRIPOS>BOND
1 1 2 1
2 1 3 1
3 1 4 1
4 1 5 1
@<TRIPOS>MOLECULE
CH4
5 4
SMALL
USER_CHARGES


@<TRIPOS>ATOM
1 C 46.453 63.056 17.39 C 0.0 **** 0.0
2 H 45.678 63.138 18.152 H 0.0 **** 0.0
3 H 47.105 62.214 17.624 H 0.0 **** 0.0
4 H 47.04 63.975 17.369 H 0.0 **** 0.0
5 H 45.99 62.898 16.417 H 0.0 **** 0.0
@<TRIPOS>BOND
1 1 2 1
2 1 3 1
3 1 4 1
4 1 5 1
@<TRIPOS>MOLECULE
CH4
5 4
SMALL
USER_CHARGES


@<TRIPOS>ATOM
1 C 31.15 89.692 70.535 C 0.0 **** 0.0
2 H 30.858 90.52 69.89 H 0.0 **** 0.0
3 H 31.481 88.853 69.922 H 0.0 **** 0.0
4 H 30.297 89.386 71.141 H 0.0 **** 0.0
5 H 31.964 90.009 71.187 H 0.0 **** 0.0
@<TRIPOS>BOND
1 1 2 1
2 1 3 1
3 1 4 1
4 1 5 1
@<TRIPOS>MOLECULE
CH4
5 4
SMALL
USER_CHARGES


@<TRIPOS>ATOM
1 C 47.701 34.608 26.709 C 0.0 **** 0.0
2 H 47.387 35.406 27.383 H 0.0 **** 0.0
3 H 47.249 33.668 27.024 H 0.0 **** 0.0
4 H 48.787 34.517 26.735 H 0.0 **** 0.0
5 H 47.38 34.844 25.694 H 0.0 **** 0.0
@<TRIPOS>BOND
1 1 2 1
2 1 3 1
3 1 4 1
4 1 5 1
@<TRIPOS>MOLECULE
CH4
5 4
SMALL
USER_CHARGES


@<TRIPOS>ATOM
1 C 73.038 4.666 67.058 C 0.0 **** 0.0
2 H 72.766 4.363 68.069 H 0.0 **** 0.0
3 H 72.498 4.052 66.337 H 0.0 **** 0.0
4 H 74.111 4.534 66.916 H 0.0 **** 0.0
5 H 72.778 5.714 66.91 H 0.0 **** 0.0
@<TRIPOS>BOND
1 1 2 1
2 1 3 1
3 1 4 1
4 1 5 1
@<TRIPOS>MOLECULE
CH4
5 4
SMALL
USER_CHARGES


@<TRIPOS>ATOM
1 C 9.443 32.518 67.923 C 0.0 **** 0.0
2 H 9.687 32.072 66.959 H 0.0 **** 0.0
3 H 8.369 32.443 68.095 H 0.0 **** 0.0
4 H 9.739 33.567 67.924 H 0.0 **** 0.0
5 H 9.976 31.989 68.713 H 0.0 **** 0.0
@<TRIPOS>BOND
1 1 2 1
2 1 3 1
3 1 4 1
4 1 5 1
@<TRIPOS>MOLECULE
CH4
5 4
SMALL
USER_CHARGES


@<TRIPOS>ATOM
1 C 36.924 80.41 31.031 C 0.0 **** 0.0
2 H 36.791 79.892 30.081 H 0.0 **** 0.0
3 H 35.972 80.449 31.56 H 0.0 **** 0.0
4 H 37.28 81.423 30.846 H 0.0 **** 0.0
5 H 37.655 79.873 31.637 H 0.0 **** 0.0
@<TRIPOS>BOND
1 1 2 1
2 1 3 1
3 1 4 1
4 1 5 1
@<TRIPOS>MOLECULE
CH4
5 4
SMALL
USER_CHARGES


@<TRIPOS>ATOM
1 C 34.979 90.874 4.097 C 0.0 **** 0.0
2 H 34.929 90.936 5.184 H 0.0 **** 0.0
3 H 34.509 91.755 3.661 H 0.0 **** 0.0
4 H 34.457 89.978 3.761 H 0.0 **** 0.0
5 H 36.022 90.825 3.784 H 0.0 **** 0.0
@<TRIPOS>BOND
1 1 2 1
2 1 3 1
3 1 4 1
4 1 5 1
@<TRIPOS>MOLECULE
CH4
5 4
SMALL
USER_CHARGES


@<TRIPOS>ATOM
1 C 89.734 39.17 47.198 C 0.0 **** 0.0
2 H 90.452 38.837 47.948 H 0.0 **** 0.0
3 H 88.907 38.461 47.149 H 0.0 **** 0.0
4 H 90.223 39.226 46.226 H 0.0 **** 0.0
5 H 89.354 40.154 47.471 H 0.0 **** 0.0
@<TRIPOS>BOND
1 1 5 1
2 1 2 1
3 1 3 1
4 1 4 1
@<TRIPOS>MOLECULE
CH4
5 4
SMALL
USER_CHARGES


@<TRIPOS>ATOM
1 C 30.017 47.127 54.756 C 0.0 **** 0.0
2 H 30.652 47.642 54.035 H 0.0 **** 0.0
3 H 29.091 46.82 54.27 H 0.0 **** 0.0
4 H 29.789 47.798 55.584 H 0.0 **** 0.0
5 H 30.538 46.247 55.135 H 0.0 **** 0.0
@<TRIPOS>BOND
1 1 2 1
2 1 3 1
3 1 4 1
4 1 5 1
@<TRIPOS>MOLECULE
CH4
5 4
SMALL
USER_CHARGES


@<TRIPOS>ATOM
1 C 40.174 81.054 56.045 C 0.0 **** 0.0
2 H 40.094 82.135 56.165 H 0.0 **** 0.0
3 H 40.097 80.8 54.988 H 0.0 **** 0.0
4 H 39.369 80.568 56.596 H 0.0 **** 0.0
5 H 41.135 80.716 56.432 H 0.0 **** 0.0
@<TRIPOS>BOND
1 1 2 1
2 1 3 1
3 1 4 1
4 1 5 1
@<TRIPOS>MOLECULE
CH4
5 4
SMALL
USER_CHARGES


@<TRIPOS>ATOM
1 C 35.664 48.001 25.555 C 0.0 **** 0.0
2 H 36.599 48.17 25.02 H 0.0 **** 0.0
3 H 34.839 48.429 24.985 H 0.0 **** 0.0
4 H 35.715 48.476 26.534 H 0.0 **** 0.0
5 H 35.505 46.93 25.678 H 0.0 **** 0.0
@<TRIPOS>BOND
1 1 2 1
2 1 3 1
3 1 4 1
4 1 5 1
@<TRIPOS>MOLECULE
CH4
5 4
SMALL
USER_CHARGES


@<TRIPOS>ATOM
1 C 66.741 85.053 71.773 C 0.0 **** 0.0
2 H 66.44 84.841 70.747 H 0.0 **** 0.0
3 H 65.901 84.867 72.443 H 0.0 **** 0.0
4 H 67.046 86.096 71.854 H 0.0 **** 0.0
5 H 67.575 84.408 72.048 H 0.0 **** 0.0
@<TRIPOS>BOND
1 1 2 1
2 1 3 1
3 1 4 1
4 1 5 1
@<TRIPOS>MOLECULE
CH4
5 4
SMALL
USER_CHARGES


@<TRIPOS>ATOM
1 C 66.668 12.644 80.231 C 0.0 **** 0.0
2 H 66.232 13.084 81.129 H 0.0 **** 0.0
3 H 67.398 13.334 79.806 H 0.0 **** 0.0
4 H 65.88 12.454 79.502 H 0.0 **** 0.0
5 H 67.16 11.706 80.488 H 0.0 **** 0.0
@<TRIPOS>BOND
1 1 2 1
2 1 3 1
3 1 4 1
4 1 5 1
@<TRIPOS>MOLECULE
CH4
5 4
SMALL
USER_CHARGES


@<TRIPOS>ATOM
1 C 90.796 70.182 72.635 C 0.0 **** 0.0
2 H 90.806 70.182 73.725 H 0.0 **** 0.0
3 H 89.892 69.686 72.28 H 0.0 **** 0.0
4 H 91.672 69.65 72.264 H 0.0 **** 0.0
5 H 90.813 71.209 72.271 H 0.0 **** 0.0
@<TRIPOS>BOND
1 1 2 1
2 1 3 1
3 1 4 1
4 1 5 1
@<TRIPOS>MOLECULE
CH4
5 4
SMALL
USER_CHARGES


@<TRIPOS>ATOM
1 C 6.189 70.031 32.316 C 0.0 **** 0.0
2 H 6.702 70.625 31.56 H 0.0 **** 0.0
3 H 5.334 70.589 32.698 H 0.0 **** 0.0
4 H 6.876 69.812 33.133 H 0.0 **** 0.0
5 H 5.845 69.097 31.871 H 0.0 **** 0.0
@<TRIPOS>BOND
1 1 2 1
2 1 3 1
3 1 4 1
4 1 5 1
@<TRIPOS>MOLECULE
CH4
5 4
SMALL
USER_CHARGES


@<TRIPOS>ATOM
1 C 6.829 25.733 15.283 C 0.0 **** 0.0
2 H 6.596 25.092 14.433 H 0.0 **** 0.0
3 H 6.784 26.777 14.974 H 0.0 **** 0.0
4 H 7.831 25.504 15.647 H 0.0 **** 0.0
5 H 6.105 25.558 16.079 H 0.0 **** 0.0
@<TRIPOS>BOND
1 1 2 1
2 1 3 1
3 1 4 1
4 1 5 1
@<TRIPOS>MOLECULE
CH4
5 4
SMALL
USER_CHARGES


@<TRIPOS>ATOM
1 C 59.204 23.902 35.148 C 0.0 **** 0.0
2 H 59.353 24.499 34.248 H 0.0 **** 0.0
3 H 58.14 23.703 35.28 H 0.0 **** 0.0
4 H 59.582 24.448 36.012 H 0.0 **** 0.0
5 H 59.74 22.958 35.05 H 0.0 **** 0.0
@<TRIPOS>BOND
1 1 2 1
2 1 3 1
3 1 4 1
4 1 5 1
@<TRIPOS>MOLECULE
CH4
5 4
SMALL
USER_CHARGES


@<TRIPOS>ATOM
1 C 1.136 44.944 50.157 C 0.0 **** 0.0
2 H 1.53 45.386 51.072 H 0.0 **** 0.0
3 H 1.962 44.687 49.493 H 0.0 **** 0.0
4 H 0.48 45.66 49.661 H 0.0 **** 0.0
5 H 0.572 44.044 50.402 H 0.0 **** 0.0
@<TRIPOS>BOND
1 1 2 1
2 1 3 1
3 1 4 1
4 1 5 1
@<TRIPOS>MOLECULE
CH4
5 4
SMALL
USER_CHARGES


@<TRIPOS>ATOM
1 C 26.457 89.88 76.448 C 0.0 **** 0.0
2 H 25.652 89.782 77.176 H 0.0 **** 0.0
3 H 26.152 90.569 75.66 H 0.0 **** 0.0
4 H 26.675 88.904 76.014 H 0.0 **** 0.0
5 H 27.349 90.265 76.943 H 0.0 **** 0.0
@<TRIPOS>BOND
1 1 2 1
2 1 3 1
3 1 4 1
4 1 5 1
@<TRIPOS>MOLECULE
CH4
5 4
SMALL
USER_CHARGES


@<TRIPOS>ATOM
1 C 1.254 50.382 17.925 C 0.0 **** 0.0
2 H 1.437 50.371 16.85 H 0.0 **** 0.0
3 H 1.07 51.406 18.251 H 0.0 **** 0.0
4 H 2.126 49.986 18.445 H 0.0 **** 0.0
5 H 0.385 49.766 18.152 H 0.0 **** 0.0
@<TRIPOS>BOND
1 1 2 1
2 1 3 1
3 1 4 1
4 1 5 1
@<TRIPOS>MOLECULE
CH4
5 4
SMALL
USER_CHARGES


@<TRIPOS>ATOM
1 C 37.391 5.414 83.236 C 0.0 **** 0.0
2 H 38.104 6.061 83.745 H 0.0 **** 0.0
3 H 36.875 4.794 83.969 H 0.0 **** 0.0
4 H 37.92 4.776 82.528 H 0.0 **** 0.0
5 H 36.664 6.025 82.701 H 0.0 **** 0.0
@<TRIPOS>BOND
1 1 2 1
2 1 3 1
3 1 4 1
4 1 5 1
@<TRIPOS>MOLECULE
CH4
5 4
SMALL
USER_CHARGES


@<TRIPOS>ATOM
1 C 40.349 36.552 52.979 C 0.0 **** 0.0
2 H 41.11 37.281 53.255 H 0.0 **** 0.0
3 H 39.399 36.826 53.439 H 0.0 **** 0.0
4 H 40.65 35.564 53.328 H 0.0 **** 0.0
5 H 40.237 36.536 51.895 H 0.0 **** 0.0
@<TRIPOS>BOND
1 1 2 1
2 1 3 1
3 1 5 1
4 1 4 1
@<TRIPOS>MOLECULE
CH4
5 4
SMALL
USER_CHARGES


@<TRIPOS>ATOM
1 C 66.796 29.365 22.449 C 0.0 **** 0.0
2 H 66.805 29.566 21.378 H 0.0 **** 0.0
3 H 66.684 28.293 22.616 H 0.0 **** 0.0
4 H 65.963 29.894 22.912 H 0.0 **** 0.0
5 H 67.733 29.706 22.891 H 0.0 **** 0.0
@<TRIPOS>BOND
1 1 2 1
2 1 3 1
3 1 4 1
4 1 5 1
@<TRIPOS>MOLECULE
CH4
5 4
SMALL
USER_CHARGES


@<TRIPOS>ATOM
1 C 80.118 89.881 33.969 C 0.0 **** 0.0
2 H 80.097 89.881 35.059 H 0.0 **** 0.0
3 H 80.331 88.874 33.61 H 0.0 **** 0.0
4 H 80.895 90.563 33.621 H 0.0 **** 0.0
5 H 79.151 90.207 33.587 H 0.0 **** 0.0
@<TRIPOS>BOND
1 1 2 1
2 1 3 1
3 1 4 1
4 1 5 1
@<TRIPOS>MOLECULE
CH4
5 4
SMALL
USER_CHARGES


@<TRIPOS>ATOM
1 C 44.528 17.838 89.054 C 0.0 **** 0.0
2 H 43.961 18.676 89.459 H 0.0 **** 0.0
3 H 45.401 18.215 88.52 H 0.0 **** 0.0
4 H 43.899 17.272 88.367 H 0.0 **** 0.0
5 H 44.852 17.19 89.869 H 0.0 **** 0.0
@<TRIPOS>BOND
1 1 2 1
2 1 3 1
3 1 4 1
4 1 5 1
@<TRIPOS>MOLECULE
CH4
5 4
SMALL
USER_CHARGES


@<TRIPOS>ATOM
1 C 10.167 66.727 48.101 C 0.0 **** 0.0
2 H 11.119 66.596 47.587 H 0.0 **** 0.0
3 H 10.292 67.432 48.923 H 0.0 **** 0.0
4 H 9.831 65.767 48.493 H 0.0 **** 0.0
5 H 9.426 67.113 47.4 H 0.0 **** 0.0
@<TRIPOS>BOND
1 1 2 1
2 1 3 1
3 1 4 1
4 1 5 1
@<TRIPOS>MOLECULE
CH4
5 4
SMALL
USER_CHARGES


@<TRIPOS>ATOM
1 C 5.277 33.806 66.747 C 0.0 **** 0.0
2 H 6.333 33.663 66.52 H 0.0 **** 0.0
3 H 4.727 33.978 65.822 H 0.0 **** 0.0
4 H 5.16 34.666 67.406 H 0.0 **** 0.0
5 H 4.888 32.915 67.241 H 0.0 **** 0.0
@<TRIPOS>BOND
1 1 2 1
2 1 3 1
3 1 4 1
4 1 5 1
@<TRIPOS>MOLECULE
CH4
5 4
SMALL
USER_CHARGES


@<TRIPOS>ATOM
1 C 20.27 54.536 27.122 C 0.0 **** 0.0
2 H 21.209 54.742 26.609 H 0.0 **** 0.0
3 H 20.08 55.316 27.86 H 0.0 **** 0.0
4 H 20.334 53.57 27.624 H 0.0 **** 0.0
5 H 19.456 54.515 26.397 H 0.0 **** 0.0
@<TRIPOS>BOND
1 1 2 1
2 1 3 1
3 1 4 1
4 1 5 1
@<TRIPOS>MOLECULE
CH4
5 4
SMALL
USER_CHARGES


@<TRIPOS>ATOM
1 C 95.217 55.643 35.746 C 0.0 **** 0.0
2 H 96.216 55.539 35.324 H 0.0 **** 0.0
3 H 94.634 56.332 35.134 H 0.0 **** 0.0
4 H 95.29 56.032 36.762 H 0.0 **** 0.0
5 H 94.726 54.67 35.764 H 0.0 **** 0.0
@<TRIPOS>BOND
1 1 2 1
2 1 3 1
3 1 4 1
4 1 5 1
@<TRIPOS>MOLECULE
CH4
5 4
SMALL
USER_CHARGES


@<TRIPOS>ATOM
1 C 7.983 70.449 48.359 C 0.0 **** 0.0
2 H 7.57 71.205 49.027 H 0.0 **** 0.0
3 H 8.364 69.614 48.947 H 0.0 **** 0.0
4 H 8.796 70.885 47.777 H 0.0 **** 0.0
5 H 7.203 70.095 47.685 H 0.0 **** 0.0
@<TRIPOS>BOND
1 1 2 1
2 1 3 1
3 1 4 1
4 1 5 1
@<TRIPOS>MOLECULE
CH4
5 4
SMALL
USER_CHARGES


@<TRIPOS>ATOM
1 C 51.681 94.649 67.67 C 0.0 **** 0.0
2 H 51.611 95.036 68.687 H 0.0 **** 0.0
3 H 51.741 93.56 67.7 H 0.0 **** 0.0
4 H 52.573 95.049 67.19 H 0.0 **** 0.0
5 H 50.798 94.949 67.106 H 0.0 **** 0.0
@<TRIPOS>BOND
1 1 2 1
2 1 3 1
3 1 4 1
4 1 5 1
@<TRIPOS>MOLECULE
CH4
5 4
SMALL
USER_CHARGES


@<TRIPOS>ATOM
1 C 34.557 77.607 39.03 C 0.0 **** 0.0
2 H 34.594 77.549 40.118 H 0.0 **** 0.0
3 H 34.186 76.664 38.628 H 0.0 **** 0.0
4 H 35.558 77.799 38.643 H 0.0 **** 0.0
5 H 33.891 78.417 38.733 H 0.0 **** 0.0
@<TRIPOS>BOND
1 1 2 1
2 1 3 1
3 1 4 1
4 1 5 1
@<TRIPOS>MOLECULE
CH4
5 4
SMALL
USER_CHARGES


@<TRIPOS>ATOM
1 C 87.885 58.728 34.933 C 0.0 **** 0.0
2 H 88.932 59.028 34.911 H 0.0 **** 0.0
3 H 87.62 58.266 33.981 H 0.0 **** 0.0
4 H 87.259 59.604 35.099 H 0.0 **** 0.0
5 H 87.729 58.012 35.74 H 0.0 **** 0.0
@<TRIPOS>BOND
1 1 2 1
2 1 3 1
3 1 4 1
4 1 5 1
@<TRIPOS>MOLECULE
CH4
5 4
SMALL
USER_CHARGES


@<TRIPOS>ATOM
1 C 84.171 55.846 31.347 C 0.0 **** 0.0
2 H 84.117 55.868 32.436 H 0.0 **** 0.0
3 H 84.941 55.14 31.036 H 0.0 **** 0.0
4 H 84.418 56.841 30.976 H 0.0 **** 0.0
5 H 83.208 55.536 30.942 H 0.0 **** 0.0
@<TRIPOS>BOND
1 1 2 1
2 1 3 1
3 1 4 1
4 1 5 1
@<TRIPOS>MOLECULE
CH4
5 4
SMALL
USER_CHARGES


@<TRIPOS>ATOM
1 C 14.207 40.978 3.851 C 0.0 **** 0.0
2 H 14.638 41.951 4.086 H 0.0 **** 0.0
3 H 13.975 40.931 2.787 H 0.0 **** 0.0
4 H 13.295 40.835 4.429 H 0.0 **** 0.0
5 H 14.923 40.194 4.102 H 0.0 **** 0.0
@<TRIPOS>BOND
1 1 2 1
2 1 3 1
3 1 4 1
4 1 5 1
@<TRIPOS>MOLECULE
CH4
5 4
SMALL
USER_CHARGES


@<TRIPOS>ATOM
1 C 74.327 5.886 28.636 C 0.0 **** 0.0
2 H 73.276 5.642 28.482 H 0.0 **** 0.0
3 H 74.408 6.71 29.346 H 0.0 **** 0.0
4 H 74.774 6.179 27.687 H 0.0 **** 0.0
5 H 74.848 5.014 29.03 H 0.0 **** 0.0
@<TRIPOS>BOND
1 1 2 1
2 1 3 1
3 1 4 1
4 1 5 1
@<TRIPOS>MOLECULE
CH4
5 4
SMALL
USER_CHARGES


@<TRIPOS>ATOM
1 C 55.141 82.199 63.851 C 0.0 **** 0.0
2 H 56.064 82.315 63.282 H 0.0 **** 0.0
3 H 54.581 81.348 63.464 H 0.0 **** 0.0
4 H 54.54 83.103 63.758 H 0.0 **** 0.0
5 H 55.382 82.029 64.901 H 0.0 **** 0.0
@<TRIPOS>BOND
1 1 2 1
2 1 3 1
3 1 4 1
4 1 5 1
@<TRIPOS>MOLECULE
CH4
5 4
SMALL
USER_CHARGES


@<TRIPOS>ATOM
1 C 80.824 89.087 48.793 C 0.0 **** 0.0
2 H 81.665 88.806 48.158 H 0.0 **** 0.0
3 H 79.893 88.771 48.323 H 0.0 **** 0.0
4 H 80.816 90.169 48.925 H 0.0 **** 0.0
5 H 80.925 88.603 49.764 H 0.0 **** 0.0
@<TRIPOS>BOND
1 1 2 1
2 1 3 1
3 1 4 1
4 1 5 1
@<TRIPOS>MOLECULE
CH4
5 4
SMALL
USER_CHARGES


@<TRIPOS>ATOM
1 C 69.642 74.27 15.575 C 0.0 **** 0.0
2 H 69.686 73.42 16.256 H 0.0 **** 0.0
3 H 69.539 73.909 14.551 H 0.0 **** 0.0
4 H 70.558 74.854 15.664 H 0.0 **** 0.0
5 H 68.786 74.894 15.829 H 0.0 **** 0.0
@<TRIPOS>BOND
1 1 2 1
2 1 3 1
3 1 4 1
4 1 5 1
@<TRIPOS>MOLECULE
CH4
5 4
SMALL
USER_CHARGES


@<TRIPOS>ATOM
1 C 43.887 17.028 11.361 C 0.0 **** 0.0
2 H 44.19 16.128 10.825 H 0.0 **** 0.0
3 H 44.115 17.905 10.756 H 0.0 **** 0.0
4 H 44.429 17.087 12.305 H 0.0 **** 0.0
5 H 42.816 16.989 11.558 H 0.0 **** 0.0
@<TRIPOS>BOND
1 1 2 1
2 1 3 1
3 1 4 1
4 1 5 1
@<TRIPOS>MOLECULE
CH4
5 4
SMALL
USER_CHARGES


@<TRIPOS>ATOM
1 C 38.882 8.093 64.262 C 0.0 **** 0.0
2 H 38.491 8.286 63.262 H 0.0 **** 0.0
3 H 38.45 8.807 64.964 H 0.0 **** 0.0
4 H 39.966 8.2 64.254 H 0.0 **** 0.0
5 H 38.619 7.08 64.564 H 0.0 **** 0.0
@<TRIPOS>BOND
1 1 2 1
2 1 3 1
3 1 4 1
4 1 5 1
@<TRIPOS>MOLECULE
CH4
5 4
SMALL
USER_CHARGES


@<TRIPOS>ATOM
1 C 70.977 88.57 48.124 C 0.0 **** 0.0
2 H 70.802 88.992 47.134 H 0.0 **** 0.0
3 H 70.026 88.466 48.647 H 0.0 **** 0.0
4 H 71.633 89.232 48.689 H 0.0 **** 0.0
5 H 71.446 87.591 48.024 H 0.0 **** 0.0
@<TRIPOS>BOND
1 1 3 1
2 1 4 1
3 1 5 1
4 1 2 1
@<TRIPOS>MOLECULE
CH4
5 4
SMALL
USER_CHARGES


@<TRIPOS>ATOM
1 C 9.411 34.3 84.141 C 0.0 **** 0.0
2 H 9.688 34.972 84.954 H 0.0 **** 0.0
3 H 10.071 33.432 84.148 H 0.0 **** 0.0
4 H 9.506 34.822 83.19 H 0.0 **** 0.0
5 H 8.38 33.973 84.276 H 0.0 **** 0.0
@<TRIPOS>BOND
1 1 2 1
2 1 3 1
3 1 4 1
4 1 5 1
@<TRIPOS>MOLECULE
CH4
5 4
SMALL
USER_CHARGES


@<TRIPOS>ATOM
1 C 97.003 97.145 86.531 C 0.0 **** 0.0
2 H 97.088 96.496 85.66 H 0.0 **** 0.0
3 H 96.882 98.178 86.204 H 0.0 **** 0.0
4 H 97.903 97.058 87.138 H 0.0 **** 0.0
5 H 96.136 96.847 87.122 H 0.0 **** 0.0
@<TRIPOS>BOND
1 1 2 1
2 1 3 1
3 1 4 1
4 1 5 1
@<TRIPOS>MOLECULE
CH4
5 4
SMALL
USER_CHARGES


@<TRIPOS>ATOM
1 C 24.998 8.775 84.511 C 0.0 **** 0.0
2 H 25.293 8.151 83.667 H 0.0 **** 0.0
3 H 24.302 8.225 85.144 H 0.0 **** 0.0
4 H 24.517 9.681 84.142 H 0.0 **** 0.0
5 H 25.882 9.044 85.09 H 0.0 **** 0.0
@<TRIPOS>BOND
1 1 2 1
2 1 3 1
3 1 4 1
4 1 5 1
@<TRIPOS>MOLECULE
CH4
5 4
SMALL
USER_CHARGES


@<TRIPOS>ATOM
1 C 16.928 28.146 87.95 C 0.0 **** 0.0
2 H 16.732 28.048 86.882 H 0.0 **** 0.0
3 H 18.0 28.065 88.131 H 0.0 **** 0.0
4 H 16.407 27.355 88.489 H 0.0 **** 0.0
5 H 16.573 29.117 88.296 H 0.0 **** 0.0
@<TRIPOS>BOND
1 1 2 1
2 1 3 1
3 1 4 1
4 1 5 1
@<TRIPOS>MOLECULE
CH4
5 4
SMALL
USER_CHARGES


@<TRIPOS>ATOM
1 C 50.181 70.665 95.874 C 0.0 **** 0.0
2 H 50.386 70.846 96.929 H 0.0 **** 0.0
3 H 50.941 71.158 95.267 H 0.0 **** 0.0
4 H 49.199 71.064 95.621 H 0.0 **** 0.0
5 H 50.199 69.593 95.679 H 0.0 **** 0.0
@<TRIPOS>BOND
1 1 2 1
2 1 3 1
3 1 4 1
4 1 5 1
@<TRIPOS>MOLECULE
CH4
5 4
SMALL
USER_CHARGES


@<TRIPOS>ATOM
1 C 41.303 60.747 78.13 C 0.0 **** 0.0
2 H 41.652 59.892 77.552 H 0.0 **** 0.0
3 H 42.159 61.333 78.465 H 0.0 **** 0.0
4 H 40.742 60.396 78.996 H 0.0 **** 0.0
5 H 40.658 61.368 77.507 H 0.0 **** 0.0
@<TRIPOS>BOND
1 1 2 1
2 1 3 1
3 1 4 1
4 1 5 1
@<TRIPOS>MOLECULE
CH4
5 4
SMALL
USER_CHARGES


@<TRIPOS>ATOM
1 C 46.22 12.437 92.234 C 0.0 **** 0.0
2 H 45.657 12.43 93.167 H 0.0 **** 0.0
3 H 46.023 13.365 91.698 H 0.0 **** 0.0
4 H 45.916 11.59 91.619 H 0.0 **** 0.0
5 H 47.286 12.363 92.453 H 0.0 **** 0.0
@<TRIPOS>BOND
1 1 2 1
2 1 3 1
3 1 4 1
4 1 5 1
@<TRIPOS>MOLECULE
CH4
5 4
SMALL
USER_CHARGES


@<TRIPOS>ATOM
1 C 34.432 18.788 55.149 C 0.0 **** 0.0
2 H 34.412 19.229 54.152 H 0.0 **** 0.0
3 H 34.591 19.572 55.889 H 0.0 **** 0.0
4 H 35.242 18.062 55.208 H 0.0 **** 0.0
5 H 33.482 18.29 55.344 H 0.0 **** 0.0
@<TRIPOS>BOND
1 1 2 1
2 1 3 1
3 1 4 1
4 1 5 1
@<TRIPOS>MOLECULE
CH4
5 4
SMALL
USER_CHARGES


@<TRIPOS>ATOM
1 C 18.128 49.928 88.904 C 0.0 **** 0.0
2 H 18.128 49.984 89.993 H 0.0 **** 0.0
3 H 18.637 50.802 88.496 H 0.0 **** 0.0
4 H 17.1 49.904 88.542 H 0.0 **** 0.0
5 H 18.646 49.023 88.586 H 0.0 **** 0.0
@<TRIPOS>BOND
1 1 2 1
2 1 3 1
3 1 4 1
4 1 5 1
@<TRIPOS>MOLECULE
CH4
5 4
SMALL
USER_CHARGES


@<TRIPOS>ATOM
1 C 80.076 60.069 77.398 C 0.0 **** 0.0
2 H 80.042 60.598 78.35 H 0.0 **** 0.0
3 H 81.016 60.291 76.893 H 0.0 **** 0.0
4 H 79.243 60.391 76.774 H 0.0 **** 0.0
5 H 80.003 58.996 77.577 H 0.0 **** 0.0
@<TRIPOS>BOND
1 1 2 1
2 1 3 1
3 1 4 1
4 1 5 1
@<TRIPOS>MOLECULE
CH4
5 4
SMALL
USER_CHARGES


@<TRIPOS>ATOM
1 C 15.054 82.221 24.821 C 0.0 **** 0.0
2 H 15.227 82.166 23.747 H 0.0 **** 0.0
3 H 15.11 81.22 25.25 H 0.0 **** 0.0
4 H 14.066 82.642 25.008 H 0.0 **** 0.0
5 H 15.812 82.856 25.28 H 0.0 **** 0.0
@<TRIPOS>BOND
1 1 2 1
2 1 3 1
3 1 4 1
4 1 5 1
@<TRIPOS>MOLECULE
CH4
5 4
SMALL
USER_CHARGES


@<TRIPOS>ATOM
1 C 55.542 49.084 30.379 C 0.0 **** 0.0
2 H 54.469 49.178 30.21 H 0.0 **** 0.0
3 H 55.845 49.763 31.176 H 0.0 **** 0.0
4 H 56.078 49.336 29.464 H 0.0 **** 0.0
5 H 55.775 48.058 30.666 H 0.0 **** 0.0
@<TRIPOS>BOND
1 1 2 1
2 1 3 1
3 1 4 1
4 1 5 1
@<TRIPOS>MOLECULE
CH4
5 4
SMALL
USER_CHARGES


@<TRIPOS>ATOM
1 C 97.319 86.27 21.827 C 0.0 **** 0.0
2 H 97.408 86.135 20.75 H 0.0 **** 0.0
3 H 97.525 87.31 22.081 H 0.0 **** 0.0
4 H 98.034 85.623 22.335 H 0.0 **** 0.0
5 H 96.308 86.012 22.143 H 0.0 **** 0.0
@<TRIPOS>BOND
1 1 2 1
2 1 3 1
3 1 4 1
4 1 5 1
@<TRIPOS>MOLECULE
CH4
5 4
SMALL
USER_CHARGES


@<TRIPOS>ATOM
1 C 21.489 76.724 20.63 C 0.0 **** 0.0
2 H 22.534 76.867 20.907 H 0.0 **** 0.0
3 H 21.025 77.694 20.451 H 0.0 **** 0.0
4 H 20.966 76.214 21.439 H 0.0 **** 0.0
5 H 21.433 76.121 19.724 H 0.0 **** 0.0
@<TRIPOS>BOND
1 1 2 1
2 1 3 1
3 1 4 1
4 1 5 1
@<TRIPOS>MOLECULE
CH4
5 4
SMALL
USER_CHARGES


@<TRIPOS>ATOM
1 C 6.174 55.684 13.029 C 0.0 **** 0.0
2 H 7.188 55.351 13.25 H 0.0 **** 0.0
3 H 5.576 54.835 12.698 H 0.0 **** 0.0
4 H 6.203 56.438 12.242 H 0.0 **** 0.0
5 H 5.73 56.114 13.927 H 0.0 **** 0.0
@<TRIPOS>BOND
1 1 2 1
2 1 3 1
3 1 4 1
4 1 5 1
@<TRIPOS>MOLECULE
CH4
5 4
SMALL
USER_CHARGES


@<TRIPOS>ATOM
1 C 58.479 50.149 68.679 C 0.0 **** 0.0
2 H 58.71 49.101 68.872 H 0.0 **** 0.0
3 H 59.037 50.489 67.806 H 0.0 **** 0.0
4 H 58.759 50.748 69.546 H 0.0 **** 0.0
5 H 57.41 50.257 68.493 H 0.0 **** 0.0
@<TRIPOS>BOND
1 1 2 1
2 1 3 1
3 1 4 1
4 1 5 1
@<TRIPOS>MOLECULE
CH4
5 4
SMALL
USER_CHARGES


@<TRIPOS>ATOM
1 C 25.271 97.138 61.332 C 0.0 **** 0.0
2 H 24.532 96.341 61.406 H 0.0 **** 0.0
3 H 25.045 97.764 60.469 H 0.0 **** 0.0
4 H 26.264 96.703 61.216 H 0.0 **** 0.0
5 H 25.244 97.744 62.238 H 0.0 **** 0.0
@<TRIPOS>BOND
1 1 2 1
2 1 3 1
3 1 4 1
4 1 5 1
@<TRIPOS>MOLECULE
CH4
5 4
SMALL
USER_CHARGES


@<TRIPOS>ATOM
1 C 68.901 80.509 28.144 C 0.0 **** 0.0
2 H 69.054 79.517 28.57 H 0.0 **** 0.0
3 H 69.811 81.098 28.26 H 0.0 **** 0.0
4 H 68.079 81.003 28.662 H 0.0 **** 0.0
5 H 68.66 80.417 27.085 H 0.0 **** 0.0
@<TRIPOS>BOND
1 1 2 1
2 1 3 1
3 1 4 1
4 1 5 1
@<TRIPOS>MOLECULE
CH4
5 4
SMALL
USER_CHARGES


@<TRIPOS>ATOM
1 C 14.156 49.047 72.071 C 0.0 **** 0.0
2 H 14.313 49.138 70.996 H 0.0 **** 0.0
3 H 14.582 48.106 72.422 H 0.0 **** 0.0
4 H 13.088 49.065 72.285 H 0.0 **** 0.0
5 H 14.643 49.879 72.581 H 0.0 **** 0.0
@<TRIPOS>BOND
1 1 2 1
2 1 3 1
3 1 4 1
4 1 5 1
@<TRIPOS>MOLECULE
CH4
5 4
SMALL
USER_CHARGES


@<TRIPOS>ATOM
1 C 68.292 57.682 35.973 C 0.0 **** 0.0
2 H 67.503 57.721 36.724 H 0.0 **** 0.0
3 H 68.765 56.7 35.996 H 0.0 **** 0.0
4 H 69.037 58.449 36.188 H 0.0 **** 0.0
5 H 67.865 57.857 34.986 H 0.0 **** 0.0
@<TRIPOS>BOND
1 1 2 1
2 1 3 1
3 1 4 1
4 1 5 1
@<TRIPOS>MOLECULE
CH4
5 4
SMALL
USER_CHARGES


@<TRIPOS>ATOM
1 C 86.274 3.715 35.97 C 0.0 **** 0.0
2 H 85.266 3.351 35.769 H 0.0 **** 0.0
3 H 87.001 2.989 35.606 H 0.0 **** 0.0
4 H 86.403 3.853 37.043 H 0.0 **** 0.0
5 H 86.424 4.667 35.46 H 0.0 **** 0.0
@<TRIPOS>BOND
1 1 2 1
2 1 3 1
3 1 4 1
4 1 5 1
@<TRIPOS>MOLECULE
CH4
5 4
SMALL
USER_CHARGES


@<TRIPOS>ATOM
1 C 92.876 51.099 44.446 C 0.0 **** 0.0
2 H 92.875 52.125 44.079 H 0.0 **** 0.0
3 H 91.858 50.804 44.702 H 0.0 **** 0.0
4 H 93.508 51.03 45.331 H 0.0 **** 0.0
5 H 93.263 50.437 43.671 H 0.0 **** 0.0
@<TRIPOS>BOND
1 1 2 1
2 1 3 1
3 1 4 1
4 1 5 1
@<TRIPOS>MOLECULE
CH4
5 4
SMALL
USER_CHARGES


@<TRIPOS>ATOM
1 C 24.478 49.601 14.109 C 0.0 **** 0.0
2 H 23.476 49.98 13.91 H 0.0 **** 0.0
3 H 25.167 49.984 13.356 H 0.0 **** 0.0
4 H 24.468 48.511 14.072 H 0.0 **** 0.0
5 H 24.8 49.928 15.098 H 0.0 **** 0.0
@<TRIPOS>BOND
1 1 2 1
2 1 3 1
3 1 4 1
4 1 5 1
@<TRIPOS>MOLECULE
CH4
5 4
SMALL
USER_CHARGES


@<TRIPOS>ATOM
1 C 93.037 12.411 8.5 C 0.0 **** 0.0
2 H 92.349 13.197 8.187 H 0.0 **** 0.0
3 H 93.027 12.332 9.587 H 0.0 **** 0.0
4 H 94.044 12.655 8.162 H 0.0 **** 0.0
5 H 92.726 11.462 8.063 H 0.0 **** 0.0
@<TRIPOS>BOND
1 1 2 1
2 1 3 1
3 1 4 1
4 1 5 1
@<TRIPOS>MOLECULE
CH4
5 4
SMALL
USER_CHARGES


@<TRIPOS>ATOM
1 C 36.183 55.352 52.125 C 0.0 **** 0.0
2 H 37.111 55.728 52.557 H 0.0 **** 0.0
3 H 35.619 54.815 52.888 H 0.0 **** 0.0
4 H 36.414 54.678 51.3 H 0.0 **** 0.0
5 H 35.59 56.189 51.755 H 0.0 **** 0.0
@<TRIPOS>BOND
1 1 2 1
2 1 3 1
3 1 4 1
4 1 5 1
@<TRIPOS>MOLECULE
CH4
5 4
SMALL
USER_CHARGES


@<TRIPOS>ATOM
1 C 19.882 37.798 82.691 C 0.0 **** 0.0
2 H 19.127 37.41 83.375 H 0.0 **** 0.0
3 H 19.395 38.204 81.804 H 0.0 **** 0.0
4 H 20.555 36.992 82.398 H 0.0 **** 0.0
5 H 20.451 38.585 83.186 H 0.0 **** 0.0
@<TRIPOS>BOND
1 1 2 1
2 1 3 1
3 1 4 1
4 1 5 1
@<TRIPOS>MOLECULE
CH4
5 4
SMALL
USER_CHARGES


@<TRIPOS>ATOM
1 C 21.781 48.493 67.647 C 0.0 **** 0.0
2 H 21.917 49.02 66.702 H 0.0 **** 0.0
3 H 21.094 49.055 68.28 H 0.0 **** 0.0
4 H 22.743 48.396 68.15 H 0.0 **** 0.0
5 H 21.37 47.502 67.454 H 0.0 **** 0.0
@<TRIPOS>BOND
1 1 2 1
2 1 3 1
3 1 4 1
4 1 5 1
@<TRIPOS>MOLECULE
CH4
5 4
SMALL
USER_CHARGES


@<TRIPOS>ATOM
1 C 49.999 48.585 44.147 C 0.0 **** 0.0
2 H 50.617 47.913 43.552 H 0.0 **** 0.0
3 H 50.487 48.777 45.102 H 0.0 **** 0.0
4 H 49.026 48.125 44.321 H 0.0 **** 0.0
5 H 49.866 49.525 43.611 H 0.0 **** 0.0
@<TRIPOS>BOND
1 1 2 1
2 1 3 1
3 1 4 1
4 1 5 1
@<TRIPOS>MOLECULE
CH4
5 4
SMALL
USER_CHARGES


@<TRIPOS>ATOM
1 C 11.089 36.598 3.192 C 0.0 **** 0.0
2 H 11.801 36.738 4.005 H 0.0 **** 0.0
3 H 10.52 35.684 3.361 H 0.0 **** 0.0
4 H 11.628 36.521 2.247 H 0.0 **** 0.0
5 H 10.409 37.449 3.154 H 0.0 **** 0.0
@<TRIPOS>BOND
1 1 2 1
2 1 3 1
3 1 4 1
4 1 5 1
@<TRIPOS>MOLECULE
CH4
5 4
SMALL
USER_CHARGES


@<TRIPOS>ATOM
1 C 16.103 51.65 68.399 C 0.0 **** 0.0
2 H 16.135 50.732 68.985 H 0.0 **** 0.0
3 H 15.496 52.392 68.92 H 0.0 **** 0.0
4 H 15.665 51.443 67.422 H 0.0 **** 0.0
5 H 17.115 52.034 68.27 H 0.0 **** 0.0
@<TRIPOS>BOND
1 1 2 1
2 1 3 1
3 1 4 1
4 1 5 1
@<TRIPOS>MOLECULE
CH4
5 4
SMALL
USER_CHARGES


@<TRIPOS>ATOM
1 C 5.66 1.021 40.958 C 0.0 **** 0.0
2 H 5.895 0.124 41.53 H 0.0 **** 0.0
3 H 5.701 1.891 41.614 H 0.0 **** 0.0
4 H 4.659 0.931 40.535 H 0.0 **** 0.0
5 H 6.385 1.139 40.153 H 0.0 **** 0.0
@<TRIPOS>BOND
1 1 2 1
2 1 3 1
3 1 4 1
4 1 5 1
@<TRIPOS>MOLECULE
CH4
5 4
SMALL
USER_CHARGES


@<TRIPOS>ATOM
1 C 1.821 38.217 18.695 C 0.0 **** 0.0
2 H 2.519 38.09 19.522 H 0.0 **** 0.0
3 H 1.439 37.243 18.39 H 0.0 **** 0.0
4 H 2.335 38.685 17.855 H 0.0 **** 0.0
5 H 0.993 38.85 19.012 H 0.0 **** 0.0
@<TRIPOS>BOND
1 1 2 1
2 1 3 1
3 1 4 1
4 1 5 1
@<TRIPOS>MOLECULE
CH4
5 4
SMALL
USER_CHARGES


@<TRIPOS>ATOM
1 C 76.083 58.183 69.123 C 0.0 **** 0.0
2 H 75.559 57.804 70.0 H 0.0 **** 0.0
3 H 75.454 58.912 68.611 H 0.0 **** 0.0
4 H 76.306 57.358 68.447 H 0.0 **** 0.0
5 H 77.013 58.66 69.433 H 0.0 **** 0.0
@<TRIPOS>BOND
1 1 3 1
2 1 4 1
3 1 5 1
4 1 2 1
@<TRIPOS>MOLECULE
CH4
5 4
SMALL
USER_CHARGES


@<TRIPOS>ATOM
1 C 43.036 57.501 48.173 C 0.0 **** 0.0
2 H 42.863 56.574 48.721 H 0.0 **** 0.0
3 H 42.39 57.53 47.296 H 0.0 **** 0.0
4 H 44.079 57.547 47.859 H 0.0 **** 0.0
5 H 42.813 58.351 48.818 H 0.0 **** 0.0
@<TRIPOS>BOND
1 1 2 1
2 1 3 1
3 1 4 1
4 1 5 1
@<TRIPOS>MOLECULE
CH4
5 4
SMALL
USER_CHARGES


@<TRIPOS>ATOM
1 C 27.553 76.387 36.291 C 0.0 **** 0.0
2 H 27.176 76.581 35.287 H 0.0 **** 0.0
3 H 28.144 75.471 36.285 H 0.0 **** 0.0
4 H 26.715 76.274 36.978 H 0.0 **** 0.0
5 H 28.177 77.221 36.611 H 0.0 **** 0.0
@<TRIPOS>BOND
1 1 2 1
2 1 3 1
3 1 4 1
4 1 5 1
@<TRIPOS>MOLECULE
CH4
5 4
SMALL
USER_CHARGES


@<TRIPOS>ATOM
1 C 67.315 82.412 36.372 C 0.0 **** 0.0
2 H 68.331 82.533 36.749 H 0.0 **** 0.0
3 H 67.326 81.75 35.505 H 0.0 **** 0.0
4 H 66.917 83.384 36.082 H 0.0 **** 0.0
5 H 66.688 81.98 37.151 H 0.0 **** 0.0
@<TRIPOS>BOND
1 1 2 1
2 1 3 1
3 1 4 1
4 1 5 1
@<TRIPOS>MOLECULE
CH4
5 4
SMALL
USER_CHARGES


@<TRIPOS>ATOM
1 C 53.339 76.084 7.706 C 0.0 **** 0.0
2 H 53.773 75.087 7.633 H 0.0 **** 0.0
3 H 53.756 76.719 6.924 H 0.0 **** 0.0
4 H 53.569 76.51 8.682 H 0.0 **** 0.0
5 H 52.258 76.019 7.583 H 0.0 **** 0.0
@<TRIPOS>BOND
1 1 2 1
2 1 3 1
3 1 4 1
4 1 5 1
@<TRIPOS>MOLECULE
CH4
5 4
SMALL
USER_CHARGES


@<TRIPOS>ATOM
1 C 43.935 93.705 87.627 C 0.0 **** 0.0
2 H 44.548 93.349 88.455 H 0.0 **** 0.0
3 H 44.224 93.186 86.712 H 0.0 **** 0.0
4 H 44.086 94.777 87.499 H 0.0 **** 0.0
5 H 42.885 93.508 87.841 H 0.0 **** 0.0
@<TRIPOS>BOND
1 1 2 1
2 1 3 1
3 1 4 1
4 1 5 1
@<TRIPOS>MOLECULE
CH4
5 4
SMALL
USER_CHARGES


@<TRIPOS>ATOM
1 C 44.464 32.68 15.024 C 0.0 **** 0.0
2 H 45.048 33.2 14.264 H 0.0 **** 0.0
3 H 44.296 31.65 14.71 H 0.0 **** 0.0
4 H 43.505 33.183 15.152 H 0.0 **** 0.0
5 H 45.008 32.689 15.968 H 0.0 **** 0.0
@<TRIPOS>BOND
1 1 2 1
2 1 3 1
3 1 4 1
4 1 5 1
@<TRIPOS>MOLECULE
CH4
5 4
SMALL
USER_CHARGES


@<TRIPOS>ATOM
1 C 56.823 54.069 50.253 C 0.0 **** 0.0
2 H 57.286 54.881 50.814 H 0.0 **** 0.0
3 H 56.226 53.456 50.928 H 0.0 **** 0.0
4 H 57.599 53.456 49.795 H 0.0 **** 0.0
5 H 56.182 54.484 49.476 H 0.0 **** 0.0
@<TRIPOS>BOND
1 1 2 1
2 1 3 1
3 1 4 1
4 1 5 1
@<TRIPOS>MOLECULE
CH4
5 4
SMALL
USER_CHARGES


@<TRIPOS>ATOM
1 C 92.486 87.783 58.557 C 0.0 **** 0.0
2 H 92.735 87.369 57.58 H 0.0 **** 0.0
3 H 92.917 88.781 58.648 H 0.0 **** 0.0
4 H 92.889 87.14 59.338 H 0.0 **** 0.0
5 H 91.402 87.844 58.659 H 0.0 **** 0.0
@<TRIPOS>BOND
1 1 2 1
2 1 3 1
3 1 4 1
4 1 5 1
@<TRIPOS>MOLECULE
CH4
5 4
SMALL
USER_CHARGES


@<TRIPOS>ATOM
1 C 72.198 26.502 8.27 C 0.0 **** 0.0
2 H 72.089 26.786 7.224 H 0.0 **** 0.0
3 H 71.702 27.239 8.901 H 0.0 **** 0.0
4 H 73.257 26.458 8.526 H 0.0 **** 0.0
5 H 71.746 25.523 8.43 H 0.0 **** 0.0
@<TRIPOS>BOND
1 1 2 1
2 1 3 1
3 1 4 1
4 1 5 1
@<TRIPOS>MOLECULE
CH4
5 4
SMALL
USER_CHARGES


@<TRIPOS>ATOM
1 C 34.425 12.749 52.014 C 0.0 **** 0.0
2 H 35.18 12.307 51.365 H 0.0 **** 0.0
3 H 33.464 12.762 51.499 H 0.0 **** 0.0
4 H 34.715 13.769 52.267 H 0.0 **** 0.0
5 H 34.34 12.159 52.927 H 0.0 **** 0.0
@<TRIPOS>BOND
1 1 2 1
2 1 3 1
3 1 4 1
4 1 5 1
@<TRIPOS>MOLECULE
CH4
5 4
SMALL
USER_CHARGES


@<TRIPOS>ATOM
1 C 40.284 71.522 35.204 C 0.0 **** 0.0
2 H 40.865 72.067 35.947 H 0.0 **** 0.0
3 H 39.555 70.887 35.707 H 0.0 **** 0.0
4 H 40.952 70.904 34.603 H 0.0 **** 0.0
5 H 39.766 72.23 34.557 H 0.0 **** 0.0
@<TRIPOS>BOND
1 1 2 1
2 1 3 1
3 1 4 1
4 1 5 1
@<TRIPOS>MOLECULE
CH4
5 4
SMALL
USER_CHARGES


@<TRIPOS>ATOM
1 C 10.713 68.058 63.972 C 0.0 **** 0.0
2 H 11.391 68.437 64.737 H 0.0 **** 0.0
3 H 9.684 68.283 64.254 H 0.0 **** 0.0
4 H 10.837 66.979 63.88 H 0.0 **** 0.0
5 H 10.941 68.532 63.018 H 0.0 **** 0.0
@<TRIPOS>BOND
1 1 2 1
2 1 3 1
3 1 4 1
4 1 5 1
@<TRIPOS>MOLECULE
CH4
5 4
SMALL
USER_CHARGES


@<TRIPOS>ATOM
1 C 92.176 34.562 66.19 C 0.0 **** 0.0
2 H 93.021 34.384 66.855 H 0.0 **** 0.0
3 H 91.547 35.35 66.605 H 0.0 **** 0.0
4 H 91.593 33.646 66.092 H 0.0 **** 0.0
5 H 92.542 34.866 65.21 H 0.0 **** 0.0
@<TRIPOS>BOND
1 1 2 1
2 1 3 1
3 1 4 1
4 1 5 1
@<TRIPOS>MOLECULE
CH4
5 4
SMALL
USER_CHARGES


@<TRIPOS>ATOM
1 C 27.289 83.208 96.697 C 0.0 **** 0.0
2 H 27.296 83.754 97.641 H 0.0 **** 0.0
3 H 28.129 83.535 96.083 H 0.0 **** 0.0
4 H 26.355 83.405 96.171 H 0.0 **** 0.0
5 H 27.377 82.14 96.894 H 0.0 **** 0.0
@<TRIPOS>BOND
1 1 2 1
2 1 3 1
3 1 4 1
4 1 5 1
@<TRIPOS>MOLECULE
CH4
5 4
SMALL
USER_CHARGES


@<TRIPOS>ATOM
1 C 87.642 88.369 59.413 C 0.0 **** 0.0
2 H 87.615 88.474 58.329 H 0.0 **** 0.0
3 H 87.609 89.356 59.875 H 0.0 **** 0.0
4 H 88.56 87.86 59.707 H 0.0 **** 0.0
5 H 86.782 87.785 59.742 H 0.0 **** 0.0
@<TRIPOS>BOND
1 1 2 1
2 1 3 1
3 1 4 1
4 1 5 1
@<TRIPOS>MOLECULE
CH4
5 4
SMALL
USER_CHARGES


@<TRIPOS>ATOM
1 C 67.792 71.373 50.658 C 0.0 **** 0.0
2 H 68.305 70.938 51.516 H 0.0 **** 0.0
3 H 67.231 72.252 50.977 H 0.0 **** 0.0
4 H 67.108 70.639 50.233 H 0.0 **** 0.0
5 H 68.526 71.664 49.906 H 0.0 **** 0.0
@<TRIPOS>BOND
1 1 2 1
2 1 3 1
3 1 4 1
4 1 5 1
@<TRIPOS>MOLECULE
CH4
5 4
SMALL
USER_CHARGES


@<TRIPOS>ATOM
1 C 69.128 59.44 75.787 C 0.0 **** 0.0
2 H 68.714 60.03 74.969 H 0.0 **** 0.0
3 H 68.944 59.95 76.732 H 0.0 **** 0.0
4 H 70.202 59.32 75.641 H 0.0 **** 0.0
5 H 68.652 58.46 75.804 H 0.0 **** 0.0
@<TRIPOS>BOND
1 1 2 1
2 1 3 1
3 1 4 1
4 1 5 1
@<TRIPOS>MOLECULE
CH4
5 4
SMALL
USER_CHARGES


@<TRIPOS>ATOM
1 C 17.73 4.176 43.074 C 0.0 **** 0.0
2 H 18.655 4.037 43.634 H 0.0 **** 0.0
3 H 17.083 3.311 43.222 H 0.0 **** 0.0
4 H 17.959 4.282 42.014 H 0.0 **** 0.0
5 H 17.223 5.074 43.428 H 0.0 **** 0.0
@<TRIPOS>BOND
1 1 2 1
2 1 3 1
3 1 4 1
4 1 5 1
@<TRIPOS>MOLECULE
CH4
5 4
SMALL
USER_CHARGES


@<TRIPOS>ATOM
1 C 97.677 8.399 11.654 C 0.0 **** 0.0
2 H 97.761 8.406 12.74 H 0.0 **** 0.0
3 H 97.141 9.29 11.326 H 0.0 **** 0.0
4 H 97.133 7.51 11.337 H 0.0 **** 0.0
5 H 98.674 8.391 11.213 H 0.0 **** 0.0
@<TRIPOS>BOND
1 1 2 1
2 1 3 1
3 1 4 1
4 1 5 1
@<TRIPOS>MOLECULE
CH4
5 4
SMALL
USER_CHARGES


@<TRIPOS>ATOM
1 C 91.508 37.065 51.0 C 0.0 **** 0.0
2 H 92.363 37.543 51.477 H 0.0 **** 0.0
3 H 91.249 37.607 50.09 H 0.0 **** 0.0
4 H 90.659 37.075 51.684 H 0.0 **** 0.0
5 H 91.761 36.034 50.75 H 0.0 **** 0.0
@<TRIPOS>BOND
1 1 2 1
2 1 3 1
3 1 4 1
4 1 5 1
@<TRIPOS>MOLECULE
CH4
5 4
SMALL
USER_CHARGES


@<TRIPOS>ATOM
1 C 86.503 14.638 21.555 C 0.0 **** 0.0
2 H 86.634 13.556 21.522 H 0.0 **** 0.0
3 H 87.207 15.067 22.268 H 0.0 **** 0.0
4 H 85.484 14.871 21.865 H 0.0 **** 0.0
5 H 86.687 15.055 20.565 H 0.0 **** 0.0
@<TRIPOS>BOND
1 1 2 1
2 1 3 1
3 1 4 1
4 1 5 1
@<TRIPOS>MOLECULE
CH4
5 4
SMALL
USER_CHARGES


@<TRIPOS>ATOM
1 C 49.302 8.655 19.44 C 0.0 **** 0.0
2 H 48.457 9.249 19.092 H 0.0 **** 0.0
3 H 49.988 8.479 18.61 H 0.0 **** 0.0
4 H 48.942 7.7 19.823 H 0.0 **** 0.0
5 H 49.822 9.193 20.233 H 0.0 **** 0.0
@<TRIPOS>BOND
1 1 2 1
2 1 3 1
3 1 4 1
4 1 5 1
@<TRIPOS>MOLECULE
CH4
5 4
SMALL
USER_CHARGES


@<TRIPOS>ATOM
1 C 65.428 96.981 47.912 C 0.0 **** 0.0
2 H 65.175 97.041 46.854 H 0.0 **** 0.0
3 H 64.851 96.183 48.379 H 0.0 **** 0.0
4 H 65.195 97.929 48.396 H 0.0 **** 0.0
5 H 66.493 96.77 48.019 H 0.0 **** 0.0
@<TRIPOS>BOND
1 1 2 1
2 1 3 1
3 1 4 1
4 1 5 1
@<TRIPOS>MOLECULE
CH4
5 4
SMALL
USER_CHARGES


@<TRIPOS>ATOM
1 C 19.13 6.758 87.785 C 0.0 **** 0.0
2 H 19.485 6.452 88.769 H 0.0 **** 0.0
3 H 18.051 6.615 87.728 H 0.0 **** 0.0
4 H 19.618 6.155 87.02 H 0.0 **** 0.0
5 H 19.366 7.81 87.625 H 0.0 **** 0.0
@<TRIPOS>BOND
1 1 2 1
2 1 3 1
3 1 4 1
4 1 5 1
@<TRIPOS>MOLECULE
CH4
5 4
SMALL
USER_CHARGES


@<TRIPOS>ATOM
1 C 43.529 81.691 89.08 C 0.0 **** 0.0
2 H 43.737 82.188 88.133 H 0.0 **** 0.0
3 H 42.499 81.889 89.375 H 0.0 **** 0.0
4 H 44.206 82.069 89.845 H 0.0 **** 0.0
5 H 43.674 80.616 88.965 H 0.0 **** 0.0
@<TRIPOS>BOND
1 1 2 1
2 1 3 1
3 1 4 1
4 1 5 1
@<TRIPOS>MOLECULE
CH4
5 4
SMALL
USER_CHARGES


@<TRIPOS>ATOM
1 C 24.564 66.212 26.45 C 0.0 **** 0.0
2 H 25.294 66.891 26.89 H 0.0 **** 0.0
3 H 25.053 65.587 25.703 H 0.0 **** 0.0
4 H 23.769 66.79 25.978 H 0.0 **** 0.0
5 H 24.14 65.581 27.231 H 0.0 **** 0.0
@<TRIPOS>BOND
1 1 2 1
2 1 3 1
3 1 4 1
4 1 5 1
@<TRIPOS>MOLECULE
CH4
5 4
SMALL
USER_CHARGES


@<TRIPOS>ATOM
1 C 87.296 31.136 46.375 C 0.0 **** 0.0
2 H 86.757 32.038 46.085 H 0.0 **** 0.0
3 H 87.825 31.314 47.312 H 0.0 **** 0.0
4 H 88.014 30.876 45.596 H 0.0 **** 0.0
5 H 86.589 30.317 46.506 H 0.0 **** 0.0
@<TRIPOS>BOND
1 1 2 1
2 1 3 1
3 1 4 1
4 1 5 1
@<TRIPOS>MOLECULE
CH4
5 4
SMALL
USER_CHARGES


@<TRIPOS>ATOM
1 C 92.163 67.825 74.781 C 0.0 **** 0.0
2 H 92.706 68.323 73.977 H 0.0 **** 0.0
3 H 92.859 67.236 75.379 H 0.0 **** 0.0
4 H 91.404 67.169 74.355 H 0.0 **** 0.0
5 H 91.684 68.574 75.412 H 0.0 **** 0.0
@<TRIPOS>BOND
1 1 2 1
2 1 3 1
3 1 4 1
4 1 5 1
@<TRIPOS>MOLECULE
CH4
5 4
SMALL
USER_CHARGES


@<TRIPOS>ATOM
1 C 48.824 64.843 19.158 C 0.0 **** 0.0
2 H 49.601 64.818 19.922 H 0.0 **** 0.0
3 H 47.939 64.323 19.524 H 0.0 **** 0.0
4 H 49.187 64.352 18.255 H 0.0 **** 0.0
5 H 48.571 65.879 18.931 H 0.0 **** 0.0
@<TRIPOS>BOND
1 1 2 1
2 1 3 1
3 1 4 1
4 1 5 1
@<TRIPOS>MOLECULE
CH4
5 4
SMALL
USER_CHARGES


@<TRIPOS>ATOM
1 C 1.598 56.894 39.521 C 0.0 **** 0.0
2 H 0.825 57.657 39.614 H 0.0 **** 0.0
3 H 2.346 57.038 40.301 H 0.0 **** 0.0
4 H 2.072 56.974 38.543 H 0.0 **** 0.0
5 H 1.148 55.907 39.626 H 0.0 **** 0.0
@<TRIPOS>BOND
1 1 2 1
2 1 3 1
3 1 4 1
4 1 5 1
@<TRIPOS>MOLECULE
CH4
5 4
SMALL
USER_CHARGES


@<TRIPOS>ATOM
1 C 16.393 53.796 98.283 C 0.0 **** 0.0
2 H 15.93 54.763 98.484 H 0.0 **** 0.0
3 H 17.476 53.886 98.373 H 0.0 **** 0.0
4 H 16.138 53.475 97.273 H 0.0 **** 0.0
5 H 16.027 53.063 99.001 H 0.0 **** 0.0
@<TRIPOS>BOND
1 1 2 1
2 1 3 1
3 1 4 1
4 1 5 1
@<TRIPOS>MOLECULE
CH4
5 4
SMALL
USER_CHARGES


@<TRIPOS>ATOM
1 C 76.563 8.801 75.717 C 0.0 **** 0.0
2 H 75.636 9.311 75.457 H 0.0 **** 0.0
3 H 76.342 7.777 76.019 H 0.0 **** 0.0
4 H 77.048 9.327 76.54 H 0.0 **** 0.0
5 H 77.226 8.79 74.852 H 0.0 **** 0.0
@<TRIPOS>BOND
1 1 2 1
2 1 3 1
3 1 4 1
4 1 5 1
@<TRIPOS>MOLECULE
CH4
5 4
SMALL
USER_CHARGES


@<TRIPOS>ATOM
1 C 94.062 37.802 49.057 C 0.0 **** 0.0
2 H 94.904 37.577 49.712 H 0.0 **** 0.0
3 H 93.356 38.446 49.582 H 0.0 **** 0.0
4 H 93.566 36.875 48.771 H 0.0 **** 0.0
5 H 94.424 38.311 48.163 H 0.0 **** 0.0
@<TRIPOS>BOND
1 1 2 1
2 1 3 1
3 1 4 1
4 1 5 1
@<TRIPOS>MOLECULE
CH4
5 4
SMALL
USER_CHARGES


@<TRIPOS>ATOM
1 C 12.854 60.152 75.317 C 0.0 **** 0.0
2 H 13.478 59.504 75.933 H 0.0 **** 0.0
3 H 11.823 60.101 75.666 H 0.0 **** 0.0
4 H 12.904 59.823 74.279 H 0.0 **** 0.0
5 H 13.213 61.178 75.391 H 0.0 **** 0.0
@<TRIPOS>BOND
1 1 4 1
2 1 5 1
3 1 2 1
4 1 3 1
@<TRIPOS>MOLECULE
CH4
5 4
SMALL
USER_CHARGES


@<TRIPOS>ATOM
1 C 34.352 22.692 92.487 C 0.0 **** 0.0
2 H 34.502 23.702 92.106 H 0.0 **** 0.0
3 H 35.227 22.385 93.06 H 0.0 **** 0.0
4 H 34.206 22.007 91.651 H 0.0 **** 0.0
5 H 33.472 22.674 93.13 H 0.0 **** 0.0
@<TRIPOS>BOND
1 1 2 1
2 1 3 1
3 1 4 1
4 1 5 1
@<TRIPOS>MOLECULE
CH4
5 4
SMALL
USER_CHARGES


@<TRIPOS>ATOM
1 C 64.175 9.757 23.964 C 0.0 **** 0.0
2 H 64.124 9.861 25.048 H 0.0 **** 0.0
3 H 64.374 10.731 23.515 H 0.0 **** 0.0
4 H 63.225 9.373 23.591 H 0.0 **** 0.0
5 H 64.975 9.065 23.702 H 0.0 **** 0.0
@<TRIPOS>BOND
1 1 2 1
2 1 3 1
3 1 4 1
4 1 5 1
@<TRIPOS>MOLECULE
CH4
5 4
SMALL
USER_CHARGES


@<TRIPOS>ATOM
1 C 77.185 22.935 97.917 C 0.0 **** 0.0
2 H 77.669 22.023 98.268 H 0.0 **** 0.0
3 H 76.122 22.896 98.155 H 0.0 **** 0.0
4 H 77.314 23.022 96.839 H 0.0 **** 0.0
5 H 77.637 23.797 98.408 H 0.0 **** 0.0
@<TRIPOS>BOND
1 1 2 1
2 1 3 1
3 1 4 1
4 1 5 1
@<TRIPOS>MOLECULE
CH4
5 4
SMALL
USER_CHARGES


@<TRIPOS>ATOM
1 C 1.635 61.026 41.322 C 0.0 **** 0.0
2 H 1.153 60.617 42.21 H 0.0 **** 0.0
3 H 2.656 61.32 41.565 H 0.0 **** 0.0
4 H 1.078 61.897 40.976 H 0.0 **** 0.0
5 H 1.65 60.27 40.537 H 0.0 **** 0.0
@<TRIPOS>BOND
1 1 2 1
2 1 3 1
3 1 4 1
4 1 5 1
@<TRIPOS>MOLECULE
CH4
5 4
SMALL
USER_CHARGES


@<TRIPOS>ATOM
1 C 86.966 11.133 46.438 C 0.0 **** 0.0
2 H 87.287 11.276 47.47 H 0.0 **** 0.0
3 H 87.831 10.905 45.816 H 0.0 **** 0.0
4 H 86.488 12.044 46.078 H 0.0 **** 0.0
5 H 86.256 10.307 46.391 H 0.0 **** 0.0
@<TRIPOS>BOND
1 1 2 1
2 1 3 1
3 1 4 1
4 1 5 1
@<TRIPOS>MOLECULE
CH4
5 4
SMALL
USER_CHARGES


@<TRIPOS>ATOM
1 C 87.41 55.907 37.564 C 0.0 **** 0.0
2 H 86.959 56.089 36.589 H 0.0 **** 0.0
3 H 87.163 54.898 37.896 H 0.0 **** 0.0
4 H 87.025 56.631 38.283 H 0.0 **** 0.0
5 H 88.493 56.01 37.488 H 0.0 **** 0.0
@<TRIPOS>BOND
1 1 2 1
2 1 3 1
3 1 4 1
4 1 5 1
@<TRIPOS>MOLECULE
CH4
5 4
SMALL
USER_CHARGES


@<TRIPOS>ATOM
1 C 12.696 47.776 1.923 C 0.0 **** 0.0
2 H 12.195 48.28 2.75 H 0.0 **** 0.0
3 H 13.73 48.117 1.862 H 0.0 **** 0.0
4 H 12.181 48.009 0.991 H 0.0 **** 0.0
5 H 12.677 46.699 2.089 H 0.0 **** 0.0
@<TRIPOS>BOND
1 1 2 1
2 1 3 1
3 1 4 1
4 1 5 1
@<TRIPOS>MOLECULE
CH4
5 4
SMALL
USER_CHARGES


@<TRIPOS>ATOM
1 C 90.781 67.782 5.301 C 0.0 **** 0.0
2 H 90.478 68.814 5.122 H 0.0 **** 0.0
3 H 90.919 67.625 6.371 H 0.0 **** 0.0
4 H 91.718 67.584 4.78 H 0.0 **** 0.0
5 H 90.009 67.108 4.93 H 0.0 **** 0.0
@<TRIPOS>BOND
1 1 2 1
2 1 3 1
3 1 4 1
4 1 5 1
@<TRIPOS>MOLECULE
CH4
5 4
SMALL
USER_CHARGES


@<TRIPOS>ATOM
1 C 79.528 79.747 18.304 C 0.0 **** 0.0
2 H 79.963 80.638 18.756 H 0.0 **** 0.0
3 H 78.507 79.962 17.987 H 0.0 **** 0.0
4 H 79.518 78.937 19.034 H 0.0 **** 0.0
5 H 80.122 79.45 17.44 H 0.0 **** 0.0
@<TRIPOS>BOND
1 1 2 1
2 1 3 1
3 1 4 1
4 1 5 1
@<TRIPOS>MOLECULE
CH4
5 4
SMALL
USER_CHARGES


@<TRIPOS>ATOM
1 C 20.871 63.909 4.023 C 0.0 **** 0.0
2 H 21.916 63.907 3.711 H 0.0 **** 0.0
3 H 20.739 63.212 4.851 H 0.0 **** 0.0
4 H 20.243 63.604 3.186 H 0.0 **** 0.0
5 H 20.59 64.912 4.342 H 0.0 **** 0.0
@<TRIPOS>BOND
1 1 2 1
2 1 3 1
3 1 4 1
4 1 5 1
@<TRIPOS>MOLECULE
CH4
5 4
SMALL
USER_CHARGES


@<TRIPOS>ATOM
1 C 23.923 65.057 38.515 C 0.0 **** 0.0
2 H 23.605 64.413 39.336 H 0.0 **** 0.0
3 H 24.054 64.457 37.614 H 0.0 **** 0.0
4 H 24.868 65.535 38.774 H 0.0 **** 0.0
5 H 23.166 65.82 38.338 H 0.0 **** 0.0
@<TRIPOS>BOND
1 1 2 1
2 1 3 1
3 1 4 1
4 1 5 1
@<TRIPOS>MOLECULE
CH4
5 4
SMALL
USER_CHARGES


@<TRIPOS>ATOM
1 C 44.831 44.593 44.616 C 0.0 **** 0.0
2 H 44.221 45.476 44.806 H 0.0 **** 0.0
3 H 44.968 44.469 43.542 H 0.0 **** 0.0
4 H 44.333 43.713 45.023 H 0.0 **** 0.0
5 H 45.803 44.714 45.095 H 0.0 **** 0.0
@<TRIPOS>BOND
1 1 2 1
2 1 3 1
3 1 4 1
4 1 5 1
@<TRIPOS>MOLECULE
CH4
5 4
SMALL
USER_CHARGES


@<TRIPOS>ATOM
1 C 56.987 56.278 22.935 C 0.0 **** 0.0
2 H 57.558 57.043 22.409 H 0.0 **** 0.0
3 H 57.438 56.094 23.91 H 0.0 **** 0.0
4 H 56.99 55.357 22.352 H 0.0 **** 0.0
5 H 55.96 56.62 23.068 H 0.0 **** 0.0
@<TRIPOS>BOND
1 1 2 1
2 1 3 1
3 1 4 1
4 1 5 1
@<TRIPOS>MOLECULE
CH4
5 4
SMALL
USER_CHARGES


@<TRIPOS>ATOM
1 C 1.01 83.594 39.412 C 0.0 **** 0.0
2 H -0.031 83.781 39.673 H 0.0 **** 0.0
3 H 1.66 84.084 40.136 H 0.0 **** 0.0
4 H 1.211 83.99 38.416 H 0.0 **** 0.0
5 H 1.199 82.521 39.421 H 0.0 **** 0.0
@<TRIPOS>BOND
1 1 2 1
2 1 3 1
3 1 4 1
4 1 5 1
@<TRIPOS>MOLECULE
CH4
5 4
SMALL
USER_CHARGES


@<TRIPOS>ATOM
1 C 75.699 64.085 86.422 C 0.0 **** 0.0
2 H 75.271 64.876 87.038 H 0.0 **** 0.0
3 H 76.66 64.412 86.027 H 0.0 **** 0.0
4 H 75.023 63.862 85.597 H 0.0 **** 0.0
5 H 75.84 63.19 87.028 H 0.0 **** 0.0
@<TRIPOS>BOND
1 1 2 1
2 1 3 1
3 1 4 1
4 1 5 1
@<TRIPOS>MOLECULE
CH4
5 4
SMALL
USER_CHARGES


@<TRIPOS>ATOM
1 C 29.918 69.512 51.68 C 0.0 **** 0.0
2 H 29.94 69.626 52.764 H 0.0 **** 0.0
3 H 29.015 68.974 51.39 H 0.0 **** 0.0
4 H 30.795 68.951 51.356 H 0.0 **** 0.0
5 H 29.922 70.496 51.211 H 0.0 **** 0.0
@<TRIPOS>BOND
1 1 2 1
2 1 3 1
3 1 4 1
4 1 5 1
@<TRIPOS>MOLECULE
CH4
5 4
SMALL
USER_CHARGES


@<TRIPOS>ATOM
1 C 23.096 61.736 25.888 C 0.0 **** 0.0
2 H 23.169 61.384 26.917 H 0.0 **** 0.0
3 H 23.454 60.959 25.212 H 0.0 **** 0.0
4 H 23.703 62.633 25.767 H 0.0 **** 0.0
5 H 22.056 61.967 25.657 H 0.0 **** 0.0
@<TRIPOS>BOND
1 1 2 1
2 1 3 1
3 1 4 1
4 1 5 1
@<TRIPOS>MOLECULE
CH4
5 4
SMALL
USER_CHARGES


@<TRIPOS>ATOM
1 C 27.323 59.879 1.624 C 0.0 **** 0.0
2 H 27.005 59.565 2.618 H 0.0 **** 0.0
3 H 27.054 60.924 1.47 H 0.0 **** 0.0
4 H 26.831 59.261 0.873 H 0.0 **** 0.0
5 H 28.404 59.765 1.537 H 0.0 **** 0.0
@<TRIPOS>BOND
1 1 2 1
2 1 3 1
3 1 4 1
4 1 5 1
@<TRIPOS>MOLECULE
CH4
5 4
SMALL
USER_CHARGES


@<TRIPOS>ATOM
1 C 52.604 21.571 39.248 C 0.0 **** 0.0
2 H 51.814 22.236 38.9 H 0.0 **** 0.0
3 H 52.355 20.542 38.985 H 0.0 **** 0.0
4 H 52.701 21.656 40.33 H 0.0 **** 0.0
5 H 53.547 21.848 38.776 H 0.0 **** 0.0
@<TRIPOS>BOND
1 1 2 1
2 1 3 1
3 1 4 1
4 1 5 1
@<TRIPOS>MOLECULE
CH4
5 4
SMALL
USER_CHARGES


@<TRIPOS>ATOM
1 C 78.866 20.988 31.747 C 0.0 **** 0.0
2 H 78.252 21.0 32.647 H 0.0 **** 0.0
3 H 78.28 20.602 30.913 H 0.0 **** 0.0
4 H 79.734 20.348 31.908 H 0.0 **** 0.0
5 H 79.199 22.001 31.521 H 0.0 **** 0.0
@<TRIPOS>BOND
1 1 2 1
2 1 3 1
3 1 4 1
4 1 5 1
@<TRIPOS>MOLECULE
CH4
5 4
SMALL
USER_CHARGES


@<TRIPOS>ATOM
1 C 0.913 57.436 43.037 C 0.0 **** 0.0
2 H 0.824 56.36 42.89 H 0.0 **** 0.0
3 H 0.155 57.948 42.443 H 0.0 **** 0.0
4 H 1.904 57.765 42.723 H 0.0 **** 0.0
5 H 0.769 57.672 44.092 H 0.0 **** 0.0
@<TRIPOS>BOND
1 1 2 1
2 1 3 1
3 1 4 1
4 1 5 1
@<TRIPOS>MOLECULE
CH4
5 4
SMALL
USER_CHARGES


@<TRIPOS>ATOM
1 C 87.66 8.808 1.118 C 0.0 **** 0.0
2 H 87.302 9.583 0.441 H 0.0 **** 0.0
3 H 88.438 8.225 0.624 H 0.0 **** 0.0
4 H 86.832 8.153 1.391 H 0.0 **** 0.0
5 H 88.068 9.27 2.017 H 0.0 **** 0.0
@<TRIPOS>BOND
1 1 2 1
2 1 3 1
3 1 4 1
4 1 5 1
@<TRIPOS>MOLECULE
CH4
5 4
SMALL
USER_CHARGES


@<TRIPOS>ATOM
1 C 5.164 14.101 52.387 C 0.0 **** 0.0
2 H 4.139 14.457 52.287 H 0.0 **** 0.0
3 H 5.81 14.659 51.709 H 0.0 **** 0.0
4 H 5.206 13.041 52.14 H 0.0 **** 0.0
5 H 5.501 14.249 53.414 H 0.0 **** 0.0
@<TRIPOS>BOND
1 1 2 1
2 1 3 1
3 1 4 1
4 1 5 1
@<TRIPOS>MOLECULE
CH4
5 4
SMALL
USER_CHARGES


@<TRIPOS>ATOM
1 C 57.776 53.811 85.679 C 0.0 **** 0.0
2 H 57.857 53.503 86.722 H 0.0 **** 0.0
3 H 58.774 53.889 85.245 H 0.0 **** 0.0
4 H 57.279 54.779 85.624 H 0.0 **** 0.0
5 H 57.196 53.072 85.126 H 0.0 **** 0.0
@<TRIPOS>BOND
1 1 2 1
2 1 3 1
3 1 4 1
4 1 5 1
@<TRIPOS>MOLECULE
CH4
5 4
SMALL
USER_CHARGES


@<TRIPOS>ATOM
1 C 21.956 18.219 90.76 C 0.0 **** 0.0
2 H 21.814 17.561 91.617 H 0.0 **** 0.0
3 H 21.125 18.923 90.701 H 0.0 **** 0.0
4 H 21.993 17.624 89.847 H 0.0 **** 0.0
5 H 22.89 18.768 90.874 H 0.0 **** 0.0
@<TRIPOS>BOND
1 1 2 1
2 1 3 1
3 1 4 1
4 1 5 1
@<TRIPOS>MOLECULE
CH4
5 4
SMALL
USER_CHARGES


@<TRIPOS>ATOM
1 C 73.755 15.055 85.239 C 0.0 **** 0.0
2 H 73.138 14.157 85.216 H 0.0 **** 0.0
3 H 73.968 15.375 84.218 H 0.0 **** 0.0
4 H 74.691 14.84 85.755 H 0.0 **** 0.0
5 H 73.224 15.848 85.765 H 0.0 **** 0.0
@<TRIPOS>BOND
1 1 2 1
2 1 3 1
3 1 4 1
4 1 5 1
@<TRIPOS>MOLECULE
CH4
5 4
SMALL
USER_CHARGES


@<TRIPOS>ATOM
1 C 5.064 4.693 84.557 C 0.0 **** 0.0
2 H 5.146 4.657 83.47 H 0.0 **** 0.0
3 H 4.011 4.721 84.841 H 0.0 **** 0.0
4 H 5.565 5.586 84.929 H 0.0 **** 0.0
5 H 5.533 3.807 84.985 H 0.0 **** 0.0
@<TRIPOS>BOND
1 1 2 1
2 1 3 1
3 1 4 1
4 1 5 1
@<TRIPOS>MOLECULE
CH4
5 4
SMALL
USER_CHARGES


@<TRIPOS>ATOM
1 C 44.29 69.954 32.863 C 0.0 **** 0.0
2 H 44.139 69.862 33.939 H 0.0 **** 0.0
3 H 43.507 69.404 32.339 H 0.0 **** 0.0
4 H 45.264 69.544 32.597 H 0.0 **** 0.0
5 H 44.248 71.005 32.579 H 0.0 **** 0.0
@<TRIPOS>BOND
1 1 2 1
2 1 3 1
3 1 4 1
4 1 5 1
@<TRIPOS>MOLECULE
CH4
5 4
SMALL
USER_CHARGES


@<TRIPOS>ATOM
1 C 20.697 48.872 50.108 C 0.0 **** 0.0
2 H 21.566 48.774 49.458 H 0.0 **** 0.0
3 H 20.801 48.199 50.959 H 0.0 **** 0.0
4 H 19.796 48.617 49.55 H 0.0 **** 0.0
5 H 20.624 49.9 50.464 H 0.0 **** 0.0
@<TRIPOS>BOND
1 1 2 1
2 1 3 1
3 1 4 1
4 1 5 1
@<TRIPOS>MOLECULE
CH4
5 4
SMALL
USER_CHARGES


@<TRIPOS>ATOM
1 C 41.948 77.912 20.562 C 0.0 **** 0.0
2 H 40.917 78.263 20.597 H 0.0 **** 0.0
3 H 42.58 78.686 20.125 H 0.0 **** 0.0
4 H 42.004 77.01 19.952 H 0.0 **** 0.0
5 H 42.29 77.69 21.572 H 0.0 **** 0.0
@<TRIPOS>BOND
1 1 2 1
2 1 3 1
3 1 4 1
4 1 5 1
@<TRIPOS>MOLECULE
CH4
5 4
SMALL
USER_CHARGES


@<TRIPOS>ATOM
1 C 86.096 27.56 34.858 C 0.0 **** 0.0
2 H 86.094 27.873 33.813 H 0.0 **** 0.0
3 H 85.142 27.82 35.317 H 0.0 **** 0.0
4 H 86.904 28.067 35.386 H 0.0 **** 0.0
5 H 86.245 26.482 34.913 H 0.0 **** 0.0
@<TRIPOS>BOND
1 1 2 1
2 1 3 1
3 1 4 1
4 1 5 1
@<TRIPOS>MOLECULE
CH4
5 4
SMALL
USER_CHARGES


@<TRIPOS>ATOM
1 C 41.868 95.389 92.978 C 0.0 **** 0.0
2 H 41.641 95.89 93.919 H 0.0 **** 0.0
3 H 42.865 94.952 93.03 H 0.0 **** 0.0
4 H 41.83 96.113 92.163 H 0.0 **** 0.0
5 H 41.135 94.603 92.8 H 0.0 **** 0.0
@<TRIPOS>BOND
1 1 2 1
2 1 3 1
3 1 4 1
4 1 5 1
@<TRIPOS>MOLECULE
CH4
5 4
SMALL
USER_CHARGES


@<TRIPOS>ATOM
1 C 4.799 51.524 67.708 C 0.0 **** 0.0
2 H 4.757 52.505 67.234 H 0.0 **** 0.0
3 H 4.238 51.548 68.642 H 0.0 **** 0.0
4 H 5.837 51.264 67.914 H 0.0 **** 0.0
5 H 4.363 50.781 67.041 H 0.0 **** 0.0
@<TRIPOS>BOND
1 1 2 1
2 1 3 1
3 1 4 1
4 1 5 1
@<TRIPOS>MOLECULE
CH4
5 4
SMALL
USER_CHARGES


@<TRIPOS>ATOM
1 C 41.202 93.127 48.036 C 0.0 **** 0.0
2 H 41.261 93.085 46.949 H 0.0 **** 0.0
3 H 40.263 93.595 48.331 H 0.0 **** 0.0
4 H 42.037 93.71 48.423 H 0.0 **** 0.0
5 H 41.246 92.116 48.441 H 0.0 **** 0.0
@<TRIPOS>BOND
1 1 2 1
2 1 3 1
3 1 4 1
4 1 5 1
@<TRIPOS>MOLECULE
CH4
5 4
SMALL
USER_CHARGES


@<TRIPOS>ATOM
1 C 79.475 81.361 10.978 C 0.0 **** 0.0
2 H 78.974 81.589 11.919 H 0.0 **** 0.0
3 H 79.298 82.169 10.268 H 0.0 **** 0.0
4 H 79.081 80.429 10.574 H 0.0 **** 0.0
5 H 80.546 81.258 11.153 H 0.0 **** 0.0
@<TRIPOS>BOND
1 1 2 1
2 1 3 1
3 1 4 1
4 1 5 1
@<TRIPOS>MOLECULE
CH4
5 4
SMALL
USER_CHARGES


@<TRIPOS>ATOM
1 C 1.028 83.386 70.686 C 0.0 **** 0.0
2 H -0.024 83.467 70.411 H 0.0 **** 0.0
3 H 1.473 82.534 70.173 H 0.0 **** 0.0
4 H 1.111 83.246 71.764 H 0.0 **** 0.0
5 H 1.549 84.298 70.396 H 0.0 **** 0.0
@<TRIPOS>BOND
1 1 2 1
2 1 3 1
3 1 4 1
4 1 5 1
@<TRIPOS>MOLECULE
CH4
5 4
SMALL
USER_CHARGES


@<TRIPOS>ATOM
1 C 36.002 98.303 57.522 C 0.0 **** 0.0
2 H 35.663 98.992 56.749 H 0.0 **** 0.0
3 H 36.948 98.656 57.934 H 0.0 **** 0.0
4 H 36.141 97.312 57.089 H 0.0 **** 0.0
5 H 35.257 98.251 58.315 H 0.0 **** 0.0
@<TRIPOS>BOND
1 1 2 1
2 1 3 1
3 1 4 1
4 1 5 1
@<TRIPOS>MOLECULE
CH4
5 4
SMALL
USER_CHARGES


@<TRIPOS>ATOM
1 C 4.505 40.484 10.583 C 0.0 **** 0.0
2 H 4.032 40.408 9.604 H 0.0 **** 0.0
3 H 5.257 41.273 10.562 H 0.0 **** 0.0
4 H 4.98 39.535 10.831 H 0.0 **** 0.0
5 H 3.75 40.721 11.333 H 0.0 **** 0.0
@<TRIPOS>BOND
1 1 2 1
2 1 3 1
3 1 4 1
4 1 5 1
@<TRIPOS>MOLECULE
CH4
5 4
SMALL
USER_CHARGES


@<TRIPOS>ATOM
1 C 39.03 95.039 88.441 C 0.0 **** 0.0
2 H 38.935 95.042 87.355 H 0.0 **** 0.0
3 H 38.587 94.127 88.841 H 0.0 **** 0.0
4 H 38.512 95.906 88.852 H 0.0 **** 0.0
5 H 40.084 95.083 88.713 H 0.0 **** 0.0
@<TRIPOS>BOND
1 1 2 1
2 1 3 1
3 1 4 1
4 1 5 1
@<TRIPOS>MOLECULE
CH4
5 4
SMALL
USER_CHARGES


@<TRIPOS>ATOM
1 C 75.362 71.993 10.782 C 0.0 **** 0.0
2 H 75.512 72.027 11.862 H 0.0 **** 0.0
3 H 75.637 71.007 10.409 H 0.0 **** 0.0
4 H 75.985 72.75 10.305 H 0.0 **** 0.0
5 H 74.314 72.189 10.556 H 0.0 **** 0.0
@<TRIPOS>BOND
1 1 2 1
2 1 3 1
3 1 4 1
4 1 5 1
@<TRIPOS>MOLECULE
CH4
5 4
SMALL
USER_CHARGES


@<TRIPOS>ATOM
1 C 53.192 51.546 16.171 C 0.0 **** 0.0
2 H 53.895 51.727 16.985 H 0.0 **** 0.0
3 H 53.666 51.796 15.221 H 0.0 **** 0.0
4 H 52.307 52.167 16.311 H 0.0 **** 0.0
5 H 52.903 50.495 16.168 H 0.0 **** 0.0
@<TRIPOS>BOND
1 1 2 1
2 1 3 1
3 1 4 1
4 1 5 1
@<TRIPOS>MOLECULE
CH4
5 4
SMALL
USER_CHARGES


@<TRIPOS>ATOM
1 C 11.533 70.247 82.444 C 0.0 **** 0.0
2 H 11.857 69.286 82.842 H 0.0 **** 0.0
3 H 12.282 71.006 82.673 H 0.0 **** 0.0
4 H 10.582 70.526 82.898 H 0.0 **** 0.0
5 H 11.411 70.17 81.364 H 0.0 **** 0.0
@<TRIPOS>BOND
1 1 2 1
2 1 3 1
3 1 4 1
4 1 5 1
@<TRIPOS>MOLECULE
CH4
5 4
SMALL
USER_CHARGES


@<TRIPOS>ATOM
1 C 58.664 29.4 25.959 C 0.0 **** 0.0
2 H 58.255 28.415 26.184 H 0.0 **** 0.0
3 H 58.049 30.165 26.434 H 0.0 **** 0.0
4 H 58.667 29.554 24.88 H 0.0 **** 0.0
5 H 59.683 29.465 26.339 H 0.0 **** 0.0
@<TRIPOS>BOND
1 1 2 1
2 1 3 1
3 1 4 1
4 1 5 1
@<TRIPOS>MOLECULE
CH4
5 4
SMALL
USER_CHARGES


@<TRIPOS>ATOM
1 C 69.935 73.371 28.406 C 0.0 **** 0.0
2 H 69.083 73.092 27.787 H 0.0 **** 0.0
3 H 69.815 74.399 28.747 H 0.0 **** 0.0
4 H 70.851 73.286 27.822 H 0.0 **** 0.0
5 H 69.99 72.706 29.268 H 0.0 **** 0.0
@<TRIPOS>BOND
1 1 2 1
2 1 3 1
3 1 4 1
4 1 5 1
@<TRIPOS>MOLECULE
CH4
5 4
SMALL
USER_CHARGES


@<TRIPOS>ATOM
1 C 39.703 48.849 92.9 C 0.0 **** 0.0
2 H 40.26 49.342 92.104 H 0.0 **** 0.0
3 H 40.054 47.822 93.007 H 0.0 **** 0.0
4 H 38.641 48.846 92.653 H 0.0 **** 0.0
5 H 39.857 49.385 93.837 H 0.0 **** 0.0
@<TRIPOS>BOND
1 1 2 1
2 1 3 1
3 1 4 1
4 1 5 1
@<TRIPOS>MOLECULE
CH4
5 4
SMALL
USER_CHARGES


@<TRIPOS>ATOM
1 C 6.524 35.641 88.167 C 0.0 **** 0.0
2 H 6.42 36.725 88.194 H 0.0 **** 0.0
3 H 6.754 35.273 89.167 H 0.0 **** 0.0
4 H 7.33 35.371 87.485 H 0.0 **** 0.0
5 H 5.591 35.195 87.821 H 0.0 **** 0.0
@<TRIPOS>BOND
1 1 2 1
2 1 3 1
3 1 4 1
4 1 5 1
@<TRIPOS>MOLECULE
CH4
5 4
SMALL
USER_CHARGES


@<TRIPOS>ATOM
1 C 84.571 30.997 28.265 C 0.0 **** 0.0
2 H 83.944 31.889 28.297 H 0.0 **** 0.0
3 H 84.743 30.638 29.28 H 0.0 **** 0.0
4 H 85.526 31.242 27.8 H 0.0 **** 0.0
5 H 84.071 30.223 27.684 H 0.0 **** 0.0
@<TRIPOS>BOND
1 1 2 1
2 1 3 1
3 1 4 1
4 1 5 1
@<TRIPOS>MOLECULE
CH4
5 4
SMALL
USER_CHARGES


@<TRIPOS>ATOM
1 C 45.675 97.431 0.741 C 0.0 **** 0.0
2 H 44.984 96.727 1.205 H 0.0 **** 0.0
3 H 46.291 97.895 1.512 H 0.0 **** 0.0
4 H 45.109 98.201 0.215 H 0.0 **** 0.0
5 H 46.313 96.902 0.034 H 0.0 **** 0.0
@<TRIPOS>BOND
1 1 2 1
2 1 3 1
3 1 4 1
4 1 5 1
@<TRIPOS>MOLECULE
CH4
5 4
SMALL
USER_CHARGES


@<TRIPOS>ATOM
1 C 19.964 67.951 88.513 C 0.0 **** 0.0
2 H 20.059 67.195 87.733 H 0.0 **** 0.0
3 H 18.924 68.01 88.836 H 0.0 **** 0.0
4 H 20.28 68.918 88.122 H 0.0 **** 0.0
5 H 20.593 67.678 89.36 H 0.0 **** 0.0
@<TRIPOS>BOND
1 1 2 1
2 1 3 1
3 1 4 1
4 1 5 1
@<TRIPOS>MOLECULE
CH4
5 4
SMALL
USER_CHARGES


@<TRIPOS>ATOM
1 C 25.469 62.861 22.769 C 0.0 **** 0.0
2 H 25.802 62.737 23.8 H 0.0 **** 0.0
3 H 25.697 63.873 22.434 H 0.0 **** 0.0
4 H 24.394 62.692 22.712 H 0.0 **** 0.0
5 H 25.984 62.142 22.132 H 0.0 **** 0.0
@<TRIPOS>BOND
1 1 2 1
2 1 3 1
3 1 4 1
4 1 5 1
@<TRIPOS>MOLECULE
CH4
5 4
SMALL
USER_CHARGES


@<TRIPOS>ATOM
1 C 45.438 77.506 75.012 C 0.0 **** 0.0
2 H 44.8 78.211 74.478 H 0.0 **** 0.0
3 H 44.882 76.589 75.208 H 0.0 **** 0.0
4 H 45.755 77.949 75.956 H 0.0 **** 0.0
5 H 46.314 77.278 74.405 H 0.0 **** 0.0
@<TRIPOS>BOND
1 1 2 1
2 1 3 1
3 1 4 1
4 1 5 1
@<TRIPOS>MOLECULE
CH4
5 4
SMALL
USER_CHARGES


@<TRIPOS>ATOM
1 C 6.701 43.09 34.314 C 0.0 **** 0.0
2 H 7.534 42.989 33.618 H 0.0 **** 0.0
3 H 6.463 44.146 34.445 H 0.0 **** 0.0
4 H 6.976 42.657 35.275 H 0.0 **** 0.0
5 H 5.83 42.568 33.916 H 0.0 **** 0.0
@<TRIPOS>BOND
1 1 2 1
2 1 3 1
3 1 4 1
4 1 5 1
@<TRIPOS>MOLECULE
CH4
5 4
SMALL
USER_CHARGES


@<TRIPOS>ATOM
1 C 88.438 87.422 50.61 C 0.0 **** 0.0
2 H 88.794 87.064 49.645 H 0.0 **** 0.0
3 H 87.508 86.914 50.866 H 0.0 **** 0.0
4 H 88.262 88.496 50.557 H 0.0 **** 0.0
5 H 89.188 87.214 51.374 H 0.0 **** 0.0
@<TRIPOS>BOND
1 1 2 1
2 1 3 1
3 1 4 1
4 1 5 1
@<TRIPOS>MOLECULE
CH4
5 4
SMALL
USER_CHARGES


@<TRIPOS>ATOM
1 C 57.993 23.447 78.777 C 0.0 **** 0.0
2 H 58.114 23.304 79.851 H 0.0 **** 0.0
3 H 58.62 22.732 78.243 H 0.0 **** 0.0
4 H 58.29 24.462 78.51 H 0.0 **** 0.0
5 H 56.949 23.29 78.505 H 0.0 **** 0.0
@<TRIPOS>BOND
1 1 2 1
2 1 3 1
3 1 4 1
4 1 5 1
@<TRIPOS>MOLECULE
CH4
5 4
SMALL
USER_CHARGES


@<TRIPOS>ATOM
1 C 13.524 56.016 22.319 C 0.0 **** 0.0
2 H 13.985 55.606 21.421 H 0.0 **** 0.0
3 H 13.266 57.062 22.151 H 0.0 **** 0.0
4 H 14.223 55.943 23.152 H 0.0 **** 0.0
5 H 12.621 55.452 22.553 H 0.0 **** 0.0
@<TRIPOS>BOND
1 1 2 1
2 1 3 1
3 1 4 1
4 1 5 1
@<TRIPOS>MOLECULE
CH4
5 4
SMALL
USER_CHARGES


@<TRIPOS>ATOM
1 C 66.164 28.667 25.469 C 0.0 **** 0.0
2 H 65.842 27.98 26.252 H 0.0 **** 0.0
3 H 66.23 29.676 25.877 H 0.0 **** 0.0
4 H 65.441 28.651 24.653 H 0.0 **** 0.0
5 H 67.141 28.36 25.095 H 0.0 **** 0.0
@<TRIPOS>BOND
1 1 2 1
2 1 3 1
3 1 4 1
4 1 5 1
@<TRIPOS>MOLECULE
CH4
5 4
SMALL
USER_CHARGES


@<TRIPOS>ATOM
1 C 12.854 74.428 94.083 C 0.0 **** 0.0
2 H 12.524 73.393 93.987 H 0.0 **** 0.0
3 H 13.576 74.505 94.896 H 0.0 **** 0.0
4 H 11.995 75.064 94.299 H 0.0 **** 0.0
5 H 13.319 74.749 93.151 H 0.0 **** 0.0
@<TRIPOS>BOND
1 1 2 1
2 1 3 1
3 1 4 1
4 1 5 1
@<TRIPOS>MOLECULE
CH4
5 4
SMALL
USER_CHARGES


@<TRIPOS>ATOM
1 C 45.388 63.809 55.162 C 0.0 **** 0.0
2 H 45.393 63.778 54.073 H 0.0 **** 0.0
3 H 45.314 62.795 55.554 H 0.0 **** 0.0
4 H 44.534 64.394 55.505 H 0.0 **** 0.0
5 H 46.309 64.271 55.517 H 0.0 **** 0.0
@<TRIPOS>BOND
1 1 2 1
2 1 3 1
3 1 4 1
4 1 5 1
@<TRIPOS>MOLECULE
CH4
5 4
SMALL
USER_CHARGES


@<TRIPOS>ATOM
1 C 94.909 42.635 68.318 C 0.0 **** 0.0
2 H 94.709 42.454 67.262 H 0.0 **** 0.0
3 H 95.986 42.679 68.481 H 0.0 **** 0.0
4 H 94.484 41.826 68.912 H 0.0 **** 0.0
5 H 94.457 43.581 68.616 H 0.0 **** 0.0
@<TRIPOS>BOND
1 1 2 1
2 1 3 1
3 1 4 1
4 1 5 1
@<TRIPOS>MOLECULE
CH4
5 4
SMALL
USER_CHARGES


@<TRIPOS>ATOM
1 C 83.514 79.944 67.46 C 0.0 **** 0.0
2 H 83.156 80.621 66.685 H 0.0 **** 0.0
3 H 82.668 79.411 67.895 H 0.0 **** 0.0
4 H 84.022 80.516 68.237 H 0.0 **** 0.0
5 H 84.209 79.227 67.023 H 0.0 **** 0.0
@<TRIPOS>BOND
1 1 2 1
2 1 3 1
3 1 4 1
4 1 5 1
@<TRIPOS>MOLECULE
CH4
5 4
SMALL
USER_CHARGES


@<TRIPOS>ATOM
1 C 21.671 86.232 33.763 C 0.0 **** 0.0
2 H 22.079 87.126 33.291 H 0.0 **** 0.0
3 H 20.595 86.191 33.593 H 0.0 **** 0.0
4 H 21.869 86.265 34.835 H 0.0 **** 0.0
5 H 22.141 85.348 33.333 H 0.0 **** 0.0
@<TRIPOS>BOND
1 1 2 1
2 1 3 1
3 1 4 1
4 1 5 1
@<TRIPOS>MOLECULE
CH4
5 4
SMALL
USER_CHARGES


@<TRIPOS>ATOM
1 C 70.326 53.704 79.431 C 0.0 **** 0.0
2 H 70.332 53.789 78.345 H 0.0 **** 0.0
3 H 70.728 52.733 79.721 H 0.0 **** 0.0
4 H 69.304 53.799 79.798 H 0.0 **** 0.0
5 H 70.942 54.495 79.861 H 0.0 **** 0.0
@<TRIPOS>BOND
1 1 2 1
2 1 3 1
3 1 4 1
4 1 5 1
@<TRIPOS>MOLECULE
CH4
5 4
SMALL
USER_CHARGES


@<TRIPOS>ATOM
1 C 92.27 2.403 29.007 C 0.0 **** 0.0
2 H 91.972 1.634 29.72 H 0.0 **** 0.0
3 H 91.428 2.641 28.357 H 0.0 **** 0.0
4 H 93.102 2.038 28.406 H 0.0 **** 0.0
5 H 92.577 3.299 29.547 H 0.0 **** 0.0
@<TRIPOS>BOND
1 1 2 1
2 1 3 1
3 1 4 1
4 1 5 1
@<TRIPOS>MOLECULE
CH4
5 4
SMALL
USER_CHARGES


@<TRIPOS>ATOM
1 C 56.752 24.971 83.337 C 0.0 **** 0.0
2 H 56.687 24.122 84.017 H 0.0 **** 0.0
3 H 55.997 25.71 83.604 H 0.0 **** 0.0
4 H 56.583 24.631 82.315 H 0.0 **** 0.0
5 H 57.743 25.42 83.411 H 0.0 **** 0.0
@<TRIPOS>BOND
1 1 2 1
2 1 3 1
3 1 4 1
4 1 5 1
@<TRIPOS>MOLECULE
CH4
5 4
SMALL
USER_CHARGES


@<TRIPOS>ATOM
1 C 52.912 56.376 72.949 C 0.0 **** 0.0
2 H 52.737 55.617 72.187 H 0.0 **** 0.0
3 H 53.708 56.043 73.617 H 0.0 **** 0.0
4 H 51.998 56.532 73.523 H 0.0 **** 0.0
5 H 53.206 57.31 72.471 H 0.0 **** 0.0
@<TRIPOS>BOND
1 1 2 1
2 1 3 1
3 1 4 1
4 1 5 1
@<TRIPOS>MOLECULE
CH4
5 4
SMALL
USER_CHARGES


@<TRIPOS>ATOM
1 C 80.643 0.437 82.424 C 0.0 **** 0.0
2 H 79.664 0.002 82.621 H 0.0 **** 0.0
3 H 81.345 0.115 83.194 H 0.0 **** 0.0
4 H 80.566 1.524 82.435 H 0.0 **** 0.0
5 H 80.998 0.107 81.448 H 0.0 **** 0.0
@<TRIPOS>BOND
1 1 2 1
2 1 3 1
3 1 4 1
4 1 5 1
@<TRIPOS>MOLECULE
CH4
5 4
SMALL
USER_CHARGES


@<TRIPOS>ATOM
1 C 62.68 97.829 85.926 C 0.0 **** 0.0
2 H 62.603 96.806 85.557 H 0.0 **** 0.0
3 H 63.358 97.856 86.779 H 0.0 **** 0.0
4 H 61.694 98.178 86.234 H 0.0 **** 0.0
5 H 63.064 98.473 85.135 H 0.0 **** 0.0
@<TRIPOS>BOND
1 1 5 1
2 1 2 1
3 1 3 1
4 1 4 1
@<TRIPOS>MOLECULE
CH4
5 4
SMALL
USER_CHARGES


@<TRIPOS>ATOM
1 C 77.026 68.042 10.468 C 0.0 **** 0.0
2 H 77.791 67.688 9.777 H 0.0 **** 0.0
3 H 76.04 67.872 10.036 H 0.0 **** 0.0
4 H 77.165 69.108 10.649 H 0.0 **** 0.0
5 H 77.108 67.499 11.41 H 0.0 **** 0.0
@<TRIPOS>BOND
1 1 2 1
2 1 3 1
3 1 4 1
4 1 5 1
@<TRIPOS>MOLECULE
CH4
5 4
SMALL
USER_CHARGES


@<TRIPOS>ATOM
1 C 6.221 60.901 44.829 C 0.0 **** 0.0
2 H 6.28 61.632 44.023 H 0.0 **** 0.0
3 H 6.021 61.413 45.771 H 0.0 **** 0.0
4 H 7.167 60.364 44.902 H 0.0 **** 0.0
5 H 5.418 60.195 44.621 H 0.0 **** 0.0
@<TRIPOS>BOND
1 1 2 1
2 1 3 1
3 1 4 1
4 1 5 1
@<TRIPOS>MOLECULE
CH4
5 4
SMALL
USER_CHARGES


@<TRIPOS>ATOM
1 C 60.166 30.109 18.246 C 0.0 **** 0.0
2 H 59.946 30.734 17.381 H 0.0 **** 0.0
3 H 59.944 29.069 18.008 H 0.0 **** 0.0
4 H 59.554 30.428 19.09 H 0.0 **** 0.0
5 H 61.22 30.206 18.505 H 0.0 **** 0.0
@<TRIPOS>BOND
1 1 2 1
2 1 3 1
3 1 4 1
4 1 5 1
@<TRIPOS>MOLECULE
CH4
5 4
SMALL
USER_CHARGES


@<TRIPOS>ATOM
1 C 82.718 74.028 49.495 C 0.0 **** 0.0
2 H 82.26 74.211 50.467 H 0.0 **** 0.0
3 H 83.776 73.803 49.629 H 0.0 **** 0.0
4 H 82.61 74.914 48.87 H 0.0 **** 0.0
5 H 82.225 73.182 49.015 H 0.0 **** 0.0
@<TRIPOS>BOND
1 1 2 1
2 1 3 1
3 1 4 1
4 1 5 1
@<TRIPOS>MOLECULE
CH4
5 4
SMALL
USER_CHARGES


@<TRIPOS>ATOM
1 C 17.029 89.365 38.218 C 0.0 **** 0.0
2 H 17.391 88.949 37.278 H 0.0 **** 0.0
3 H 15.94 89.41 38.2 H 0.0 **** 0.0
4 H 17.433 90.368 38.351 H 0.0 **** 0.0
5 H 17.353 88.73 39.044 H 0.0 **** 0.0
@<TRIPOS>BOND
1 1 2 1
2 1 3 1
3 1 4 1
4 1 5 1
@<TRIPOS>MOLECULE
CH4
5 4
SMALL
USER_CHARGES


@<TRIPOS>ATOM
1 C 68.975 83.003 73.976 C 0.0 **** 0.0
2 H 69.408 82.617 74.899 H 0.0 **** 0.0
3 H 67.906 82.786 73.959 H 0.0 **** 0.0
4 H 69.457 82.528 73.122 H 0.0 **** 0.0
5 H 69.128 84.081 73.927 H 0.0 **** 0.0
@<TRIPOS>BOND
1 1 2 1
2 1 3 1
3 1 4 1
4 1 5 1
@<TRIPOS>MOLECULE
CH4
5 4
SMALL
USER_CHARGES


@<TRIPOS>ATOM
1 C 90.775 92.326 89.507 C 0.0 **** 0.0
2 H 89.797 92.622 89.128 H 0.0 **** 0.0
3 H 91.412 93.207 89.595 H 0.0 **** 0.0
4 H 91.231 91.615 88.819 H 0.0 **** 0.0
5 H 90.66 91.861 90.486 H 0.0 **** 0.0
@<TRIPOS>BOND
1 1 2 1
2 1 3 1
3 1 4 1
4 1 5 1
@<TRIPOS>MOLECULE
CH4
5 4
SMALL
USER_CHARGES


@<TRIPOS>ATOM
1 C 34.877 42.128 87.763 C 0.0 **** 0.0
2 H 35.332 43.107 87.915 H 0.0 **** 0.0
3 H 34.09 42.205 87.012 H 0.0 **** 0.0
4 H 34.451 41.775 88.702 H 0.0 **** 0.0
5 H 35.637 41.424 87.422 H 0.0 **** 0.0
@<TRIPOS>BOND
1 1 2 1
2 1 3 1
3 1 4 1
4 1 5 1
@<TRIPOS>MOLECULE
CH4
5 4
SMALL
USER_CHARGES


@<TRIPOS>ATOM
1 C 40.639 16.74 89.14 C 0.0 **** 0.0
2 H 41.377 16.044 89.539 H 0.0 **** 0.0
3 H 41.049 17.241 88.263 H 0.0 **** 0.0
4 H 40.392 17.482 89.9 H 0.0 **** 0.0
5 H 39.739 16.194 88.86 H 0.0 **** 0.0
@<TRIPOS>BOND
1 1 2 1
2 1 3 1
3 1 4 1
4 1 5 1
@<TRIPOS>MOLECULE
CH4
5 4
SMALL
USER_CHARGES


@<TRIPOS>ATOM
1 C 81.0 9.6 30.688 C 0.0 **** 0.0
2 H 80.731 8.642 30.243 H 0.0 **** 0.0
3 H 81.915 9.97 30.225 H 0.0 **** 0.0
4 H 81.161 9.47 31.758 H 0.0 **** 0.0
5 H 80.195 10.315 30.525 H 0.0 **** 0.0
@<TRIPOS>BOND
1 1 2 1
2 1 3 1
3 1 4 1
4 1 5 1
@<TRIPOS>MOLECULE
CH4
5 4
SMALL
USER_CHARGES


@<TRIPOS>ATOM
1 C 21.756 3.676 75.586 C 0.0 **** 0.0
2 H 21.39 4.606 76.021 H 0.0 **** 0.0
3 H 21.155 2.843 75.953 H 0.0 **** 0.0
4 H 22.797 3.527 75.872 H 0.0 **** 0.0
5 H 21.681 3.728 74.5 H 0.0 **** 0.0
@<TRIPOS>BOND
1 1 2 1
2 1 3 1
3 1 4 1
4 1 5 1
@<TRIPOS>MOLECULE
CH4
5 4
SMALL
USER_CHARGES


@<TRIPOS>ATOM
1 C 40.676 85.591 72.399 C 0.0 **** 0.0
2 H 40.685 85.567 73.489 H 0.0 **** 0.0
3 H 39.699 85.272 72.037 H 0.0 **** 0.0
4 H 41.444 84.92 72.016 H 0.0 **** 0.0
5 H 40.877 86.607 72.057 H 0.0 **** 0.0
@<TRIPOS>BOND
1 1 2 1
2 1 3 1
3 1 4 1
4 1 5 1
@<TRIPOS>MOLECULE
CH4
5 4
SMALL
USER_CHARGES


@<TRIPOS>ATOM
1 C 62.457 20.651 33.148 C 0.0 **** 0.0
2 H 62.26 20.96 34.174 H 0.0 **** 0.0
3 H 62.935 19.671 33.149 H 0.0 **** 0.0
4 H 63.116 21.376 32.67 H 0.0 **** 0.0
5 H 61.518 20.596 32.598 H 0.0 **** 0.0
@<TRIPOS>BOND
1 1 2 1
2 1 3 1
3 1 4 1
4 1 5 1
@<TRIPOS>MOLECULE
CH4
5 4
SMALL
USER_CHARGES


@<TRIPOS>ATOM
1 C 87.674 90.321 62.76 C 0.0 **** 0.0
2 H 88.189 90.703 63.642 H 0.0 **** 0.0
3 H 88.371 89.739 62.157 H 0.0 **** 0.0
4 H 87.293 91.157 62.172 H 0.0 **** 0.0
5 H 86.844 89.687 63.07 H 0.0 **** 0.0
@<TRIPOS>BOND
1 1 2 1
2 1 3 1
3 1 4 1
4 1 5 1
@<TRIPOS>MOLECULE
CH4
5 4
SMALL
USER_CHARGES


@<TRIPOS>ATOM
1 C 28.171 11.702 32.346 C 0.0 **** 0.0
2 H 27.453 12.415 31.943 H 0.0 **** 0.0
3 H 27.654 10.783 32.624 H 0.0 **** 0.0
4 H 28.653 12.129 33.226 H 0.0 **** 0.0
5 H 28.926 11.479 31.591 H 0.0 **** 0.0
@<TRIPOS>BOND
1 1 2 1
2 1 3 1
3 1 4 1
4 1 5 1
@<TRIPOS>MOLECULE
CH4
5 4
SMALL
USER_CHARGES


@<TRIPOS>ATOM
1 C 32.812 52.59 91.05 C 0.0 **** 0.0
2 H 31.872 52.24 91.477 H 0.0 **** 0.0
3 H 32.606 53.316 90.263 H 0.0 **** 0.0
4 H 33.358 51.744 90.631 H 0.0 **** 0.0
5 H 33.412 53.059 91.83 H 0.0 **** 0.0
@<TRIPOS>BOND
1 1 2 1
2 1 3 1
3 1 4 1
4 1 5 1
@<TRIPOS>MOLECULE
CH4
5 4
SMALL
USER_CHARGES


@<TRIPOS>ATOM
1 C 55.472 40.121 8.254 C 0.0 **** 0.0
2 H 55.887 39.611 9.123 H 0.0 **** 0.0
3 H 55.582 41.198 8.379 H 0.0 **** 0.0
4 H 54.416 39.872 8.157 H 0.0 **** 0.0
5 H 56.004 39.802 7.358 H 0.0 **** 0.0
@<TRIPOS>BOND
1 1 2 1
2 1 3 1
3 1 4 1
4 1 5 1
@<TRIPOS>MOLECULE
CH4
5 4
SMALL
USER_CHARGES


@<TRIPOS>ATOM
1 C 59.21 18.508 95.682 C 0.0 **** 0.0
2 H 59.011 19.032 96.617 H 0.0 **** 0.0
3 H 59.03 17.441 95.819 H 0.0 **** 0.0
4 H 60.248 18.667 95.39 H 0.0 **** 0.0
5 H 58.551 18.891 94.903 H 0.0 **** 0.0
@<TRIPOS>BOND
1 1 2 1
2 1 3 1
3 1 4 1
4 1 5 1
@<TRIPOS>MOLECULE
CH4
5 4
SMALL
USER_CHARGES


@<TRIPOS>ATOM
1 C 62.909 69.18 63.926 C 0.0 **** 0.0
2 H 62.296 70.025 64.24 H 0.0 **** 0.0
3 H 62.266 68.333 63.688 H 0.0 **** 0.0
4 H 63.59 68.905 64.731 H 0.0 **** 0.0
5 H 63.485 69.459 63.043 H 0.0 **** 0.0
@<TRIPOS>BOND
1 1 2 1
2 1 3 1
3 1 4 1
4 1 5 1
@<TRIPOS>MOLECULE
CH4
5 4
SMALL
USER_CHARGES


@<TRIPOS>ATOM
1 C 72.738 22.11 42.602 C 0.0 **** 0.0
2 H 72.356 21.753 41.645 H 0.0 **** 0.0
3 H 72.017 22.796 43.047 H 0.0 **** 0.0
4 H 73.684 22.627 42.446 H 0.0 **** 0.0
5 H 72.892 21.262 43.27 H 0.0 **** 0.0
@<TRIPOS>BOND
1 1 2 1
2 1 3 1
3 1 4 1
4 1 5 1
@<TRIPOS>MOLECULE
CH4
5 4
SMALL
USER_CHARGES


@<TRIPOS>ATOM
1 C 10.75 84.169 9.396 C 0.0 **** 0.0
2 H 10.749 84.169 8.306 H 0.0 **** 0.0
3 H 9.985 84.854 9.76 H 0.0 **** 0.0
4 H 11.727 84.489 9.758 H 0.0 **** 0.0
5 H 10.541 83.163 9.759 H 0.0 **** 0.0
@<TRIPOS>BOND
1 1 2 1
2 1 3 1
3 1 4 1
4 1 5 1
@<TRIPOS>MOLECULE
CH4
5 4
SMALL
USER_CHARGES


@<TRIPOS>ATOM
1 C 37.386 46.317 62.503 C 0.0 **** 0.0
2 H 36.82 47.24 62.387 H 0.0 **** 0.0
3 H 37.451 46.06 63.56 H 0.0 **** 0.0
4 H 38.39 46.454 62.1 H 0.0 **** 0.0
5 H 36.885 45.513 61.963 H 0.0 **** 0.0
@<TRIPOS>BOND
1 1 2 1
2 1 3 1
3 1 4 1
4 1 5 1
@<TRIPOS>MOLECULE
CH4
5 4
SMALL
USER_CHARGES


@<TRIPOS>ATOM
1 C 98.071 30.316 75.04 C 0.0 **** 0.0
2 H 98.924 29.99 75.635 H 0.0 **** 0.0
3 H 98.389 31.098 74.35 H 0.0 **** 0.0
4 H 97.296 30.706 75.699 H 0.0 **** 0.0
5 H 97.678 29.471 74.475 H 0.0 **** 0.0
@<TRIPOS>BOND
1 1 2 1
2 1 3 1
3 1 4 1
4 1 5 1
@<TRIPOS>MOLECULE
CH4
5 4
SMALL
USER_CHARGES


@<TRIPOS>ATOM
1 C 32.721 47.822 37.565 C 0.0 **** 0.0
2 H 32.258 47.496 36.633 H 0.0 **** 0.0
3 H 33.791 47.959 37.411 H 0.0 **** 0.0
4 H 32.558 47.067 38.334 H 0.0 **** 0.0
5 H 32.275 48.765 37.882 H 0.0 **** 0.0
@<TRIPOS>BOND
1 1 2 1
2 1 3 1
3 1 4 1
4 1 5 1
@<TRIPOS>MOLECULE
CH4
5 4
SMALL
USER_CHARGES


@<TRIPOS>ATOM
1 C 82.916 73.168 18.8 C 0.0 **** 0.0
2 H 83.882 73.62 18.575 H 0.0 **** 0.0
3 H 82.769 72.291 18.169 H 0.0 **** 0.0
4 H 82.124 73.892 18.607 H 0.0 **** 0.0
5 H 82.889 72.871 19.848 H 0.0 **** 0.0
@<TRIPOS>BOND
1 1 2 1
2 1 3 1
3 1 4 1
4 1 5 1
@<TRIPOS>MOLECULE
CH4
5 4
SMALL
USER_CHARGES


@<TRIPOS>ATOM
1 C 37.741 92.81 72.409 C 0.0 **** 0.0
2 H 37.811 93.642 71.708 H 0.0 **** 0.0
3 H 37.388 91.922 71.884 H 0.0 **** 0.0
4 H 37.043 93.064 73.205 H 0.0 **** 0.0
5 H 38.724 92.612 72.836 H 0.0 **** 0.0
@<TRIPOS>BOND
1 1 2 1
2 1 3 1
3 1 4 1
4 1 5 1
@<TRIPOS>MOLECULE
CH4
5 4
SMALL
USER_CHARGES


@<TRIPOS>ATOM
1 C 87.482 64.604 7.714 C 0.0 **** 0.0
2 H 86.718 63.826 7.732 H 0.0 **** 0.0
3 H 87.93 64.648 6.721 H 0.0 **** 0.0
4 H 88.252 64.374 8.45 H 0.0 **** 0.0
5 H 87.026 65.565 7.951 H 0.0 **** 0.0
@<TRIPOS>BOND
1 1 2 1
2 1 3 1
3 1 4 1
4 1 5 1
@<TRIPOS>MOLECULE
CH4
5 4
SMALL
USER_CHARGES


@<TRIPOS>ATOM
1 C 65.391 57.595 48.323 C 0.0 **** 0.0
2 H 65.273 57.887 49.366 H 0.0 **** 0.0
3 H 65.985 56.683 48.267 H 0.0 **** 0.0
4 H 65.896 58.392 47.777 H 0.0 **** 0.0
5 H 64.41 57.418 47.883 H 0.0 **** 0.0
@<TRIPOS>BOND
1 1 2 1
2 1 3 1
3 1 4 1
4 1 5 1
@<TRIPOS>MOLECULE
CH4
5 4
SMALL
USER_CHARGES


@<TRIPOS>ATOM
1 C 53.148 45.947 40.044 C 0.0 **** 0.0
2 H 53.282 45.702 38.99 H 0.0 **** 0.0
3 H 52.741 46.955 40.133 H 0.0 **** 0.0
4 H 54.11 45.897 40.554 H 0.0 **** 0.0
5 H 52.459 45.235 40.498 H 0.0 **** 0.0
@<TRIPOS>BOND
1 1 2 1
2 1 3 1
3 1 4 1
4 1 5 1
@<TRIPOS>MOLECULE
CH4
5 4
SMALL
USER_CHARGES


@<TRIPOS>ATOM
1 C 8.981 85.54 25.825 C 0.0 **** 0.0
2 H 9.061 85.751 24.759 H 0.0 **** 0.0
3 H 7.986 85.815 26.175 H 0.0 **** 0.0
4 H 9.73 86.117 26.367 H 0.0 **** 0.0
5 H 9.146 84.476 25.998 H 0.0 **** 0.0
@<TRIPOS>BOND
1 1 2 1
2 1 3 1
3 1 4 1
4 1 5 1
@<TRIPOS>MOLECULE
CH4
5 4
SMALL
USER_CHARGES


@<TRIPOS>ATOM
1 C 81.025 54.389 54.62 C 0.0 **** 0.0
2 H 80.443 54.671 53.743 H 0.0 **** 0.0
3 H 81.704 53.577 54.36 H 0.0 **** 0.0
4 H 80.353 54.062 55.413 H 0.0 **** 0.0
5 H 81.601 55.248 54.964 H 0.0 **** 0.0
@<TRIPOS>BOND
1 1 2 1
2 1 3 1
3 1 4 1
4 1 5 1
@<TRIPOS>MOLECULE
CH4
5 4
SMALL
USER_CHARGES


@<TRIPOS>ATOM
1 C 34.95 97.391 4.36 C 0.0 **** 0.0
2 H 35.14 97.252 5.424 H 0.0 **** 0.0
3 H 34.516 98.377 4.195 H 0.0 **** 0.0
4 H 34.256 96.625 4.012 H 0.0 **** 0.0
5 H 35.887 97.309 3.81 H 0.0 **** 0.0
@<TRIPOS>BOND
1 1 2 1
2 1 3 1
3 1 4 1
4 1 5 1
@<TRIPOS>MOLECULE
CH4
5 4
SMALL
USER_CHARGES


@<TRIPOS>ATOM
1 C 31.008 96.886 87.469 C 0.0 **** 0.0
2 H 30.757 97.853 87.032 H 0.0 **** 0.0
3 H 31.495 96.263 86.718 H 0.0 **** 0.0
4 H 30.098 96.396 87.814 H 0.0 **** 0.0
5 H 31.683 97.034 88.312 H 0.0 **** 0.0
@<TRIPOS>BOND
1 1 2 1
2 1 5 1
3 1 3 1
4 1 4 1
@<TRIPOS>MOLECULE
CH4
5 4
SMALL
USER_CHARGES


@<TRIPOS>ATOM
1 C 13.172 16.898 24.764 C 0.0 **** 0.0
2 H 13.106 17.205 25.808 H 0.0 **** 0.0
3 H 13.686 17.669 24.19 H 0.0 **** 0.0
4 H 12.168 16.754 24.363 H 0.0 **** 0.0
5 H 13.728 15.963 24.695 H 0.0 **** 0.0
@<TRIPOS>BOND
1 1 3 1
2 1 4 1
3 1 5 1
4 1 2 1
@<TRIPOS>MOLECULE
CH4
5 4
SMALL
USER_CHARGES


@<TRIPOS>ATOM
1 C 9.332 57.656 9.636 C 0.0 **** 0.0
2 H 8.567 58.307 10.058 H 0.0 **** 0.0
3 H 9.959 57.265 10.438 H 0.0 **** 0.0
4 H 9.947 58.224 8.938 H 0.0 **** 0.0
5 H 8.856 56.829 9.11 H 0.0 **** 0.0
@<TRIPOS>BOND
1 1 2 1
2 1 3 1
3 1 4 1
4 1 5 1
@<TRIPOS>MOLECULE
CH4
5 4
SMALL
USER_CHARGES


@<TRIPOS>ATOM
1 C 25.964 55.098 52.311 C 0.0 **** 0.0
2 H 26.779 55.751 52.622 H 0.0 **** 0.0
3 H 26.315 54.066 52.289 H 0.0 **** 0.0
4 H 25.626 55.388 51.316 H 0.0 **** 0.0
5 H 25.138 55.187 53.016 H 0.0 **** 0.0
@<TRIPOS>BOND
1 1 2 1
2 1 3 1
3 1 4 1
4 1 5 1
@<TRIPOS>MOLECULE
CH4
5 4
SMALL
USER_CHARGES


@<TRIPOS>ATOM
1 C 21.264 21.339 7.555 C 0.0 **** 0.0
2 H 21.204 21.209 6.474 H 0.0 **** 0.0
3 H 21.48 22.383 7.783 H 0.0 **** 0.0
4 H 22.059 20.708 7.953 H 0.0 **** 0.0
5 H 20.314 21.057 8.008 H 0.0 **** 0.0
@<TRIPOS>BOND
1 1 2 1
2 1 3 1
3 1 4 1
4 1 5 1
@<TRIPOS>MOLECULE
CH4
5 4
SMALL
USER_CHARGES


@<TRIPOS>ATOM
1 C 37.417 36.926 57.967 C 0.0 **** 0.0
2 H 38.072 36.207 57.475 H 0.0 **** 0.0
3 H 36.455 36.457 58.177 H 0.0 **** 0.0
4 H 37.268 37.787 57.315 H 0.0 **** 0.0
5 H 37.874 37.253 58.901 H 0.0 **** 0.0
@<TRIPOS>BOND
1 1 2 1
2 1 3 1
3 1 4 1
4 1 5 1
@<TRIPOS>MOLECULE
CH4
5 4
SMALL
USER_CHARGES


@<TRIPOS>ATOM
1 C 57.427 61.832 40.455 C 0.0 **** 0.0
2 H 57.365 61.588 41.515 H 0.0 **** 0.0
3 H 58.246 61.274 40.001 H 0.0 **** 0.0
4 H 57.607 62.901 40.339 H 0.0 **** 0.0
5 H 56.49 61.566 39.966 H 0.0 **** 0.0
@<TRIPOS>BOND
1 1 2 1
2 1 3 1
3 1 4 1
4 1 5 1
@<TRIPOS>MOLECULE
CH4
5 4
SMALL
USER_CHARGES


@<TRIPOS>ATOM
1 C 33.484 81.468 34.291 C 0.0 **** 0.0
2 H 33.089 80.48 34.53 H 0.0 **** 0.0
3 H 34.534 81.38 34.009 H 0.0 **** 0.0
4 H 33.395 82.115 35.164 H 0.0 **** 0.0
5 H 32.919 81.894 33.463 H 0.0 **** 0.0
@<TRIPOS>BOND
1 1 2 1
2 1 3 1
3 1 4 1
4 1 5 1
@<TRIPOS>MOLECULE
CH4
5 4
SMALL
USER_CHARGES


@<TRIPOS>ATOM
1 C 30.975 77.408 65.897 C 0.0 **** 0.0
2 H 30.968 77.347 66.985 H 0.0 **** 0.0
3 H 30.278 78.181 65.572 H 0.0 **** 0.0
4 H 30.675 76.448 65.478 H 0.0 **** 0.0
5 H 31.98 77.656 65.554 H 0.0 **** 0.0
@<TRIPOS>BOND
1 1 2 1
2 1 3 1
3 1 4 1
4 1 5 1
@<TRIPOS>MOLECULE
CH4
5 4
SMALL
USER_CHARGES


@<TRIPOS>ATOM
1 C 1.821 69.074 20.273 C 0.0 **** 0.0
2 H 2.214 69.95 19.758 H 0.0 **** 0.0
3 H 2.205 69.049 21.293 H 0.0 **** 0.0
4 H 2.133 68.172 19.746 H 0.0 **** 0.0
5 H 0.732 69.123 20.295 H 0.0 **** 0.0
@<TRIPOS>BOND
1 1 2 1
2 1 3 1
3 1 4 1
4 1 5 1
@<TRIPOS>MOLECULE
CH4
5 4
SMALL
USER_CHARGES


@<TRIPOS>ATOM
1 C 15.814 70.664 92.381 C 0.0 **** 0.0
2 H 15.163 70.635 93.255 H 0.0 **** 0.0
3 H 16.613 69.933 92.5 H 0.0 **** 0.0
4 H 16.244 71.661 92.282 H 0.0 **** 0.0
5 H 15.234 70.429 91.489 H 0.0 **** 0.0
@<TRIPOS>BOND
1 1 2 1
2 1 3 1
3 1 4 1
4 1 5 1
@<TRIPOS>MOLECULE
CH4
5 4
SMALL
USER_CHARGES


@<TRIPOS>ATOM
1 C 9.472 45.629 86.379 C 0.0 **** 0.0
2 H 10.028 46.495 86.74 H 0.0 **** 0.0
3 H 10.128 45.004 85.773 H 0.0 **** 0.0
4 H 8.63 45.965 85.775 H 0.0 **** 0.0
5 H 9.104 45.054 87.229 H 0.0 **** 0.0
@<TRIPOS>BOND
1 1 2 1
2 1 3 1
3 1 4 1
4 1 5 1
@<TRIPOS>MOLECULE
CH4
5 4
SMALL
USER_CHARGES


@<TRIPOS>ATOM
1 C 10.782 13.171 34.277 C 0.0 **** 0.0
2 H 10.213 13.832 33.623 H 0.0 **** 0.0
3 H 11.658 12.8 33.745 H 0.0 **** 0.0
4 H 10.155 12.331 34.577 H 0.0 **** 0.0
5 H 11.1 13.722 35.162 H 0.0 **** 0.0
@<TRIPOS>BOND
1 1 2 1
2 1 3 1
3 1 4 1
4 1 5 1
@<TRIPOS>MOLECULE
CH4
5 4
SMALL
USER_CHARGES


@<TRIPOS>ATOM
1 C 79.568 85.144 58.561 C 0.0 **** 0.0
2 H 79.001 85.925 59.066 H 0.0 **** 0.0
3 H 79.438 84.2 59.091 H 0.0 **** 0.0
4 H 80.625 85.411 58.55 H 0.0 **** 0.0
5 H 79.209 85.038 57.537 H 0.0 **** 0.0
@<TRIPOS>BOND
1 1 2 1
2 1 3 1
3 1 4 1
4 1 5 1
@<TRIPOS>MOLECULE
CH4
5 4
SMALL
USER_CHARGES


@<TRIPOS>ATOM
1 C 44.035 28.167 71.703 C 0.0 **** 0.0
2 H 42.991 27.855 71.675 H 0.0 **** 0.0
3 H 44.47 28.07 70.708 H 0.0 **** 0.0
4 H 44.584 27.538 72.403 H 0.0 **** 0.0
5 H 44.094 29.207 72.026 H 0.0 **** 0.0
@<TRIPOS>BOND
1 1 2 1
2 1 3 1
3 1 4 1
4 1 5 1
@<TRIPOS>MOLECULE
CH4
5 4
SMALL
USER_CHARGES


@<TRIPOS>ATOM
1 C 37.691 0.884 11.8 C 0.0 **** 0.0
2 H 38.427 0.413 12.451 H 0.0 **** 0.0
3 H 36.694 0.532 12.064 H 0.0 **** 0.0
4 H 37.906 0.627 10.763 H 0.0 **** 0.0
5 H 37.739 1.966 11.923 H 0.0 **** 0.0
@<TRIPOS>BOND
1 1 2 1
2 1 3 1
3 1 4 1
4 1 5 1
@<TRIPOS>MOLECULE
CH4
5 4
SMALL
USER_CHARGES


@<TRIPOS>ATOM
1 C 38.351 84.363 5.908 C 0.0 **** 0.0
2 H 37.526 84.966 5.526 H 0.0 **** 0.0
3 H 38.446 83.457 5.309 H 0.0 **** 0.0
4 H 38.154 84.095 6.945 H 0.0 **** 0.0
5 H 39.276 84.937 5.85 H 0.0 **** 0.0
@<TRIPOS>BOND
1 1 2 1
2 1 3 1
3 1 4 1
4 1 5 1
@<TRIPOS>MOLECULE
CH4
5 4
SMALL
USER_CHARGES


@<TRIPOS>ATOM
1 C 61.549 50.852 70.715 C 0.0 **** 0.0
2 H 61.046 50.039 70.19 H 0.0 **** 0.0
3 H 62.492 51.077 70.215 H 0.0 **** 0.0
4 H 61.746 50.552 71.744 H 0.0 **** 0.0
5 H 60.913 51.737 70.709 H 0.0 **** 0.0
@<TRIPOS>BOND
1 1 2 1
2 1 3 1
3 1 4 1
4 1 5 1
@<TRIPOS>MOLECULE
CH4
5 4
SMALL
USER_CHARGES


@<TRIPOS>ATOM
1 C 20.009 70.398 90.617 C 0.0 **** 0.0
2 H 19.873 70.988 91.523 H 0.0 **** 0.0
3 H 19.434 69.475 90.695 H 0.0 **** 0.0
4 H 21.066 70.159 90.496 H 0.0 **** 0.0
5 H 19.665 70.971 89.756 H 0.0 **** 0.0
@<TRIPOS>BOND
1 1 2 1
2 1 3 1
3 1 4 1
4 1 5 1
@<TRIPOS>MOLECULE
CH4
5 4
SMALL
USER_CHARGES


@<TRIPOS>ATOM
1 C 28.602 89.103 47.356 C 0.0 **** 0.0
2 H 28.204 89.973 47.878 H 0.0 **** 0.0
3 H 28.793 88.304 48.073 H 0.0 **** 0.0
4 H 29.532 89.373 46.856 H 0.0 **** 0.0
5 H 27.877 88.762 46.616 H 0.0 **** 0.0
@<TRIPOS>BOND
1 1 2 1
2 1 3 1
3 1 4 1
4 1 5 1
@<TRIPOS>MOLECULE
CH4
5 4
SMALL
USER_CHARGES


@<TRIPOS>ATOM
1 C 1.481 19.05 43.282 C 0.0 **** 0.0
2 H 1.441 19.196 44.361 H 0.0 **** 0.0
3 H 1.119 19.948 42.781 H 0.0 **** 0.0
4 H 0.854 18.202 43.006 H 0.0 **** 0.0
5 H 2.51 18.855 42.98 H 0.0 **** 0.0
@<TRIPOS>BOND
1 1 2 1
2 1 3 1
3 1 4 1
4 1 5 1
@<TRIPOS>MOLECULE
CH4
5 4
SMALL
USER_CHARGES


@<TRIPOS>ATOM
1 C 78.711 81.182 80.342 C 0.0 **** 0.0
2 H 78.741 81.552 81.367 H 0.0 **** 0.0
3 H 79.55 80.507 80.175 H 0.0 **** 0.0
4 H 78.775 82.021 79.651 H 0.0 **** 0.0
5 H 77.775 80.647 80.178 H 0.0 **** 0.0
@<TRIPOS>BOND
1 1 2 1
2 1 3 1
3 1 4 1
4 1 5 1
@<TRIPOS>MOLECULE
CH4
5 4
SMALL
USER_CHARGES


@<TRIPOS>ATOM
1 C 50.574 42.983 29.454 C 0.0 **** 0.0
2 H 50.138 42.418 30.278 H 0.0 **** 0.0
3 H 50.137 42.646 28.513 H 0.0 **** 0.0
4 H 51.652 42.821 29.433 H 0.0 **** 0.0
5 H 50.368 44.044 29.591 H 0.0 **** 0.0
@<TRIPOS>BOND
1 1 2 1
2 1 3 1
3 1 4 1
4 1 5 1
@<TRIPOS>MOLECULE
CH4
5 4
SMALL
USER_CHARGES


@<TRIPOS>ATOM
1 C 76.637 90.436 30.196 C 0.0 **** 0.0
2 H 76.218 90.287 29.201 H 0.0 **** 0.0
3 H 75.831 90.473 30.928 H 0.0 **** 0.0
4 H 77.193 91.374 30.219 H 0.0 **** 0.0
5 H 77.308 89.61 30.434 H 0.0 **** 0.0
@<TRIPOS>BOND
1 1 2 1
2 1 3 1
3 1 4 1
4 1 5 1
@<TRIPOS>MOLECULE
CH4
5 4
SMALL
USER_CHARGES


@<TRIPOS>ATOM
1 C 52.732 3.875 1.017 C 0.0 **** 0.0
2 H 52.573 3.55 -0.011 H 0.0 **** 0.0
3 H 52.42 3.084 1.7 H 0.0 **** 0.0
4 H 52.146 4.773 1.209 H 0.0 **** 0.0
5 H 53.789 4.091 1.17 H 0.0 **** 0.0
@<TRIPOS>BOND
1 1 2 1
2 1 3 1
3 1 4 1
4 1 5 1
@<TRIPOS>MOLECULE
CH4
5 4
SMALL
USER_CHARGES


@<TRIPOS>ATOM
1 C 9.449 32.658 20.779 C 0.0 **** 0.0
2 H 9.384 31.599 21.027 H 0.0 **** 0.0
3 H 10.494 32.97 20.791 H 0.0 **** 0.0
4 H 8.887 33.238 21.511 H 0.0 **** 0.0
5 H 9.032 32.824 19.785 H 0.0 **** 0.0
@<TRIPOS>BOND
1 1 2 1
2 1 3 1
3 1 4 1
4 1 5 1
@<TRIPOS>MOLECULE
CH4
5 4
SMALL
USER_CHARGES


@<TRIPOS>ATOM
1 C 25.356 98.13 30.925 C 0.0 **** 0.0
2 H 24.808 98.673 30.155 H 0.0 **** 0.0
3 H 25.811 97.241 30.487 H 0.0 **** 0.0
4 H 24.67 97.833 31.718 H 0.0 **** 0.0
5 H 26.134 98.771 31.338 H 0.0 **** 0.0
@<TRIPOS>BOND
1 1 4 1
2 1 5 1
3 1 3 1
4 1 2 1
@<TRIPOS>MOLECULE
CH4
5 4
SMALL
USER_CHARGES


@<TRIPOS>ATOM
1 C 30.728 91.693 32.545 C 0.0 **** 0.0
2 H 30.386 91.018 33.329 H 0.0 **** 0.0
3 H 30.894 91.129 31.627 H 0.0 **** 0.0
4 H 31.659 92.168 32.854 H 0.0 **** 0.0
5 H 29.971 92.458 32.369 H 0.0 **** 0.0
@<TRIPOS>BOND
1 1 2 1
2 1 3 1
3 1 4 1
4 1 5 1
@<TRIPOS>MOLECULE
CH4
5 4
SMALL
USER_CHARGES


@<TRIPOS>ATOM
1 C 63.95 60.755 65.752 C 0.0 **** 0.0
2 H 63.023 60.361 66.166 H 0.0 **** 0.0
3 H 63.888 61.842 65.693 H 0.0 **** 0.0
4 H 64.106 60.346 64.754 H 0.0 **** 0.0
5 H 64.784 60.473 66.394 H 0.0 **** 0.0
@<TRIPOS>BOND
1 1 2 1
2 1 3 1
3 1 4 1
4 1 5 1
@<TRIPOS>MOLECULE
CH4
5 4
SMALL
USER_CHARGES


@<TRIPOS>ATOM
1 C 73.327 48.346 30.538 C 0.0 **** 0.0
2 H 73.366 47.352 30.092 H 0.0 **** 0.0
3 H 73.101 49.081 29.765 H 0.0 **** 0.0
4 H 74.29 48.579 30.991 H 0.0 **** 0.0
5 H 72.55 48.371 31.302 H 0.0 **** 0.0
@<TRIPOS>BOND
1 1 2 1
2 1 3 1
3 1 4 1
4 1 5 1
@<TRIPOS>MOLECULE
CH4
5 4
SMALL
USER_CHARGES


@<TRIPOS>ATOM
1 C 89.283 90.893 75.684 C 0.0 **** 0.0
2 H 89.639 91.221 74.708 H 0.0 **** 0.0
3 H 88.78 89.931 75.583 H 0.0 **** 0.0
4 H 88.584 91.629 76.081 H 0.0 **** 0.0
5 H 90.129 90.791 76.364 H 0.0 **** 0.0
@<TRIPOS>BOND
1 1 2 1
2 1 3 1
3 1 4 1
4 1 5 1
@<TRIPOS>MOLECULE
CH4
5 4
SMALL
USER_CHARGES


@<TRIPOS>ATOM
1 C 51.793 84.686 75.424 C 0.0 **** 0.0
2 H 51.824 84.665 76.513 H 0.0 **** 0.0
3 H 51.179 85.524 75.094 H 0.0 **** 0.0
4 H 51.364 83.754 75.055 H 0.0 **** 0.0
5 H 52.804 84.8 75.034 H 0.0 **** 0.0
@<TRIPOS>BOND
1 1 2 1
2 1 3 1
3 1 4 1
4 1 5 1
@<TRIPOS>MOLECULE
CH4
5 4
SMALL
USER_CHARGES


@<TRIPOS>ATOM
1 C 67.042 32.915 86.871 C 0.0 **** 0.0
2 H 66.968 32.835 87.955 H 0.0 **** 0.0
3 H 66.22 33.525 86.495 H 0.0 **** 0.0
4 H 66.989 31.92 86.429 H 0.0 **** 0.0
5 H 67.992 33.38 86.605 H 0.0 **** 0.0
@<TRIPOS>BOND
1 1 2 1
2 1 3 1
3 1 4 1
4 1 5 1
@<TRIPOS>MOLECULE
CH4
5 4
SMALL
USER_CHARGES


@<TRIPOS>ATOM
1 C 58.525 88.909 98.135 C 0.0 **** 0.0
2 H 59.157 89.567 97.539 H 0.0 **** 0.0
3 H 58.214 88.058 97.528 H 0.0 **** 0.0
4 H 57.645 89.456 98.471 H 0.0 **** 0.0
5 H 59.085 88.554 99.0 H 0.0 **** 0.0
@<TRIPOS>BOND
1 1 2 1
2 1 3 1
3 1 4 1
4 1 5 1
@<TRIPOS>MOLECULE
CH4
5 4
SMALL
USER_CHARGES


@<TRIPOS>ATOM
1 C 76.502 70.908 52.696 C 0.0 **** 0.0
2 H 76.439 70.625 51.646 H 0.0 **** 0.0
3 H 75.824 70.286 53.281 H 0.0 **** 0.0
4 H 76.223 71.955 52.808 H 0.0 **** 0.0
5 H 77.523 70.764 53.05 H 0.0 **** 0.0
@<TRIPOS>BOND
1 1 3 1
2 1 2 1
3 1 4 1
4 1 5 1
@<TRIPOS>MOLECULE
CH4
5 4
SMALL
USER_CHARGES


@<TRIPOS>ATOM
1 C 94.404 54.072 5.059 C 0.0 **** 0.0
2 H 94.31 54.352 4.01 H 0.0 **** 0.0
3 H 94.385 52.985 5.147 H 0.0 **** 0.0
4 H 93.576 54.497 5.625 H 0.0 **** 0.0
5 H 95.347 54.452 5.453 H 0.0 **** 0.0
@<TRIPOS>BOND
1 1 2 1
2 1 3 1
3 1 4 1
4 1 5 1
@<TRIPOS>MOLECULE
CH4
5 4
SMALL
USER_CHARGES


@<TRIPOS>ATOM
1 C 36.698 87.938 80.847 C 0.0 **** 0.0
2 H 36.04 87.177 80.429 H 0.0 **** 0.0
3 H 37.537 87.456 81.35 H 0.0 **** 0.0
4 H 36.143 88.543 81.564 H 0.0 **** 0.0
5 H 37.072 88.575 80.046 H 0.0 **** 0.0
@<TRIPOS>BOND
1 1 2 1
2 1 3 1
3 1 4 1
4 1 5 1
@<TRIPOS>MOLECULE
CH4
5 4
SMALL
USER_CHARGES


@<TRIPOS>ATOM
1 C 10.152 25.264 67.394 C 0.0 **** 0.0
2 H 10.375 24.205 67.523 H 0.0 **** 0.0
3 H 9.608 25.409 66.461 H 0.0 **** 0.0
4 H 11.083 25.83 67.365 H 0.0 **** 0.0
5 H 9.542 25.61 68.229 H 0.0 **** 0.0
@<TRIPOS>BOND
1 1 2 1
2 1 3 1
3 1 4 1
4 1 5 1
@<TRIPOS>MOLECULE
CH4
5 4
SMALL
USER_CHARGES


@<TRIPOS>ATOM
1 C 68.035 94.392 93.095 C 0.0 **** 0.0
2 H 68.26 94.512 92.035 H 0.0 **** 0.0
3 H 67.087 93.864 93.207 H 0.0 **** 0.0
4 H 67.963 95.372 93.565 H 0.0 **** 0.0
5 H 68.829 93.817 93.571 H 0.0 **** 0.0
@<TRIPOS>BOND
1 1 2 1
2 1 3 1
3 1 4 1
4 1 5 1
@<TRIPOS>MOLECULE
CH4
5 4
SMALL
USER_CHARGES


@<TRIPOS>ATOM
1 C 39.681 81.564 92.546 C 0.0 **** 0.0
2 H 39.18 81.848 91.62 H 0.0 **** 0.0
3 H 40.309 82.387 92.887 H 0.0 **** 0.0
4 H 40.299 80.684 92.368 H 0.0 **** 0.0
5 H 38.934 81.336 93.306 H 0.0 **** 0.0
@<TRIPOS>BOND
1 1 2 1
2 1 3 1
3 1 4 1
4 1 5 1
@<TRIPOS>MOLECULE
CH4
5 4
SMALL
USER_CHARGES


@<TRIPOS>ATOM
1 C 31.742 40.732 24.047 C 0.0 **** 0.0
2 H 32.774 40.396 24.149 H 0.0 **** 0.0
3 H 31.147 39.943 23.586 H 0.0 **** 0.0
4 H 31.711 41.624 23.422 H 0.0 **** 0.0
5 H 31.337 40.964 25.032 H 0.0 **** 0.0
@<TRIPOS>BOND
1 1 2 1
2 1 3 1
3 1 4 1
4 1 5 1
@<TRIPOS>MOLECULE
CH4
5 4
SMALL
USER_CHARGES


@<TRIPOS>ATOM
1 C 61.423 78.723 26.585 C 0.0 **** 0.0
2 H 62.136 78.74 27.409 H 0.0 **** 0.0
3 H 61.762 78.017 25.827 H 0.0 **** 0.0
4 H 61.35 79.719 26.148 H 0.0 **** 0.0
5 H 60.446 78.417 26.957 H 0.0 **** 0.0
@<TRIPOS>BOND
1 1 2 1
2 1 3 1
3 1 4 1
4 1 5 1
@<TRIPOS>MOLECULE
CH4
5 4
SMALL
USER_CHARGES


@<TRIPOS>ATOM
1 C 38.635 43.84 45.476 C 0.0 **** 0.0
2 H 37.967 43.466 46.252 H 0.0 **** 0.0
3 H 38.387 44.878 45.253 H 0.0 **** 0.0
4 H 38.519 43.236 44.576 H 0.0 **** 0.0
5 H 39.666 43.779 45.824 H 0.0 **** 0.0
@<TRIPOS>BOND
1 1 2 1
2 1 3 1
3 1 4 1
4 1 5 1
@<TRIPOS>MOLECULE
CH4
5 4
SMALL
USER_CHARGES


@<TRIPOS>ATOM
1 C 40.488 87.797 89.56 C 0.0 **** 0.0
2 H 40.767 87.115 90.364 H 0.0 **** 0.0
3 H 40.611 88.826 89.899 H 0.0 **** 0.0
4 H 39.448 87.626 89.284 H 0.0 **** 0.0
5 H 41.128 87.619 88.695 H 0.0 **** 0.0
@<TRIPOS>BOND
1 1 2 1
2 1 3 1
3 1 4 1
4 1 5 1
@<TRIPOS>MOLECULE
CH4
5 4
SMALL
USER_CHARGES


@<TRIPOS>ATOM
1 C 65.184 82.61 32.17 C 0.0 **** 0.0
2 H 65.19 82.694 31.083 H 0.0 **** 0.0
3 H 66.035 82.01 32.492 H 0.0 **** 0.0
4 H 64.259 82.131 32.492 H 0.0 **** 0.0
5 H 65.252 83.604 32.612 H 0.0 **** 0.0
@<TRIPOS>BOND
1 1 2 1
2 1 3 1
3 1 4 1
4 1 5 1
@<TRIPOS>MOLECULE
CH4
5 4
SMALL
USER_CHARGES


@<TRIPOS>ATOM
1 C 16.609 28.21 30.45 C 0.0 **** 0.0
2 H 16.927 29.229 30.232 H 0.0 **** 0.0
3 H 15.521 28.172 30.503 H 0.0 **** 0.0
4 H 17.031 27.894 31.405 H 0.0 **** 0.0
5 H 16.958 27.544 29.661 H 0.0 **** 0.0
@<TRIPOS>BOND
1 1 2 1
2 1 3 1
3 1 4 1
4 1 5 1
@<TRIPOS>MOLECULE
CH4
5 4
SMALL
USER_CHARGES


@<TRIPOS>ATOM
1 C 12.952 71.294 52.67 C 0.0 **** 0.0
2 H 12.888 70.849 51.677 H 0.0 **** 0.0
3 H 12.801 70.522 53.424 H 0.0 **** 0.0
4 H 12.184 72.06 52.774 H 0.0 **** 0.0
5 H 13.935 71.746 52.802 H 0.0 **** 0.0
@<TRIPOS>BOND
1 1 2 1
2 1 3 1
3 1 4 1
4 1 5 1
@<TRIPOS>MOLECULE
CH4
5 4
SMALL
USER_CHARGES


@<TRIPOS>ATOM
1 C 70.304 57.901 59.422 C 0.0 **** 0.0
2 H 70.201 58.281 60.439 H 0.0 **** 0.0
3 H 69.808 58.581 58.729 H 0.0 **** 0.0
4 H 69.846 56.915 59.355 H 0.0 **** 0.0
5 H 71.361 57.829 59.167 H 0.0 **** 0.0
@<TRIPOS>BOND
1 1 2 1
2 1 3 1
3 1 4 1
4 1 5 1
@<TRIPOS>MOLECULE
CH4
5 4
SMALL
USER_CHARGES


@<TRIPOS>ATOM
1 C 78.625 35.486 2.062 C 0.0 **** 0.0
2 H 78.425 35.468 0.991 H 0.0 **** 0.0
3 H 79.353 34.714 2.309 H 0.0 **** 0.0
4 H 77.699 35.3 2.607 H 0.0 **** 0.0
5 H 79.021 36.462 2.341 H 0.0 **** 0.0
@<TRIPOS>BOND
1 1 2 1
2 1 3 1
3 1 4 1
4 1 5 1
@<TRIPOS>MOLECULE
CH4
5 4
SMALL
USER_CHARGES


@<TRIPOS>ATOM
1 C 6.088 56.303 5.807 C 0.0 **** 0.0
2 H 6.022 56.037 6.862 H 0.0 **** 0.0
3 H 7.077 56.044 5.429 H 0.0 **** 0.0
4 H 5.924 57.375 5.692 H 0.0 **** 0.0
5 H 5.33 55.757 5.246 H 0.0 **** 0.0
@<TRIPOS>BOND
1 1 2 1
2 1 3 1
3 1 4 1
4 1 5 1
@<TRIPOS>MOLECULE
CH4
5 4
SMALL
USER_CHARGES


@<TRIPOS>ATOM
1 C 16.445 92.38 91.644 C 0.0 **** 0.0
2 H 16.451 91.29 91.626 H 0.0 **** 0.0
3 H 16.386 92.725 92.676 H 0.0 **** 0.0
4 H 15.584 92.748 91.087 H 0.0 **** 0.0
5 H 17.361 92.755 91.187 H 0.0 **** 0.0
@<TRIPOS>BOND
1 1 2 1
2 1 3 1
3 1 4 1
4 1 5 1
@<TRIPOS>MOLECULE
CH4
5 4
SMALL
USER_CHARGES


@<TRIPOS>ATOM
1 C 11.196 26.08 36.777 C 0.0 **** 0.0
2 H 11.032 26.206 35.707 H 0.0 **** 0.0
3 H 12.259 26.182 36.997 H 0.0 **** 0.0
4 H 10.854 25.092 37.083 H 0.0 **** 0.0
5 H 10.638 26.842 37.322 H 0.0 **** 0.0
@<TRIPOS>BOND
1 1 2 1
2 1 3 1
3 1 4 1
4 1 5 1
@<TRIPOS>MOLECULE
CH4
5 4
SMALL
USER_CHARGES


@<TRIPOS>ATOM
1 C 54.833 53.436 24.105 C 0.0 **** 0.0
2 H 55.686 52.76 24.16 H 0.0 **** 0.0
3 H 55.171 54.42 23.779 H 0.0 **** 0.0
4 H 54.371 53.518 25.089 H 0.0 **** 0.0
5 H 54.106 53.047 23.393 H 0.0 **** 0.0
@<TRIPOS>BOND
1 1 2 1
2 1 3 1
3 1 4 1
4 1 5 1
@<TRIPOS>MOLECULE
CH4
5 4
SMALL
USER_CHARGES


@<TRIPOS>ATOM
1 C 73.445 27.878 59.967 C 0.0 **** 0.0
2 H 73.939 27.907 58.996 H 0.0 **** 0.0
3 H 74.081 28.357 60.713 H 0.0 **** 0.0
4 H 73.268 26.841 60.253 H 0.0 **** 0.0
5 H 72.494 28.406 59.907 H 0.0 **** 0.0
@<TRIPOS>BOND
1 1 2 1
2 1 3 1
3 1 4 1
4 1 5 1
@<TRIPOS>MOLECULE
CH4
5 4
SMALL
USER_CHARGES


@<TRIPOS>ATOM
1 C 74.595 78.56 30.155 C 0.0 **** 0.0
2 H 74.596 78.299 31.213 H 0.0 **** 0.0
3 H 73.95 79.424 29.994 H 0.0 **** 0.0
4 H 74.226 77.716 29.572 H 0.0 **** 0.0
5 H 75.611 78.802 29.84 H 0.0 **** 0.0
@<TRIPOS>BOND
1 1 2 1
2 1 3 1
3 1 4 1
4 1 5 1
@<TRIPOS>MOLECULE
CH4
5 4
SMALL
USER_CHARGES


@<TRIPOS>ATOM
1 C 50.17 63.597 56.032 C 0.0 **** 0.0
2 H 49.129 63.725 56.329 H 0.0 **** 0.0
3 H 50.455 64.403 55.355 H 0.0 **** 0.0
4 H 50.288 62.639 55.527 H 0.0 **** 0.0
5 H 50.806 63.623 56.917 H 0.0 **** 0.0
@<TRIPOS>BOND
1 1 2 1
2 1 3 1
3 1 4 1
4 1 5 1
@<TRIPOS>MOLECULE
CH4
5 4
SMALL
USER_CHARGES


@<TRIPOS>ATOM
1 C 93.052 41.12 44.746 C 0.0 **** 0.0
2 H 92.675 41.632 45.632 H 0.0 **** 0.0
3 H 93.986 40.613 44.99 H 0.0 **** 0.0
4 H 93.229 41.847 43.954 H 0.0 **** 0.0
5 H 92.318 40.388 44.41 H 0.0 **** 0.0
@<TRIPOS>BOND
1 1 2 1
2 1 3 1
3 1 4 1
4 1 5 1
@<TRIPOS>MOLECULE
CH4
5 4
SMALL
USER_CHARGES


@<TRIPOS>ATOM
1 C 25.044 38.08 14.154 C 0.0 **** 0.0
2 H 24.374 37.347 14.604 H 0.0 **** 0.0
3 H 26.072 37.85 14.432 H 0.0 **** 0.0
4 H 24.784 39.076 14.511 H 0.0 **** 0.0
5 H 24.944 38.045 13.069 H 0.0 **** 0.0
@<TRIPOS>BOND
1 1 2 1
2 1 3 1
3 1 4 1
4 1 5 1
@<TRIPOS>MOLECULE
CH4
5 4
SMALL
USER_CHARGES


@<TRIPOS>ATOM
1 C 70.179 81.847 87.367 C 0.0 **** 0.0
2 H 69.883 82.547 86.586 H 0.0 **** 0.0
3 H 70.396 82.396 88.283 H 0.0 **** 0.0
4 H 71.069 81.303 87.049 H 0.0 **** 0.0
5 H 69.368 81.142 87.549 H 0.0 **** 0.0
@<TRIPOS>BOND
1 1 2 1
2 1 3 1
3 1 4 1
4 1 5 1
@<TRIPOS>MOLECULE
CH4
5 4
SMALL
USER_CHARGES


@<TRIPOS>ATOM
1 C 12.355 89.053 62.471 C 0.0 **** 0.0
2 H 11.827 89.019 61.518 H 0.0 **** 0.0
3 H 12.193 88.118 63.009 H 0.0 **** 0.0
4 H 11.979 89.885 63.066 H 0.0 **** 0.0
5 H 13.422 89.188 62.29 H 0.0 **** 0.0
@<TRIPOS>BOND
1 1 2 1
2 1 3 1
3 1 4 1
4 1 5 1
@<TRIPOS>MOLECULE
CH4
5 4
SMALL
USER_CHARGES


@<TRIPOS>ATOM
1 C 81.651 82.191 46.609 C 0.0 **** 0.0
2 H 80.997 82.184 47.481 H 0.0 **** 0.0
3 H 82.419 81.426 46.726 H 0.0 **** 0.0
4 H 82.122 83.169 46.516 H 0.0 **** 0.0
5 H 81.065 81.984 45.714 H 0.0 **** 0.0
@<TRIPOS>BOND
1 1 2 1
2 1 3 1
3 1 4 1
4 1 5 1
@<TRIPOS>MOLECULE
CH4
5 4
SMALL
USER_CHARGES


@<TRIPOS>ATOM
1 C 14.923 13.997 44.319 C 0.0 **** 0.0
2 H 14.079 13.636 44.907 H 0.0 **** 0.0
3 H 14.77 13.741 43.27 H 0.0 **** 0.0
4 H 15.841 13.531 44.677 H 0.0 **** 0.0
5 H 15.0 15.079 44.422 H 0.0 **** 0.0
@<TRIPOS>BOND
1 1 2 1
2 1 3 1
3 1 4 1
4 1 5 1
@<TRIPOS>MOLECULE
CH4
5 4
SMALL
USER_CHARGES


@<TRIPOS>ATOM
1 C 45.599 26.481 23.994 C 0.0 **** 0.0
2 H 45.538 26.567 22.91 H 0.0 **** 0.0
3 H 44.703 25.987 24.37 H 0.0 **** 0.0
4 H 45.679 27.475 24.434 H 0.0 **** 0.0
5 H 46.478 25.894 24.263 H 0.0 **** 0.0
@<TRIPOS>BOND
1 1 2 1
2 1 3 1
3 1 4 1
4 1 5 1
@<TRIPOS>MOLECULE
CH4
5 4
SMALL
USER_CHARGES


@<TRIPOS>ATOM
1 C 34.786 12.794 95.031 C 0.0 **** 0.0
2 H 35.843 12.832 95.296 H 0.0 **** 0.0
3 H 34.285 12.043 95.642 H 0.0 **** 0.0
4 H 34.685 12.533 93.978 H 0.0 **** 0.0
5 H 34.332 13.769 95.209 H 0.0 **** 0.0
@<TRIPOS>BOND
1 1 2 1
2 1 3 1
3 1 4 1
4 1 5 1
@<TRIPOS>MOLECULE
CH4
5 4
SMALL
USER_CHARGES


@<TRIPOS>ATOM
1 C 28.38 4.597 12.648 C 0.0 **** 0.0
2 H 28.734 3.958 13.457 H 0.0 **** 0.0
3 H 28.384 5.636 12.978 H 0.0 **** 0.0
4 H 27.366 4.307 12.373 H 0.0 **** 0.0
5 H 29.036 4.487 11.785 H 0.0 **** 0.0
@<TRIPOS>BOND
1 1 2 1
2 1 3 1
3 1 4 1
4 1 5 1
@<TRIPOS>MOLECULE
CH4
5 4
SMALL
USER_CHARGES


@<TRIPOS>ATOM
1 C 75.391 85.053 23.16 C 0.0 **** 0.0
2 H 75.287 84.403 24.028 H 0.0 **** 0.0
3 H 76.267 84.755 22.585 H 0.0 **** 0.0
4 H 75.507 86.085 23.492 H 0.0 **** 0.0
5 H 74.501 84.97 22.536 H 0.0 **** 0.0
@<TRIPOS>BOND
1 1 2 1
2 1 3 1
3 1 4 1
4 1 5 1
@<TRIPOS>MOLECULE
CH4
5 4
SMALL
USER_CHARGES


@<TRIPOS>ATOM
1 C 21.302 32.121 38.802 C 0.0 **** 0.0
2 H 22.154 32.503 38.239 H 0.0 **** 0.0
3 H 21.415 32.383 39.855 H 0.0 **** 0.0
4 H 21.255 31.037 38.7 H 0.0 **** 0.0
5 H 20.383 32.562 38.415 H 0.0 **** 0.0
@<TRIPOS>BOND
1 1 2 1
2 1 3 1
3 1 4 1
4 1 5 1
@<TRIPOS>MOLECULE
CH4
5 4
SMALL
USER_CHARGES


@<TRIPOS>ATOM
1 C 84.752 5.738 23.625 C 0.0 **** 0.0
2 H 84.673 5.741 22.538 H 0.0 **** 0.0
3 H 85.749 5.407 23.916 H 0.0 **** 0.0
4 H 84.008 5.058 24.04 H 0.0 **** 0.0
5 H 84.576 6.744 24.005 H 0.0 **** 0.0
@<TRIPOS>BOND
1 1 2 1
2 1 3 1
3 1 4 1
4 1 5 1
@<TRIPOS>MOLECULE
CH4
5 4
SMALL
USER_CHARGES


@<TRIPOS>ATOM
1 C 40.013 46.666 47.505 C 0.0 **** 0.0
2 H 39.004 47.018 47.286 H 0.0 **** 0.0
3 H 40.482 46.314 46.586 H 0.0 **** 0.0
4 H 39.964 45.85 48.225 H 0.0 **** 0.0
5 H 40.599 47.485 47.922 H 0.0 **** 0.0
@<TRIPOS>BOND
1 1 4 1
2 1 5 1
3 1 2 1
4 1 3 1
@<TRIPOS>MOLECULE
CH4
5 4
SMALL
USER_CHARGES


@<TRIPOS>ATOM
1 C 95.385 48.983 13.992 C 0.0 **** 0.0
2 H 95.275 49.109 15.069 H 0.0 **** 0.0
3 H 94.456 48.592 13.576 H 0.0 **** 0.0
4 H 96.196 48.284 13.789 H 0.0 **** 0.0
5 H 95.611 49.946 13.535 H 0.0 **** 0.0
@<TRIPOS>BOND
1 1 2 1
2 1 3 1
3 1 4 1
4 1 5 1
@<TRIPOS>MOLECULE
CH4
5 4
SMALL
USER_CHARGES


@<TRIPOS>ATOM
1 C 10.746 44.818 81.272 C 0.0 **** 0.0
2 H 11.045 45.798 81.646 H 0.0 **** 0.0
3 H 11.034 44.052 81.992 H 0.0 **** 0.0
4 H 11.241 44.627 80.32 H 0.0 **** 0.0
5 H 9.666 44.798 81.131 H 0.0 **** 0.0
@<TRIPOS>BOND
1 1 2 1
2 1 3 1
3 1 4 1
4 1 5 1
@<TRIPOS>MOLECULE
CH4
5 4
SMALL
USER_CHARGES


@<TRIPOS>ATOM
1 C 44.189 97.96 5.134 C 0.0 **** 0.0
2 H 43.596 98.232 4.261 H 0.0 **** 0.0
3 H 44.821 97.105 4.891 H 0.0 **** 0.0
4 H 43.525 97.699 5.958 H 0.0 **** 0.0
5 H 44.815 98.804 5.425 H 0.0 **** 0.0
@<TRIPOS>BOND
1 1 2 1
2 1 3 1
3 1 4 1
4 1 5 1
@<TRIPOS>MOLECULE
CH4
5 4
SMALL
USER_CHARGES


@<TRIPOS>ATOM
1 C 44.941 16.309 30.689 C 0.0 **** 0.0
2 H 44.442 16.832 31.505 H 0.0 **** 0.0
3 H 46.011 16.256 30.892 H 0.0 **** 0.0
4 H 44.774 16.849 29.757 H 0.0 **** 0.0
5 H 44.537 15.301 30.603 H 0.0 **** 0.0
@<TRIPOS>BOND
1 1 2 1
2 1 3 1
3 1 4 1
4 1 5 1
@<TRIPOS>MOLECULE
CH4
5 4
SMALL
USER_CHARGES


@<TRIPOS>ATOM
1 C 91.322 76.089 98.149 C 0.0 **** 0.0
2 H 91.016 75.174 97.641 H 0.0 **** 0.0
3 H 92.227 75.898 98.727 H 0.0 **** 0.0
4 H 90.526 76.416 98.818 H 0.0 **** 0.0
5 H 91.519 76.866 97.411 H 0.0 **** 0.0
@<TRIPOS>BOND
1 1 2 1
2 1 3 1
3 1 4 1
4 1 5 1
@<TRIPOS>MOLECULE
CH4
5 4
SMALL
USER_CHARGES


@<TRIPOS>ATOM
1 C 52.54 76.669 74.135 C 0.0 **** 0.0
2 H 53.431 77.289 74.041 H 0.0 **** 0.0
3 H 51.875 77.1 74.883 H 0.0 **** 0.0
4 H 52.828 75.663 74.441 H 0.0 **** 0.0
5 H 52.026 76.623 73.175 H 0.0 **** 0.0
@<TRIPOS>BOND
1 1 2 1
2 1 3 1
3 1 4 1
4 1 5 1
@<TRIPOS>MOLECULE
CH4
5 4
SMALL
USER_CHARGES


@<TRIPOS>ATOM
1 C 38.489 1.982 50.347 C 0.0 **** 0.0
2 H 38.73 2.387 51.33 H 0.0 **** 0.0
3 H 37.448 2.2 50.11 H 0.0 **** 0.0
4 H 38.642 0.903 50.352 H 0.0 **** 0.0
5 H 39.136 2.438 49.598 H 0.0 **** 0.0
@<TRIPOS>BOND
1 1 2 1
2 1 3 1
3 1 4 1
4 1 5 1
@<TRIPOS>MOLECULE
CH4
5 4
SMALL
USER_CHARGES


@<TRIPOS>ATOM
1 C 89.755 81.294 83.461 C 0.0 **** 0.0
2 H 89.874 81.086 84.524 H 0.0 **** 0.0
3 H 90.088 82.311 83.25 H 0.0 **** 0.0
4 H 88.705 81.192 83.186 H 0.0 **** 0.0
5 H 90.352 80.588 82.884 H 0.0 **** 0.0
@<TRIPOS>BOND
1 1 2 1
2 1 3 1
3 1 4 1
4 1 5 1
@<TRIPOS>MOLECULE
CH4
5 4
SMALL
USER_CHARGES


@<TRIPOS>ATOM
1 C 0.598 26.786 34.328 C 0.0 **** 0.0
2 H -0.01 26.651 33.433 H 0.0 **** 0.0
3 H -0.005 27.248 35.11 H 0.0 **** 0.0
4 H 1.447 27.428 34.096 H 0.0 **** 0.0
5 H 0.958 25.816 34.672 H 0.0 **** 0.0
@<TRIPOS>BOND
1 1 2 1
2 1 3 1
3 1 4 1
4 1 5 1
@<TRIPOS>MOLECULE
CH4
5 4
SMALL
USER_CHARGES


@<TRIPOS>ATOM
1 C 26.395 27.065 18.723 C 0.0 **** 0.0
2 H 26.742 26.942 19.749 H 0.0 **** 0.0
3 H 26.665 28.058 18.365 H 0.0 **** 0.0
4 H 25.312 26.947 18.69 H 0.0 **** 0.0
5 H 26.862 26.31 18.09 H 0.0 **** 0.0
@<TRIPOS>BOND
1 1 2 1
2 1 3 1
3 1 4 1
4 1 5 1
@<TRIPOS>MOLECULE
CH4
5 4
SMALL
USER_CHARGES


@<TRIPOS>ATOM
1 C 81.601 69.175 1.708 C 0.0 **** 0.0
2 H 80.954 69.037 0.842 H 0.0 **** 0.0
3 H 80.997 69.458 2.57 H 0.0 **** 0.0
4 H 82.326 69.961 1.497 H 0.0 **** 0.0
5 H 82.126 68.243 1.921 H 0.0 **** 0.0
@<TRIPOS>BOND
1 1 2 1
2 1 3 1
3 1 4 1
4 1 5 1
@<TRIPOS>MOLECULE
CH4
5 4
SMALL
USER_CHARGES


@<TRIPOS>ATOM
1 C 97.199 67.173 33.248 C 0.0 **** 0.0
2 H 98.236 67.255 32.923 H 0.0 **** 0.0
3 H 97.062 66.239 33.793 H 0.0 **** 0.0
4 H 96.544 67.184 32.377 H 0.0 **** 0.0
5 H 96.954 68.013 33.897 H 0.0 **** 0.0
@<TRIPOS>BOND
1 1 2 1
2 1 3 1
3 1 4 1
4 1 5 1
@<TRIPOS>MOLECULE
CH4
5 4
SMALL
USER_CHARGES


@<TRIPOS>ATOM
1 C 94.185 90.642 37.176 C 0.0 **** 0.0
2 H 94.228 91.015 36.153 H 0.0 **** 0.0
3 H 95.105 90.103 37.405 H 0.0 **** 0.0
4 H 93.334 89.97 37.282 H 0.0 **** 0.0
5 H 94.074 91.48 37.864 H 0.0 **** 0.0
@<TRIPOS>BOND
1 1 2 1
2 1 3 1
3 1 4 1
4 1 5 1
@<TRIPOS>MOLECULE
CH4
5 4
SMALL
USER_CHARGES


@<TRIPOS>ATOM
1 C 55.75 18.982 55.105 C 0.0 **** 0.0
2 H 54.755 18.681 55.435 H 0.0 **** 0.0
3 H 56.479 18.235 55.421 H 0.0 **** 0.0
4 H 56.002 19.946 55.545 H 0.0 **** 0.0
5 H 55.761 19.064 54.018 H 0.0 **** 0.0
@<TRIPOS>BOND
1 1 2 1
2 1 3 1
3 1 4 1
4 1 5 1
@<TRIPOS>MOLECULE
CH4
5 4
SMALL
USER_CHARGES


@<TRIPOS>ATOM
1 C 50.959 41.213 87.808 C 0.0 **** 0.0
2 H 50.521 41.464 86.842 H 0.0 **** 0.0
3 H 51.647 40.376 87.687 H 0.0 **** 0.0
4 H 50.168 40.935 88.505 H 0.0 **** 0.0
5 H 51.5 42.075 88.197 H 0.0 **** 0.0
@<TRIPOS>BOND
1 1 2 1
2 1 3 1
3 1 4 1
4 1 5 1
@<TRIPOS>MOLECULE
CH4
5 4
SMALL
USER_CHARGES


@<TRIPOS>ATOM
1 C 6.052 38.093 79.229 C 0.0 **** 0.0
2 H 5.947 37.754 78.198 H 0.0 **** 0.0
3 H 5.908 39.172 79.273 H 0.0 **** 0.0
4 H 7.049 37.843 79.593 H 0.0 **** 0.0
5 H 5.304 37.6 79.851 H 0.0 **** 0.0
@<TRIPOS>BOND
1 1 2 1
2 1 3 1
3 1 4 1
4 1 5 1
@<TRIPOS>MOLECULE
CH4
5 4
SMALL
USER_CHARGES


@<TRIPOS>ATOM
1 C 66.884 57.893 87.149 C 0.0 **** 0.0
2 H 66.534 57.964 86.119 H 0.0 **** 0.0
3 H 66.896 56.847 87.457 H 0.0 **** 0.0
4 H 66.215 58.456 87.8 H 0.0 **** 0.0
5 H 67.891 58.305 87.22 H 0.0 **** 0.0
@<TRIPOS>BOND
1 1 2 1
2 1 3 1
3 1 4 1
4 1 5 1
@<TRIPOS>MOLECULE
CH4
5 4
SMALL
USER_CHARGES


@<TRIPOS>ATOM
1 C 8.163 82.773 53.752 C 0.0 **** 0.0
2 H 8.712 83.71 53.846 H 0.0 **** 0.0
3 H 7.145 82.91 54.118 H 0.0 **** 0.0
4 H 8.659 82.001 54.34 H 0.0 **** 0.0
5 H 8.136 82.472 52.705 H 0.0 **** 0.0
@<TRIPOS>BOND
1 1 2 1
2 1 3 1
3 1 4 1
4 1 5 1
@<TRIPOS>MOLECULE
CH4
5 4
SMALL
USER_CHARGES


@<TRIPOS>ATOM
1 C 53.631 84.377 53.282 C 0.0 **** 0.0
2 H 52.916 84.168 52.486 H 0.0 **** 0.0
3 H 53.405 85.346 53.727 H 0.0 **** 0.0
4 H 54.64 84.394 52.869 H 0.0 **** 0.0
5 H 53.563 83.601 54.044 H 0.0 **** 0.0
@<TRIPOS>BOND
1 1 2 1
2 1 3 1
3 1 4 1
4 1 5 1
@<TRIPOS>MOLECULE
CH4
5 4
SMALL
USER_CHARGES


@<TRIPOS>ATOM
1 C 61.245 38.534 86.188 C 0.0 **** 0.0
2 H 60.258 38.32 85.777 H 0.0 **** 0.0
3 H 61.881 37.655 86.083 H 0.0 **** 0.0
4 H 61.151 38.791 87.243 H 0.0 **** 0.0
5 H 61.689 39.371 85.649 H 0.0 **** 0.0
@<TRIPOS>BOND
1 1 2 1
2 1 3 1
3 1 4 1
4 1 5 1
@<TRIPOS>MOLECULE
CH4
5 4
SMALL
USER_CHARGES


@<TRIPOS>ATOM
1 C 61.09 75.515 33.153 C 0.0 **** 0.0
2 H 60.875 75.671 34.21 H 0.0 **** 0.0
3 H 60.356 76.051 32.551 H 0.0 **** 0.0
4 H 61.039 74.45 32.926 H 0.0 **** 0.0
5 H 62.089 75.888 32.927 H 0.0 **** 0.0
@<TRIPOS>BOND
1 1 2 1
2 1 3 1
3 1 4 1
4 1 5 1
@<TRIPOS>MOLECULE
CH4
5 4
SMALL
USER_CHARGES


@<TRIPOS>ATOM
1 C 29.409 23.844 17.222 C 0.0 **** 0.0
2 H 29.509 22.982 16.563 H 0.0 **** 0.0
3 H 28.861 24.633 16.707 H 0.0 **** 0.0
4 H 30.399 24.208 17.497 H 0.0 **** 0.0
5 H 28.866 23.552 18.121 H 0.0 **** 0.0
@<TRIPOS>BOND
1 1 2 1
2 1 3 1
3 1 4 1
4 1 5 1
@<TRIPOS>MOLECULE
CH4
5 4
SMALL
USER_CHARGES


@<TRIPOS>ATOM
1 C 33.311 66.675 57.702 C 0.0 **** 0.0
2 H 33.523 66.851 56.647 H 0.0 **** 0.0
3 H 33.976 65.898 58.081 H 0.0 **** 0.0
4 H 32.276 66.354 57.815 H 0.0 **** 0.0
5 H 33.471 67.595 58.263 H 0.0 **** 0.0
@<TRIPOS>BOND
1 1 2 1
2 1 3 1
3 1 4 1
4 1 5 1
@<TRIPOS>MOLECULE
CH4
5 4
SMALL
USER_CHARGES


@<TRIPOS>ATOM
1 C 12.869 88.103 24.032 C 0.0 **** 0.0
2 H 12.449 87.953 23.037 H 0.0 **** 0.0
3 H 13.649 87.363 24.211 H 0.0 **** 0.0
4 H 12.082 87.99 24.779 H 0.0 **** 0.0
5 H 13.294 89.104 24.101 H 0.0 **** 0.0
@<TRIPOS>BOND
1 1 2 1
2 1 3 1
3 1 4 1
4 1 5 1
@<TRIPOS>MOLECULE
CH4
5 4
SMALL
USER_CHARGES


@<TRIPOS>ATOM
1 C 13.734 21.993 92.451 C 0.0 **** 0.0
2 H 13.261 21.531 93.318 H 0.0 **** 0.0
3 H 14.254 22.9 92.762 H 0.0 **** 0.0
4 H 12.973 22.245 91.713 H 0.0 **** 0.0
5 H 14.449 21.297 92.013 H 0.0 **** 0.0
@<TRIPOS>BOND
1 1 2 1
2 1 3 1
3 1 4 1
4 1 5 1
@<TRIPOS>MOLECULE
CH4
5 4
SMALL
USER_CHARGES


@<TRIPOS>ATOM
1 C 29.139 37.974 70.475 C 0.0 **** 0.0
2 H 29.164 37.462 69.513 H 0.0 **** 0.0
3 H 30.037 37.726 71.041 H 0.0 **** 0.0
4 H 28.258 37.657 71.032 H 0.0 **** 0.0
5 H 29.098 39.051 70.312 H 0.0 **** 0.0
@<TRIPOS>BOND
1 1 2 1
2 1 3 1
3 1 4 1
4 1 5 1
@<TRIPOS>MOLECULE
CH4
5 4
SMALL
USER_CHARGES


@<TRIPOS>ATOM
1 C 78.552 56.248 13.656 C 0.0 **** 0.0
2 H 78.604 55.413 14.354 H 0.0 **** 0.0
3 H 78.044 55.93 12.746 H 0.0 **** 0.0
4 H 79.562 56.58 13.412 H 0.0 **** 0.0
5 H 78.001 57.07 14.113 H 0.0 **** 0.0
@<TRIPOS>BOND
1 1 2 1
2 1 3 1
3 1 4 1
4 1 5 1
@<TRIPOS>MOLECULE
CH4
5 4
SMALL
USER_CHARGES


@<TRIPOS>ATOM
1 C 68.269 4.396 30.982 C 0.0 **** 0.0
2 H 68.338 4.387 29.895 H 0.0 **** 0.0
3 H 68.037 3.393 31.34 H 0.0 **** 0.0
4 H 67.481 5.083 31.29 H 0.0 **** 0.0
5 H 69.22 4.722 31.404 H 0.0 **** 0.0
@<TRIPOS>BOND
1 1 2 1
2 1 3 1
3 1 4 1
4 1 5 1
@<TRIPOS>MOLECULE
CH4
5 4
SMALL
USER_CHARGES


@<TRIPOS>ATOM
1 C 85.305 80.766 62.77 C 0.0 **** 0.0
2 H 85.488 81.198 63.753 H 0.0 **** 0.0
3 H 85.846 81.337 62.016 H 0.0 **** 0.0
4 H 84.237 80.796 62.552 H 0.0 **** 0.0
5 H 85.649 79.731 62.758 H 0.0 **** 0.0
@<TRIPOS>BOND
1 1 2 1
2 1 3 1
3 1 4 1
4 1 5 1
@<TRIPOS>MOLECULE
CH4
5 4
SMALL
USER_CHARGES


@<TRIPOS>ATOM
1 C 19.024 86.673 77.772 C 0.0 **** 0.0
2 H 19.759 85.986 78.191 H 0.0 **** 0.0
3 H 18.107 86.13 77.544 H 0.0 **** 0.0
4 H 19.421 87.116 76.858 H 0.0 **** 0.0
5 H 18.81 87.461 78.494 H 0.0 **** 0.0
@<TRIPOS>BOND
1 1 2 1
2 1 3 1
3 1 4 1
4 1 5 1
@<TRIPOS>MOLECULE
CH4
5 4
SMALL
USER_CHARGES


@<TRIPOS>ATOM
1 C 95.166 74.995 5.631 C 0.0 **** 0.0
2 H 95.506 74.679 4.645 H 0.0 **** 0.0
3 H 94.117 74.726 5.757 H 0.0 **** 0.0
4 H 95.278 76.075 5.724 H 0.0 **** 0.0
5 H 95.763 74.501 6.397 H 0.0 **** 0.0
@<TRIPOS>BOND
1 1 2 1
2 1 3 1
3 1 4 1
4 1 5 1
@<TRIPOS>MOLECULE
CH4
5 4
SMALL
USER_CHARGES


@<TRIPOS>ATOM
1 C 66.329 18.299 14.407 C 0.0 **** 0.0
2 H 66.303 17.813 13.432 H 0.0 **** 0.0
3 H 65.545 17.884 15.04 H 0.0 **** 0.0
4 H 66.169 19.37 14.284 H 0.0 **** 0.0
5 H 67.3 18.128 14.872 H 0.0 **** 0.0
@<TRIPOS>BOND
1 1 2 1
2 1 3 1
3 1 4 1
4 1 5 1
@<TRIPOS>MOLECULE
CH4
5 4
SMALL
USER_CHARGES


@<TRIPOS>ATOM
1 C 66.285 97.26 12.798 C 0.0 **** 0.0
2 H 66.597 97.101 11.766 H 0.0 **** 0.0
3 H 65.551 98.065 12.835 H 0.0 **** 0.0
4 H 67.151 97.53 13.401 H 0.0 **** 0.0
5 H 65.841 96.344 13.188 H 0.0 **** 0.0
@<TRIPOS>BOND
1 1 2 1
2 1 3 1
3 1 4 1
4 1 5 1
@<TRIPOS>MOLECULE
CH4
5 4
SMALL
USER_CHARGES


@<TRIPOS>ATOM
1 C 12.059 47.549 37.151 C 0.0 **** 0.0
2 H 12.922 47.388 36.506 H 0.0 **** 0.0
3 H 11.444 46.649 37.166 H 0.0 **** 0.0
4 H 11.472 48.384 36.769 H 0.0 **** 0.0
5 H 12.398 47.775 38.162 H 0.0 **** 0.0
@<TRIPOS>BOND
1 1 2 1
2 1 3 1
3 1 4 1
4 1 5 1
@<TRIPOS>MOLECULE
CH4
5 4
SMALL
USER_CHARGES


@<TRIPOS>ATOM
1 C 91.043 53.291 47.517 C 0.0 **** 0.0
2 H 90.22 53.224 46.805 H 0.0 **** 0.0
3 H 90.894 52.563 48.315 H 0.0 **** 0.0
4 H 91.075 54.294 47.941 H 0.0 **** 0.0
5 H 91.983 53.082 47.005 H 0.0 **** 0.0
@<TRIPOS>BOND
1 1 2 1
2 1 3 1
3 1 4 1
4 1 5 1
@<TRIPOS>MOLECULE
CH4
5 4
SMALL
USER_CHARGES


@<TRIPOS>ATOM
1 C 85.052 87.877 25.141 C 0.0 **** 0.0
2 H 85.713 88.176 24.327 H 0.0 **** 0.0
3 H 84.019 87.892 24.794 H 0.0 **** 0.0
4 H 85.167 88.57 25.975 H 0.0 **** 0.0
5 H 85.312 86.87 25.467 H 0.0 **** 0.0
@<TRIPOS>BOND
1 1 2 1
2 1 3 1
3 1 4 1
4 1 5 1
@<TRIPOS>MOLECULE
CH4
5 4
SMALL
USER_CHARGES


@<TRIPOS>ATOM
1 C 89.61 6.467 60.881 C 0.0 **** 0.0
2 H 88.902 7.222 61.225 H 0.0 **** 0.0
3 H 90.619 6.756 61.172 H 0.0 **** 0.0
4 H 89.554 6.385 59.795 H 0.0 **** 0.0
5 H 89.362 5.506 61.331 H 0.0 **** 0.0
@<TRIPOS>BOND
1 1 2 1
2 1 3 1
3 1 4 1
4 1 5 1
@<TRIPOS>MOLECULE
CH4
5 4
SMALL
USER_CHARGES


@<TRIPOS>ATOM
1 C 96.134 48.013 64.581 C 0.0 **** 0.0
2 H 95.926 48.785 65.322 H 0.0 **** 0.0
3 H 95.44 48.115 63.746 H 0.0 **** 0.0
4 H 96.012 47.03 65.037 H 0.0 **** 0.0
5 H 97.157 48.122 64.22 H 0.0 **** 0.0
@<TRIPOS>BOND
1 1 2 1
2 1 3 1
3 1 4 1
4 1 5 1
@<TRIPOS>MOLECULE
CH4
5 4
SMALL
USER_CHARGES


@<TRIPOS>ATOM
1 C 1.383 34.812 55.113 C 0.0 **** 0.0
2 H 0.518 34.313 55.552 H 0.0 **** 0.0
3 H 1.758 34.221 54.277 H 0.0 **** 0.0
4 H 2.164 34.913 55.867 H 0.0 **** 0.0
5 H 1.09 35.8 54.758 H 0.0 **** 0.0
@<TRIPOS>BOND
1 1 2 1
2 1 3 1
3 1 4 1
4 1 5 1
@<TRIPOS>MOLECULE
CH4
5 4
SMALL
USER_CHARGES


@<TRIPOS>ATOM
1 C 80.205 48.335 64.049 C 0.0 **** 0.0
2 H 79.457 47.548 63.961 H 0.0 **** 0.0
3 H 79.711 49.283 64.264 H 0.0 **** 0.0
4 H 80.757 48.417 63.113 H 0.0 **** 0.0
5 H 80.894 48.092 64.857 H 0.0 **** 0.0
@<TRIPOS>BOND
1 1 2 1
2 1 3 1
3 1 4 1
4 1 5 1
@<TRIPOS>MOLECULE
CH4
5 4
SMALL
USER_CHARGES


@<TRIPOS>ATOM
1 C 63.091 22.171 93.796 C 0.0 **** 0.0
2 H 63.379 22.194 92.745 H 0.0 **** 0.0
3 H 63.774 21.523 94.346 H 0.0 **** 0.0
4 H 62.074 21.788 93.886 H 0.0 **** 0.0
5 H 63.136 23.18 94.207 H 0.0 **** 0.0
@<TRIPOS>BOND
1 1 2 1
2 1 3 1
3 1 4 1
4 1 5 1
@<TRIPOS>MOLECULE
CH4
5 4
SMALL
USER_CHARGES


@<TRIPOS>ATOM
1 C 64.869 49.17 8.358 C 0.0 **** 0.0
2 H 64.407 49.346 7.387 H 0.0 **** 0.0
3 H 64.093 49.069 9.116 H 0.0 **** 0.0
4 H 65.516 50.01 8.61 H 0.0 **** 0.0
5 H 65.46 48.255 8.318 H 0.0 **** 0.0
@<TRIPOS>BOND
1 1 2 1
2 1 3 1
3 1 4 1
4 1 5 1
@<TRIPOS>MOLECULE
CH4
5 4
SMALL
USER_CHARGES


@<TRIPOS>ATOM
1 C 44.398 93.025 61.427 C 0.0 **** 0.0
2 H 43.615 93.474 62.038 H 0.0 **** 0.0
3 H 44.229 91.951 61.353 H 0.0 **** 0.0
4 H 45.368 93.211 61.887 H 0.0 **** 0.0
5 H 44.378 93.466 60.43 H 0.0 **** 0.0
@<TRIPOS>BOND
1 1 2 1
2 1 3 1
3 1 4 1
4 1 5 1
@<TRIPOS>MOLECULE
CH4
5 4
SMALL
USER_CHARGES


@<TRIPOS>ATOM
1 C 64.195 60.189 96.057 C 0.0 **** 0.0
2 H 64.942 60.557 95.354 H 0.0 **** 0.0
3 H 64.181 60.828 96.94 H 0.0 **** 0.0
4 H 64.443 59.169 96.35 H 0.0 **** 0.0
5 H 63.213 60.202 95.583 H 0.0 **** 0.0
@<TRIPOS>BOND
1 1 2 1
2 1 3 1
3 1 4 1
4 1 5 1
@<TRIPOS>MOLECULE
CH4
5 4
SMALL
USER_CHARGES


@<TRIPOS>ATOM
1 C 42.192 23.735 33.957 C 0.0 **** 0.0
2 H 41.103 23.782 33.982 H 0.0 **** 0.0
3 H 42.603 24.475 34.644 H 0.0 **** 0.0
4 H 42.541 23.943 32.946 H 0.0 **** 0.0
5 H 42.519 22.739 34.256 H 0.0 **** 0.0
@<TRIPOS>BOND
1 1 2 1
2 1 3 1
3 1 4 1
4 1 5 1
@<TRIPOS>MOLECULE
CH4
5 4
SMALL
USER_CHARGES


@<TRIPOS>ATOM
1 C 60.855 46.945 46.794 C 0.0 **** 0.0
2 H 60.857 47.9 46.27 H 0.0 **** 0.0
3 H 61.842 46.761 47.218 H 0.0 **** 0.0
4 H 60.606 46.147 46.094 H 0.0 **** 0.0
5 H 60.114 46.971 47.593 H 0.0 **** 0.0
@<TRIPOS>BOND
1 1 2 1
2 1 3 1
3 1 4 1
4 1 5 1
@<TRIPOS>MOLECULE
CH4
5 4
SMALL
USER_CHARGES


@<TRIPOS>ATOM
1 C 83.391 66.39 83.907 C 0.0 **** 0.0
2 H 83.869 66.117 82.967 H 0.0 **** 0.0
3 H 84.136 66.804 84.587 H 0.0 **** 0.0
4 H 82.94 65.505 84.356 H 0.0 **** 0.0
5 H 82.618 67.135 83.718 H 0.0 **** 0.0
@<TRIPOS>BOND
1 1 2 1
2 1 3 1
3 1 4 1
4 1 5 1
@<TRIPOS>MOLECULE
CH4
5 4
SMALL
USER_CHARGES


@<TRIPOS>ATOM
1 C 12.332 21.065 85.035 C 0.0 **** 0.0
2 H 12.596 20.088 85.44 H 0.0 **** 0.0
3 H 11.348 21.011 84.568 H 0.0 **** 0.0
4 H 13.072 21.361 84.292 H 0.0 **** 0.0
5 H 12.313 21.799 85.841 H 0.0 **** 0.0
@<TRIPOS>BOND
1 1 2 1
2 1 3 1
3 1 4 1
4 1 5 1
@<TRIPOS>MOLECULE
CH4
5 4
SMALL
USER_CHARGES


@<TRIPOS>ATOM
1 C 17.409 10.987 86.866 C 0.0 **** 0.0
2 H 17.956 11.912 87.048 H 0.0 **** 0.0
3 H 17.483 10.723 85.811 H 0.0 **** 0.0
4 H 16.361 11.126 87.133 H 0.0 **** 0.0
5 H 17.836 10.187 87.472 H 0.0 **** 0.0
@<TRIPOS>BOND
1 1 2 1
2 1 3 1
3 1 4 1
4 1 5 1
@<TRIPOS>MOLECULE
CH4
5 4
SMALL
USER_CHARGES


@<TRIPOS>ATOM
1 C 41.312 13.435 50.181 C 0.0 **** 0.0
2 H 41.262 13.416 51.27 H 0.0 **** 0.0
3 H 42.355 13.483 49.866 H 0.0 **** 0.0
4 H 40.779 14.31 49.808 H 0.0 **** 0.0
5 H 40.852 12.532 49.781 H 0.0 **** 0.0
@<TRIPOS>BOND
1 1 2 1
2 1 3 1
3 1 4 1
4 1 5 1
@<TRIPOS>MOLECULE
CH4
5 4
SMALL
USER_CHARGES


@<TRIPOS>ATOM
1 C 50.597 3.713 42.001 C 0.0 **** 0.0
2 H 49.853 4.408 41.613 H 0.0 **** 0.0
3 H 50.217 3.243 42.909 H 0.0 **** 0.0
4 H 51.516 4.253 42.228 H 0.0 **** 0.0
5 H 50.802 2.946 41.254 H 0.0 **** 0.0
@<TRIPOS>BOND
1 1 2 1
2 1 3 1
3 1 4 1
4 1 5 1
@<TRIPOS>MOLECULE
CH4
5 4
SMALL
USER_CHARGES


@<TRIPOS>ATOM
1 C 84.027 41.423 1.842 C 0.0 **** 0.0
2 H 84.603 42.142 1.26 H 0.0 **** 0.0
3 H 84.275 40.412 1.519 H 0.0 **** 0.0
4 H 82.963 41.603 1.69 H 0.0 **** 0.0
5 H 84.267 41.536 2.899 H 0.0 **** 0.0
@<TRIPOS>BOND
1 1 2 1
2 1 3 1
3 1 4 1
4 1 5 1
@<TRIPOS>MOLECULE
CH4
5 4
SMALL
USER_CHARGES


@<TRIPOS>ATOM
1 C 35.194 90.13 44.195 C 0.0 **** 0.0
2 H 34.657 90.998 43.812 H 0.0 **** 0.0
3 H 34.491 89.456 44.685 H 0.0 **** 0.0
4 H 35.946 90.457 44.913 H 0.0 **** 0.0
5 H 35.68 89.611 43.369 H 0.0 **** 0.0
@<TRIPOS>BOND
1 1 2 1
2 1 3 1
3 1 4 1
4 1 5 1
@<TRIPOS>MOLECULE
CH4
5 4
SMALL
USER_CHARGES


@<TRIPOS>ATOM
1 C 17.041 79.367 9.478 C 0.0 **** 0.0
2 H 16.825 79.985 10.349 H 0.0 **** 0.0
3 H 16.736 79.894 8.573 H 0.0 **** 0.0
4 H 16.492 78.428 9.554 H 0.0 **** 0.0
5 H 18.11 79.16 9.435 H 0.0 **** 0.0
@<TRIPOS>BOND
1 1 2 1
2 1 3 1
3 1 4 1
4 1 5 1
@<TRIPOS>MOLECULE
CH4
5 4
SMALL
USER_CHARGES


@<TRIPOS>ATOM
1 C 83.272 88.711 2.014 C 0.0 **** 0.0
2 H 83.413 89.187 2.985 H 0.0 **** 0.0
3 H 82.361 88.113 2.032 H 0.0 **** 0.0
4 H 84.125 88.069 1.797 H 0.0 **** 0.0
5 H 83.188 89.477 1.244 H 0.0 **** 0.0
@<TRIPOS>BOND
1 1 2 1
2 1 3 1
3 1 4 1
4 1 5 1
@<TRIPOS>MOLECULE
CH4
5 4
SMALL
USER_CHARGES


@<TRIPOS>ATOM
1 C 24.644 40.881 75.289 C 0.0 **** 0.0
2 H 24.468 41.054 74.227 H 0.0 **** 0.0
3 H 23.759 41.172 75.856 H 0.0 **** 0.0
4 H 25.497 41.475 75.617 H 0.0 **** 0.0
5 H 24.851 39.824 75.455 H 0.0 **** 0.0
@<TRIPOS>BOND
1 1 2 1
2 1 3 1
3 1 4 1
4 1 5 1
@<TRIPOS>MOLECULE
CH4
5 4
SMALL
USER_CHARGES


@<TRIPOS>ATOM
1 C 40.739 30.858 12.796 C 0.0 **** 0.0
2 H 41.061 30.915 13.836 H 0.0 **** 0.0
3 H 41.277 30.055 12.293 H 0.0 **** 0.0
4 H 40.949 31.805 12.299 H 0.0 **** 0.0
5 H 39.668 30.658 12.759 H 0.0 **** 0.0
@<TRIPOS>BOND
1 1 2 1
2 1 3 1
3 1 4 1
4 1 5 1
@<TRIPOS>MOLECULE
CH4
5 4
SMALL
USER_CHARGES


@<TRIPOS>ATOM
1 C 28.093 19.526 84.84 C 0.0 **** 0.0
2 H 28.522 19.847 83.891 H 0.0 **** 0.0
3 H 28.23 18.45 84.954 H 0.0 **** 0.0
4 H 27.029 19.761 84.855 H 0.0 **** 0.0
5 H 28.592 20.045 85.658 H 0.0 **** 0.0
@<TRIPOS>BOND
1 1 2 1
2 1 3 1
3 1 4 1
4 1 5 1
@<TRIPOS>MOLECULE
CH4
5 4
SMALL
USER_CHARGES


@<TRIPOS>ATOM
1 C 96.02 42.971 90.302 C 0.0 **** 0.0
2 H 96.611 43.578 89.616 H 0.0 **** 0.0
3 H 96.188 43.311 91.324 H 0.0 **** 0.0
4 H 96.32 41.927 90.212 H 0.0 **** 0.0
5 H 94.963 43.068 90.055 H 0.0 **** 0.0
@<TRIPOS>BOND
1 1 3 1
2 1 4 1
3 1 5 1
4 1 2 1
@<TRIPOS>MOLECULE
CH4
5 4
SMALL
USER_CHARGES


@<TRIPOS>ATOM
1 C 88.491 88.515 71.395 C 0.0 **** 0.0
2 H 88.028 89.144 72.155 H 0.0 **** 0.0
3 H 89.571 88.507 71.538 H 0.0 **** 0.0
4 H 88.258 88.909 70.406 H 0.0 **** 0.0
5 H 88.105 87.499 71.481 H 0.0 **** 0.0
@<TRIPOS>BOND
1 1 2 1
2 1 3 1
3 1 4 1
4 1 5 1
@<TRIPOS>MOLECULE
CH4
5 4
SMALL
USER_CHARGES


@<TRIPOS>ATOM
1 C 72.31 95.655 15.657 C 0.0 **** 0.0
2 H 73.314 95.356 15.355 H 0.0 **** 0.0
3 H 72.055 95.17 16.599 H 0.0 **** 0.0
4 H 71.596 95.357 14.889 H 0.0 **** 0.0
5 H 72.276 96.737 15.784 H 0.0 **** 0.0
@<TRIPOS>BOND
1 1 2 1
2 1 3 1
3 1 4 1
4 1 5 1
@<TRIPOS>MOLECULE
CH4
5 4
SMALL
USER_CHARGES


@<TRIPOS>ATOM
1 C 67.163 80.431 18.218 C 0.0 **** 0.0
2 H 67.295 80.878 17.233 H 0.0 **** 0.0
3 H 66.629 81.128 18.864 H 0.0 **** 0.0
4 H 68.14 80.211 18.65 H 0.0 **** 0.0
5 H 66.59 79.509 18.125 H 0.0 **** 0.0
@<TRIPOS>BOND
1 1 2 1
2 1 3 1
3 1 4 1
4 1 5 1
@<TRIPOS>MOLECULE
CH4
5 4
SMALL
USER_CHARGES


@<TRIPOS>ATOM
1 C 88.795 51.656 82.304 C 0.0 **** 0.0
2 H 88.375 50.967 83.036 H 0.0 **** 0.0
3 H 89.316 51.091 81.531 H 0.0 **** 0.0
4 H 89.496 52.328 82.798 H 0.0 **** 0.0
5 H 87.992 52.237 81.85 H 0.0 **** 0.0
@<TRIPOS>BOND
1 1 2 1
2 1 3 1
3 1 4 1
4 1 5 1
@<TRIPOS>MOLECULE
CH4
5 4
SMALL
USER_CHARGES


@<TRIPOS>ATOM
1 C 65.1 54.366 70.716 C 0.0 **** 0.0
2 H 65.1 55.143 71.481 H 0.0 **** 0.0
3 H 66.125 54.153 70.414 H 0.0 **** 0.0
4 H 64.529 54.708 69.852 H 0.0 **** 0.0
5 H 64.644 53.461 71.118 H 0.0 **** 0.0
@<TRIPOS>BOND
1 1 2 1
2 1 3 1
3 1 4 1
4 1 5 1
@<TRIPOS>MOLECULE
CH4
5 4
SMALL
USER_CHARGES


@<TRIPOS>ATOM
1 C 95.914 82.457 40.96 C 0.0 **** 0.0
2 H 95.734 82.592 39.894 H 0.0 **** 0.0
3 H 96.177 81.416 41.155 H 0.0 **** 0.0
4 H 95.013 82.714 41.517 H 0.0 **** 0.0
5 H 96.733 83.104 41.275 H 0.0 **** 0.0
@<TRIPOS>BOND
1 1 2 1
2 1 3 1
3 1 4 1
4 1 5 1
@<TRIPOS>MOLECULE
CH4
5 4
SMALL
USER_CHARGES


@<TRIPOS>ATOM
1 C 94.301 14.156 41.97 C 0.0 **** 0.0
2 H 94.162 14.125 43.051 H 0.0 **** 0.0
3 H 93.481 14.711 41.515 H 0.0 **** 0.0
4 H 94.316 13.14 41.577 H 0.0 **** 0.0
5 H 95.246 14.649 41.74 H 0.0 **** 0.0
@<TRIPOS>BOND
1 1 2 1
2 1 3 1
3 1 4 1
4 1 5 1
@<TRIPOS>MOLECULE
CH4
5 4
SMALL
USER_CHARGES


@<TRIPOS>ATOM
1 C 64.504 47.952 27.632 C 0.0 **** 0.0
2 H 64.69 47.77 26.574 H 0.0 **** 0.0
3 H 63.501 48.359 27.759 H 0.0 **** 0.0
4 H 65.236 48.664 28.013 H 0.0 **** 0.0
5 H 64.589 47.015 28.182 H 0.0 **** 0.0
@<TRIPOS>BOND
1 1 5 1
2 1 4 1
3 1 2 1
4 1 3 1
@<TRIPOS>MOLECULE
CH4
5 4
SMALL
USER_CHARGES


@<TRIPOS>ATOM
1 C 54.159 16.064 3.383 C 0.0 **** 0.0
2 H 54.736 15.165 3.168 H 0.0 **** 0.0
3 H 53.507 16.288 2.538 H 0.0 **** 0.0
4 H 54.839 16.9 3.549 H 0.0 **** 0.0
5 H 53.555 15.904 4.276 H 0.0 **** 0.0
@<TRIPOS>BOND
1 1 2 1
2 1 3 1
3 1 4 1
4 1 5 1
@<TRIPOS>MOLECULE
CH4
5 4
SMALL
USER_CHARGES


@<TRIPOS>ATOM
1 C 74.632 51.61 84.859 C 0.0 **** 0.0
2 H 75.319 51.987 85.616 H 0.0 **** 0.0
3 H 74.807 50.545 84.707 H 0.0 **** 0.0
4 H 74.796 52.142 83.922 H 0.0 **** 0.0
5 H 73.605 51.767 85.19 H 0.0 **** 0.0
@<TRIPOS>BOND
1 1 2 1
2 1 3 1
3 1 4 1
4 1 5 1
@<TRIPOS>MOLECULE
CH4
5 4
SMALL
USER_CHARGES


@<TRIPOS>ATOM
1 C 66.479 21.932 35.531 C 0.0 **** 0.0
2 H 65.974 21.652 34.607 H 0.0 **** 0.0
3 H 67.554 21.978 35.358 H 0.0 **** 0.0
4 H 66.266 21.19 36.301 H 0.0 **** 0.0
5 H 66.122 22.908 35.859 H 0.0 **** 0.0
@<TRIPOS>BOND
1 1 2 1
2 1 3 1
3 1 4 1
4 1 5 1
@<TRIPOS>MOLECULE
CH4
5 4
SMALL
USER_CHARGES


@<TRIPOS>ATOM
1 C 50.161 24.111 14.19 C 0.0 **** 0.0
2 H 50.212 24.201 13.105 H 0.0 **** 0.0
3 H 49.155 23.808 14.483 H 0.0 **** 0.0
4 H 50.397 25.073 14.645 H 0.0 **** 0.0
5 H 50.879 23.364 14.527 H 0.0 **** 0.0
@<TRIPOS>BOND
1 1 2 1
2 1 3 1
3 1 4 1
4 1 5 1
@<TRIPOS>MOLECULE
CH4
5 4
SMALL
USER_CHARGES


@<TRIPOS>ATOM
1 C 81.553 12.876 87.889 C 0.0 **** 0.0
2 H 82.474 12.68 87.338 H 0.0 **** 0.0
3 H 81.643 12.476 88.899 H 0.0 **** 0.0
4 H 80.717 12.397 87.38 H 0.0 **** 0.0
5 H 81.381 13.951 87.937 H 0.0 **** 0.0
@<TRIPOS>BOND
1 1 2 1
2 1 3 1
3 1 4 1
4 1 5 1
@<TRIPOS>MOLECULE
CH4
5 4
SMALL
USER_CHARGES


@<TRIPOS>ATOM
1 C 87.754 87.2 83.81 C 0.0 **** 0.0
2 H 87.674 87.17 82.723 H 0.0 **** 0.0
3 H 88.132 88.174 84.119 H 0.0 **** 0.0
4 H 88.439 86.421 84.145 H 0.0 **** 0.0
5 H 86.771 87.034 84.251 H 0.0 **** 0.0
@<TRIPOS>BOND
1 1 2 1
2 1 3 1
3 1 4 1
4 1 5 1
@<TRIPOS>MOLECULE
CH4
5 4
SMALL
USER_CHARGES


@<TRIPOS>ATOM
1 C 24.509 97.683 98.278 C 0.0 **** 0.0
2 H 24.398 96.947 97.481 H 0.0 **** 0.0
3 H 24.468 98.686 97.854 H 0.0 **** 0.0
4 H 25.467 97.537 98.776 H 0.0 **** 0.0
5 H 23.702 97.559 99.0 H 0.0 **** 0.0
@<TRIPOS>BOND
1 1 2 1
2 1 3 1
3 1 4 1
4 1 5 1
@<TRIPOS>MOLECULE
CH4
5 4
SMALL
USER_CHARGES


@<TRIPOS>ATOM
1 C 78.565 27.142 29.818 C 0.0 **** 0.0
2 H 78.265 26.177 29.41 H 0.0 **** 0.0
3 H 78.722 27.848 29.001 H 0.0 **** 0.0
4 H 79.491 27.026 30.381 H 0.0 **** 0.0
5 H 77.783 27.517 30.477 H 0.0 **** 0.0
@<TRIPOS>BOND
1 1 2 1
2 1 3 1
3 1 4 1
4 1 5 1
@<TRIPOS>MOLECULE
CH4
5 4
SMALL
USER_CHARGES


@<TRIPOS>ATOM
1 C 63.789 60.441 60.751 C 0.0 **** 0.0
2 H 64.014 59.474 60.301 H 0.0 **** 0.0
3 H 62.958 60.905 60.218 H 0.0 **** 0.0
4 H 64.666 61.084 60.688 H 0.0 **** 0.0
5 H 63.516 60.299 61.797 H 0.0 **** 0.0
@<TRIPOS>BOND
1 1 2 1
2 1 3 1
3 1 4 1
4 1 5 1
@<TRIPOS>MOLECULE
CH4
5 4
SMALL
USER_CHARGES


@<TRIPOS>ATOM
1 C 82.999 8.231 47.604 C 0.0 **** 0.0
2 H 83.288 8.232 48.655 H 0.0 **** 0.0
3 H 83.518 7.425 47.085 H 0.0 **** 0.0
4 H 83.267 9.186 47.153 H 0.0 **** 0.0
5 H 81.922 8.081 47.524 H 0.0 **** 0.0
@<TRIPOS>BOND
1 1 2 1
2 1 3 1
3 1 4 1
4 1 5 1
@<TRIPOS>MOLECULE
CH4
5 4
SMALL
USER_CHARGES


@<TRIPOS>ATOM
1 C 42.799 53.308 58.876 C 0.0 **** 0.0
2 H 42.762 53.385 59.963 H 0.0 **** 0.0
3 H 41.844 53.623 58.457 H 0.0 **** 0.0
4 H 42.999 52.275 58.592 H 0.0 **** 0.0
5 H 43.593 53.95 58.495 H 0.0 **** 0.0
@<TRIPOS>BOND
1 1 2 1
2 1 3 1
3 1 4 1
4 1 5 1
@<TRIPOS>MOLECULE
CH4
5 4
SMALL
USER_CHARGES


@<TRIPOS>ATOM
1 C 27.807 60.439 45.184 C 0.0 **** 0.0
2 H 28.441 60.156 46.024 H 0.0 **** 0.0
3 H 27.973 61.488 44.94 H 0.0 **** 0.0
4 H 26.761 60.289 45.452 H 0.0 **** 0.0
5 H 28.052 59.822 44.32 H 0.0 **** 0.0
@<TRIPOS>BOND
1 1 2 1
2 1 3 1
3 1 4 1
4 1 5 1
@<TRIPOS>MOLECULE
CH4
5 4
SMALL
USER_CHARGES


@<TRIPOS>ATOM
1 C 69.92 69.904 3.923 C 0.0 **** 0.0
2 H 70.0 69.937 5.01 H 0.0 **** 0.0
3 H 70.45 70.754 3.494 H 0.0 **** 0.0
4 H 68.869 69.948 3.635 H 0.0 **** 0.0
5 H 70.359 68.977 3.555 H 0.0 **** 0.0
@<TRIPOS>BOND
1 1 2 1
2 1 3 1
3 1 4 1
4 1 5 1
@<TRIPOS>MOLECULE
CH4
5 4
SMALL
USER_CHARGES


@<TRIPOS>ATOM
1 C 57.371 0.48 19.622 C 0.0 **** 0.0
2 H 57.566 0.274 18.569 H 0.0 **** 0.0
3 H 56.425 0.023 19.912 H 0.0 **** 0.0
4 H 57.317 1.558 19.776 H 0.0 **** 0.0
5 H 58.177 0.066 20.228 H 0.0 **** 0.0
@<TRIPOS>BOND
1 1 2 1
2 1 3 1
3 1 4 1
4 1 5 1
@<TRIPOS>MOLECULE
CH4
5 4
SMALL
USER_CHARGES


@<TRIPOS>ATOM
1 C 64.055 82.338 94.003 C 0.0 **** 0.0
2 H 64.045 82.347 95.093 H 0.0 **** 0.0
3 H 64.686 83.149 93.639 H 0.0 **** 0.0
4 H 63.039 82.472 93.63 H 0.0 **** 0.0
5 H 64.448 81.384 93.651 H 0.0 **** 0.0
@<TRIPOS>BOND
1 1 2 1
2 1 3 1
3 1 4 1
4 1 5 1
@<TRIPOS>MOLECULE
CH4
5 4
SMALL
USER_CHARGES


@<TRIPOS>ATOM
1 C 83.986 72.559 93.016 C 0.0 **** 0.0
2 H 84.117 72.359 91.952 H 0.0 **** 0.0
3 H 82.931 72.469 93.275 H 0.0 **** 0.0
4 H 84.332 73.568 93.241 H 0.0 **** 0.0
5 H 84.565 71.839 93.594 H 0.0 **** 0.0
@<TRIPOS>BOND
1 1 2 1
2 1 3 1
3 1 4 1
4 1 5 1
@<TRIPOS>MOLECULE
CH4
5 4
SMALL
USER_CHARGES


@<TRIPOS>ATOM
1 C 38.785 54.543 30.955 C 0.0 **** 0.0
2 H 38.814 55.384 31.648 H 0.0 **** 0.0
3 H 39.185 54.854 29.99 H 0.0 **** 0.0
4 H 37.755 54.209 30.832 H 0.0 **** 0.0
5 H 39.388 53.725 31.352 H 0.0 **** 0.0
@<TRIPOS>BOND
1 1 2 1
2 1 3 1
3 1 4 1
4 1 5 1
@<TRIPOS>MOLECULE
CH4
5 4
SMALL
USER_CHARGES


@<TRIPOS>ATOM
1 C 33.754 78.98 55.496 C 0.0 **** 0.0
2 H 33.846 78.126 54.824 H 0.0 **** 0.0
3 H 34.709 79.504 55.549 H 0.0 **** 0.0
4 H 33.474 78.632 56.49 H 0.0 **** 0.0
5 H 32.988 79.658 55.119 H 0.0 **** 0.0
@<TRIPOS>BOND
1 1 2 1
2 1 3 1
3 1 4 1
4 1 5 1
@<TRIPOS>MOLECULE
CH4
5 4
SMALL
USER_CHARGES


@<TRIPOS>ATOM
1 C 24.34 52.702 30.29 C 0.0 **** 0.0
2 H 23.671 51.915 29.944 H 0.0 **** 0.0
3 H 24.252 53.568 29.633 H 0.0 **** 0.0
4 H 25.368 52.338 30.275 H 0.0 **** 0.0
5 H 24.071 52.988 31.307 H 0.0 **** 0.0
@<TRIPOS>BOND
1 1 2 1
2 1 3 1
3 1 4 1
4 1 5 1
@<TRIPOS>MOLECULE
CH4
5 4
SMALL
USER_CHARGES


@<TRIPOS>ATOM
1 C 74.235 41.469 47.814 C 0.0 **** 0.0
2 H 74.24 41.421 46.725 H 0.0 **** 0.0
3 H 73.211 41.376 48.177 H 0.0 **** 0.0
4 H 74.65 42.424 48.138 H 0.0 **** 0.0
5 H 74.839 40.655 48.216 H 0.0 **** 0.0
@<TRIPOS>BOND
1 1 2 1
2 1 3 1
3 1 4 1
4 1 5 1
@<TRIPOS>MOLECULE
CH4
5 4
SMALL
USER_CHARGES


@<TRIPOS>ATOM
1 C 94.977 29.741 74.144 C 0.0 **** 0.0
2 H 95.471 28.799 73.905 H 0.0 **** 0.0
3 H 95.653 30.57 73.929 H 0.0 **** 0.0
4 H 94.712 29.754 75.201 H 0.0 **** 0.0
5 H 94.075 29.842 73.541 H 0.0 **** 0.0
@<TRIPOS>BOND
1 1 2 1
2 1 3 1
3 1 4 1
4 1 5 1
@<TRIPOS>MOLECULE
CH4
5 4
SMALL
USER_CHARGES


@<TRIPOS>ATOM
1 C 16.617 27.791 65.911 C 0.0 **** 0.0
2 H 17.199 27.055 65.356 H 0.0 **** 0.0
3 H 16.526 27.474 66.949 H 0.0 **** 0.0
4 H 15.625 27.878 65.468 H 0.0 **** 0.0
5 H 17.12 28.758 65.869 H 0.0 **** 0.0
@<TRIPOS>BOND
1 1 2 1
2 1 3 1
3 1 4 1
4 1 5 1
@<TRIPOS>MOLECULE
CH4
5 4
SMALL
USER_CHARGES


@<TRIPOS>ATOM
1 C 75.826 59.616 13.6 C 0.0 **** 0.0
2 H 76.438 60.419 13.189 H 0.0 **** 0.0
3 H 75.799 58.784 12.897 H 0.0 **** 0.0
4 H 74.813 59.982 13.769 H 0.0 **** 0.0
5 H 76.254 59.281 14.545 H 0.0 **** 0.0
@<TRIPOS>BOND
1 1 2 1
2 1 3 1
3 1 4 1
4 1 5 1
@<TRIPOS>MOLECULE
CH4
5 4
SMALL
USER_CHARGES


@<TRIPOS>ATOM
1 C 11.26 98.407 51.917 C 0.0 **** 0.0
2 H 11.331 98.381 53.004 H 0.0 **** 0.0
3 H 12.138 98.907 51.507 H 0.0 **** 0.0
4 H 10.362 98.951 51.624 H 0.0 **** 0.0
5 H 11.21 97.388 51.532 H 0.0 **** 0.0
@<TRIPOS>BOND
1 1 2 1
2 1 3 1
3 1 4 1
4 1 5 1
@<TRIPOS>MOLECULE
CH4
5 4
SMALL
USER_CHARGES


@<TRIPOS>ATOM
1 C 18.725 14.114 90.393 C 0.0 **** 0.0
2 H 19.256 13.892 89.467 H 0.0 **** 0.0
3 H 19.397 13.972 91.24 H 0.0 **** 0.0
4 H 17.87 13.446 90.491 H 0.0 **** 0.0
5 H 18.378 15.147 90.373 H 0.0 **** 0.0
@<TRIPOS>BOND
1 1 2 1
2 1 3 1
3 1 4 1
4 1 5 1
@<TRIPOS>MOLECULE
CH4
5 4
SMALL
USER_CHARGES


@<TRIPOS>ATOM
1 C 46.354 78.882 64.325 C 0.0 **** 0.0
2 H 46.431 78.262 63.432 H 0.0 **** 0.0
3 H 46.065 79.894 64.04 H 0.0 **** 0.0
4 H 47.318 78.909 64.833 H 0.0 **** 0.0
5 H 45.602 78.464 64.993 H 0.0 **** 0.0
@<TRIPOS>BOND
1 1 2 1
2 1 3 1
3 1 4 1
4 1 5 1
@<TRIPOS>MOLECULE
CH4
5 4
SMALL
USER_CHARGES


@<TRIPOS>ATOM
1 C 81.921 26.759 22.899 C 0.0 **** 0.0
2 H 82.623 27.593 22.879 H 0.0 **** 0.0
3 H 81.187 26.922 23.688 H 0.0 **** 0.0
4 H 82.463 25.833 23.09 H 0.0 **** 0.0
5 H 81.412 26.691 21.938 H 0.0 **** 0.0
@<TRIPOS>BOND
1 1 2 1
2 1 3 1
3 1 4 1
4 1 5 1
@<TRIPOS>MOLECULE
CH4
5 4
SMALL
USER_CHARGES


@<TRIPOS>ATOM
1 C 44.51 64.828 77.768 C 0.0 **** 0.0
2 H 44.073 65.251 78.672 H 0.0 **** 0.0
3 H 45.49 64.41 78.0 H 0.0 **** 0.0
4 H 44.617 65.61 77.016 H 0.0 **** 0.0
5 H 43.861 64.041 77.385 H 0.0 **** 0.0
@<TRIPOS>BOND
1 1 2 1
2 1 3 1
3 1 4 1
4 1 5 1
@<TRIPOS>MOLECULE
CH4
5 4
SMALL
USER_CHARGES


@<TRIPOS>ATOM
1 C 29.017 81.808 66.167 C 0.0 **** 0.0
2 H 28.068 81.331 65.923 H 0.0 **** 0.0
3 H 29.244 82.569 65.419 H 0.0 **** 0.0
4 H 29.809 81.059 66.174 H 0.0 **** 0.0
5 H 28.948 82.273 67.15 H 0.0 **** 0.0
@<TRIPOS>BOND
1 1 2 1
2 1 3 1
3 1 4 1
4 1 5 1
@<TRIPOS>MOLECULE
CH4
5 4
SMALL
USER_CHARGES


@<TRIPOS>ATOM
1 C 13.242 54.796 73.812 C 0.0 **** 0.0
2 H 12.734 55.058 72.884 H 0.0 **** 0.0
3 H 14.04 55.514 74.004 H 0.0 **** 0.0
4 H 13.666 53.796 73.724 H 0.0 **** 0.0
5 H 12.528 54.818 74.636 H 0.0 **** 0.0
@<TRIPOS>BOND
1 1 2 1
2 1 3 1
3 1 4 1
4 1 5 1
@<TRIPOS>MOLECULE
CH4
5 4
SMALL
USER_CHARGES


@<TRIPOS>ATOM
1 C 76.335 71.161 38.446 C 0.0 **** 0.0
2 H 76.912 71.958 38.915 H 0.0 **** 0.0
3 H 75.593 70.786 39.151 H 0.0 **** 0.0
4 H 77.004 70.35 38.156 H 0.0 **** 0.0
5 H 75.831 71.55 37.561 H 0.0 **** 0.0
@<TRIPOS>BOND
1 1 2 1
2 1 3 1
3 1 4 1
4 1 5 1
@<TRIPOS>MOLECULE
CH4
5 4
SMALL
USER_CHARGES


@<TRIPOS>ATOM
1 C 52.657 83.992 68.507 C 0.0 **** 0.0
2 H 53.083 83.705 67.546 H 0.0 **** 0.0
3 H 51.651 84.384 68.355 H 0.0 **** 0.0
4 H 53.28 84.758 68.967 H 0.0 **** 0.0
5 H 52.613 83.12 69.159 H 0.0 **** 0.0
@<TRIPOS>BOND
1 1 2 1
2 1 3 1
3 1 4 1
4 1 5 1
@<TRIPOS>MOLECULE
CH4
5 4
SMALL
USER_CHARGES


@<TRIPOS>ATOM
1 C 69.218 42.183 95.132 C 0.0 **** 0.0
2 H 70.178 42.21 95.647 H 0.0 **** 0.0
3 H 68.433 41.921 95.842 H 0.0 **** 0.0
4 H 69.253 41.439 94.337 H 0.0 **** 0.0
5 H 69.009 43.163 94.704 H 0.0 **** 0.0
@<TRIPOS>BOND
1 1 2 1
2 1 3 1
3 1 4 1
4 1 5 1
@<TRIPOS>MOLECULE
CH4
5 4
SMALL
USER_CHARGES


@<TRIPOS>ATOM
1 C 14.224 61.55 12.206 C 0.0 **** 0.0
2 H 13.882 60.81 12.929 H 0.0 **** 0.0
3 H 15.293 61.716 12.334 H 0.0 **** 0.0
4 H 13.688 62.487 12.365 H 0.0 **** 0.0
5 H 14.03 61.188 11.196 H 0.0 **** 0.0
@<TRIPOS>BOND
1 1 3 1
2 1 4 1
3 1 5 1
4 1 2 1
@<TRIPOS>MOLECULE
CH4
5 4
SMALL
USER_CHARGES


@<TRIPOS>ATOM
1 C 72.746 46.207 62.349 C 0.0 **** 0.0
2 H 72.169 45.296 62.509 H 0.0 **** 0.0
3 H 73.787 46.03 62.622 H 0.0 **** 0.0
4 H 72.339 47.007 62.967 H 0.0 **** 0.0
5 H 72.689 46.493 61.299 H 0.0 **** 0.0
@<TRIPOS>BOND
1 1 2 1
2 1 3 1
3 1 4 1
4 1 5 1
@<TRIPOS>MOLECULE
CH4
5 4
SMALL
USER_CHARGES


@<TRIPOS>ATOM
1 C 53.746 55.668 90.106 C 0.0 **** 0.0
2 H 54.113 55.899 89.107 H 0.0 **** 0.0
3 H 52.708 55.99 90.195 H 0.0 **** 0.0
4 H 54.353 56.19 90.846 H 0.0 **** 0.0
5 H 53.81 54.593 90.277 H 0.0 **** 0.0
@<TRIPOS>BOND
1 1 2 1
2 1 3 1
3 1 4 1
4 1 5 1
@<TRIPOS>MOLECULE
CH4
5 4
SMALL
USER_CHARGES


@<TRIPOS>ATOM
1 C 94.054 79.986 52.886 C 0.0 **** 0.0
2 H 93.939 79.865 53.963 H 0.0 **** 0.0
3 H 94.219 79.011 52.426 H 0.0 **** 0.0
4 H 94.908 80.633 52.683 H 0.0 **** 0.0
5 H 93.152 80.436 52.473 H 0.0 **** 0.0
@<TRIPOS>BOND
1 1 2 1
2 1 3 1
3 1 4 1
4 1 5 1
@<TRIPOS>MOLECULE
CH4
5 4
SMALL
USER_CHARGES


@<TRIPOS>ATOM
1 C 84.917 12.623 67.976 C 0.0 **** 0.0
2 H 84.487 12.502 66.981 H 0.0 **** 0.0
3 H 85.837 12.042 68.046 H 0.0 **** 0.0
4 H 84.206 12.271 68.723 H 0.0 **** 0.0
5 H 85.137 13.676 68.151 H 0.0 **** 0.0
@<TRIPOS>BOND
1 1 2 1
2 1 3 1
3 1 4 1
4 1 5 1
@<TRIPOS>MOLECULE
CH4
5 4
SMALL
USER_CHARGES


@<TRIPOS>ATOM
1 C 7.815 56.771 50.715 C 0.0 **** 0.0
2 H 7.603 55.83 51.224 H 0.0 **** 0.0
3 H 7.398 57.597 51.291 H 0.0 **** 0.0
4 H 7.364 56.756 49.722 H 0.0 **** 0.0
5 H 8.893 56.898 50.623 H 0.0 **** 0.0
@<TRIPOS>BOND
1 1 2 1
2 1 3 1
3 1 4 1
4 1 5 1
@<TRIPOS>MOLECULE
CH4
5 4
SMALL
USER_CHARGES


@<TRIPOS>ATOM
1 C 14.747 18.881 0.938 C 0.0 **** 0.0
2 H 14.063 18.653 1.755 H 0.0 **** 0.0
3 H 15.516 18.11 0.883 H 0.0 **** 0.0
4 H 15.215 19.849 1.116 H 0.0 **** 0.0
5 H 14.194 18.912 -0.001 H 0.0 **** 0.0
@<TRIPOS>BOND
1 1 2 1
2 1 3 1
3 1 4 1
4 1 5 1
@<TRIPOS>MOLECULE
CH4
5 4
SMALL
USER_CHARGES


@<TRIPOS>ATOM
1 C 66.23 35.836 84.569 C 0.0 **** 0.0
2 H 66.54 35.768 83.527 H 0.0 **** 0.0
3 H 65.916 36.857 84.788 H 0.0 **** 0.0
4 H 67.065 35.565 85.215 H 0.0 **** 0.0
5 H 65.398 35.154 84.746 H 0.0 **** 0.0
@<TRIPOS>BOND
1 1 2 1
2 1 3 1
3 1 4 1
4 1 5 1
@<TRIPOS>MOLECULE
CH4
5 4
SMALL
USER_CHARGES


@<TRIPOS>ATOM
1 C 53.474 55.134 43.381 C 0.0 **** 0.0
2 H 53.664 55.508 44.387 H 0.0 **** 0.0
3 H 54.058 55.709 42.663 H 0.0 **** 0.0
4 H 52.413 55.234 43.151 H 0.0 **** 0.0
5 H 53.76 54.083 43.324 H 0.0 **** 0.0
@<TRIPOS>BOND
1 1 2 1
2 1 3 1
3 1 4 1
4 1 5 1
@<TRIPOS>MOLECULE
CH4
5 4
SMALL
USER_CHARGES


@<TRIPOS>ATOM
1 C 51.158 67.038 95.719 C 0.0 **** 0.0
2 H 51.133 66.097 95.171 H 0.0 **** 0.0
3 H 50.156 67.279 96.074 H 0.0 **** 0.0
4 H 51.512 67.832 95.061 H 0.0 **** 0.0
5 H 51.833 66.945 96.57 H 0.0 **** 0.0
@<TRIPOS>BOND
1 1 2 1
2 1 3 1
3 1 4 1
4 1 5 1
@<TRIPOS>MOLECULE
CH4
5 4
SMALL
USER_CHARGES


@<TRIPOS>ATOM
1 C 66.055 8.171 6.13 C 0.0 **** 0.0
2 H 66.108 9.111 6.68 H 0.0 **** 0.0
3 H 66.735 8.21 5.279 H 0.0 **** 0.0
4 H 65.036 8.015 5.776 H 0.0 **** 0.0
5 H 66.341 7.35 6.787 H 0.0 **** 0.0
@<TRIPOS>BOND
1 1 2 1
2 1 3 1
3 1 4 1
4 1 5 1
@<TRIPOS>MOLECULE
CH4
5 4
SMALL
USER_CHARGES


@<TRIPOS>ATOM
1 C 20.837 33.754 23.476 C 0.0 **** 0.0
2 H 21.163 33.562 22.453 H 0.0 **** 0.0
3 H 20.902 34.822 23.682 H 0.0 **** 0.0
4 H 21.477 33.209 24.17 H 0.0 **** 0.0
5 H 19.805 33.422 23.596 H 0.0 **** 0.0
@<TRIPOS>BOND
1 1 2 1
2 1 3 1
3 1 4 1
4 1 5 1
@<TRIPOS>MOLECULE
CH4
5 4
SMALL
USER_CHARGES


@<TRIPOS>ATOM
1 C 6.032 23.695 52.753 C 0.0 **** 0.0
2 H 5.801 23.666 53.818 H 0.0 **** 0.0
3 H 6.523 22.766 52.462 H 0.0 **** 0.0
4 H 6.694 24.536 52.548 H 0.0 **** 0.0
5 H 5.109 23.812 52.185 H 0.0 **** 0.0
@<TRIPOS>BOND
1 1 2 1
2 1 3 1
3 1 4 1
4 1 5 1
@<TRIPOS>MOLECULE
CH4
5 4
SMALL
USER_CHARGES


@<TRIPOS>ATOM
1 C 37.634 19.548 55.781 C 0.0 **** 0.0
2 H 37.261 18.697 56.351 H 0.0 **** 0.0
3 H 37.039 20.431 56.017 H 0.0 **** 0.0
4 H 37.559 19.333 54.715 H 0.0 **** 0.0
5 H 38.676 19.731 56.043 H 0.0 **** 0.0
@<TRIPOS>BOND
1 1 2 1
2 1 3 1
3 1 4 1
4 1 5 1
@<TRIPOS>MOLECULE
CH4
5 4
SMALL
USER_CHARGES


@<TRIPOS>ATOM
1 C 38.047 75.538 16.053 C 0.0 **** 0.0
2 H 38.013 76.626 16.116 H 0.0 **** 0.0
3 H 38.104 75.238 15.006 H 0.0 **** 0.0
4 H 37.147 75.12 16.503 H 0.0 **** 0.0
5 H 38.924 75.171 16.585 H 0.0 **** 0.0
@<TRIPOS>BOND
1 1 2 1
2 1 3 1
3 1 4 1
4 1 5 1
@<TRIPOS>MOLECULE
CH4
5 4
SMALL
USER_CHARGES


@<TRIPOS>ATOM
1 C 90.107 91.543 69.306 C 0.0 **** 0.0
2 H 90.997 92.052 68.934 H 0.0 **** 0.0
3 H 89.952 91.802 70.353 H 0.0 **** 0.0
4 H 90.24 90.466 69.212 H 0.0 **** 0.0
5 H 89.241 91.855 68.722 H 0.0 **** 0.0
@<TRIPOS>BOND
1 1 2 1
2 1 3 1
3 1 4 1
4 1 5 1
@<TRIPOS>MOLECULE
CH4
5 4
SMALL
USER_CHARGES


@<TRIPOS>ATOM
1 C 3.589 98.534 89.59 C 0.0 **** 0.0
2 H 3.458 98.673 90.663 H 0.0 **** 0.0
3 H 2.757 98.999 89.06 H 0.0 **** 0.0
4 H 3.616 97.469 89.362 H 0.0 **** 0.0
5 H 4.524 98.997 89.276 H 0.0 **** 0.0
@<TRIPOS>BOND
1 1 2 1
2 1 3 1
3 1 4 1
4 1 5 1
@<TRIPOS>MOLECULE
CH4
5 4
SMALL
USER_CHARGES


@<TRIPOS>ATOM
1 C 86.469 0.872 84.888 C 0.0 **** 0.0
2 H 86.469 0.922 83.799 H 0.0 **** 0.0
3 H 85.78 0.094 85.216 H 0.0 **** 0.0
4 H 86.153 1.833 85.296 H 0.0 **** 0.0
5 H 87.474 0.641 85.241 H 0.0 **** 0.0
@<TRIPOS>BOND
1 1 2 1
2 1 3 1
3 1 4 1
4 1 5 1
@<TRIPOS>MOLECULE
CH4
5 4
SMALL
USER_CHARGES


@<TRIPOS>ATOM
1 C 42.25 59.616 60.161 C 0.0 **** 0.0
2 H 42.191 59.791 61.235 H 0.0 **** 0.0
3 H 41.384 60.062 59.673 H 0.0 **** 0.0
4 H 42.264 58.543 59.969 H 0.0 **** 0.0
5 H 43.162 60.067 59.769 H 0.0 **** 0.0
@<TRIPOS>BOND
1 1 2 1
2 1 3 1
3 1 4 1
4 1 5 1
@<TRIPOS>MOLECULE
CH4
5 4
SMALL
USER_CHARGES


@<TRIPOS>ATOM
1 C 68.113 47.353 70.044 C 0.0 **** 0.0
2 H 67.885 47.75 69.055 H 0.0 **** 0.0
3 H 67.183 47.136 70.572 H 0.0 **** 0.0
4 H 68.688 48.088 70.607 H 0.0 **** 0.0
5 H 68.695 46.437 69.943 H 0.0 **** 0.0
@<TRIPOS>BOND
1 1 2 1
2 1 3 1
3 1 4 1
4 1 5 1
@<TRIPOS>MOLECULE
CH4
5 4
SMALL
USER_CHARGES


@<TRIPOS>ATOM
1 C 9.187 14.972 72.719 C 0.0 **** 0.0
2 H 9.562 14.523 73.639 H 0.0 **** 0.0
3 H 8.192 14.581 72.503 H 0.0 **** 0.0
4 H 9.859 14.731 71.896 H 0.0 **** 0.0
5 H 9.134 16.054 72.84 H 0.0 **** 0.0
@<TRIPOS>BOND
1 1 2 1
2 1 3 1
3 1 4 1
4 1 5 1
@<TRIPOS>MOLECULE
CH4
5 4
SMALL
USER_CHARGES


@<TRIPOS>ATOM
1 C 81.574 26.517 68.093 C 0.0 **** 0.0
2 H 81.652 26.648 69.172 H 0.0 **** 0.0
3 H 81.706 25.464 67.844 H 0.0 **** 0.0
4 H 82.346 27.107 67.599 H 0.0 **** 0.0
5 H 80.592 26.851 67.757 H 0.0 **** 0.0
@<TRIPOS>BOND
1 1 2 1
2 1 3 1
3 1 4 1
4 1 5 1
@<TRIPOS>MOLECULE
CH4
5 4
SMALL
USER_CHARGES


@<TRIPOS>ATOM
1 C 87.344 60.09 38.19 C 0.0 **** 0.0
2 H 88.104 60.023 38.968 H 0.0 **** 0.0
3 H 86.633 59.272 38.306 H 0.0 **** 0.0
4 H 87.819 60.023 37.211 H 0.0 **** 0.0
5 H 86.82 61.042 38.275 H 0.0 **** 0.0
@<TRIPOS>BOND
1 1 2 1
2 1 3 1
3 1 4 1
4 1 5 1
@<TRIPOS>MOLECULE
CH4
5 4
SMALL
USER_CHARGES


@<TRIPOS>ATOM
1 C 3.941 89.635 7.888 C 0.0 **** 0.0
2 H 3.956 89.929 8.937 H 0.0 **** 0.0
3 H 3.987 90.525 7.261 H 0.0 **** 0.0
4 H 3.021 89.089 7.677 H 0.0 **** 0.0
5 H 4.799 88.996 7.677 H 0.0 **** 0.0
@<TRIPOS>BOND
1 1 2 1
2 1 3 1
3 1 4 1
4 1 5 1
@<TRIPOS>MOLECULE
CH4
5 4
SMALL
USER_CHARGES


@<TRIPOS>ATOM
1 C 78.772 65.099 16.116 C 0.0 **** 0.0
2 H 79.268 65.793 15.436 H 0.0 **** 0.0
3 H 79.512 64.428 16.552 H 0.0 **** 0.0
4 H 78.033 64.517 15.565 H 0.0 **** 0.0
5 H 78.277 65.659 16.909 H 0.0 **** 0.0
@<TRIPOS>BOND
1 1 2 1
2 1 3 1
3 1 4 1
4 1 5 1
@<TRIPOS>MOLECULE
CH4
5 4
SMALL
USER_CHARGES


@<TRIPOS>ATOM
1 C 39.478 36.526 95.045 C 0.0 **** 0.0
2 H 39.665 35.473 94.834 H 0.0 **** 0.0
3 H 38.407 36.686 95.174 H 0.0 **** 0.0
4 H 39.839 37.133 94.214 H 0.0 **** 0.0
5 H 40.001 36.812 95.957 H 0.0 **** 0.0
@<TRIPOS>BOND
1 1 2 1
2 1 3 1
3 1 4 1
4 1 5 1
@<TRIPOS>MOLECULE
CH4
5 4
SMALL
USER_CHARGES


@<TRIPOS>ATOM
1 C 67.967 31.533 63.729 C 0.0 **** 0.0
2 H 67.369 31.254 62.862 H 0.0 **** 0.0
3 H 68.622 30.705 64.001 H 0.0 **** 0.0
4 H 67.308 31.765 64.566 H 0.0 **** 0.0
5 H 68.57 32.409 63.488 H 0.0 **** 0.0
@<TRIPOS>BOND
1 1 2 1
2 1 3 1
3 1 4 1
4 1 5 1
@<TRIPOS>MOLECULE
CH4
5 4
SMALL
USER_CHARGES


@<TRIPOS>ATOM
1 C 51.882 88.808 42.38 C 0.0 **** 0.0
2 H 51.952 88.943 43.459 H 0.0 **** 0.0
3 H 51.794 89.782 41.897 H 0.0 **** 0.0
4 H 51.004 88.206 42.146 H 0.0 **** 0.0
5 H 52.776 88.302 42.018 H 0.0 **** 0.0
@<TRIPOS>BOND
1 1 2 1
2 1 3 1
3 1 4 1
4 1 5 1
@<TRIPOS>MOLECULE
CH4
5 4
SMALL
USER_CHARGES


@<TRIPOS>ATOM
1 C 90.718 95.399 14.36 C 0.0 **** 0.0
2 H 91.206 96.08 13.662 H 0.0 **** 0.0
3 H 90.76 94.384 13.966 H 0.0 **** 0.0
4 H 89.677 95.697 14.489 H 0.0 **** 0.0
5 H 91.229 95.438 15.322 H 0.0 **** 0.0
@<TRIPOS>BOND
1 1 2 1
2 1 3 1
3 1 4 1
4 1 5 1
@<TRIPOS>MOLECULE
CH4
5 4
SMALL
USER_CHARGES


@<TRIPOS>ATOM
1 C 64.846 16.605 47.189 C 0.0 **** 0.0
2 H 64.355 16.718 46.223 H 0.0 **** 0.0
3 H 64.594 15.633 47.613 H 0.0 **** 0.0
4 H 64.51 17.394 47.862 H 0.0 **** 0.0
5 H 65.926 16.676 47.058 H 0.0 **** 0.0
@<TRIPOS>BOND
1 1 2 1
2 1 3 1
3 1 4 1
4 1 5 1
@<TRIPOS>MOLECULE
CH4
5 4
SMALL
USER_CHARGES


@<TRIPOS>ATOM
1 C 24.868 55.921 24.681 C 0.0 **** 0.0
2 H 24.418 55.141 25.296 H 0.0 **** 0.0
3 H 24.143 56.718 24.517 H 0.0 **** 0.0
4 H 25.169 55.499 23.722 H 0.0 **** 0.0
5 H 25.743 56.325 25.191 H 0.0 **** 0.0
@<TRIPOS>BOND
1 1 2 1
2 1 3 1
3 1 4 1
4 1 5 1
@<TRIPOS>MOLECULE
CH4
5 4
SMALL
USER_CHARGES


@<TRIPOS>ATOM
1 C 61.333 23.383 42.182 C 0.0 **** 0.0
2 H 60.342 23.069 42.511 H 0.0 **** 0.0
3 H 61.959 22.504 42.025 H 0.0 **** 0.0
4 H 61.784 24.019 42.943 H 0.0 **** 0.0
5 H 61.245 23.939 41.248 H 0.0 **** 0.0
@<TRIPOS>BOND
1 1 2 1
2 1 3 1
3 1 4 1
4 1 5 1
@<TRIPOS>MOLECULE
CH4
5 4
SMALL
USER_CHARGES


@<TRIPOS>ATOM
1 C 54.711 89.565 24.924 C 0.0 **** 0.0
2 H 55.571 88.954 24.649 H 0.0 **** 0.0
3 H 54.13 89.051 25.69 H 0.0 **** 0.0
4 H 54.088 89.732 24.045 H 0.0 **** 0.0
5 H 55.056 90.524 25.312 H 0.0 **** 0.0
@<TRIPOS>BOND
1 1 2 1
2 1 3 1
3 1 4 1
4 1 5 1
@<TRIPOS>MOLECULE
CH4
5 4
SMALL
USER_CHARGES


@<TRIPOS>ATOM
1 C 29.132 32.276 5.539 C 0.0 **** 0.0
2 H 28.629 33.201 5.254 H 0.0 **** 0.0
3 H 30.192 32.473 5.698 H 0.0 **** 0.0
4 H 29.014 31.539 4.744 H 0.0 **** 0.0
5 H 28.69 31.892 6.458 H 0.0 **** 0.0
@<TRIPOS>BOND
1 1 3 1
2 1 2 1
3 1 4 1
4 1 5 1
@<TRIPOS>MOLECULE
CH4
5 4
SMALL
USER_CHARGES


@<TRIPOS>ATOM
1 C 3.225 72.516 17.924 C 0.0 **** 0.0
2 H 3.202 72.494 16.835 H 0.0 **** 0.0
3 H 3.073 73.538 18.27 H 0.0 **** 0.0
4 H 4.192 72.154 18.274 H 0.0 **** 0.0
5 H 2.435 71.877 18.317 H 0.0 **** 0.0
@<TRIPOS>BOND
1 1 2 1
2 1 3 1
3 1 4 1
4 1 5 1
@<TRIPOS>MOLECULE
CH4
5 4
SMALL
USER_CHARGES


@<TRIPOS>ATOM
1 C 24.67 31.396 83.368 C 0.0 **** 0.0
2 H 25.498 30.755 83.668 H 0.0 **** 0.0
3 H 24.637 32.274 84.014 H 0.0 **** 0.0
4 H 23.733 30.845 83.456 H 0.0 **** 0.0
5 H 24.81 31.71 82.334 H 0.0 **** 0.0
@<TRIPOS>BOND
1 1 2 1
2 1 3 1
3 1 4 1
4 1 5 1
@<TRIPOS>MOLECULE
CH4
5 4
SMALL
USER_CHARGES


@<TRIPOS>ATOM
1 C 85.76 7.736 81.171 C 0.0 **** 0.0
2 H 86.377 7.897 82.056 H 0.0 **** 0.0
3 H 85.817 8.612 80.525 H 0.0 **** 0.0
4 H 84.726 7.574 81.474 H 0.0 **** 0.0
5 H 86.122 6.861 80.631 H 0.0 **** 0.0
@<TRIPOS>BOND
1 1 2 1
2 1 3 1
3 1 4 1
4 1 5 1
@<TRIPOS>MOLECULE
CH4
5 4
SMALL
USER_CHARGES


@<TRIPOS>ATOM
1 C 28.159 92.958 75.83 C 0.0 **** 0.0
2 H 28.992 92.498 76.362 H 0.0 **** 0.0
3 H 28.53 93.776 75.212 H 0.0 **** 0.0
4 H 27.438 93.345 76.55 H 0.0 **** 0.0
5 H 27.676 92.214 75.197 H 0.0 **** 0.0
@<TRIPOS>BOND
1 1 2 1
2 1 3 1
3 1 4 1
4 1 5 1
@<TRIPOS>MOLECULE
CH4
5 4
SMALL
USER_CHARGES


@<TRIPOS>ATOM
1 C 45.221 92.05 76.519 C 0.0 **** 0.0
2 H 45.47 92.985 76.017 H 0.0 **** 0.0
3 H 46.121 91.443 76.623 H 0.0 **** 0.0
4 H 44.482 91.508 75.93 H 0.0 **** 0.0
5 H 44.812 92.267 77.506 H 0.0 **** 0.0
@<TRIPOS>BOND
1 1 2 1
2 1 3 1
3 1 4 1
4 1 5 1
@<TRIPOS>MOLECULE
CH4
5 4
SMALL
USER_CHARGES


@<TRIPOS>ATOM
1 C 96.147 47.936 89.238 C 0.0 **** 0.0
2 H 97.18 47.649 89.037 H 0.0 **** 0.0
3 H 95.606 48.025 88.296 H 0.0 **** 0.0
4 H 96.131 48.893 89.759 H 0.0 **** 0.0
5 H 95.674 47.175 89.858 H 0.0 **** 0.0
@<TRIPOS>BOND
1 1 2 1
2 1 3 1
3 1 4 1
4 1 5 1
@<TRIPOS>MOLECULE
CH4
5 4
SMALL
USER_CHARGES


@<TRIPOS>ATOM
1 C 92.545 31.407 70.391 C 0.0 **** 0.0
2 H 93.234 32.119 69.937 H 0.0 **** 0.0
3 H 93.11 30.664 70.955 H 0.0 **** 0.0
4 H 91.969 30.91 69.611 H 0.0 **** 0.0
5 H 91.867 31.935 71.062 H 0.0 **** 0.0
@<TRIPOS>BOND
1 1 2 1
2 1 3 1
3 1 4 1
4 1 5 1
@<TRIPOS>MOLECULE
CH4
5 4
SMALL
USER_CHARGES


@<TRIPOS>ATOM
1 C 73.931 38.835 74.685 C 0.0 **** 0.0
2 H 73.918 38.78 75.773 H 0.0 **** 0.0
3 H 72.917 38.997 74.317 H 0.0 **** 0.0
4 H 74.32 37.902 74.278 H 0.0 **** 0.0
5 H 74.568 39.662 74.371 H 0.0 **** 0.0
@<TRIPOS>BOND
1 1 2 1
2 1 3 1
3 1 4 1
4 1 5 1
@<TRIPOS>MOLECULE
CH4
5 4
SMALL
USER_CHARGES


@<TRIPOS>ATOM
1 C 54.333 76.771 78.022 C 0.0 **** 0.0
2 H 53.698 77.085 77.193 H 0.0 **** 0.0
3 H 54.482 75.692 77.976 H 0.0 **** 0.0
4 H 53.854 77.032 78.966 H 0.0 **** 0.0
5 H 55.297 77.275 77.952 H 0.0 **** 0.0
@<TRIPOS>BOND
1 1 2 1
2 1 3 1
3 1 4 1
4 1 5 1
@<TRIPOS>MOLECULE
CH4
5 4
SMALL
USER_CHARGES


@<TRIPOS>ATOM
1 C 80.786 48.288 60.326 C 0.0 **** 0.0
2 H 80.582 48.048 59.283 H 0.0 **** 0.0
3 H 79.933 48.819 60.75 H 0.0 **** 0.0
4 H 81.673 48.918 60.386 H 0.0 **** 0.0
5 H 80.955 47.367 60.884 H 0.0 **** 0.0
@<TRIPOS>BOND
1 1 2 1
2 1 3 1
3 1 4 1
4 1 5 1
@<TRIPOS>MOLECULE
CH4
5 4
SMALL
USER_CHARGES


@<TRIPOS>ATOM
1 C 48.719 21.226 47.469 C 0.0 **** 0.0
2 H 49.731 21.03 47.113 H 0.0 **** 0.0
3 H 48.269 22.017 46.868 H 0.0 **** 0.0
4 H 48.757 21.539 48.513 H 0.0 **** 0.0
5 H 48.122 20.319 47.384 H 0.0 **** 0.0
@<TRIPOS>BOND
1 1 2 1
2 1 3 1
3 1 4 1
4 1 5 1
@<TRIPOS>MOLECULE
CH4
5 4
SMALL
USER_CHARGES


@<TRIPOS>ATOM
1 C 53.292 20.457 48.698 C 0.0 **** 0.0
2 H 53.026 20.748 47.682 H 0.0 **** 0.0
3 H 53.826 21.275 49.182 H 0.0 **** 0.0
4 H 53.93 19.574 48.668 H 0.0 **** 0.0
5 H 52.386 20.232 49.26 H 0.0 **** 0.0
@<TRIPOS>BOND
1 1 2 1
2 1 3 1
3 1 4 1
4 1 5 1
@<TRIPOS>MOLECULE
CH4
5 4
SMALL
USER_CHARGES


@<TRIPOS>ATOM
1 C 76.156 50.494 41.768 C 0.0 **** 0.0
2 H 76.361 50.85 40.758 H 0.0 **** 0.0
3 H 75.198 50.891 42.106 H 0.0 **** 0.0
4 H 76.946 50.83 42.439 H 0.0 **** 0.0
5 H 76.118 49.404 41.768 H 0.0 **** 0.0
@<TRIPOS>BOND
1 1 2 1
2 1 3 1
3 1 4 1
4 1 5 1
@<TRIPOS>MOLECULE
CH4
5 4
SMALL
USER_CHARGES


@<TRIPOS>ATOM
1 C 9.077 89.3 18.297 C 0.0 **** 0.0
2 H 8.321 89.164 19.069 H 0.0 **** 0.0
3 H 9.425 88.326 17.953 H 0.0 **** 0.0
4 H 9.916 89.863 18.706 H 0.0 **** 0.0
5 H 8.646 89.849 17.459 H 0.0 **** 0.0
@<TRIPOS>BOND
1 1 2 1
2 1 3 1
3 1 4 1
4 1 5 1
@<TRIPOS>MOLECULE
CH4
5 4
SMALL
USER_CHARGES


@<TRIPOS>ATOM
1 C 67.159 46.664 96.413 C 0.0 **** 0.0
2 H 67.761 46.215 95.623 H 0.0 **** 0.0
3 H 67.636 47.584 96.753 H 0.0 **** 0.0
4 H 67.077 45.968 97.247 H 0.0 **** 0.0
5 H 66.165 46.89 96.029 H 0.0 **** 0.0
@<TRIPOS>BOND
1 1 2 1
2 1 3 1
3 1 4 1
4 1 5 1
@<TRIPOS>MOLECULE
CH4
5 4
SMALL
USER_CHARGES


@<TRIPOS>ATOM
1 C 57.676 97.822 59.014 C 0.0 **** 0.0
2 H 57.618 97.757 57.927 H 0.0 **** 0.0
3 H 57.872 98.854 59.306 H 0.0 **** 0.0
4 H 58.482 97.183 59.374 H 0.0 **** 0.0
5 H 56.731 97.495 59.447 H 0.0 **** 0.0
@<TRIPOS>BOND
1 1 2 1
2 1 3 1
3 1 4 1
4 1 5 1
@<TRIPOS>MOLECULE
CH4
5 4
SMALL
USER_CHARGES


@<TRIPOS>ATOM
1 C 39.944 70.375 64.744 C 0.0 **** 0.0
2 H 39.207 69.753 64.237 H 0.0 **** 0.0
3 H 39.57 71.397 64.814 H 0.0 **** 0.0
4 H 40.876 70.367 64.178 H 0.0 **** 0.0
5 H 40.124 69.983 65.745 H 0.0 **** 0.0
@<TRIPOS>BOND
1 1 2 1
2 1 3 1
3 1 4 1
4 1 5 1
@<TRIPOS>MOLECULE
CH4
5 4
SMALL
USER_CHARGES


@<TRIPOS>ATOM
1 C 61.615 35.469 89.685 C 0.0 **** 0.0
2 H 60.625 35.674 89.277 H 0.0 **** 0.0
3 H 62.295 36.276 89.412 H 0.0 **** 0.0
4 H 61.987 34.528 89.28 H 0.0 **** 0.0
5 H 61.553 35.397 90.771 H 0.0 **** 0.0
@<TRIPOS>BOND
1 1 2 1
2 1 3 1
3 1 4 1
4 1 5 1
@<TRIPOS>MOLECULE
CH4
5 4
SMALL
USER_CHARGES


@<TRIPOS>ATOM
1 C 90.075 50.659 15.846 C 0.0 **** 0.0
2 H 89.838 51.274 16.714 H 0.0 **** 0.0
3 H 90.462 49.695 16.178 H 0.0 **** 0.0
4 H 90.827 51.163 15.238 H 0.0 **** 0.0
5 H 89.173 50.505 15.253 H 0.0 **** 0.0
@<TRIPOS>BOND
1 1 2 1
2 1 3 1
3 1 4 1
4 1 5 1
@<TRIPOS>MOLECULE
CH4
5 4
SMALL
USER_CHARGES


@<TRIPOS>ATOM
1 C 71.324 30.102 75.228 C 0.0 **** 0.0
2 H 72.289 30.073 74.721 H 0.0 **** 0.0
3 H 71.481 30.209 76.301 H 0.0 **** 0.0
4 H 70.782 29.178 75.03 H 0.0 **** 0.0
5 H 70.745 30.949 74.858 H 0.0 **** 0.0
@<TRIPOS>BOND
1 1 2 1
2 1 3 1
3 1 4 1
4 1 5 1
@<TRIPOS>MOLECULE
CH4
5 4
SMALL
USER_CHARGES


@<TRIPOS>ATOM
1 C 43.654 40.649 29.295 C 0.0 **** 0.0
2 H 43.879 41.715 29.295 H 0.0 **** 0.0
3 H 43.379 40.336 30.302 H 0.0 **** 0.0
4 H 44.532 40.092 28.968 H 0.0 **** 0.0
5 H 42.826 40.453 28.614 H 0.0 **** 0.0
@<TRIPOS>BOND
1 1 2 1
2 1 3 1
3 1 4 1
4 1 5 1
@<TRIPOS>MOLECULE
CH4
5 4
SMALL
USER_CHARGES


@<TRIPOS>ATOM
1 C 49.909 74.893 71.72 C 0.0 **** 0.0
2 H 49.349 75.826 71.779 H 0.0 **** 0.0
3 H 49.231 74.052 71.865 H 0.0 **** 0.0
4 H 50.676 74.88 72.494 H 0.0 **** 0.0
5 H 50.381 74.814 70.74 H 0.0 **** 0.0
@<TRIPOS>BOND
1 1 2 1
2 1 3 1
3 1 4 1
4 1 5 1
@<TRIPOS>MOLECULE
CH4
5 4
SMALL
USER_CHARGES


@<TRIPOS>ATOM
1 C 63.745 21.19 52.601 C 0.0 **** 0.0
2 H 63.785 20.405 53.355 H 0.0 **** 0.0
3 H 63.991 20.77 51.626 H 0.0 **** 0.0
4 H 64.462 21.972 52.852 H 0.0 **** 0.0
5 H 62.741 21.614 52.571 H 0.0 **** 0.0
@<TRIPOS>BOND
1 1 2 1
2 1 3 1
3 1 4 1
4 1 5 1
@<TRIPOS>MOLECULE
CH4
5 4
SMALL
USER_CHARGES


@<TRIPOS>ATOM
1 C 14.129 10.157 38.494 C 0.0 **** 0.0
2 H 14.984 9.575 38.15 H 0.0 **** 0.0
3 H 14.098 10.149 39.584 H 0.0 **** 0.0
4 H 13.211 9.721 38.101 H 0.0 **** 0.0
5 H 14.223 11.184 38.141 H 0.0 **** 0.0
@<TRIPOS>BOND
1 1 2 1
2 1 3 1
3 1 4 1
4 1 5 1
@<TRIPOS>MOLECULE
CH4
5 4
SMALL
USER_CHARGES


@<TRIPOS>ATOM
1 C 49.09 53.338 2.579 C 0.0 **** 0.0
2 H 48.541 53.5 3.506 H 0.0 **** 0.0
3 H 50.082 53.782 2.663 H 0.0 **** 0.0
4 H 48.552 53.802 1.753 H 0.0 **** 0.0
5 H 49.185 52.268 2.395 H 0.0 **** 0.0
@<TRIPOS>BOND
1 1 2 1
2 1 3 1
3 1 4 1
4 1 5 1
@<TRIPOS>MOLECULE
CH4
5 4
SMALL
USER_CHARGES


@<TRIPOS>ATOM
1 C 23.881 47.26 78.133 C 0.0 **** 0.0
2 H 24.734 46.694 78.507 H 0.0 **** 0.0
3 H 23.027 46.593 78.013 H 0.0 **** 0.0
4 H 24.134 47.704 77.17 H 0.0 **** 0.0
5 H 23.63 48.049 78.841 H 0.0 **** 0.0
@<TRIPOS>BOND
1 1 2 1
2 1 3 1
3 1 4 1
4 1 5 1
@<TRIPOS>MOLECULE
CH4
5 4
SMALL
USER_CHARGES


@<TRIPOS>ATOM
1 C 70.278 64.701 61.228 C 0.0 **** 0.0
2 H 70.436 64.471 62.281 H 0.0 **** 0.0
3 H 69.288 64.358 60.926 H 0.0 **** 0.0
4 H 71.036 64.196 60.628 H 0.0 **** 0.0
5 H 70.353 65.777 61.075 H 0.0 **** 0.0
@<TRIPOS>BOND
1 1 2 1
2 1 3 1
3 1 4 1
4 1 5 1
@<TRIPOS>MOLECULE
CH4
5 4
SMALL
USER_CHARGES


@<TRIPOS>ATOM
1 C 16.878 66.183 30.313 C 0.0 **** 0.0
2 H 16.357 67.054 30.708 H 0.0 **** 0.0
3 H 17.542 65.779 31.078 H 0.0 **** 0.0
4 H 17.463 66.474 29.441 H 0.0 **** 0.0
5 H 16.15 65.424 30.026 H 0.0 **** 0.0
@<TRIPOS>BOND
1 1 2 1
2 1 3 1
3 1 4 1
4 1 5 1
@<TRIPOS>MOLECULE
CH4
5 4
SMALL
USER_CHARGES


@<TRIPOS>ATOM
1 C 78.169 49.867 74.679 C 0.0 **** 0.0
2 H 77.697 49.606 73.732 H 0.0 **** 0.0
3 H 78.598 48.972 75.131 H 0.0 **** 0.0
4 H 77.424 50.293 75.351 H 0.0 **** 0.0
5 H 78.958 50.599 74.502 H 0.0 **** 0.0
@<TRIPOS>BOND
1 1 2 1
2 1 3 1
3 1 4 1
4 1 5 1
@<TRIPOS>MOLECULE
CH4
5 4
SMALL
USER_CHARGES


@<TRIPOS>ATOM
1 C 57.872 62.323 77.493 C 0.0 **** 0.0
2 H 57.608 61.359 77.058 H 0.0 **** 0.0
3 H 58.482 62.166 78.383 H 0.0 **** 0.0
4 H 56.963 62.859 77.766 H 0.0 **** 0.0
5 H 58.434 62.908 76.765 H 0.0 **** 0.0
@<TRIPOS>BOND
1 1 2 1
2 1 3 1
3 1 4 1
4 1 5 1
@<TRIPOS>MOLECULE
CH4
5 4
SMALL
USER_CHARGES


@<TRIPOS>ATOM
1 C 1.324 46.596 37.009 C 0.0 **** 0.0
2 H 1.408 47.243 36.136 H 0.0 **** 0.0
3 H 1.345 45.554 36.692 H 0.0 **** 0.0
4 H 0.385 46.801 37.523 H 0.0 **** 0.0
5 H 2.158 46.788 37.685 H 0.0 **** 0.0
@<TRIPOS>BOND
1 1 2 1
2 1 3 1
3 1 4 1
4 1 5 1
@<TRIPOS>MOLECULE
CH4
5 4
SMALL
USER_CHARGES


@<TRIPOS>ATOM
1 C 35.131 28.514 3.099 C 0.0 **** 0.0
2 H 34.797 28.613 4.131 H 0.0 **** 0.0
3 H 36.09 27.995 3.075 H 0.0 **** 0.0
4 H 35.242 29.504 2.657 H 0.0 **** 0.0
5 H 34.395 27.944 2.532 H 0.0 **** 0.0
@<TRIPOS>BOND
1 1 2 1
2 1 3 1
3 1 4 1
4 1 5 1
@<TRIPOS>MOLECULE
CH4
5 4
SMALL
USER_CHARGES


@<TRIPOS>ATOM
1 C 13.402 7.135 69.169 C 0.0 **** 0.0
2 H 13.514 8.142 69.57 H 0.0 **** 0.0
3 H 13.524 7.16 68.086 H 0.0 **** 0.0
4 H 12.41 6.755 69.414 H 0.0 **** 0.0
5 H 14.159 6.484 69.605 H 0.0 **** 0.0
@<TRIPOS>BOND
1 1 2 1
2 1 3 1
3 1 4 1
4 1 5 1
@<TRIPOS>MOLECULE
CH4
5 4
SMALL
USER_CHARGES


@<TRIPOS>ATOM
1 C 53.76 84.704 32.797 C 0.0 **** 0.0
2 H 53.801 85.66 33.32 H 0.0 **** 0.0
3 H 52.991 84.076 33.248 H 0.0 **** 0.0
4 H 54.727 84.207 32.872 H 0.0 **** 0.0
5 H 53.52 84.875 31.747 H 0.0 **** 0.0
@<TRIPOS>BOND
1 1 4 1
2 1 5 1
3 1 2 1
4 1 3 1
@<TRIPOS>MOLECULE
CH4
5 4
SMALL
USER_CHARGES


@<TRIPOS>ATOM
1 C 43.45 72.655 96.147 C 0.0 **** 0.0
2 H 42.38 72.684 95.939 H 0.0 **** 0.0
3 H 43.906 73.595 95.833 H 0.0 **** 0.0
4 H 43.903 71.83 95.598 H 0.0 **** 0.0
5 H 43.609 72.512 97.215 H 0.0 **** 0.0
@<TRIPOS>BOND
1 1 2 1
2 1 3 1
3 1 4 1
4 1 5 1
@<TRIPOS>MOLECULE
CH4
5 4
SMALL
USER_CHARGES


@<TRIPOS>ATOM
1 C 55.858 86.39 26.281 C 0.0 **** 0.0
2 H 55.64 86.677 27.31 H 0.0 **** 0.0
3 H 55.836 85.304 26.195 H 0.0 **** 0.0
4 H 56.846 86.757 26.004 H 0.0 **** 0.0
5 H 55.11 86.823 25.618 H 0.0 **** 0.0
@<TRIPOS>BOND
1 1 2 1
2 1 3 1
3 1 4 1
4 1 5 1
@<TRIPOS>MOLECULE
CH4
5 4
SMALL
USER_CHARGES


@<TRIPOS>ATOM
1 C 61.127 17.816 34.504 C 0.0 **** 0.0
2 H 61.019 17.809 33.419 H 0.0 **** 0.0
3 H 61.726 18.676 34.803 H 0.0 **** 0.0
4 H 61.622 16.899 34.826 H 0.0 **** 0.0
5 H 60.143 17.879 34.967 H 0.0 **** 0.0
@<TRIPOS>BOND
1 1 2 1
2 1 3 1
3 1 4 1
4 1 5 1
@<TRIPOS>MOLECULE
CH4
5 4
SMALL
USER_CHARGES


@<TRIPOS>ATOM
1 C 22.108 11.331 87.582 C 0.0 **** 0.0
2 H 21.505 10.822 86.83 H 0.0 **** 0.0
3 H 23.018 11.713 87.119 H 0.0 **** 0.0
4 H 22.37 10.63 88.374 H 0.0 **** 0.0
5 H 21.539 12.16 88.004 H 0.0 **** 0.0
@<TRIPOS>BOND
1 1 2 1
2 1 3 1
3 1 4 1
4 1 5 1
@<TRIPOS>MOLECULE
CH4
5 4
SMALL
USER_CHARGES


@<TRIPOS>ATOM
1 C 53.762 8.725 65.615 C 0.0 **** 0.0
2 H 54.206 9.36 66.382 H 0.0 **** 0.0
3 H 53.114 7.985 66.087 H 0.0 **** 0.0
4 H 54.552 8.217 65.062 H 0.0 **** 0.0
5 H 53.176 9.338 64.931 H 0.0 **** 0.0
@<TRIPOS>BOND
1 1 2 1
2 1 3 1
3 1 4 1
4 1 5 1
@<TRIPOS>MOLECULE
CH4
5 4
SMALL
USER_CHARGES


@<TRIPOS>ATOM
1 C 61.727 55.405 37.589 C 0.0 **** 0.0
2 H 61.815 56.093 38.431 H 0.0 **** 0.0
3 H 60.918 55.734 36.936 H 0.0 **** 0.0
4 H 61.511 54.403 37.96 H 0.0 **** 0.0
5 H 62.663 55.393 37.031 H 0.0 **** 0.0
@<TRIPOS>BOND
1 1 2 1
2 1 3 1
3 1 4 1
4 1 5 1
@<TRIPOS>MOLECULE
CH4
5 4
SMALL
USER_CHARGES


@<TRIPOS>ATOM
1 C 28.349 37.02 40.236 C 0.0 **** 0.0
2 H 28.252 36.942 41.319 H 0.0 **** 0.0
3 H 29.211 37.641 39.992 H 0.0 **** 0.0
4 H 27.447 37.472 39.822 H 0.0 **** 0.0
5 H 28.484 36.026 39.811 H 0.0 **** 0.0
@<TRIPOS>BOND
1 1 2 1
2 1 3 1
3 1 4 1
4 1 5 1
@<TRIPOS>MOLECULE
CH4
5 4
SMALL
USER_CHARGES


@<TRIPOS>ATOM
1 C 33.926 14.232 14.524 C 0.0 **** 0.0
2 H 33.893 14.265 15.613 H 0.0 **** 0.0
3 H 32.909 14.217 14.131 H 0.0 **** 0.0
4 H 34.453 13.333 14.204 H 0.0 **** 0.0
5 H 34.448 15.112 14.149 H 0.0 **** 0.0
@<TRIPOS>BOND
1 1 2 1
2 1 3 1
3 1 4 1
4 1 5 1
@<TRIPOS>MOLECULE
CH4
5 4
SMALL
USER_CHARGES


@<TRIPOS>ATOM
1 C 15.797 42.267 39.405 C 0.0 **** 0.0
2 H 16.365 42.085 40.317 H 0.0 **** 0.0
3 H 15.949 43.297 39.082 H 0.0 **** 0.0
4 H 14.737 42.099 39.598 H 0.0 **** 0.0
5 H 16.137 41.587 38.624 H 0.0 **** 0.0
@<TRIPOS>BOND
1 1 2 1
2 1 3 1
3 1 4 1
4 1 5 1
@<TRIPOS>MOLECULE
CH4
5 4
SMALL
USER_CHARGES


@<TRIPOS>ATOM
1 C 14.454 38.68 39.897 C 0.0 **** 0.0
2 H 13.667 38.722 40.65 H 0.0 **** 0.0
3 H 14.638 39.682 39.508 H 0.0 **** 0.0
4 H 14.144 38.025 39.083 H 0.0 **** 0.0
5 H 15.367 38.292 40.349 H 0.0 **** 0.0
@<TRIPOS>BOND
1 1 2 1
2 1 3 1
3 1 4 1
4 1 5 1
@<TRIPOS>MOLECULE
CH4
5 4
SMALL
USER_CHARGES


@<TRIPOS>ATOM
1 C 76.514 35.095 94.38 C 0.0 **** 0.0
2 H 76.246 35.397 95.392 H 0.0 **** 0.0
3 H 77.481 34.592 94.395 H 0.0 **** 0.0
4 H 76.572 35.977 93.742 H 0.0 **** 0.0
5 H 75.756 34.414 93.991 H 0.0 **** 0.0
@<TRIPOS>BOND
1 1 2 1
2 1 3 1
3 1 4 1
4 1 5 1
@<TRIPOS>MOLECULE
CH4
5 4
SMALL
USER_CHARGES


@<TRIPOS>ATOM
1 C 42.113 10.719 34.308 C 0.0 **** 0.0
2 H 43.086 10.884 33.845 H 0.0 **** 0.0
3 H 42.252 10.299 35.304 H 0.0 **** 0.0
4 H 41.534 10.026 33.698 H 0.0 **** 0.0
5 H 41.582 11.668 34.383 H 0.0 **** 0.0
@<TRIPOS>BOND
1 1 2 1
2 1 3 1
3 1 4 1
4 1 5 1
@<TRIPOS>MOLECULE
CH4
5 4
SMALL
USER_CHARGES


@<TRIPOS>ATOM
1 C 84.03 71.193 49.354 C 0.0 **** 0.0
2 H 83.987 71.685 50.326 H 0.0 **** 0.0
3 H 83.064 70.736 49.135 H 0.0 **** 0.0
4 H 84.801 70.423 49.371 H 0.0 **** 0.0
5 H 84.268 71.928 48.585 H 0.0 **** 0.0
@<TRIPOS>BOND
1 1 2 1
2 1 3 1
3 1 4 1
4 1 5 1
@<TRIPOS>MOLECULE
CH4
5 4
SMALL
USER_CHARGES


@<TRIPOS>ATOM
1 C 54.679 86.785 66.793 C 0.0 **** 0.0
2 H 54.723 87.576 67.542 H 0.0 **** 0.0
3 H 55.392 86.001 67.051 H 0.0 **** 0.0
4 H 54.927 87.196 65.815 H 0.0 **** 0.0
5 H 53.672 86.366 66.767 H 0.0 **** 0.0
@<TRIPOS>BOND
1 1 2 1
2 1 3 1
3 1 4 1
4 1 5 1
@<TRIPOS>MOLECULE
CH4
5 4
SMALL
USER_CHARGES


@<TRIPOS>ATOM
1 C 16.455 90.155 28.96 C 0.0 **** 0.0
2 H 16.709 89.42 28.197 H 0.0 **** 0.0
3 H 16.323 89.653 29.918 H 0.0 **** 0.0
4 H 15.529 90.661 28.684 H 0.0 **** 0.0
5 H 17.258 90.887 29.041 H 0.0 **** 0.0
@<TRIPOS>BOND
1 1 2 1
2 1 3 1
3 1 4 1
4 1 5 1
@<TRIPOS>MOLECULE
CH4
5 4
SMALL
USER_CHARGES


@<TRIPOS>ATOM
1 C 27.324 52.746 90.641 C 0.0 **** 0.0
2 H 27.381 52.714 91.729 H 0.0 **** 0.0
3 H 26.285 52.64 90.328 H 0.0 **** 0.0
4 H 27.915 51.931 90.222 H 0.0 **** 0.0
5 H 27.716 53.698 90.285 H 0.0 **** 0.0
@<TRIPOS>BOND
1 1 2 1
2 1 3 1
3 1 4 1
4 1 5 1
@<TRIPOS>MOLECULE
CH4
5 4
SMALL
USER_CHARGES


@<TRIPOS>ATOM
1 C 58.561 67.619 92.236 C 0.0 **** 0.0
2 H 58.375 68.658 92.507 H 0.0 **** 0.0
3 H 58.301 66.973 93.075 H 0.0 **** 0.0
4 H 59.616 67.491 91.992 H 0.0 **** 0.0
5 H 57.954 67.355 91.371 H 0.0 **** 0.0
@<TRIPOS>BOND
1 1 2 1
2 1 3 1
3 1 4 1
4 1 5 1
@<TRIPOS>MOLECULE
CH4
5 4
SMALL
USER_CHARGES


@<TRIPOS>ATOM
1 C 13.641 34.534 97.726 C 0.0 **** 0.0
2 H 13.649 33.542 97.275 H 0.0 **** 0.0
3 H 14.07 34.481 98.727 H 0.0 **** 0.0
4 H 12.615 34.896 97.789 H 0.0 **** 0.0
5 H 14.23 35.217 97.113 H 0.0 **** 0.0
@<TRIPOS>BOND
1 1 2 1
2 1 3 1
3 1 4 1
4 1 5 1
@<TRIPOS>MOLECULE
CH4
5 4
SMALL
USER_CHARGES


@<TRIPOS>ATOM
1 C 71.289 50.337 7.784 C 0.0 **** 0.0
2 H 71.128 49.682 8.64 H 0.0 **** 0.0
3 H 70.509 50.163 7.042 H 0.0 **** 0.0
4 H 72.263 50.126 7.343 H 0.0 **** 0.0
5 H 71.255 51.376 8.11 H 0.0 **** 0.0
@<TRIPOS>BOND
1 1 2 1
2 1 3 1
3 1 4 1
4 1 5 1
@<TRIPOS>MOLECULE
CH4
5 4
SMALL
USER_CHARGES


@<TRIPOS>ATOM
1 C 53.054 75.364 36.456 C 0.0 **** 0.0
2 H 53.533 74.581 35.868 H 0.0 **** 0.0
3 H 52.189 75.747 35.915 H 0.0 **** 0.0
4 H 53.763 76.174 36.627 H 0.0 **** 0.0
5 H 52.733 74.953 37.413 H 0.0 **** 0.0
@<TRIPOS>BOND
1 1 2 1
2 1 3 1
3 1 4 1
4 1 5 1
@<TRIPOS>MOLECULE
CH4
5 4
SMALL
USER_CHARGES


@<TRIPOS>ATOM
1 C 76.605 8.119 19.723 C 0.0 **** 0.0
2 H 77.384 7.357 19.73 H 0.0 **** 0.0
3 H 75.906 7.916 18.911 H 0.0 **** 0.0
4 H 77.058 9.1 19.575 H 0.0 **** 0.0
5 H 76.073 8.104 20.674 H 0.0 **** 0.0
@<TRIPOS>BOND
1 1 2 1
2 1 3 1
3 1 4 1
4 1 5 1
@<TRIPOS>MOLECULE
CH4
5 4
SMALL
USER_CHARGES


@<TRIPOS>ATOM
1 C 96.773 42.012 41.116 C 0.0 **** 0.0
2 H 97.389 41.947 40.219 H 0.0 **** 0.0
3 H 96.296 42.992 41.158 H 0.0 **** 0.0
4 H 97.398 41.874 41.998 H 0.0 **** 0.0
5 H 96.008 41.236 41.087 H 0.0 **** 0.0
@<TRIPOS>BOND
1 1 2 1
2 1 3 1
3 1 4 1
4 1 5 1
@<TRIPOS>MOLECULE
CH4
5 4
SMALL
USER_CHARGES


@<TRIPOS>ATOM
1 C 85.085 89.574 70.908 C 0.0 **** 0.0
2 H 84.91 89.263 69.879 H 0.0 **** 0.0
3 H 85.459 88.727 71.485 H 0.0 **** 0.0
4 H 84.151 89.927 71.345 H 0.0 **** 0.0
5 H 85.821 90.378 70.925 H 0.0 **** 0.0
@<TRIPOS>BOND
1 1 2 1
2 1 3 1
3 1 4 1
4 1 5 1
@<TRIPOS>MOLECULE
CH4
5 4
SMALL
USER_CHARGES


@<TRIPOS>ATOM
1 C 13.801 31.927 88.079 C 0.0 **** 0.0
2 H 14.53 31.863 87.272 H 0.0 **** 0.0
3 H 13.253 30.986 88.148 H 0.0 **** 0.0
4 H 13.104 32.739 87.876 H 0.0 **** 0.0
5 H 14.317 32.117 89.02 H 0.0 **** 0.0
@<TRIPOS>BOND
1 1 2 1
2 1 3 1
3 1 4 1
4 1 5 1
@<TRIPOS>MOLECULE
CH4
5 4
SMALL
USER_CHARGES


@<TRIPOS>ATOM
1 C 80.377 89.474 23.443 C 0.0 **** 0.0
2 H 79.967 88.488 23.66 H 0.0 **** 0.0
3 H 79.595 90.225 23.56 H 0.0 **** 0.0
4 H 80.752 89.496 22.42 H 0.0 **** 0.0
5 H 81.193 89.688 24.134 H 0.0 **** 0.0
@<TRIPOS>BOND
1 1 2 1
2 1 3 1
3 1 4 1
4 1 5 1
@<TRIPOS>MOLECULE
CH4
5 4
SMALL
USER_CHARGES


@<TRIPOS>ATOM
1 C 27.751 57.895 47.16 C 0.0 **** 0.0
2 H 27.603 57.79 46.085 H 0.0 **** 0.0
3 H 27.208 57.106 47.68 H 0.0 **** 0.0
4 H 27.379 58.867 47.484 H 0.0 **** 0.0
5 H 28.814 57.818 47.389 H 0.0 **** 0.0
@<TRIPOS>BOND
1 1 2 1
2 1 3 1
3 1 4 1
4 1 5 1
@<TRIPOS>MOLECULE
CH4
5 4
SMALL
USER_CHARGES


@<TRIPOS>ATOM
1 C 91.137 23.21 50.876 C 0.0 **** 0.0
2 H 90.839 22.425 51.571 H 0.0 **** 0.0
3 H 91.842 22.804 50.15 H 0.0 **** 0.0
4 H 91.61 24.023 51.427 H 0.0 **** 0.0
5 H 90.256 23.587 50.356 H 0.0 **** 0.0
@<TRIPOS>BOND
1 1 2 1
2 1 3 1
3 1 4 1
4 1 5 1
@<TRIPOS>MOLECULE
CH4
5 4
SMALL
USER_CHARGES


@<TRIPOS>ATOM
1 C 62.51 58.129 56.274 C 0.0 **** 0.0
2 H 63.161 58.815 55.732 H 0.0 **** 0.0
3 H 62.138 57.366 55.591 H 0.0 **** 0.0
4 H 61.67 58.682 56.695 H 0.0 **** 0.0
5 H 63.073 57.654 57.078 H 0.0 **** 0.0
@<TRIPOS>BOND
1 1 2 1
2 1 3 1
3 1 4 1
4 1 5 1
@<TRIPOS>MOLECULE
CH4
5 4
SMALL
USER_CHARGES


@<TRIPOS>ATOM
1 C 18.673 20.621 70.42 C 0.0 **** 0.0
2 H 18.536 21.182 69.496 H 0.0 **** 0.0
3 H 17.726 20.571 70.959 H 0.0 **** 0.0
4 H 19.418 21.118 71.04 H 0.0 **** 0.0
5 H 19.011 19.612 70.185 H 0.0 **** 0.0
@<TRIPOS>BOND
1 1 2 1
2 1 3 1
3 1 4 1
4 1 5 1
@<TRIPOS>MOLECULE
CH4
5 4
SMALL
USER_CHARGES


@<TRIPOS>ATOM
1 C 14.259 51.937 1.417 C 0.0 **** 0.0
2 H 15.06 52.665 1.551 H 0.0 **** 0.0
3 H 14.262 51.236 2.252 H 0.0 **** 0.0
4 H 14.415 51.394 0.485 H 0.0 **** 0.0
5 H 13.301 52.455 1.38 H 0.0 **** 0.0
@<TRIPOS>BOND
1 1 2 1
2 1 3 1
3 1 4 1
4 1 5 1
@<TRIPOS>MOLECULE
CH4
5 4
SMALL
USER_CHARGES


@<TRIPOS>ATOM
1 C 38.934 84.998 93.313 C 0.0 **** 0.0
2 H 38.848 83.956 93.621 H 0.0 **** 0.0
3 H 38.934 85.639 94.195 H 0.0 **** 0.0
4 H 38.089 85.258 92.675 H 0.0 **** 0.0
5 H 39.863 85.138 92.761 H 0.0 **** 0.0
@<TRIPOS>BOND
1 1 2 1
2 1 3 1
3 1 4 1
4 1 5 1
@<TRIPOS>MOLECULE
CH4
5 4
SMALL
USER_CHARGES


@<TRIPOS>ATOM
1 C 98.533 48.747 11.821 C 0.0 **** 0.0
2 H 97.467 48.665 12.034 H 0.0 **** 0.0
3 H 98.993 47.761 11.887 H 0.0 **** 0.0
4 H 98.998 49.415 12.546 H 0.0 **** 0.0
5 H 98.672 49.147 10.817 H 0.0 **** 0.0
@<TRIPOS>BOND
1 1 2 1
2 1 3 1
3 1 4 1
4 1 5 1
@<TRIPOS>MOLECULE
CH4
5 4
SMALL
USER_CHARGES


@<TRIPOS>ATOM
1 C 88.168 39.63 6.422 C 0.0 **** 0.0
2 H 88.008 38.605 6.754 H 0.0 **** 0.0
3 H 89.217 39.896 6.557 H 0.0 **** 0.0
4 H 87.544 40.304 7.009 H 0.0 **** 0.0
5 H 87.904 39.716 5.368 H 0.0 **** 0.0
@<TRIPOS>BOND
1 1 5 1
2 1 2 1
3 1 3 1
4 1 4 1
@<TRIPOS>MOLECULE
CH4
5 4
SMALL
USER_CHARGES


@<TRIPOS>ATOM
1 C 73.452 49.963 2.228 C 0.0 **** 0.0
2 H 74.075 49.109 1.959 H 0.0 **** 0.0
3 H 73.983 50.886 1.998 H 0.0 **** 0.0
4 H 73.228 49.927 3.294 H 0.0 **** 0.0
5 H 72.522 49.927 1.66 H 0.0 **** 0.0
@<TRIPOS>BOND
1 1 2 1
2 1 3 1
3 1 4 1
4 1 5 1
@<TRIPOS>MOLECULE
CH4
5 4
SMALL
USER_CHARGES


@<TRIPOS>ATOM
1 C 32.556 13.311 48.999 C 0.0 **** 0.0
2 H 32.713 13.304 47.921 H 0.0 **** 0.0
3 H 32.517 12.286 49.367 H 0.0 **** 0.0
4 H 31.616 13.815 49.226 H 0.0 **** 0.0
5 H 33.378 13.84 49.482 H 0.0 **** 0.0
@<TRIPOS>BOND
1 1 2 1
2 1 3 1
3 1 4 1
4 1 5 1
@<TRIPOS>MOLECULE
CH4
5 4
SMALL
USER_CHARGES


@<TRIPOS>ATOM
1 C 49.699 11.596 61.304 C 0.0 **** 0.0
2 H 50.684 11.378 61.718 H 0.0 **** 0.0
3 H 49.605 12.669 61.138 H 0.0 **** 0.0
4 H 48.931 11.267 62.003 H 0.0 **** 0.0
5 H 49.579 11.069 60.357 H 0.0 **** 0.0
@<TRIPOS>BOND
1 1 2 1
2 1 3 1
3 1 4 1
4 1 5 1
@<TRIPOS>MOLECULE
CH4
5 4
SMALL
USER_CHARGES


@<TRIPOS>ATOM
1 C 1.283 65.066 64.991 C 0.0 **** 0.0
2 H 0.77 64.852 65.929 H 0.0 **** 0.0
3 H 1.61 66.106 64.986 H 0.0 **** 0.0
4 H 0.602 64.894 64.157 H 0.0 **** 0.0
5 H 2.149 64.412 64.894 H 0.0 **** 0.0
@<TRIPOS>BOND
1 1 2 1
2 1 3 1
3 1 4 1
4 1 5 1
@<TRIPOS>MOLECULE
CH4
5 4
SMALL
USER_CHARGES


@<TRIPOS>ATOM
1 C 95.572 66.35 53.789 C 0.0 **** 0.0
2 H 95.419 66.33 52.71 H 0.0 **** 0.0
3 H 94.615 66.213 54.293 H 0.0 **** 0.0
4 H 96.0 67.31 54.077 H 0.0 **** 0.0
5 H 96.252 65.548 54.075 H 0.0 **** 0.0
@<TRIPOS>BOND
1 1 2 1
2 1 3 1
3 1 4 1
4 1 5 1
@<TRIPOS>MOLECULE
CH4
5 4
SMALL
USER_CHARGES


@<TRIPOS>ATOM
1 C 71.201 9.678 40.19 C 0.0 **** 0.0
2 H 71.027 9.457 39.137 H 0.0 **** 0.0
3 H 71.728 8.844 40.653 H 0.0 **** 0.0
4 H 70.245 9.828 40.691 H 0.0 **** 0.0
5 H 71.803 10.582 40.277 H 0.0 **** 0.0
@<TRIPOS>BOND
1 1 2 1
2 1 3 1
3 1 4 1
4 1 5 1
@<TRIPOS>MOLECULE
CH4
5 4
SMALL
USER_CHARGES


@<TRIPOS>ATOM
1 C 96.306 7.137 89.692 C 0.0 **** 0.0
2 H 96.292 7.219 88.605 H 0.0 **** 0.0
3 H 95.819 8.009 90.129 H 0.0 **** 0.0
4 H 97.338 7.085 90.039 H 0.0 **** 0.0
5 H 95.775 6.234 89.995 H 0.0 **** 0.0
@<TRIPOS>BOND
1 1 2 1
2 1 3 1
3 1 4 1
4 1 5 1
@<TRIPOS>MOLECULE
CH4
5 4
SMALL
USER_CHARGES


@<TRIPOS>ATOM
1 C 63.143 25.28 59.637 C 0.0 **** 0.0
2 H 63.617 25.87 60.421 H 0.0 **** 0.0
3 H 62.06 25.372 59.717 H 0.0 **** 0.0
4 H 63.428 24.234 59.747 H 0.0 **** 0.0
5 H 63.468 25.644 58.662 H 0.0 **** 0.0
@<TRIPOS>BOND
1 1 2 1
2 1 3 1
3 1 4 1
4 1 5 1
@<TRIPOS>MOLECULE
CH4
5 4
SMALL
USER_CHARGES


@<TRIPOS>ATOM
1 C 31.595 96.926 83.149 C 0.0 **** 0.0
2 H 31.988 96.36 83.994 H 0.0 **** 0.0
3 H 31.687 96.333 82.24 H 0.0 **** 0.0
4 H 32.161 97.852 83.039 H 0.0 **** 0.0
5 H 30.546 97.161 83.326 H 0.0 **** 0.0
@<TRIPOS>BOND
1 1 2 1
2 1 3 1
3 1 4 1
4 1 5 1
@<TRIPOS>MOLECULE
CH4
5 4
SMALL
USER_CHARGES


@<TRIPOS>ATOM
1 C 66.571 24.852 86.654 C 0.0 **** 0.0
2 H 66.765 25.258 87.647 H 0.0 **** 0.0
3 H 66.55 23.763 86.705 H 0.0 **** 0.0
4 H 67.359 25.169 85.972 H 0.0 **** 0.0
5 H 65.609 25.217 86.294 H 0.0 **** 0.0
@<TRIPOS>BOND
1 1 2 1
2 1 3 1
3 1 4 1
4 1 5 1
@<TRIPOS>MOLECULE
CH4
5 4
SMALL
USER_CHARGES


@<TRIPOS>ATOM
1 C 49.234 5.08 0.981 C 0.0 **** 0.0
2 H 48.767 4.704 0.071 H 0.0 **** 0.0
3 H 49.726 6.03 0.771 H 0.0 **** 0.0
4 H 49.97 4.359 1.335 H 0.0 **** 0.0
5 H 48.472 5.226 1.746 H 0.0 **** 0.0
@<TRIPOS>BOND
1 1 2 1
2 1 3 1
3 1 4 1
4 1 5 1
@<TRIPOS>MOLECULE
CH4
5 4
SMALL
USER_CHARGES


@<TRIPOS>ATOM
1 C 35.107 80.024 51.572 C 0.0 **** 0.0
2 H 35.159 80.442 52.578 H 0.0 **** 0.0
3 H 36.117 79.887 51.184 H 0.0 **** 0.0
4 H 34.557 80.705 50.924 H 0.0 **** 0.0
5 H 34.596 79.061 51.605 H 0.0 **** 0.0
@<TRIPOS>BOND
1 1 2 1
2 1 3 1
3 1 4 1
4 1 5 1
@<TRIPOS>MOLECULE
CH4
5 4
SMALL
USER_CHARGES


@<TRIPOS>ATOM
1 C 93.102 96.641 17.335 C 0.0 **** 0.0
2 H 93.493 96.26 16.391 H 0.0 **** 0.0
3 H 92.574 95.844 17.858 H 0.0 **** 0.0
4 H 92.416 97.464 17.137 H 0.0 **** 0.0
5 H 93.927 96.996 17.952 H 0.0 **** 0.0
@<TRIPOS>BOND
1 1 2 1
2 1 3 1
3 1 4 1
4 1 5 1
@<TRIPOS>MOLECULE
CH4
5 4
SMALL
USER_CHARGES


@<TRIPOS>ATOM
1 C 73.111 64.879 65.721 C 0.0 **** 0.0
2 H 73.663 65.229 64.849 H 0.0 **** 0.0
3 H 72.475 65.682 66.094 H 0.0 **** 0.0
4 H 73.813 64.58 66.499 H 0.0 **** 0.0
5 H 72.493 64.025 65.441 H 0.0 **** 0.0
@<TRIPOS>BOND
1 1 2 1
2 1 3 1
3 1 4 1
4 1 5 1
@<TRIPOS>MOLECULE
CH4
5 4
SMALL
USER_CHARGES


@<TRIPOS>ATOM
1 C 20.684 95.527 9.792 C 0.0 **** 0.0
2 H 20.887 95.393 10.854 H 0.0 **** 0.0
3 H 21.579 95.281 9.218 H 0.0 **** 0.0
4 H 20.404 96.563 9.603 H 0.0 **** 0.0
5 H 19.868 94.87 9.492 H 0.0 **** 0.0
@<TRIPOS>BOND
1 1 2 1
2 1 3 1
3 1 4 1
4 1 5 1
@<TRIPOS>MOLECULE
CH4
5 4
SMALL
USER_CHARGES


@<TRIPOS>ATOM
1 C 4.679 6.556 33.187 C 0.0 **** 0.0
2 H 3.659 6.826 32.914 H 0.0 **** 0.0
3 H 5.38 7.201 32.658 H 0.0 **** 0.0
4 H 4.864 5.517 32.915 H 0.0 **** 0.0
5 H 4.811 6.678 34.262 H 0.0 **** 0.0
@<TRIPOS>BOND
1 1 2 1
2 1 3 1
3 1 4 1
4 1 5 1
@<TRIPOS>MOLECULE
CH4
5 4
SMALL
USER_CHARGES


@<TRIPOS>ATOM
1 C 91.804 41.881 22.197 C 0.0 **** 0.0
2 H 90.845 41.404 21.997 H 0.0 **** 0.0
3 H 91.671 42.962 22.237 H 0.0 **** 0.0
4 H 92.507 41.63 21.403 H 0.0 **** 0.0
5 H 92.193 41.527 23.152 H 0.0 **** 0.0
@<TRIPOS>BOND
1 1 2 1
2 1 3 1
3 1 4 1
4 1 5 1
@<TRIPOS>MOLECULE
CH4
5 4
SMALL
USER_CHARGES


@<TRIPOS>ATOM
1 C 72.071 3.277 4.601 C 0.0 **** 0.0
2 H 72.918 2.743 4.172 H 0.0 **** 0.0
3 H 72.03 3.091 5.675 H 0.0 **** 0.0
4 H 71.148 2.929 4.137 H 0.0 **** 0.0
5 H 72.187 4.346 4.422 H 0.0 **** 0.0
@<TRIPOS>BOND
1 1 2 1
2 1 3 1
3 1 4 1
4 1 5 1
@<TRIPOS>MOLECULE
CH4
5 4
SMALL
USER_CHARGES


@<TRIPOS>ATOM
1 C 70.592 92.153 24.838 C 0.0 **** 0.0
2 H 70.115 92.147 25.818 H 0.0 **** 0.0
3 H 70.161 91.365 24.22 H 0.0 **** 0.0
4 H 71.662 91.981 24.954 H 0.0 **** 0.0
5 H 70.428 93.12 24.361 H 0.0 **** 0.0
@<TRIPOS>BOND
1 1 2 1
2 1 3 1
3 1 4 1
4 1 5 1
@<TRIPOS>MOLECULE
CH4
5 4
SMALL
USER_CHARGES


@<TRIPOS>ATOM
1 C 9.147 88.927 63.338 C 0.0 **** 0.0
2 H 8.126 89.093 62.995 H 0.0 **** 0.0
3 H 9.835 89.518 62.733 H 0.0 **** 0.0
4 H 9.395 87.87 63.243 H 0.0 **** 0.0
5 H 9.233 89.227 64.383 H 0.0 **** 0.0
@<TRIPOS>BOND
1 1 2 1
2 1 3 1
3 1 4 1
4 1 5 1
@<TRIPOS>MOLECULE
CH4
5 4
SMALL
USER_CHARGES


@<TRIPOS>ATOM
1 C 60.426 90.989 22.894 C 0.0 **** 0.0
2 H 60.454 91.059 21.807 H 0.0 **** 0.0
3 H 61.434 91.109 23.292 H 0.0 **** 0.0
4 H 60.033 90.015 23.185 H 0.0 **** 0.0
5 H 59.783 91.774 23.292 H 0.0 **** 0.0
@<TRIPOS>BOND
1 1 2 1
2 1 3 1
3 1 4 1
4 1 5 1
@<TRIPOS>MOLECULE
CH4
5 4
SMALL
USER_CHARGES


@<TRIPOS>ATOM
1 C 35.769 57.558 1.501 C 0.0 **** 0.0
2 H 36.745 57.163 1.782 H 0.0 **** 0.0
3 H 35.278 57.972 2.382 H 0.0 **** 0.0
4 H 35.158 56.755 1.088 H 0.0 **** 0.0
5 H 35.896 58.34 0.753 H 0.0 **** 0.0
@<TRIPOS>BOND
1 1 2 1
2 1 3 1
3 1 4 1
4 1 5 1
@<TRIPOS>MOLECULE
CH4
5 4
SMALL
USER_CHARGES


@<TRIPOS>ATOM
1 C 95.409 4.519 50.558 C 0.0 **** 0.0
2 H 95.645 3.952 51.458 H 0.0 **** 0.0
3 H 96.209 5.233 50.359 H 0.0 **** 0.0
4 H 94.471 5.054 50.702 H 0.0 **** 0.0
5 H 95.313 3.836 49.714 H 0.0 **** 0.0
@<TRIPOS>BOND
1 1 2 1
2 1 3 1
3 1 4 1
4 1 5 1
@<TRIPOS>MOLECULE
CH4
5 4
SMALL
USER_CHARGES


@<TRIPOS>ATOM
1 C 67.885 60.017 13.686 C 0.0 **** 0.0
2 H 67.258 60.156 12.805 H 0.0 **** 0.0
3 H 68.102 58.956 13.813 H 0.0 **** 0.0
4 H 67.362 60.39 14.567 H 0.0 **** 0.0
5 H 68.818 60.566 13.558 H 0.0 **** 0.0
@<TRIPOS>BOND
1 1 2 1
2 1 3 1
3 1 4 1
4 1 5 1
@<TRIPOS>MOLECULE
CH4
5 4
SMALL
USER_CHARGES


@<TRIPOS>ATOM
1 C 29.262 28.25 94.673 C 0.0 **** 0.0
2 H 30.151 27.786 94.246 H 0.0 **** 0.0
3 H 29.349 29.335 94.601 H 0.0 **** 0.0
4 H 29.169 27.961 95.72 H 0.0 **** 0.0
5 H 28.38 27.919 94.124 H 0.0 **** 0.0
@<TRIPOS>BOND
1 1 2 1
2 1 3 1
3 1 4 1
4 1 5 1
@<TRIPOS>MOLECULE
CH4
5 4
SMALL
USER_CHARGES


@<TRIPOS>ATOM
1 C 77.763 16.851 26.032 C 0.0 **** 0.0
2 H 77.739 16.832 27.122 H 0.0 **** 0.0
3 H 77.275 17.758 25.675 H 0.0 **** 0.0
4 H 77.239 15.979 25.642 H 0.0 **** 0.0
5 H 78.798 16.836 25.691 H 0.0 **** 0.0
@<TRIPOS>BOND
1 1 2 1
2 1 3 1
3 1 4 1
4 1 5 1
@<TRIPOS>MOLECULE
CH4
5 4
SMALL
USER_CHARGES


@<TRIPOS>ATOM
1 C 54.773 15.13 60.982 C 0.0 **** 0.0
2 H 55.195 16.134 61.038 H 0.0 **** 0.0
3 H 54.946 14.611 61.925 H 0.0 **** 0.0
4 H 55.25 14.581 60.171 H 0.0 **** 0.0
5 H 53.701 15.197 60.795 H 0.0 **** 0.0
@<TRIPOS>BOND
1 1 2 1
2 1 3 1
3 1 4 1
4 1 5 1
@<TRIPOS>MOLECULE
CH4
5 4
SMALL
USER_CHARGES


@<TRIPOS>ATOM
1 C 31.829 52.859 17.88 C 0.0 **** 0.0
2 H 31.777 52.411 16.888 H 0.0 **** 0.0
3 H 32.855 53.163 18.088 H 0.0 **** 0.0
4 H 31.508 52.131 18.625 H 0.0 **** 0.0
5 H 31.176 53.731 17.919 H 0.0 **** 0.0
@<TRIPOS>BOND
1 1 2 1
2 1 3 1
3 1 4 1
4 1 5 1
@<TRIPOS>MOLECULE
CH4
5 4
SMALL
USER_CHARGES


@<TRIPOS>ATOM
1 C 17.362 18.644 3.443 C 0.0 **** 0.0
2 H 18.123 19.239 2.939 H 0.0 **** 0.0
3 H 16.492 19.267 3.652 H 0.0 **** 0.0
4 H 17.765 18.256 4.379 H 0.0 **** 0.0
5 H 17.068 17.812 2.802 H 0.0 **** 0.0
@<TRIPOS>BOND
1 1 2 1
2 1 3 1
3 1 4 1
4 1 5 1
@<TRIPOS>MOLECULE
CH4
5 4
SMALL
USER_CHARGES


@<TRIPOS>ATOM
1 C 57.981 18.386 8.958 C 0.0 **** 0.0
2 H 57.881 18.77 9.973 H 0.0 **** 0.0
3 H 57.809 17.309 8.959 H 0.0 **** 0.0
4 H 58.985 18.593 8.589 H 0.0 **** 0.0
5 H 57.249 18.871 8.313 H 0.0 **** 0.0
@<TRIPOS>BOND
1 1 2 1
2 1 3 1
3 1 4 1
4 1 5 1
@<TRIPOS>MOLECULE
CH4
5 4
SMALL
USER_CHARGES


@<TRIPOS>ATOM
1 C 70.077 9.456 54.105 C 0.0 **** 0.0
2 H 70.232 8.661 53.376 H 0.0 **** 0.0
3 H 70.871 10.197 54.008 H 0.0 **** 0.0
4 H 70.091 9.036 55.11 H 0.0 **** 0.0
5 H 69.112 9.931 53.924 H 0.0 **** 0.0
@<TRIPOS>BOND
1 1 2 1
2 1 3 1
3 1 4 1
4 1 5 1
@<TRIPOS>MOLECULE
CH4
5 4
SMALL
USER_CHARGES


@<TRIPOS>ATOM
1 C 42.599 80.301 6.786 C 0.0 **** 0.0
2 H 43.478 79.659 6.837 H 0.0 **** 0.0
3 H 41.914 79.919 6.027 H 0.0 **** 0.0
4 H 42.903 81.314 6.524 H 0.0 **** 0.0
5 H 42.1 80.31 7.755 H 0.0 **** 0.0
@<TRIPOS>BOND
1 1 2 1
2 1 3 1
3 1 4 1
4 1 5 1
@<TRIPOS>MOLECULE
CH4
5 4
SMALL
USER_CHARGES


@<TRIPOS>ATOM
1 C 37.819 55.712 48.045 C 0.0 **** 0.0
2 H 37.812 55.496 49.113 H 0.0 **** 0.0
3 H 37.982 54.789 47.489 H 0.0 **** 0.0
4 H 38.62 56.417 47.823 H 0.0 **** 0.0
5 H 36.862 56.147 47.756 H 0.0 **** 0.0
@<TRIPOS>BOND
1 1 2 1
2 1 3 1
3 1 4 1
4 1 5 1
@<TRIPOS>MOLECULE
CH4
5 4
SMALL
USER_CHARGES


@<TRIPOS>ATOM
1 C 20.179 35.701 26.784 C 0.0 **** 0.0
2 H 20.6 35.448 25.811 H 0.0 **** 0.0
3 H 19.436 34.954 27.063 H 0.0 **** 0.0
4 H 19.706 36.682 26.73 H 0.0 **** 0.0
5 H 20.973 35.721 27.529 H 0.0 **** 0.0
@<TRIPOS>BOND
1 1 5 1
2 1 2 1
3 1 3 1
4 1 4 1
@<TRIPOS>MOLECULE
CH4
5 4
SMALL
USER_CHARGES


@<TRIPOS>ATOM
1 C 26.471 40.145 4.773 C 0.0 **** 0.0
2 H 26.34 39.687 5.753 H 0.0 **** 0.0
3 H 26.959 39.435 4.104 H 0.0 **** 0.0
4 H 27.089 41.037 4.869 H 0.0 **** 0.0
5 H 25.498 40.418 4.367 H 0.0 **** 0.0
@<TRIPOS>BOND
1 1 2 1
2 1 3 1
3 1 4 1
4 1 5 1
@<TRIPOS>MOLECULE
CH4
5 4
SMALL
USER_CHARGES


@<TRIPOS>ATOM
1 C 81.603 19.254 37.914 C 0.0 **** 0.0
2 H 81.861 19.42 38.96 H 0.0 **** 0.0
3 H 82.397 18.683 37.431 H 0.0 **** 0.0
4 H 81.489 20.214 37.411 H 0.0 **** 0.0
5 H 80.667 18.699 37.854 H 0.0 **** 0.0
@<TRIPOS>BOND
1 1 2 1
2 1 3 1
3 1 4 1
4 1 5 1
@<TRIPOS>MOLECULE
CH4
5 4
SMALL
USER_CHARGES


@<TRIPOS>ATOM
1 C 91.109 27.572 71.957 C 0.0 **** 0.0
2 H 91.104 27.593 73.047 H 0.0 **** 0.0
3 H 91.912 26.921 71.61 H 0.0 **** 0.0
4 H 91.266 28.58 71.575 H 0.0 **** 0.0
5 H 90.152 27.192 71.597 H 0.0 **** 0.0
@<TRIPOS>BOND
1 1 2 1
2 1 3 1
3 1 4 1
4 1 5 1
@<TRIPOS>MOLECULE
CH4
5 4
SMALL
USER_CHARGES


@<TRIPOS>ATOM
1 C 72.12 69.905 26.565 C 0.0 **** 0.0
2 H 71.362 70.57 26.979 H 0.0 **** 0.0
3 H 72.161 68.989 27.155 H 0.0 **** 0.0
4 H 73.091 70.399 26.593 H 0.0 **** 0.0
5 H 71.865 69.662 25.534 H 0.0 **** 0.0
@<TRIPOS>BOND
1 1 2 1
2 1 3 1
3 1 4 1
4 1 5 1
@<TRIPOS>MOLECULE
CH4
5 4
SMALL
USER_CHARGES


@<TRIPOS>ATOM
1 C 89.637 84.001 18.498 C 0.0 **** 0.0
2 H 90.676 84.211 18.244 H 0.0 **** 0.0
3 H 89.014 84.131 17.613 H 0.0 **** 0.0
4 H 89.308 84.687 19.278 H 0.0 **** 0.0
5 H 89.551 82.975 18.856 H 0.0 **** 0.0
@<TRIPOS>BOND
1 1 2 1
2 1 3 1
3 1 4 1
4 1 5 1
@<TRIPOS>MOLECULE
CH4
5 4
SMALL
USER_CHARGES


@<TRIPOS>ATOM
1 C 52.969 39.315 94.049 C 0.0 **** 0.0
2 H 52.666 39.966 94.868 H 0.0 **** 0.0
3 H 52.616 39.73 93.105 H 0.0 **** 0.0
4 H 52.538 38.324 94.194 H 0.0 **** 0.0
5 H 54.056 39.239 94.028 H 0.0 **** 0.0
@<TRIPOS>BOND
1 1 2 1
2 1 3 1
3 1 4 1
4 1 5 1
@<TRIPOS>MOLECULE
CH4
5 4
SMALL
USER_CHARGES


@<TRIPOS>ATOM
1 C 74.27 46.579 7.688 C 0.0 **** 0.0
2 H 74.143 46.196 8.7 H 0.0 **** 0.0
3 H 73.81 45.891 6.979 H 0.0 **** 0.0
4 H 75.333 46.673 7.466 H 0.0 **** 0.0
5 H 73.794 47.556 7.607 H 0.0 **** 0.0
@<TRIPOS>BOND
1 1 2 1
2 1 3 1
3 1 4 1
4 1 5 1
@<TRIPOS>MOLECULE
CH4
5 4
SMALL
USER_CHARGES


@<TRIPOS>ATOM
1 C 72.489 95.669 82.27 C 0.0 **** 0.0
2 H 72.605 95.431 81.212 H 0.0 **** 0.0
3 H 73.412 96.113 82.645 H 0.0 **** 0.0
4 H 72.272 94.756 82.825 H 0.0 **** 0.0
5 H 71.668 96.375 82.395 H 0.0 **** 0.0
@<TRIPOS>BOND
1 1 2 1
2 1 3 1
3 1 4 1
4 1 5 1
@<TRIPOS>MOLECULE
CH4
5 4
SMALL
USER_CHARGES


@<TRIPOS>ATOM
1 C 84.083 51.749 18.396 C 0.0 **** 0.0
2 H 83.359 52.554 18.52 H 0.0 **** 0.0
3 H 83.697 51.019 17.684 H 0.0 **** 0.0
4 H 84.254 51.264 19.358 H 0.0 **** 0.0
5 H 85.022 52.158 18.024 H 0.0 **** 0.0
@<TRIPOS>BOND
1 1 2 1
2 1 3 1
3 1 4 1
4 1 5 1
@<TRIPOS>MOLECULE
CH4
5 4
SMALL
USER_CHARGES


@<TRIPOS>ATOM
1 C 35.018 81.644 97.131 C 0.0 **** 0.0
2 H 34.894 81.642 98.214 H 0.0 **** 0.0
3 H 35.69 80.837 96.841 H 0.0 **** 0.0
4 H 35.438 82.599 96.815 H 0.0 **** 0.0
5 H 34.048 81.499 96.654 H 0.0 **** 0.0
@<TRIPOS>BOND
1 1 2 1
2 1 3 1
3 1 4 1
4 1 5 1
@<TRIPOS>MOLECULE
CH4
5 4
SMALL
USER_CHARGES


@<TRIPOS>ATOM
1 C 50.937 61.269 93.86 C 0.0 **** 0.0
2 H 50.949 61.246 94.949 H 0.0 **** 0.0
3 H 49.976 60.9 93.499 H 0.0 **** 0.0
4 H 51.737 60.637 93.474 H 0.0 **** 0.0
5 H 51.085 62.293 93.516 H 0.0 **** 0.0
@<TRIPOS>BOND
1 1 2 1
2 1 3 1
3 1 4 1
4 1 5 1
@<TRIPOS>MOLECULE
CH4
5 4
SMALL
USER_CHARGES


@<TRIPOS>ATOM
1 C 3.586 85.195 87.817 C 0.0 **** 0.0
2 H 3.6 85.279 88.904 H 0.0 **** 0.0
3 H 2.756 84.558 87.512 H 0.0 **** 0.0
4 H 4.524 84.757 87.475 H 0.0 **** 0.0
5 H 3.466 86.185 87.378 H 0.0 **** 0.0
@<TRIPOS>BOND
1 1 2 1
2 1 3 1
3 1 4 1
4 1 5 1
@<TRIPOS>MOLECULE
CH4
5 4
SMALL
USER_CHARGES


@<TRIPOS>ATOM
1 C 69.701 74.714 6.297 C 0.0 **** 0.0
2 H 68.67 74.389 6.436 H 0.0 **** 0.0
3 H 70.064 75.177 7.215 H 0.0 **** 0.0
4 H 69.747 75.437 5.482 H 0.0 **** 0.0
5 H 70.324 73.853 6.053 H 0.0 **** 0.0
@<TRIPOS>BOND
1 1 2 1
2 1 3 1
3 1 4 1
4 1 5 1
@<TRIPOS>MOLECULE
CH4
5 4
SMALL
USER_CHARGES


@<TRIPOS>ATOM
1 C 72.486 52.68 61.78 C 0.0 **** 0.0
2 H 72.941 53.44 62.414 H 0.0 **** 0.0
3 H 73.269 52.113 61.275 H 0.0 **** 0.0
4 H 71.849 53.16 61.038 H 0.0 **** 0.0
5 H 71.887 52.006 62.392 H 0.0 **** 0.0
@<TRIPOS>BOND
1 1 2 1
2 1 3 1
3 1 4 1
4 1 5 1
@<TRIPOS>MOLECULE
CH4
5 4
SMALL
USER_CHARGES


@<TRIPOS>ATOM
1 C 61.066 51.65 60.563 C 0.0 **** 0.0
2 H 60.626 52.149 59.701 H 0.0 **** 0.0
3 H 61.8 50.919 60.224 H 0.0 **** 0.0
4 H 60.284 51.145 61.129 H 0.0 **** 0.0
5 H 61.556 52.388 61.199 H 0.0 **** 0.0
@<TRIPOS>BOND
1 1 2 1
2 1 3 1
3 1 4 1
4 1 5 1
@<TRIPOS>MOLECULE
CH4
5 4
SMALL
USER_CHARGES


@<TRIPOS>ATOM
1 C 98.018 67.701 90.786 C 0.0 **** 0.0
2 H 97.988 67.306 89.771 H 0.0 **** 0.0
3 H 97.825 68.774 90.764 H 0.0 **** 0.0
4 H 99.002 67.518 91.218 H 0.0 **** 0.0
5 H 97.258 67.208 91.391 H 0.0 **** 0.0
@<TRIPOS>BOND
1 1 2 1
2 1 3 1
3 1 4 1
4 1 5 1
@<TRIPOS>MOLECULE
CH4
5 4
SMALL
USER_CHARGES


@<TRIPOS>ATOM
1 C 87.727 46.675 32.131 C 0.0 **** 0.0
2 H 87.962 46.734 33.194 H 0.0 **** 0.0
3 H 86.68 46.937 31.976 H 0.0 **** 0.0
4 H 87.906 45.661 31.775 H 0.0 **** 0.0
5 H 88.361 47.37 31.58 H 0.0 **** 0.0
@<TRIPOS>BOND
1 1 2 1
2 1 3 1
3 1 4 1
4 1 5 1
@<TRIPOS>MOLECULE
CH4
5 4
SMALL
USER_CHARGES


@<TRIPOS>ATOM
1 C 48.041 28.082 91.449 C 0.0 **** 0.0
2 H 48.882 28.348 92.09 H 0.0 **** 0.0
3 H 48.412 27.596 90.547 H 0.0 **** 0.0
4 H 47.492 28.983 91.178 H 0.0 **** 0.0
5 H 47.38 27.4 91.984 H 0.0 **** 0.0
@<TRIPOS>BOND
1 1 2 1
2 1 3 1
3 1 4 1
4 1 5 1
@<TRIPOS>MOLECULE
CH4
5 4
SMALL
USER_CHARGES


@<TRIPOS>ATOM
1 C 30.786 28.457 1.059 C 0.0 **** 0.0
2 H 31.45 28.819 1.844 H 0.0 **** 0.0
3 H 31.101 27.461 0.748 H 0.0 **** 0.0
4 H 30.829 29.134 0.206 H 0.0 **** 0.0
5 H 29.765 28.414 1.438 H 0.0 **** 0.0
@<TRIPOS>BOND
1 1 2 1
2 1 3 1
3 1 4 1
4 1 5 1
@<TRIPOS>MOLECULE
CH4
5 4
SMALL
USER_CHARGES


@<TRIPOS>ATOM
1 C 28.821 25.866 92.334 C 0.0 **** 0.0
2 H 28.71 25.233 91.453 H 0.0 **** 0.0
3 H 29.001 25.242 93.209 H 0.0 **** 0.0
4 H 27.909 26.445 92.482 H 0.0 **** 0.0
5 H 29.662 26.544 92.19 H 0.0 **** 0.0
@<TRIPOS>BOND
1 1 2 1
2 1 3 1
3 1 4 1
4 1 5 1
@<TRIPOS>MOLECULE
CH4
5 4
SMALL
USER_CHARGES


@<TRIPOS>ATOM
1 C 17.15 92.129 15.844 C 0.0 **** 0.0
2 H 17.737 91.465 15.208 H 0.0 **** 0.0
3 H 16.866 93.016 15.278 H 0.0 **** 0.0
4 H 17.745 92.423 16.708 H 0.0 **** 0.0
5 H 16.253 91.609 16.18 H 0.0 **** 0.0
@<TRIPOS>BOND
1 1 2 1
2 1 3 1
3 1 4 1
4 1 5 1
@<TRIPOS>MOLECULE
CH4
5 4
SMALL
USER_CHARGES


@<TRIPOS>ATOM
1 C 80.072 35.35 33.008 C 0.0 **** 0.0
2 H 80.509 35.911 32.182 H 0.0 **** 0.0
3 H 80.389 35.789 33.954 H 0.0 **** 0.0
4 H 80.406 34.313 32.959 H 0.0 **** 0.0
5 H 78.985 35.386 32.936 H 0.0 **** 0.0
@<TRIPOS>BOND
1 1 2 1
2 1 3 1
3 1 4 1
4 1 5 1
@<TRIPOS>MOLECULE
CH4
5 4
SMALL
USER_CHARGES


@<TRIPOS>ATOM
1 C 28.79 82.599 32.377 C 0.0 **** 0.0
2 H 28.378 82.632 33.385 H 0.0 **** 0.0
3 H 28.212 83.255 31.726 H 0.0 **** 0.0
4 H 28.742 81.577 31.999 H 0.0 **** 0.0
5 H 29.828 82.929 32.398 H 0.0 **** 0.0
@<TRIPOS>BOND
1 1 2 1
2 1 3 1
3 1 4 1
4 1 5 1
@<TRIPOS>MOLECULE
CH4
5 4
SMALL
USER_CHARGES


@<TRIPOS>ATOM
1 C 24.755 11.104 32.02 C 0.0 **** 0.0
2 H 23.704 11.109 31.731 H 0.0 **** 0.0
3 H 24.854 11.493 33.034 H 0.0 **** 0.0
4 H 25.323 11.731 31.333 H 0.0 **** 0.0
5 H 25.137 10.084 31.983 H 0.0 **** 0.0
@<TRIPOS>BOND
1 1 2 1
2 1 3 1
3 1 4 1
4 1 5 1
@<TRIPOS>MOLECULE
CH4
5 4
SMALL
USER_CHARGES


@<TRIPOS>ATOM
1 C 87.379 58.754 70.666 C 0.0 **** 0.0
2 H 87.44 59.569 71.386 H 0.0 **** 0.0
3 H 86.986 57.864 71.157 H 0.0 **** 0.0
4 H 88.374 58.543 70.272 H 0.0 **** 0.0
5 H 86.718 59.04 69.848 H 0.0 **** 0.0
@<TRIPOS>BOND
1 1 2 1
2 1 3 1
3 1 4 1
4 1 5 1
@<TRIPOS>MOLECULE
CH4
5 4
SMALL
USER_CHARGES


@<TRIPOS>ATOM
1 C 9.041 43.011 49.698 C 0.0 **** 0.0
2 H 8.951 42.813 50.766 H 0.0 **** 0.0
3 H 9.643 43.907 49.545 H 0.0 **** 0.0
4 H 8.05 43.161 49.271 H 0.0 **** 0.0
5 H 9.522 42.163 49.211 H 0.0 **** 0.0
@<TRIPOS>BOND
1 1 2 1
2 1 3 1
3 1 4 1
4 1 5 1
@<TRIPOS>MOLECULE
CH4
5 4
SMALL
USER_CHARGES


@<TRIPOS>ATOM
1 C 30.236 37.353 53.72 C 0.0 **** 0.0
2 H 29.942 37.393 54.769 H 0.0 **** 0.0
3 H 29.414 37.712 53.1 H 0.0 **** 0.0
4 H 30.475 36.324 53.449 H 0.0 **** 0.0
5 H 31.112 37.982 53.564 H 0.0 **** 0.0
@<TRIPOS>BOND
1 1 2 1
2 1 3 1
3 1 4 1
4 1 5 1
@<TRIPOS>MOLECULE
CH4
5 4
SMALL
USER_CHARGES


@<TRIPOS>ATOM
1 C 2.885 18.814 26.875 C 0.0 **** 0.0
2 H 2.158 18.709 27.681 H 0.0 **** 0.0
3 H 3.891 18.838 27.294 H 0.0 **** 0.0
4 H 2.694 19.74 26.333 H 0.0 **** 0.0
5 H 2.795 17.968 26.193 H 0.0 **** 0.0
@<TRIPOS>BOND
1 1 2 1
2 1 3 1
3 1 4 1
4 1 5 1
@<TRIPOS>MOLECULE
CH4
5 4
SMALL
USER_CHARGES


@<TRIPOS>ATOM
1 C 37.901 68.105 84.57 C 0.0 **** 0.0
2 H 36.891 67.809 84.853 H 0.0 **** 0.0
3 H 38.55 67.229 84.574 H 0.0 **** 0.0
4 H 38.277 68.84 85.281 H 0.0 **** 0.0
5 H 37.884 68.541 83.571 H 0.0 **** 0.0
@<TRIPOS>BOND
1 1 2 1
2 1 3 1
3 1 4 1
4 1 5 1
@<TRIPOS>MOLECULE
CH4
5 4
SMALL
USER_CHARGES


@<TRIPOS>ATOM
1 C 41.199 92.891 43.645 C 0.0 **** 0.0
2 H 40.212 93.35 43.697 H 0.0 **** 0.0
3 H 41.96 93.67 43.592 H 0.0 **** 0.0
4 H 41.26 92.261 42.758 H 0.0 **** 0.0
5 H 41.363 92.283 44.535 H 0.0 **** 0.0
@<TRIPOS>BOND
1 1 2 1
2 1 3 1
3 1 4 1
4 1 5 1
@<TRIPOS>MOLECULE
CH4
5 4
SMALL
USER_CHARGES


@<TRIPOS>ATOM
1 C 52.514 68.167 62.702 C 0.0 **** 0.0
2 H 52.721 68.44 61.667 H 0.0 **** 0.0
3 H 53.202 68.697 63.362 H 0.0 **** 0.0
4 H 52.644 67.093 62.827 H 0.0 **** 0.0
5 H 51.488 68.441 62.95 H 0.0 **** 0.0
@<TRIPOS>BOND
1 1 2 1
2 1 3 1
3 1 4 1
4 1 5 1
@<TRIPOS>MOLECULE
CH4
5 4
SMALL
USER_CHARGES


@<TRIPOS>ATOM
1 C 70.537 83.963 29.335 C 0.0 **** 0.0
2 H 69.976 83.043 29.5 H 0.0 **** 0.0
3 H 70.622 84.509 30.275 H 0.0 **** 0.0
4 H 70.016 84.579 28.602 H 0.0 **** 0.0
5 H 71.533 83.721 28.965 H 0.0 **** 0.0
@<TRIPOS>BOND
1 1 2 1
2 1 3 1
3 1 4 1
4 1 5 1
@<TRIPOS>MOLECULE
CH4
5 4
SMALL
USER_CHARGES


@<TRIPOS>ATOM
1 C 73.437 67.575 57.88 C 0.0 **** 0.0
2 H 73.301 67.727 56.809 H 0.0 **** 0.0
3 H 73.253 66.529 58.125 H 0.0 **** 0.0
4 H 72.737 68.206 58.428 H 0.0 **** 0.0
5 H 74.458 67.839 58.157 H 0.0 **** 0.0
@<TRIPOS>BOND
1 1 2 1
2 1 3 1
3 1 4 1
4 1 5 1
@<TRIPOS>MOLECULE
CH4
5 4
SMALL
USER_CHARGES


@<TRIPOS>ATOM
1 C 44.271 29.817 22.51 C 0.0 **** 0.0
2 H 44.735 28.857 22.739 H 0.0 **** 0.0
3 H 45.041 30.585 22.44 H 0.0 **** 0.0
4 H 43.568 30.077 23.301 H 0.0 **** 0.0
5 H 43.74 29.746 21.56 H 0.0 **** 0.0
@<TRIPOS>BOND
1 1 3 1
2 1 4 1
3 1 5 1
4 1 2 1
@<TRIPOS>MOLECULE
CH4
5 4
SMALL
USER_CHARGES


@<TRIPOS>ATOM
1 C 31.676 13.948 37.827 C 0.0 **** 0.0
2 H 32.501 13.239 37.763 H 0.0 **** 0.0
3 H 30.879 13.524 38.439 H 0.0 **** 0.0
4 H 31.296 14.154 36.827 H 0.0 **** 0.0
5 H 32.028 14.874 38.281 H 0.0 **** 0.0
@<TRIPOS>BOND
1 1 2 1
2 1 3 1
3 1 4 1
4 1 5 1
@<TRIPOS>MOLECULE
CH4
5 4
SMALL
USER_CHARGES


@<TRIPOS>ATOM
1 C 59.384 29.971 61.377 C 0.0 **** 0.0
2 H 59.949 30.716 60.817 H 0.0 **** 0.0
3 H 58.539 30.452 61.87 H 0.0 **** 0.0
4 H 60.03 29.513 62.126 H 0.0 **** 0.0
5 H 59.018 29.204 60.694 H 0.0 **** 0.0
@<TRIPOS>BOND
1 1 2 1
2 1 3 1
3 1 4 1
4 1 5 1
@<TRIPOS>MOLECULE
CH4
5 4
SMALL
USER_CHARGES


@<TRIPOS>ATOM
1 C 51.354 56.163 48.714 C 0.0 **** 0.0
2 H 51.032 56.237 47.675 H 0.0 **** 0.0
3 H 52.317 55.653 48.76 H 0.0 **** 0.0
4 H 50.616 55.597 49.283 H 0.0 **** 0.0
5 H 51.451 57.163 49.136 H 0.0 **** 0.0
@<TRIPOS>BOND
1 1 2 1
2 1 3 1
3 1 4 1
4 1 5 1
@<TRIPOS>MOLECULE
CH4
5 4
SMALL
USER_CHARGES


@<TRIPOS>ATOM
1 C 74.594 91.114 80.041 C 0.0 **** 0.0
2 H 73.687 91.364 80.592 H 0.0 **** 0.0
3 H 75.174 90.384 80.607 H 0.0 **** 0.0
4 H 75.189 92.015 79.893 H 0.0 **** 0.0
5 H 74.325 90.692 79.073 H 0.0 **** 0.0
@<TRIPOS>BOND
1 1 2 1
2 1 3 1
3 1 4 1
4 1 5 1
@<TRIPOS>MOLECULE
CH4
5 4
SMALL
USER_CHARGES


@<TRIPOS>ATOM
1 C 20.258 51.541 25.076 C 0.0 **** 0.0
2 H 19.884 51.469 24.055 H 0.0 **** 0.0
3 H 20.79 52.485 25.202 H 0.0 **** 0.0
4 H 20.938 50.712 25.274 H 0.0 **** 0.0
5 H 19.421 51.499 25.773 H 0.0 **** 0.0
@<TRIPOS>BOND
1 1 2 1
2 1 3 1
3 1 4 1
4 1 5 1
@<TRIPOS>MOLECULE
CH4
5 4
SMALL
USER_CHARGES


@<TRIPOS>ATOM
1 C 48.674 76.485 4.498 C 0.0 **** 0.0
2 H 49.762 76.41 4.501 H 0.0 **** 0.0
3 H 48.244 75.519 4.234 H 0.0 **** 0.0
4 H 48.365 77.233 3.767 H 0.0 **** 0.0
5 H 48.328 76.78 5.488 H 0.0 **** 0.0
@<TRIPOS>BOND
1 1 2 1
2 1 3 1
3 1 4 1
4 1 5 1
@<TRIPOS>MOLECULE
CH4
5 4
SMALL
USER_CHARGES


@<TRIPOS>ATOM
1 C 80.993 71.553 8.238 C 0.0 **** 0.0
2 H 80.957 71.417 9.318 H 0.0 **** 0.0
3 H 82.024 71.729 7.928 H 0.0 **** 0.0
4 H 80.378 72.408 7.958 H 0.0 **** 0.0
5 H 80.614 70.657 7.746 H 0.0 **** 0.0
@<TRIPOS>BOND
1 1 2 1
2 1 3 1
3 1 4 1
4 1 5 1
@<TRIPOS>MOLECULE
CH4
5 4
SMALL
USER_CHARGES


@<TRIPOS>ATOM
1 C 4.105 52.963 41.562 C 0.0 **** 0.0
2 H 4.106 52.733 40.496 H 0.0 **** 0.0
3 H 5.095 53.309 41.86 H 0.0 **** 0.0
4 H 3.847 52.067 42.127 H 0.0 **** 0.0
5 H 3.371 53.743 41.763 H 0.0 **** 0.0
@<TRIPOS>BOND
1 1 2 1
2 1 3 1
3 1 4 1
4 1 5 1
@<TRIPOS>MOLECULE
CH4
5 4
SMALL
USER_CHARGES


@<TRIPOS>ATOM
1 C 89.452 2.52 9.967 C 0.0 **** 0.0
2 H 90.077 3.308 10.388 H 0.0 **** 0.0
3 H 89.658 1.581 10.481 H 0.0 **** 0.0
4 H 89.673 2.409 8.906 H 0.0 **** 0.0
5 H 88.402 2.782 10.095 H 0.0 **** 0.0
@<TRIPOS>BOND
1 1 2 1
2 1 3 1
3 1 4 1
4 1 5 1
@<TRIPOS>MOLECULE
CH4
5 4
SMALL
USER_CHARGES


@<TRIPOS>ATOM
1 C 21.783 22.595 3.663 C 0.0 **** 0.0
2 H 22.009 21.617 3.237 H 0.0 **** 0.0
3 H 21.42 22.471 4.684 H 0.0 **** 0.0
4 H 21.016 23.084 3.062 H 0.0 **** 0.0
5 H 22.685 23.206 3.669 H 0.0 **** 0.0
@<TRIPOS>BOND
1 1 2 1
2 1 3 1
3 1 4 1
4 1 5 1
@<TRIPOS>MOLECULE
CH4
5 4
SMALL
USER_CHARGES


@<TRIPOS>ATOM
1 C 16.381 74.275 96.117 C 0.0 **** 0.0
2 H 17.217 74.592 95.493 H 0.0 **** 0.0
3 H 16.149 73.23 95.91 H 0.0 **** 0.0
4 H 15.51 74.892 95.897 H 0.0 **** 0.0
5 H 16.65 74.387 97.167 H 0.0 **** 0.0
@<TRIPOS>BOND
1 1 2 1
2 1 3 1
3 1 4 1
4 1 5 1
@<TRIPOS>MOLECULE
CH4
5 4
SMALL
USER_CHARGES


@<TRIPOS>ATOM
1 C 54.387 76.273 89.036 C 0.0 **** 0.0
2 H 54.191 76.244 87.964 H 0.0 **** 0.0
3 H 54.054 75.34 89.491 H 0.0 **** 0.0
4 H 53.846 77.108 89.481 H 0.0 **** 0.0
5 H 55.456 76.399 89.206 H 0.0 **** 0.0
@<TRIPOS>BOND
1 1 2 1
2 1 3 1
3 1 4 1
4 1 5 1
@<TRIPOS>MOLECULE
CH4
5 4
SMALL
USER_CHARGES


@<TRIPOS>ATOM
1 C 88.749 93.767 36.85 C 0.0 **** 0.0
2 H 89.649 93.637 37.452 H 0.0 **** 0.0
3 H 89.03 93.984 35.82 H 0.0 **** 0.0
4 H 88.162 94.594 37.25 H 0.0 **** 0.0
5 H 88.156 92.852 36.881 H 0.0 **** 0.0
@<TRIPOS>BOND
1 1 2 1
2 1 5 1
3 1 3 1
4 1 4 1
@<TRIPOS>MOLECULE
CH4
5 4
SMALL
USER_CHARGES


@<TRIPOS>ATOM
1 C 93.012 93.947 4.551 C 0.0 **** 0.0
2 H 93.203 93.482 3.584 H 0.0 **** 0.0
3 H 93.124 95.028 4.463 H 0.0 **** 0.0
4 H 93.724 93.567 5.284 H 0.0 **** 0.0
5 H 91.998 93.712 4.873 H 0.0 **** 0.0
@<TRIPOS>BOND
1 1 2 1
2 1 3 1
3 1 4 1
4 1 5 1
@<TRIPOS>MOLECULE
CH4
5 4
SMALL
USER_CHARGES


@<TRIPOS>ATOM
1 C 21.846 39.314 31.554 C 0.0 **** 0.0
2 H 22.529 38.534 31.89 H 0.0 **** 0.0
3 H 22.134 39.643 30.555 H 0.0 **** 0.0
4 H 21.891 40.157 32.242 H 0.0 **** 0.0
5 H 20.83 38.919 31.527 H 0.0 **** 0.0
@<TRIPOS>BOND
1 1 2 1
2 1 3 1
3 1 4 1
4 1 5 1
@<TRIPOS>MOLECULE
CH4
5 4
SMALL
USER_CHARGES


@<TRIPOS>ATOM
1 C 7.693 36.232 93.529 C 0.0 **** 0.0
2 H 8.251 35.354 93.205 H 0.0 **** 0.0
3 H 8.314 36.833 94.194 H 0.0 **** 0.0
4 H 6.794 35.916 94.057 H 0.0 **** 0.0
5 H 7.413 36.826 92.658 H 0.0 **** 0.0
@<TRIPOS>BOND
1 1 2 1
2 1 3 1
3 1 4 1
4 1 5 1
@<TRIPOS>MOLECULE
CH4
5 4
SMALL
USER_CHARGES


@<TRIPOS>ATOM
1 C 30.971 84.451 57.316 C 0.0 **** 0.0
2 H 30.507 84.773 58.248 H 0.0 **** 0.0
3 H 31.943 84.006 57.529 H 0.0 **** 0.0
4 H 31.1 85.31 56.658 H 0.0 **** 0.0
5 H 30.332 83.713 56.829 H 0.0 **** 0.0
@<TRIPOS>BOND
1 1 2 1
2 1 3 1
3 1 4 1
4 1 5 1
@<TRIPOS>MOLECULE
CH4
5 4
SMALL
USER_CHARGES


@<TRIPOS>ATOM
1 C 97.217 4.455 86.998 C 0.0 **** 0.0
2 H 96.452 4.173 87.721 H 0.0 **** 0.0
3 H 96.75 4.649 86.032 H 0.0 **** 0.0
4 H 97.938 3.643 86.897 H 0.0 **** 0.0
5 H 97.728 5.354 87.343 H 0.0 **** 0.0
@<TRIPOS>BOND
1 1 2 1
2 1 3 1
3 1 4 1
4 1 5 1
@<TRIPOS>MOLECULE
CH4
5 4
SMALL
USER_CHARGES


@<TRIPOS>ATOM
1 C 38.203 8.762 37.052 C 0.0 **** 0.0
2 H 38.882 8.03 36.616 H 0.0 **** 0.0
3 H 37.313 8.848 36.428 H 0.0 **** 0.0
4 H 38.701 9.73 37.109 H 0.0 **** 0.0
5 H 37.916 8.441 38.053 H 0.0 **** 0.0
@<TRIPOS>BOND
1 1 2 1
2 1 3 1
3 1 4 1
4 1 5 1
@<TRIPOS>MOLECULE
CH4
5 4
SMALL
USER_CHARGES


@<TRIPOS>ATOM
1 C 97.379 51.111 9.155 C 0.0 **** 0.0
2 H 97.666 51.241 10.198 H 0.0 **** 0.0
3 H 96.932 50.126 9.021 H 0.0 **** 0.0
4 H 98.262 51.199 8.522 H 0.0 **** 0.0
5 H 96.656 51.879 8.879 H 0.0 **** 0.0
@<TRIPOS>BOND
1 1 2 1
2 1 3 1
3 1 4 1
4 1 5 1
@<TRIPOS>MOLECULE
CH4
5 4
SMALL
USER_CHARGES


@<TRIPOS>ATOM
1 C 87.62 10.58 27.053 C 0.0 **** 0.0
2 H 87.854 11.509 26.533 H 0.0 **** 0.0
3 H 86.76 10.106 26.581 H 0.0 **** 0.0
4 H 87.389 10.797 28.096 H 0.0 **** 0.0
5 H 88.478 9.91 27.002 H 0.0 **** 0.0
@<TRIPOS>BOND
1 1 2 1
2 1 3 1
3 1 4 1
4 1 5 1
@<TRIPOS>MOLECULE
CH4
5 4
SMALL
USER_CHARGES


@<TRIPOS>ATOM
1 C 43.681 84.834 66.974 C 0.0 **** 0.0
2 H 43.211 84.665 67.943 H 0.0 **** 0.0
3 H 42.922 84.807 66.192 H 0.0 **** 0.0
4 H 44.422 84.057 66.789 H 0.0 **** 0.0
5 H 44.169 85.809 66.973 H 0.0 **** 0.0
@<TRIPOS>BOND
1 1 2 1
2 1 3 1
3 1 4 1
4 1 5 1
@<TRIPOS>MOLECULE
CH4
5 4
SMALL
USER_CHARGES


@<TRIPOS>ATOM
1 C 92.627 77.138 16.236 C 0.0 **** 0.0
2 H 92.334 77.624 17.167 H 0.0 **** 0.0
3 H 91.746 76.989 15.611 H 0.0 **** 0.0
4 H 93.082 76.173 16.459 H 0.0 **** 0.0
5 H 93.345 77.765 15.709 H 0.0 **** 0.0
@<TRIPOS>BOND
1 1 2 1
2 1 3 1
3 1 4 1
4 1 5 1
@<TRIPOS>MOLECULE
CH4
5 4
SMALL
USER_CHARGES


@<TRIPOS>ATOM
1 C 12.677 29.015 93.273 C 0.0 **** 0.0
2 H 13.347 28.205 93.562 H 0.0 **** 0.0
3 H 13.105 29.556 92.43 H 0.0 **** 0.0
4 H 12.547 29.696 94.115 H 0.0 **** 0.0
5 H 11.71 28.601 92.988 H 0.0 **** 0.0
@<TRIPOS>BOND
1 1 2 1
2 1 3 1
3 1 4 1
4 1 5 1
@<TRIPOS>MOLECULE
CH4
5 4
SMALL
USER_CHARGES


@<TRIPOS>ATOM
1 C 66.542 61.924 82.137 C 0.0 **** 0.0
2 H 67.213 61.065 82.16 H 0.0 **** 0.0
3 H 66.446 62.336 83.142 H 0.0 **** 0.0
4 H 65.562 61.61 81.777 H 0.0 **** 0.0
5 H 66.948 62.684 81.47 H 0.0 **** 0.0
@<TRIPOS>BOND
1 1 2 1
2 1 3 1
3 1 4 1
4 1 5 1
@<TRIPOS>MOLECULE
CH4
5 4
SMALL
USER_CHARGES


@<TRIPOS>ATOM
1 C 64.94 29.178 47.09 C 0.0 **** 0.0
2 H 65.041 29.1 48.173 H 0.0 **** 0.0
3 H 65.776 29.751 46.688 H 0.0 **** 0.0
4 H 64.004 29.681 46.848 H 0.0 **** 0.0
5 H 64.94 28.18 46.653 H 0.0 **** 0.0
@<TRIPOS>BOND
1 1 2 1
2 1 3 1
3 1 4 1
4 1 5 1
@<TRIPOS>MOLECULE
CH4
5 4
SMALL
USER_CHARGES


@<TRIPOS>ATOM
1 C 90.953 82.128 15.902 C 0.0 **** 0.0
2 H 90.525 82.82 15.176 H 0.0 **** 0.0
3 H 90.181 81.816 16.605 H 0.0 **** 0.0
4 H 91.76 82.623 16.443 H 0.0 **** 0.0
5 H 91.347 81.254 15.382 H 0.0 **** 0.0
@<TRIPOS>BOND
1 1 2 1
2 1 3 1
3 1 4 1
4 1 5 1
@<TRIPOS>MOLECULE
CH4
5 4
SMALL
USER_CHARGES


@<TRIPOS>ATOM
1 C 63.697 33.475 49.971 C 0.0 **** 0.0
2 H 62.837 33.484 49.301 H 0.0 **** 0.0
3 H 63.491 34.106 50.835 H 0.0 **** 0.0
4 H 64.572 33.856 49.443 H 0.0 **** 0.0
5 H 63.889 32.455 50.302 H 0.0 **** 0.0
@<TRIPOS>BOND
1 1 2 1
2 1 3 1
3 1 4 1
4 1 5 1
@<TRIPOS>MOLECULE
CH4
5 4
SMALL
USER_CHARGES


@<TRIPOS>ATOM
1 C 82.716 48.902 78.795 C 0.0 **** 0.0
2 H 82.19 49.841 78.968 H 0.0 **** 0.0
3 H 82.382 48.467 77.853 H 0.0 **** 0.0
4 H 82.503 48.211 79.611 H 0.0 **** 0.0
5 H 83.789 49.09 78.75 H 0.0 **** 0.0
@<TRIPOS>BOND
1 1 2 1
2 1 3 1
3 1 4 1
4 1 5 1
@<TRIPOS>MOLECULE
CH4
5 4
SMALL
USER_CHARGES


@<TRIPOS>ATOM
1 C 76.898 6.533 35.756 C 0.0 **** 0.0
2 H 76.637 6.338 34.716 H 0.0 **** 0.0
3 H 77.677 5.838 36.071 H 0.0 **** 0.0
4 H 76.016 6.401 36.383 H 0.0 **** 0.0
5 H 77.263 7.556 35.852 H 0.0 **** 0.0
@<TRIPOS>BOND
1 1 2 1
2 1 3 1
3 1 4 1
4 1 5 1
@<TRIPOS>MOLECULE
CH4
5 4
SMALL
USER_CHARGES


@<TRIPOS>ATOM
1 C 65.676 40.144 36.255 C 0.0 **** 0.0
2 H 65.867 40.326 35.197 H 0.0 **** 0.0
3 H 66.487 40.568 36.848 H 0.0 **** 0.0
4 H 65.616 39.071 36.434 H 0.0 **** 0.0
5 H 64.734 40.613 36.539 H 0.0 **** 0.0
@<TRIPOS>BOND
1 1 2 1
2 1 3 1
3 1 4 1
4 1 5 1
@<TRIPOS>MOLECULE
CH4
5 4
SMALL
USER_CHARGES


@<TRIPOS>ATOM
1 C 48.474 88.539 44.573 C 0.0 **** 0.0
2 H 48.204 89.255 43.797 H 0.0 **** 0.0
3 H 49.555 88.392 44.571 H 0.0 **** 0.0
4 H 47.978 87.588 44.379 H 0.0 **** 0.0
5 H 48.161 88.92 45.545 H 0.0 **** 0.0
@<TRIPOS>BOND
1 1 2 1
2 1 3 1
3 1 4 1
4 1 5 1
@<TRIPOS>MOLECULE
CH4
5 4
SMALL
USER_CHARGES


@<TRIPOS>ATOM
1 C 23.279 53.252 53.721 C 0.0 **** 0.0
2 H 24.018 53.002 52.961 H 0.0 **** 0.0
3 H 23.012 54.306 53.636 H 0.0 **** 0.0
4 H 23.695 53.062 54.71 H 0.0 **** 0.0
5 H 22.389 52.639 53.578 H 0.0 **** 0.0
@<TRIPOS>BOND
1 1 5 1
2 1 2 1
3 1 3 1
4 1 4 1
@<TRIPOS>MOLECULE
CH4
5 4
SMALL
USER_CHARGES


@<TRIPOS>ATOM
1 C 38.625 85.613 34.983 C 0.0 **** 0.0
2 H 38.943 85.731 36.02 H 0.0 **** 0.0
3 H 39.489 85.367 34.365 H 0.0 **** 0.0
4 H 38.179 86.543 34.632 H 0.0 **** 0.0
5 H 37.891 84.81 34.918 H 0.0 **** 0.0
@<TRIPOS>BOND
1 1 2 1
2 1 3 1
3 1 4 1
4 1 5 1
@<TRIPOS>MOLECULE
CH4
5 4
SMALL
USER_CHARGES


@<TRIPOS>ATOM
1 C 71.928 36.585 3.237 C 0.0 **** 0.0
2 H 71.294 35.9 3.8 H 0.0 **** 0.0
3 H 72.883 36.7 3.751 H 0.0 **** 0.0
4 H 71.437 37.555 3.161 H 0.0 **** 0.0
5 H 72.099 36.184 2.238 H 0.0 **** 0.0
@<TRIPOS>BOND
1 1 2 1
2 1 3 1
3 1 4 1
4 1 5 1
@<TRIPOS>MOLECULE
CH4
5 4
SMALL
USER_CHARGES


@<TRIPOS>ATOM
1 C 53.719 31.176 77.225 C 0.0 **** 0.0
2 H 53.687 31.187 76.136 H 0.0 **** 0.0
3 H 52.777 31.557 77.62 H 0.0 **** 0.0
4 H 54.539 31.806 77.57 H 0.0 **** 0.0
5 H 53.874 30.155 77.574 H 0.0 **** 0.0
@<TRIPOS>BOND
1 1 2 1
2 1 3 1
3 1 4 1
4 1 5 1
@<TRIPOS>MOLECULE
CH4
5 4
SMALL
USER_CHARGES


@<TRIPOS>ATOM
1 C 88.745 66.67 22.507 C 0.0 **** 0.0
2 H 88.567 67.685 22.861 H 0.0 **** 0.0
3 H 89.173 66.704 21.505 H 0.0 **** 0.0
4 H 87.802 66.124 22.482 H 0.0 **** 0.0
5 H 89.437 66.167 23.182 H 0.0 **** 0.0
@<TRIPOS>BOND
1 1 2 1
2 1 3 1
3 1 4 1
4 1 5 1
@<TRIPOS>MOLECULE
CH4
5 4
SMALL
USER_CHARGES


@<TRIPOS>ATOM
1 C 58.532 57.065 68.985 C 0.0 **** 0.0
2 H 58.748 56.628 69.961 H 0.0 **** 0.0
3 H 59.309 57.786 68.731 H 0.0 **** 0.0
4 H 57.566 57.568 69.019 H 0.0 **** 0.0
5 H 58.506 56.277 68.233 H 0.0 **** 0.0
@<TRIPOS>BOND
1 1 2 1
2 1 3 1
3 1 4 1
4 1 5 1
@<TRIPOS>MOLECULE
CH4
5 4
SMALL
USER_CHARGES


@<TRIPOS>ATOM
1 C 81.739 10.88 25.26 C 0.0 **** 0.0
2 H 81.679 10.464 24.254 H 0.0 **** 0.0
3 H 80.907 10.506 25.857 H 0.0 **** 0.0
4 H 81.688 11.967 25.206 H 0.0 **** 0.0
5 H 82.681 10.582 25.72 H 0.0 **** 0.0
@<TRIPOS>BOND
1 1 2 1
2 1 3 1
3 1 4 1
4 1 5 1
@<TRIPOS>MOLECULE
CH4
5 4
SMALL
USER_CHARGES


@<TRIPOS>ATOM
1 C 50.619 38.272 29.168 C 0.0 **** 0.0
2 H 49.889 37.905 29.889 H 0.0 **** 0.0
3 H 51.416 37.538 29.053 H 0.0 **** 0.0
4 H 51.039 39.213 29.522 H 0.0 **** 0.0
5 H 50.13 38.432 28.207 H 0.0 **** 0.0
@<TRIPOS>BOND
1 1 2 1
2 1 3 1
3 1 4 1
4 1 5 1
@<TRIPOS>MOLECULE
CH4
5 4
SMALL
USER_CHARGES


@<TRIPOS>ATOM
1 C 39.513 93.358 3.048 C 0.0 **** 0.0
2 H 39.416 93.121 1.988 H 0.0 **** 0.0
3 H 39.001 94.298 3.258 H 0.0 **** 0.0
4 H 40.568 93.454 3.303 H 0.0 **** 0.0
5 H 39.066 92.56 3.641 H 0.0 **** 0.0
@<TRIPOS>BOND
1 1 2 1
2 1 3 1
3 1 4 1
4 1 5 1
@<TRIPOS>MOLECULE
CH4
5 4
SMALL
USER_CHARGES


@<TRIPOS>ATOM
1 C 5.542 65.472 73.254 C 0.0 **** 0.0
2 H 6.102 65.952 72.451 H 0.0 **** 0.0
3 H 6.156 65.438 74.154 H 0.0 **** 0.0
4 H 5.277 64.458 72.956 H 0.0 **** 0.0
5 H 4.634 66.042 73.454 H 0.0 **** 0.0
@<TRIPOS>BOND
1 1 2 1
2 1 3 1
3 1 4 1
4 1 5 1
@<TRIPOS>MOLECULE
CH4
5 4
SMALL
USER_CHARGES


@<TRIPOS>ATOM
1 C 70.884 49.625 20.98 C 0.0 **** 0.0
2 H 70.959 50.678 20.711 H 0.0 **** 0.0
3 H 70.229 49.517 21.844 H 0.0 **** 0.0
4 H 71.874 49.24 21.223 H 0.0 **** 0.0
5 H 70.473 49.065 20.14 H 0.0 **** 0.0
@<TRIPOS>BOND
1 1 2 1
2 1 3 1
3 1 4 1
4 1 5 1
@<TRIPOS>MOLECULE
CH4
5 4
SMALL
USER_CHARGES


@<TRIPOS>ATOM
1 C 18.419 37.982 49.053 C 0.0 **** 0.0
2 H 18.866 36.989 49.005 H 0.0 **** 0.0
3 H 17.396 37.902 49.418 H 0.0 **** 0.0
4 H 18.417 38.427 48.057 H 0.0 **** 0.0
5 H 19.0 38.61 49.729 H 0.0 **** 0.0
@<TRIPOS>BOND
1 1 2 1
2 1 3 1
3 1 4 1
4 1 5 1
@<TRIPOS>MOLECULE
CH4
5 4
SMALL
USER_CHARGES


@<TRIPOS>ATOM
1 C 60.917 3.62 19.318 C 0.0 **** 0.0
2 H 61.204 2.576 19.442 H 0.0 **** 0.0
3 H 61.743 4.262 19.625 H 0.0 **** 0.0
4 H 60.043 3.832 19.933 H 0.0 **** 0.0
5 H 60.679 3.81 18.271 H 0.0 **** 0.0
@<TRIPOS>BOND
1 1 2 1
2 1 3 1
3 1 4 1
4 1 5 1
@<TRIPOS>MOLECULE
CH4
5 4
SMALL
USER_CHARGES


@<TRIPOS>ATOM
1 C 88.134 26.359 76.154 C 0.0 **** 0.0
2 H 88.055 26.41 75.068 H 0.0 **** 0.0
3 H 87.257 25.854 76.559 H 0.0 **** 0.0
4 H 88.194 27.368 76.561 H 0.0 **** 0.0
5 H 89.032 25.804 76.426 H 0.0 **** 0.0
@<TRIPOS>BOND
1 1 2 1
2 1 3 1
3 1 4 1
4 1 5 1
@<TRIPOS>MOLECULE
CH4
5 4
SMALL
USER_CHARGES


@<TRIPOS>ATOM
1 C 60.315 82.77 51.824 C 0.0 **** 0.0
2 H 61.006 83.558 52.124 H 0.0 **** 0.0
3 H 59.374 83.216 51.502 H 0.0 **** 0.0
4 H 60.133 82.105 52.668 H 0.0 **** 0.0
5 H 60.749 82.202 51.001 H 0.0 **** 0.0
@<TRIPOS>BOND
1 1 2 1
2 1 3 1
3 1 4 1
4 1 5 1
@<TRIPOS>MOLECULE
CH4
5 4
SMALL
USER_CHARGES


@<TRIPOS>ATOM
1 C 88.835 16.431 93.625 C 0.0 **** 0.0
2 H 89.874 16.146 93.789 H 0.0 **** 0.0
3 H 88.385 15.759 92.894 H 0.0 **** 0.0
4 H 88.793 17.455 93.252 H 0.0 **** 0.0
5 H 88.287 16.364 94.565 H 0.0 **** 0.0
@<TRIPOS>BOND
1 1 2 1
2 1 3 1
3 1 4 1
4 1 5 1
@<TRIPOS>MOLECULE
CH4
5 4
SMALL
USER_CHARGES


@<TRIPOS>ATOM
1 C 37.168 61.149 20.089 C 0.0 **** 0.0
2 H 38.221 61.155 19.806 H 0.0 **** 0.0
3 H 37.014 61.824 20.93 H 0.0 **** 0.0
4 H 36.874 60.139 20.375 H 0.0 **** 0.0
5 H 36.563 61.477 19.244 H 0.0 **** 0.0
@<TRIPOS>BOND
1 1 2 1
2 1 3 1
3 1 4 1
4 1 5 1
@<TRIPOS>MOLECULE
CH4
5 4
SMALL
USER_CHARGES


@<TRIPOS>ATOM
1 C 29.378 79.144 23.245 C 0.0 **** 0.0
2 H 29.967 79.203 24.16 H 0.0 **** 0.0
3 H 28.414 79.628 23.401 H 0.0 **** 0.0
4 H 29.222 78.098 22.981 H 0.0 **** 0.0
5 H 29.911 79.647 22.438 H 0.0 **** 0.0
@<TRIPOS>BOND
1 1 2 1
2 1 3 1
3 1 4 1
4 1 5 1
@<TRIPOS>MOLECULE
CH4
5 4
SMALL
USER_CHARGES


@<TRIPOS>ATOM
1 C 41.961 19.273 96.297 C 0.0 **** 0.0
2 H 41.352 20.124 96.601 H 0.0 **** 0.0
3 H 41.322 18.402 96.153 H 0.0 **** 0.0
4 H 42.698 19.059 97.071 H 0.0 **** 0.0
5 H 42.472 19.507 95.363 H 0.0 **** 0.0
@<TRIPOS>BOND
1 1 2 1
2 1 3 1
3 1 4 1
4 1 5 1
@<TRIPOS>MOLECULE
CH4
5 4
SMALL
USER_CHARGES


@<TRIPOS>ATOM
1 C 1.526 22.64 45.009 C 0.0 **** 0.0
2 H 0.921 22.195 44.219 H 0.0 **** 0.0
3 H 0.969 23.451 45.479 H 0.0 **** 0.0
4 H 2.449 23.032 44.583 H 0.0 **** 0.0
5 H 1.763 21.882 45.755 H 0.0 **** 0.0
@<TRIPOS>BOND
1 1 2 1
2 1 3 1
3 1 4 1
4 1 5 1
@<TRIPOS>MOLECULE
CH4
5 4
SMALL
USER_CHARGES


@<TRIPOS>ATOM
1 C 93.99 18.482 51.261 C 0.0 **** 0.0
2 H 94.363 17.832 52.052 H 0.0 **** 0.0
3 H 93.56 17.874 50.465 H 0.0 **** 0.0
4 H 94.812 19.076 50.861 H 0.0 **** 0.0
5 H 93.226 19.145 51.666 H 0.0 **** 0.0
@<TRIPOS>BOND
1 1 2 1
2 1 3 1
3 1 4 1
4 1 5 1
@<TRIPOS>MOLECULE
CH4
5 4
SMALL
USER_CHARGES


@<TRIPOS>ATOM
1 C 32.754 1.633 47.023 C 0.0 **** 0.0
2 H 33.162 2.125 46.14 H 0.0 **** 0.0
3 H 32.876 0.554 46.925 H 0.0 **** 0.0
4 H 31.694 1.872 47.114 H 0.0 **** 0.0
5 H 33.283 1.98 47.91 H 0.0 **** 0.0
@<TRIPOS>BOND
1 1 2 1
2 1 3 1
3 1 4 1
4 1 5 1
@<TRIPOS>MOLECULE
CH4
5 4
SMALL
USER_CHARGES


@<TRIPOS>ATOM
1 C 17.201 64.434 9.043 C 0.0 **** 0.0
2 H 17.162 63.884 8.102 H 0.0 **** 0.0
3 H 16.364 64.134 9.674 H 0.0 **** 0.0
4 H 17.139 65.503 8.841 H 0.0 **** 0.0
5 H 18.138 64.214 9.553 H 0.0 **** 0.0
@<TRIPOS>BOND
1 1 2 1
2 1 3 1
3 1 4 1
4 1 5 1
@<TRIPOS>MOLECULE
CH4
5 4
SMALL
USER_CHARGES


@<TRIPOS>ATOM
1 C 48.724 53.617 88.787 C 0.0 **** 0.0
2 H 48.712 52.795 89.502 H 0.0 **** 0.0
3 H 48.415 54.536 89.285 H 0.0 **** 0.0
4 H 48.038 53.398 87.969 H 0.0 **** 0.0
5 H 49.733 53.74 88.392 H 0.0 **** 0.0
@<TRIPOS>BOND
1 1 2 1
2 1 3 1
3 1 4 1
4 1 5 1
@<TRIPOS>MOLECULE
CH4
5 4
SMALL
USER_CHARGES


@<TRIPOS>ATOM
1 C 65.292 13.731 33.712 C 0.0 **** 0.0
2 H 64.311 13.923 34.147 H 0.0 **** 0.0
3 H 65.171 13.368 32.69 H 0.0 **** 0.0
4 H 65.811 12.979 34.305 H 0.0 **** 0.0
5 H 65.873 14.653 33.704 H 0.0 **** 0.0
@<TRIPOS>BOND
1 1 2 1
2 1 3 1
3 1 4 1
4 1 5 1
@<TRIPOS>MOLECULE
CH4
5 4
SMALL
USER_CHARGES


@<TRIPOS>ATOM
1 C 70.24 10.872 21.551 C 0.0 **** 0.0
2 H 69.591 11.731 21.722 H 0.0 **** 0.0
3 H 71.182 11.209 21.118 H 0.0 **** 0.0
4 H 69.752 10.179 20.866 H 0.0 **** 0.0
5 H 70.434 10.37 22.499 H 0.0 **** 0.0
@<TRIPOS>BOND
1 1 2 1
2 1 3 1
3 1 4 1
4 1 5 1
@<TRIPOS>MOLECULE
CH4
5 4
SMALL
USER_CHARGES


@<TRIPOS>ATOM
1 C 55.527 76.297 91.859 C 0.0 **** 0.0
2 H 54.572 76.736 91.571 H 0.0 **** 0.0
3 H 55.478 75.214 91.747 H 0.0 **** 0.0
4 H 55.743 76.546 92.898 H 0.0 **** 0.0
5 H 56.317 76.693 91.22 H 0.0 **** 0.0
@<TRIPOS>BOND
1 1 2 1
2 1 3 1
3 1 4 1
4 1 5 1
@<TRIPOS>MOLECULE
CH4
5 4
SMALL
USER_CHARGES


@<TRIPOS>ATOM
1 C 51.171 54.199 55.24 C 0.0 **** 0.0
2 H 50.904 53.448 54.497 H 0.0 **** 0.0
3 H 50.328 54.874 55.392 H 0.0 **** 0.0
4 H 52.032 54.767 54.888 H 0.0 **** 0.0
5 H 51.419 53.708 56.18 H 0.0 **** 0.0
@<TRIPOS>BOND
1 1 2 1
2 1 3 1
3 1 4 1
4 1 5 1
@<TRIPOS>MOLECULE
CH4
5 4
SMALL
USER_CHARGES


@<TRIPOS>ATOM
1 C 34.151 64.645 20.605 C 0.0 **** 0.0
2 H 33.963 65.358 21.407 H 0.0 **** 0.0
3 H 34.563 63.727 21.025 H 0.0 **** 0.0
4 H 34.862 65.072 19.898 H 0.0 **** 0.0
5 H 33.216 64.422 20.091 H 0.0 **** 0.0
@<TRIPOS>BOND
1 1 2 1
2 1 3 1
3 1 4 1
4 1 5 1
@<TRIPOS>MOLECULE
CH4
5 4
SMALL
USER_CHARGES


@<TRIPOS>ATOM
1 C 73.078 53.761 4.814 C 0.0 **** 0.0
2 H 73.029 53.729 5.902 H 0.0 **** 0.0
3 H 72.218 53.237 4.396 H 0.0 **** 0.0
4 H 73.996 53.279 4.478 H 0.0 **** 0.0
5 H 73.069 54.798 4.48 H 0.0 **** 0.0
@<TRIPOS>BOND
1 1 2 1
2 1 3 1
3 1 4 1
4 1 5 1
@<TRIPOS>MOLECULE
CH4
5 4
SMALL
USER_CHARGES


@<TRIPOS>ATOM
1 C 24.823 23.622 34.868 C 0.0 **** 0.0
2 H 25.169 24.44 34.235 H 0.0 **** 0.0
3 H 25.528 22.793 34.807 H 0.0 **** 0.0
4 H 23.841 23.291 34.529 H 0.0 **** 0.0
5 H 24.755 23.966 35.9 H 0.0 **** 0.0
@<TRIPOS>BOND
1 1 2 1
2 1 3 1
3 1 4 1
4 1 5 1
@<TRIPOS>MOLECULE
CH4
5 4
SMALL
USER_CHARGES


@<TRIPOS>ATOM
1 C 2.686 66.604 52.693 C 0.0 **** 0.0
2 H 2.739 66.23 53.716 H 0.0 **** 0.0
3 H 1.765 67.172 52.562 H 0.0 **** 0.0
4 H 2.698 65.765 51.998 H 0.0 **** 0.0
5 H 3.542 67.25 52.499 H 0.0 **** 0.0
@<TRIPOS>BOND
1 1 2 1
2 1 3 1
3 1 4 1
4 1 5 1
@<TRIPOS>MOLECULE
CH4
5 4
SMALL
USER_CHARGES


@<TRIPOS>ATOM
1 C 65.47 78.828 29.858 C 0.0 **** 0.0
2 H 65.436 79.36 28.908 H 0.0 **** 0.0
3 H 66.163 77.989 29.779 H 0.0 **** 0.0
4 H 64.475 78.456 30.102 H 0.0 **** 0.0
5 H 65.807 79.506 30.642 H 0.0 **** 0.0
@<TRIPOS>BOND
1 1 2 1
2 1 3 1
3 1 4 1
4 1 5 1
@<TRIPOS>MOLECULE
CH4
5 4
SMALL
USER_CHARGES


@<TRIPOS>ATOM
1 C 72.955 18.906 74.783 C 0.0 **** 0.0
2 H 71.936 19.041 74.422 H 0.0 **** 0.0
3 H 73.509 18.283 74.081 H 0.0 **** 0.0
4 H 72.934 18.423 75.76 H 0.0 **** 0.0
5 H 73.442 19.878 74.869 H 0.0 **** 0.0
@<TRIPOS>BOND
1 1 2 1
2 1 3 1
3 1 4 1
4 1 5 1
@<TRIPOS>MOLECULE
CH4
5 4
SMALL
USER_CHARGES


@<TRIPOS>ATOM
1 C 21.907 91.311 19.747 C 0.0 **** 0.0
2 H 22.892 90.888 19.551 H 0.0 **** 0.0
3 H 21.225 91.032 18.944 H 0.0 **** 0.0
4 H 21.982 92.398 19.799 H 0.0 **** 0.0
5 H 21.529 90.928 20.695 H 0.0 **** 0.0
@<TRIPOS>BOND
1 1 4 1
2 1 5 1
3 1 2 1
4 1 3 1
@<TRIPOS>MOLECULE
CH4
5 4
SMALL
USER_CHARGES


@<TRIPOS>ATOM
1 C 21.428 38.265 96.939 C 0.0 **** 0.0
2 H 20.729 37.606 97.455 H 0.0 **** 0.0
3 H 22.31 37.697 96.643 H 0.0 **** 0.0
4 H 21.723 39.075 97.605 H 0.0 **** 0.0
5 H 20.948 38.68 96.052 H 0.0 **** 0.0
@<TRIPOS>BOND
1 1 2 1
2 1 3 1
3 1 4 1
4 1 5 1
@<TRIPOS>MOLECULE
CH4
5 4
SMALL
USER_CHARGES


@<TRIPOS>ATOM
1 C 20.132 65.705 46.918 C 0.0 **** 0.0
2 H 20.958 66.125 47.493 H 0.0 **** 0.0
3 H 20.396 64.702 46.583 H 0.0 **** 0.0
4 H 19.934 66.338 46.052 H 0.0 **** 0.0
5 H 19.241 65.657 47.544 H 0.0 **** 0.0
@<TRIPOS>BOND
1 1 2 1
2 1 3 1
3 1 4 1
4 1 5 1
@<TRIPOS>MOLECULE
CH4
5 4
SMALL
USER_CHARGES


@<TRIPOS>ATOM
1 C 42.455 25.312 8.179 C 0.0 **** 0.0
2 H 42.487 25.344 9.268 H 0.0 **** 0.0
3 H 41.588 24.733 7.858 H 0.0 **** 0.0
4 H 43.364 24.845 7.802 H 0.0 **** 0.0
5 H 42.379 26.327 7.788 H 0.0 **** 0.0
@<TRIPOS>BOND
1 1 2 1
2 1 3 1
3 1 4 1
4 1 5 1
@<TRIPOS>MOLECULE
CH4
5 4
SMALL
USER_CHARGES


@<TRIPOS>ATOM
1 C 90.622 24.921 78.756 C 0.0 **** 0.0
2 H 90.811 24.149 79.501 H 0.0 **** 0.0
3 H 90.001 24.512 77.959 H 0.0 **** 0.0
4 H 91.569 25.265 78.34 H 0.0 **** 0.0
5 H 90.105 25.759 79.225 H 0.0 **** 0.0
@<TRIPOS>BOND
1 1 2 1
2 1 3 1
3 1 4 1
4 1 5 1
@<TRIPOS>MOLECULE
CH4
5 4
SMALL
USER_CHARGES


@<TRIPOS>ATOM
1 C 30.185 39.036 50.694 C 0.0 **** 0.0
2 H 29.736 39.762 50.016 H 0.0 **** 0.0
3 H 31.25 38.95 50.48 H 0.0 **** 0.0
4 H 29.707 38.066 50.555 H 0.0 **** 0.0
5 H 30.045 39.365 51.724 H 0.0 **** 0.0
@<TRIPOS>BOND
1 1 2 1
2 1 3 1
3 1 4 1
4 1 5 1
@<TRIPOS>MOLECULE
CH4
5 4
SMALL
USER_CHARGES


@<TRIPOS>ATOM
1 C 65.43 47.844 31.043 C 0.0 **** 0.0
2 H 65.069 48.646 31.686 H 0.0 **** 0.0
3 H 64.589 47.232 30.719 H 0.0 **** 0.0
4 H 66.138 47.227 31.595 H 0.0 **** 0.0
5 H 65.925 48.273 30.171 H 0.0 **** 0.0
@<TRIPOS>BOND
1 1 2 1
2 1 3 1
3 1 4 1
4 1 5 1
@<TRIPOS>MOLECULE
CH4
5 4
SMALL
USER_CHARGES


@<TRIPOS>ATOM
1 C 47.621 32.572 5.507 C 0.0 **** 0.0
2 H 47.502 32.96 4.496 H 0.0 **** 0.0
3 H 47.256 31.545 5.547 H 0.0 **** 0.0
4 H 47.051 33.188 6.202 H 0.0 **** 0.0
5 H 48.676 32.594 5.782 H 0.0 **** 0.0
@<TRIPOS>BOND
1 1 2 1
2 1 3 1
3 1 4 1
4 1 5 1
@<TRIPOS>MOLECULE
CH4
5 4
SMALL
USER_CHARGES


@<TRIPOS>ATOM
1 C 10.741 98.261 43.449 C 0.0 **** 0.0
2 H 10.976 98.484 42.408 H 0.0 **** 0.0
3 H 9.684 98.458 43.633 H 0.0 **** 0.0
4 H 11.347 98.89 44.101 H 0.0 **** 0.0
5 H 10.956 97.212 43.653 H 0.0 **** 0.0
@<TRIPOS>BOND
1 1 4 1
2 1 2 1
3 1 3 1
4 1 5 1
@<TRIPOS>MOLECULE
CH4
5 4
SMALL
USER_CHARGES


@<TRIPOS>ATOM
1 C 77.802 87.76 89.334 C 0.0 **** 0.0
2 H 77.885 88.152 88.32 H 0.0 **** 0.0
3 H 76.909 88.166 89.808 H 0.0 **** 0.0
4 H 78.682 88.049 89.908 H 0.0 **** 0.0
5 H 77.733 86.673 89.298 H 0.0 **** 0.0
@<TRIPOS>BOND
1 1 2 1
2 1 3 1
3 1 4 1
4 1 5 1
@<TRIPOS>MOLECULE
CH4
5 4
SMALL
USER_CHARGES


@<TRIPOS>ATOM
1 C 30.125 1.744 76.287 C 0.0 **** 0.0
2 H 29.74 2.761 76.366 H 0.0 **** 0.0
3 H 29.41 1.05 76.728 H 0.0 **** 0.0
4 H 31.075 1.673 76.817 H 0.0 **** 0.0
5 H 30.275 1.494 75.237 H 0.0 **** 0.0
@<TRIPOS>BOND
1 1 2 1
2 1 3 1
3 1 4 1
4 1 5 1
@<TRIPOS>MOLECULE
CH4
5 4
SMALL
USER_CHARGES


@<TRIPOS>ATOM
1 C 6.646 30.624 69.849 C 0.0 **** 0.0
2 H 7.123 31.601 69.768 H 0.0 **** 0.0
3 H 6.87 30.037 68.959 H 0.0 **** 0.0
4 H 5.567 30.753 69.939 H 0.0 **** 0.0
5 H 7.025 30.108 70.731 H 0.0 **** 0.0
@<TRIPOS>BOND
1 1 2 1
2 1 3 1
3 1 4 1
4 1 5 1
@<TRIPOS>MOLECULE
CH4
5 4
SMALL
USER_CHARGES


@<TRIPOS>ATOM
1 C 47.939 29.913 67.945 C 0.0 **** 0.0
2 H 47.673 28.891 67.673 H 0.0 **** 0.0
3 H 48.677 29.894 68.747 H 0.0 **** 0.0
4 H 47.048 30.442 68.283 H 0.0 **** 0.0
5 H 48.358 30.422 67.077 H 0.0 **** 0.0
@<TRIPOS>BOND
1 1 2 1
2 1 3 1
3 1 4 1
4 1 5 1
@<TRIPOS>MOLECULE
CH4
5 4
SMALL
USER_CHARGES


@<TRIPOS>ATOM
1 C 31.784 40.034 88.461 C 0.0 **** 0.0
2 H 31.235 40.047 89.403 H 0.0 **** 0.0
3 H 32.845 40.192 88.656 H 0.0 **** 0.0
4 H 31.411 40.827 87.813 H 0.0 **** 0.0
5 H 31.644 39.07 87.973 H 0.0 **** 0.0
@<TRIPOS>BOND
1 1 2 1
2 1 3 1
3 1 4 1
4 1 5 1
@<TRIPOS>MOLECULE
CH4
5 4
SMALL
USER_CHARGES


@<TRIPOS>ATOM
1 C 52.166 68.225 54.915 C 0.0 **** 0.0
2 H 51.43 69.003 55.117 H 0.0 **** 0.0
3 H 52.638 67.92 55.85 H 0.0 **** 0.0
4 H 52.924 68.611 54.234 H 0.0 **** 0.0
5 H 51.672 67.367 54.461 H 0.0 **** 0.0
@<TRIPOS>BOND
1 1 2 1
2 1 3 1
3 1 4 1
4 1 5 1
@<TRIPOS>MOLECULE
CH4
5 4
SMALL
USER_CHARGES


@<TRIPOS>ATOM
1 C 39.72 26.8 52.823 C 0.0 **** 0.0
2 H 39.058 26.642 53.674 H 0.0 **** 0.0
3 H 39.274 26.363 51.929 H 0.0 **** 0.0
4 H 40.682 26.326 53.018 H 0.0 **** 0.0
5 H 39.866 27.869 52.67 H 0.0 **** 0.0
@<TRIPOS>BOND
1 1 2 1
2 1 3 1
3 1 4 1
4 1 5 1
@<TRIPOS>MOLECULE
CH4
5 4
SMALL
USER_CHARGES


@<TRIPOS>ATOM
1 C 45.72 0.989 78.884 C 0.0 **** 0.0
2 H 45.741 0.998 79.973 H 0.0 **** 0.0
3 H 46.735 1.096 78.5 H 0.0 **** 0.0
4 H 45.107 1.816 78.526 H 0.0 **** 0.0
5 H 45.297 0.047 78.536 H 0.0 **** 0.0
@<TRIPOS>BOND
1 1 2 1
2 1 3 1
3 1 4 1
4 1 5 1
@<TRIPOS>MOLECULE
CH4
5 4
SMALL
USER_CHARGES


@<TRIPOS>ATOM
1 C 37.729 63.565 47.428 C 0.0 **** 0.0
2 H 38.185 63.505 46.44 H 0.0 **** 0.0
3 H 36.669 63.318 47.355 H 0.0 **** 0.0
4 H 37.84 64.577 47.819 H 0.0 **** 0.0
5 H 38.221 62.86 48.099 H 0.0 **** 0.0
@<TRIPOS>BOND
1 1 2 1
2 1 3 1
3 1 4 1
4 1 5 1
@<TRIPOS>MOLECULE
CH4
5 4
SMALL
USER_CHARGES


@<TRIPOS>ATOM
1 C 38.549 69.816 69.899 C 0.0 **** 0.0
2 H 39.512 70.18 69.541 H 0.0 **** 0.0
3 H 38.526 68.728 69.838 H 0.0 **** 0.0
4 H 37.753 70.232 69.281 H 0.0 **** 0.0
5 H 38.405 70.126 70.934 H 0.0 **** 0.0
@<TRIPOS>BOND
1 1 2 1
2 1 3 1
3 1 4 1
4 1 5 1
@<TRIPOS>MOLECULE
CH4
5 4
SMALL
USER_CHARGES


@<TRIPOS>ATOM
1 C 94.541 61.03 74.156 C 0.0 **** 0.0
2 H 94.35 61.25 73.106 H 0.0 **** 0.0
3 H 95.366 60.321 74.234 H 0.0 **** 0.0
4 H 93.647 60.598 74.605 H 0.0 **** 0.0
5 H 94.801 61.951 74.678 H 0.0 **** 0.0
@<TRIPOS>BOND
1 1 2 1
2 1 3 1
3 1 4 1
4 1 5 1
@<TRIPOS>MOLECULE
CH4
5 4
SMALL
USER_CHARGES


@<TRIPOS>ATOM
1 C 98.337 41.564 9.16 C 0.0 **** 0.0
2 H 98.597 41.516 8.103 H 0.0 **** 0.0
3 H 98.586 42.551 9.551 H 0.0 **** 0.0
4 H 98.896 40.805 9.707 H 0.0 **** 0.0
5 H 97.268 41.386 9.28 H 0.0 **** 0.0
@<TRIPOS>BOND
1 1 2 1
2 1 3 1
3 1 4 1
4 1 5 1
@<TRIPOS>MOLECULE
CH4
5 4
SMALL
USER_CHARGES


@<TRIPOS>ATOM
1 C 13.127 93.936 25.109 C 0.0 **** 0.0
2 H 13.147 93.956 26.198 H 0.0 **** 0.0
3 H 12.11 94.12 24.761 H 0.0 **** 0.0
4 H 13.461 92.96 24.757 H 0.0 **** 0.0
5 H 13.79 94.709 24.719 H 0.0 **** 0.0
@<TRIPOS>BOND
1 1 2 1
2 1 3 1
3 1 4 1
4 1 5 1
@<TRIPOS>MOLECULE
CH4
5 4
SMALL
USER_CHARGES


@<TRIPOS>ATOM
1 C 36.426 35.541 48.382 C 0.0 **** 0.0
2 H 35.726 36.259 48.81 H 0.0 **** 0.0
3 H 36.585 35.772 47.329 H 0.0 **** 0.0
4 H 36.016 34.535 48.476 H 0.0 **** 0.0
5 H 37.375 35.598 48.915 H 0.0 **** 0.0
@<TRIPOS>BOND
1 1 2 1
2 1 3 1
3 1 4 1
4 1 5 1
@<TRIPOS>MOLECULE
CH4
5 4
SMALL
USER_CHARGES


@<TRIPOS>ATOM
1 C 79.047 12.604 56.099 C 0.0 **** 0.0
2 H 79.047 12.561 57.188 H 0.0 **** 0.0
3 H 80.025 12.301 55.724 H 0.0 **** 0.0
4 H 78.834 13.623 55.776 H 0.0 **** 0.0
5 H 78.283 11.932 55.709 H 0.0 **** 0.0
@<TRIPOS>BOND
1 1 2 1
2 1 3 1
3 1 4 1
4 1 5 1
@<TRIPOS>MOLECULE
CH4
5 4
SMALL
USER_CHARGES


@<TRIPOS>ATOM
1 C 84.584 88.076 61.509 C 0.0 **** 0.0
2 H 85.429 87.55 61.955 H 0.0 **** 0.0
3 H 84.874 89.102 61.283 H 0.0 **** 0.0
4 H 83.749 88.08 62.209 H 0.0 **** 0.0
5 H 84.287 87.571 60.59 H 0.0 **** 0.0
@<TRIPOS>BOND
1 1 2 1
2 1 3 1
3 1 4 1
4 1 5 1
@<TRIPOS>MOLECULE
CH4
5 4
SMALL
USER_CHARGES


@<TRIPOS>ATOM
1 C 67.108 65.918 57.63 C 0.0 **** 0.0
2 H 66.812 65.841 56.584 H 0.0 **** 0.0
3 H 66.272 66.297 58.217 H 0.0 **** 0.0
4 H 67.954 66.6 57.718 H 0.0 **** 0.0
5 H 67.395 64.933 57.999 H 0.0 **** 0.0
@<TRIPOS>BOND
1 1 2 1
2 1 3 1
3 1 4 1
4 1 5 1
@<TRIPOS>MOLECULE
CH4
5 4
SMALL
USER_CHARGES


@<TRIPOS>ATOM
1 C 63.167 77.195 66.217 C 0.0 **** 0.0
2 H 63.026 77.386 65.153 H 0.0 **** 0.0
3 H 62.278 77.513 66.763 H 0.0 **** 0.0
4 H 64.032 77.753 66.574 H 0.0 **** 0.0
5 H 63.33 76.13 66.376 H 0.0 **** 0.0
@<TRIPOS>BOND
1 1 2 1
2 1 3 1
3 1 4 1
4 1 5 1
@<TRIPOS>MOLECULE
CH4
5 4
SMALL
USER_CHARGES


@<TRIPOS>ATOM
1 C 63.644 88.608 83.449 C 0.0 **** 0.0
2 H 63.627 88.682 82.361 H 0.0 **** 0.0
3 H 64.252 87.752 83.744 H 0.0 **** 0.0
4 H 62.628 88.478 83.82 H 0.0 **** 0.0
5 H 64.071 89.519 83.868 H 0.0 **** 0.0
@<TRIPOS>BOND
1 1 2 1
2 1 3 1
3 1 4 1
4 1 5 1
@<TRIPOS>MOLECULE
CH4
5 4
SMALL
USER_CHARGES


@<TRIPOS>ATOM
1 C 5.061 38.746 42.41 C 0.0 **** 0.0
2 H 4.756 38.468 43.419 H 0.0 **** 0.0
3 H 5.603 37.918 41.953 H 0.0 **** 0.0
4 H 5.708 39.622 42.455 H 0.0 **** 0.0
5 H 4.178 38.976 41.815 H 0.0 **** 0.0
@<TRIPOS>BOND
1 1 2 1
2 1 3 1
3 1 4 1
4 1 5 1
@<TRIPOS>MOLECULE
CH4
5 4
SMALL
USER_CHARGES


@<TRIPOS>ATOM
1 C 82.999 72.002 70.717 C 0.0 **** 0.0
2 H 82.463 72.256 71.632 H 0.0 **** 0.0
3 H 83.647 71.146 70.902 H 0.0 **** 0.0
4 H 83.602 72.854 70.402 H 0.0 **** 0.0
5 H 82.282 71.754 69.934 H 0.0 **** 0.0
@<TRIPOS>BOND
1 1 2 1
2 1 3 1
3 1 4 1
4 1 5 1
@<TRIPOS>MOLECULE
CH4
5 4
SMALL
USER_CHARGES


@<TRIPOS>ATOM
1 C 78.066 26.165 38.212 C 0.0 **** 0.0
2 H 78.883 25.445 38.25 H 0.0 **** 0.0
3 H 78.284 26.921 37.456 H 0.0 **** 0.0
4 H 77.959 26.644 39.185 H 0.0 **** 0.0
5 H 77.14 25.651 37.956 H 0.0 **** 0.0
@<TRIPOS>BOND
1 1 2 1
2 1 3 1
3 1 4 1
4 1 5 1
@<TRIPOS>MOLECULE
CH4
5 4
SMALL
USER_CHARGES


@<TRIPOS>ATOM
1 C 56.097 70.171 75.777 C 0.0 **** 0.0
2 H 56.381 71.209 75.607 H 0.0 **** 0.0
3 H 55.346 70.124 76.566 H 0.0 **** 0.0
4 H 56.976 69.599 76.076 H 0.0 **** 0.0
5 H 55.687 69.752 74.858 H 0.0 **** 0.0
@<TRIPOS>BOND
1 1 2 1
2 1 3 1
3 1 4 1
4 1 5 1
@<TRIPOS>MOLECULE
CH4
5 4
SMALL
USER_CHARGES


@<TRIPOS>ATOM
1 C 79.179 42.319 84.326 C 0.0 **** 0.0
2 H 79.013 43.271 83.821 H 0.0 **** 0.0
3 H 79.67 42.497 85.283 H 0.0 **** 0.0
4 H 79.811 41.685 83.705 H 0.0 **** 0.0
5 H 78.222 41.826 84.494 H 0.0 **** 0.0
@<TRIPOS>BOND
1 1 2 1
2 1 3 1
3 1 4 1
4 1 5 1
@<TRIPOS>MOLECULE
CH4
5 4
SMALL
USER_CHARGES


@<TRIPOS>ATOM
1 C 60.851 68.522 55.925 C 0.0 **** 0.0
2 H 60.965 68.626 54.846 H 0.0 **** 0.0
3 H 61.809 68.246 56.367 H 0.0 **** 0.0
4 H 60.115 67.746 56.139 H 0.0 **** 0.0
5 H 60.514 69.468 56.347 H 0.0 **** 0.0
@<TRIPOS>BOND
1 1 2 1
2 1 3 1
3 1 4 1
4 1 5 1
@<TRIPOS>MOLECULE
CH4
5 4
SMALL
USER_CHARGES


@<TRIPOS>ATOM
1 C 1.754 91.384 22.794 C 0.0 **** 0.0
2 H 1.467 90.333 22.738 H 0.0 **** 0.0
3 H 2.597 91.494 23.477 H 0.0 **** 0.0
4 H 0.911 91.971 23.16 H 0.0 **** 0.0
5 H 2.04 91.736 21.803 H 0.0 **** 0.0
@<TRIPOS>BOND
1 1 2 1
2 1 3 1
3 1 4 1
4 1 5 1
@<TRIPOS>MOLECULE
CH4
5 4
SMALL
USER_CHARGES


@<TRIPOS>ATOM
1 C 36.611 20.962 64.147 C 0.0 **** 0.0
2 H 36.978 20.739 63.145 H 0.0 **** 0.0
3 H 35.813 20.265 64.405 H 0.0 **** 0.0
4 H 36.226 21.981 64.174 H 0.0 **** 0.0
5 H 37.427 20.862 64.863 H 0.0 **** 0.0
@<TRIPOS>BOND
1 1 2 1
2 1 3 1
3 1 4 1
4 1 5 1
@<TRIPOS>MOLECULE
CH4
5 4
SMALL
USER_CHARGES


@<TRIPOS>ATOM
1 C 75.39 61.186 83.352 C 0.0 **** 0.0
2 H 75.782 62.04 83.904 H 0.0 **** 0.0
3 H 76.091 60.911 82.563 H 0.0 **** 0.0
4 H 74.43 61.45 82.908 H 0.0 **** 0.0
5 H 75.258 60.344 84.031 H 0.0 **** 0.0
@<TRIPOS>BOND
1 1 2 1
2 1 3 1
3 1 4 1
4 1 5 1
@<TRIPOS>MOLECULE
CH4
5 4
SMALL
USER_CHARGES


@<TRIPOS>ATOM
1 C 31.481 93.723 90.603 C 0.0 **** 0.0
2 H 31.093 93.55 91.608 H 0.0 **** 0.0
3 H 32.015 94.673 90.579 H 0.0 **** 0.0
4 H 30.653 93.753 89.895 H 0.0 **** 0.0
5 H 32.161 92.916 90.333 H 0.0 **** 0.0
@<TRIPOS>BOND
1 1 2 1
2 1 3 1
3 1 4 1
4 1 5 1
@<TRIPOS>MOLECULE
CH4
5 4
SMALL
USER_CHARGES


@<TRIPOS>ATOM
1 C 69.677 16.385 8.765 C 0.0 **** 0.0
2 H 69.657 16.335 7.677 H 0.0 **** 0.0
3 H 68.873 15.771 9.172 H 0.0 **** 0.0
4 H 69.541 17.419 9.084 H 0.0 **** 0.0
5 H 70.636 16.016 9.128 H 0.0 **** 0.0
@<TRIPOS>BOND
1 1 2 1
2 1 3 1
3 1 4 1
4 1 5 1
@<TRIPOS>MOLECULE
CH4
5 4
SMALL
USER_CHARGES


@<TRIPOS>ATOM
1 C 14.415 65.331 34.707 C 0.0 **** 0.0
2 H 13.953 65.145 35.676 H 0.0 **** 0.0
3 H 14.569 64.384 34.19 H 0.0 **** 0.0
4 H 15.375 65.827 34.851 H 0.0 **** 0.0
5 H 13.762 65.969 34.11 H 0.0 **** 0.0
@<TRIPOS>BOND
1 1 2 1
2 1 3 1
3 1 4 1
4 1 5 1
@<TRIPOS>MOLECULE
CH4
5 4
SMALL
USER_CHARGES


@<TRIPOS>ATOM
1 C 24.481 90.701 96.143 C 0.0 **** 0.0
2 H 25.309 90.099 96.514 H 0.0 **** 0.0
3 H 24.308 91.538 96.82 H 0.0 **** 0.0
4 H 23.582 90.087 96.086 H 0.0 **** 0.0
5 H 24.724 91.081 95.15 H 0.0 **** 0.0
@<TRIPOS>BOND
1 1 2 1
2 1 3 1
3 1 4 1
4 1 5 1
@<TRIPOS>MOLECULE
CH4
5 4
SMALL
USER_CHARGES


@<TRIPOS>ATOM
1 C 20.481 76.044 38.493 C 0.0 **** 0.0
2 H 19.953 75.56 37.672 H 0.0 **** 0.0
3 H 19.929 76.93 38.807 H 0.0 **** 0.0
4 H 21.478 76.335 38.162 H 0.0 **** 0.0
5 H 20.563 75.351 39.33 H 0.0 **** 0.0
@<TRIPOS>BOND
1 1 2 1
2 1 3 1
3 1 4 1
4 1 5 1
@<TRIPOS>MOLECULE
CH4
5 4
SMALL
USER_CHARGES


@<TRIPOS>ATOM
1 C 89.29 24.696 84.616 C 0.0 **** 0.0
2 H 88.795 24.372 85.532 H 0.0 **** 0.0
3 H 88.767 25.562 84.208 H 0.0 **** 0.0
4 H 89.273 23.885 83.888 H 0.0 **** 0.0
5 H 90.322 24.966 84.837 H 0.0 **** 0.0
@<TRIPOS>BOND
1 1 2 1
2 1 3 1
3 1 4 1
4 1 5 1
@<TRIPOS>MOLECULE
CH4
5 4
SMALL
USER_CHARGES


@<TRIPOS>ATOM
1 C 10.775 24.248 77.323 C 0.0 **** 0.0
2 H 10.495 23.525 78.089 H 0.0 **** 0.0
3 H 10.466 23.879 76.345 H 0.0 **** 0.0
4 H 11.855 24.39 77.334 H 0.0 **** 0.0
5 H 10.281 25.199 77.525 H 0.0 **** 0.0
@<TRIPOS>BOND
1 1 2 1
2 1 3 1
3 1 4 1
4 1 5 1
@<TRIPOS>MOLECULE
CH4
5 4
SMALL
USER_CHARGES


@<TRIPOS>ATOM
1 C 88.132 91.368 56.992 C 0.0 **** 0.0
2 H 87.667 90.735 57.747 H 0.0 **** 0.0
3 H 87.431 92.146 56.688 H 0.0 **** 0.0
4 H 88.401 90.763 56.126 H 0.0 **** 0.0
5 H 89.029 91.828 57.406 H 0.0 **** 0.0
@<TRIPOS>BOND
1 1 2 1
2 1 3 1
3 1 4 1
4 1 5 1
@<TRIPOS>MOLECULE
CH4
5 4
SMALL
USER_CHARGES


@<TRIPOS>ATOM
1 C 35.811 82.468 77.044 C 0.0 **** 0.0
2 H 35.726 82.251 78.108 H 0.0 **** 0.0
3 H 36.561 81.814 76.598 H 0.0 **** 0.0
4 H 36.109 83.508 76.908 H 0.0 **** 0.0
5 H 34.848 82.3 76.561 H 0.0 **** 0.0
@<TRIPOS>BOND
1 1 2 1
2 1 3 1
3 1 4 1
4 1 5 1
@<TRIPOS>MOLECULE
CH4
5 4
SMALL
USER_CHARGES


@<TRIPOS>ATOM
1 C 59.073 14.395 22.876 C 0.0 **** 0.0
2 H 58.653 14.129 21.906 H 0.0 **** 0.0
3 H 59.158 13.501 23.493 H 0.0 **** 0.0
4 H 58.42 15.116 23.369 H 0.0 **** 0.0
5 H 60.06 14.836 22.736 H 0.0 **** 0.0
@<TRIPOS>BOND
1 1 2 1
2 1 3 1
3 1 4 1
4 1 5 1
@<TRIPOS>MOLECULE
CH4
5 4
SMALL
USER_CHARGES


@<TRIPOS>ATOM
1 C 25.629 84.03 32.373 C 0.0 **** 0.0
2 H 26.132 83.241 32.933 H 0.0 **** 0.0
3 H 26.062 84.099 31.375 H 0.0 **** 0.0
4 H 25.756 84.981 32.891 H 0.0 **** 0.0
5 H 24.567 83.798 32.293 H 0.0 **** 0.0
@<TRIPOS>BOND
1 1 2 1
2 1 3 1
3 1 4 1
4 1 5 1
@<TRIPOS>MOLECULE
CH4
5 4
SMALL
USER_CHARGES


@<TRIPOS>ATOM
1 C 32.832 50.532 78.255 C 0.0 **** 0.0
2 H 33.243 50.44 77.25 H 0.0 **** 0.0
3 H 33.586 50.233 78.984 H 0.0 **** 0.0
4 H 31.959 49.887 78.351 H 0.0 **** 0.0
5 H 32.541 51.566 78.436 H 0.0 **** 0.0
@<TRIPOS>BOND
1 1 2 1
2 1 3 1
3 1 4 1
4 1 5 1
@<TRIPOS>MOLECULE
CH4
5 4
SMALL
USER_CHARGES


@<TRIPOS>ATOM
1 C 8.632 31.664 15.749 C 0.0 **** 0.0
2 H 9.422 31.298 16.405 H 0.0 **** 0.0
3 H 7.899 32.217 16.336 H 0.0 **** 0.0
4 H 8.145 30.819 15.262 H 0.0 **** 0.0
5 H 9.063 32.32 14.993 H 0.0 **** 0.0
@<TRIPOS>BOND
1 1 2 1
2 1 3 1
3 1 4 1
4 1 5 1
@<TRIPOS>MOLECULE
CH4
5 4
SMALL
USER_CHARGES


@<TRIPOS>ATOM
1 C 31.969 95.41 79.236 C 0.0 **** 0.0
2 H 31.951 95.258 80.315 H 0.0 **** 0.0
3 H 32.561 96.296 79.004 H 0.0 **** 0.0
4 H 30.951 95.546 78.871 H 0.0 **** 0.0
5 H 32.414 94.539 78.755 H 0.0 **** 0.0
@<TRIPOS>BOND
1 1 3 1
2 1 4 1
3 1 5 1
4 1 2 1
@<TRIPOS>MOLECULE
CH4
5 4
SMALL
USER_CHARGES


@<TRIPOS>ATOM
1 C 54.147 49.479 53.694 C 0.0 **** 0.0
2 H 54.685 49.943 52.867 H 0.0 **** 0.0
3 H 54.384 48.416 53.73 H 0.0 **** 0.0
4 H 53.075 49.608 53.546 H 0.0 **** 0.0
5 H 54.444 49.95 54.631 H 0.0 **** 0.0
@<TRIPOS>BOND
1 1 2 1
2 1 3 1
3 1 4 1
4 1 5 1
@<TRIPOS>MOLECULE
CH4
5 4
SMALL
USER_CHARGES


@<TRIPOS>ATOM
1 C 38.674 57.846 17.471 C 0.0 **** 0.0
2 H 38.728 57.972 16.39 H 0.0 **** 0.0
3 H 38.632 58.825 17.949 H 0.0 **** 0.0
4 H 39.557 57.309 17.818 H 0.0 **** 0.0
5 H 37.779 57.278 17.726 H 0.0 **** 0.0
@<TRIPOS>BOND
1 1 2 1
2 1 3 1
3 1 4 1
4 1 5 1
@<TRIPOS>MOLECULE
CH4
5 4
SMALL
USER_CHARGES


@<TRIPOS>ATOM
1 C 41.73 41.843 22.145 C 0.0 **** 0.0
2 H 41.145 41.66 23.046 H 0.0 **** 0.0
3 H 42.789 41.884 22.402 H 0.0 **** 0.0
4 H 41.426 42.791 21.701 H 0.0 **** 0.0
5 H 41.56 41.036 21.432 H 0.0 **** 0.0
@<TRIPOS>BOND
1 1 2 1
2 1 3 1
3 1 4 1
4 1 5 1
@<TRIPOS>MOLECULE
CH4
5 4
SMALL
USER_CHARGES


@<TRIPOS>ATOM
1 C 10.353 10.198 32.342 C 0.0 **** 0.0
2 H 10.474 10.488 33.386 H 0.0 **** 0.0
3 H 11.121 10.682 31.739 H 0.0 **** 0.0
4 H 9.368 10.507 31.992 H 0.0 **** 0.0
5 H 10.447 9.116 32.253 H 0.0 **** 0.0
@<TRIPOS>BOND
1 1 2 1
2 1 3 1
3 1 4 1
4 1 5 1
@<TRIPOS>MOLECULE
CH4
5 4
SMALL
USER_CHARGES


@<TRIPOS>ATOM
1 C 16.672 81.26 75.523 C 0.0 **** 0.0
2 H 17.037 82.01 74.821 H 0.0 **** 0.0
3 H 16.287 81.754 76.415 H 0.0 **** 0.0
4 H 17.49 80.595 75.8 H 0.0 **** 0.0
5 H 15.876 80.681 75.055 H 0.0 **** 0.0
@<TRIPOS>BOND
1 1 2 1
2 1 3 1
3 1 4 1
4 1 5 1
@<TRIPOS>MOLECULE
CH4
5 4
SMALL
USER_CHARGES


@<TRIPOS>ATOM
1 C 77.373 26.792 26.915 C 0.0 **** 0.0
2 H 78.459 26.867 26.865 H 0.0 **** 0.0
3 H 77.095 25.821 27.325 H 0.0 **** 0.0
4 H 76.955 26.897 25.914 H 0.0 **** 0.0
5 H 76.983 27.582 27.556 H 0.0 **** 0.0
@<TRIPOS>BOND
1 1 2 1
2 1 3 1
3 1 4 1
4 1 5 1
@<TRIPOS>MOLECULE
CH4
5 4
SMALL
USER_CHARGES


@<TRIPOS>ATOM
1 C 70.026 68.13 53.067 C 0.0 **** 0.0
2 H 70.642 67.668 53.838 H 0.0 **** 0.0
3 H 68.991 67.81 53.189 H 0.0 **** 0.0
4 H 70.387 67.828 52.084 H 0.0 **** 0.0
5 H 70.084 69.215 53.158 H 0.0 **** 0.0
@<TRIPOS>BOND
1 1 2 1
2 1 3 1
3 1 4 1
4 1 5 1
@<TRIPOS>MOLECULE
CH4
5 4
SMALL
USER_CHARGES


@<TRIPOS>ATOM
1 C 10.559 60.074 85.85 C 0.0 **** 0.0
2 H 10.727 61.131 85.644 H 0.0 **** 0.0
3 H 10.852 59.854 86.877 H 0.0 **** 0.0
4 H 11.156 59.472 85.165 H 0.0 **** 0.0
5 H 9.503 59.841 85.714 H 0.0 **** 0.0
@<TRIPOS>BOND
1 1 2 1
2 1 3 1
3 1 4 1
4 1 5 1
@<TRIPOS>MOLECULE
CH4
5 4
SMALL
USER_CHARGES


@<TRIPOS>ATOM
1 C 26.973 60.288 35.545 C 0.0 **** 0.0
2 H 26.916 61.143 34.872 H 0.0 **** 0.0
3 H 26.025 59.751 35.531 H 0.0 **** 0.0
4 H 27.18 60.636 36.557 H 0.0 **** 0.0
5 H 27.773 59.622 35.219 H 0.0 **** 0.0
@<TRIPOS>BOND
1 1 2 1
2 1 3 1
3 1 4 1
4 1 5 1
@<TRIPOS>MOLECULE
CH4
5 4
SMALL
USER_CHARGES


@<TRIPOS>ATOM
1 C 42.616 2.293 73.573 C 0.0 **** 0.0
2 H 42.073 3.181 73.897 H 0.0 **** 0.0
3 H 42.731 2.313 72.489 H 0.0 **** 0.0
4 H 42.06 1.401 73.864 H 0.0 **** 0.0
5 H 43.6 2.277 74.043 H 0.0 **** 0.0
@<TRIPOS>BOND
1 1 2 1
2 1 3 1
3 1 4 1
4 1 5 1
@<TRIPOS>MOLECULE
CH4
5 4
SMALL
USER_CHARGES


@<TRIPOS>ATOM
1 C 31.62 94.27 22.532 C 0.0 **** 0.0
2 H 32.689 94.258 22.742 H 0.0 **** 0.0
3 H 31.069 94.04 23.445 H 0.0 **** 0.0
4 H 31.391 93.523 21.772 H 0.0 **** 0.0
5 H 31.331 95.257 22.172 H 0.0 **** 0.0
@<TRIPOS>BOND
1 1 2 1
2 1 3 1
3 1 4 1
4 1 5 1
@<TRIPOS>MOLECULE
CH4
5 4
SMALL
USER_CHARGES


@<TRIPOS>ATOM
1 C 15.223 1.108 65.677 C 0.0 **** 0.0
2 H 14.425 0.925 66.397 H 0.0 **** 0.0
3 H 15.066 0.486 64.796 H 0.0 **** 0.0
4 H 16.184 0.861 66.13 H 0.0 **** 0.0
5 H 15.217 2.159 65.387 H 0.0 **** 0.0
@<TRIPOS>BOND
1 1 2 1
2 1 3 1
3 1 4 1
4 1 5 1
@<TRIPOS>MOLECULE
CH4
5 4
SMALL
USER_CHARGES


@<TRIPOS>ATOM
1 C 5.432 71.44 23.252 C 0.0 **** 0.0
2 H 5.365 71.836 24.265 H 0.0 **** 0.0
3 H 5.308 70.357 23.276 H 0.0 **** 0.0
4 H 6.407 71.685 22.83 H 0.0 **** 0.0
5 H 4.648 71.882 22.637 H 0.0 **** 0.0
@<TRIPOS>BOND
1 1 2 1
2 1 3 1
3 1 4 1
4 1 5 1
@<TRIPOS>MOLECULE
CH4
5 4
SMALL
USER_CHARGES


@<TRIPOS>ATOM
1 C 50.646 92.091 54.728 C 0.0 **** 0.0
2 H 50.908 91.902 55.769 H 0.0 **** 0.0
3 H 51.17 92.981 54.379 H 0.0 **** 0.0
4 H 49.57 92.247 54.647 H 0.0 **** 0.0
5 H 50.936 91.235 54.119 H 0.0 **** 0.0
@<TRIPOS>BOND
1 1 2 1
2 1 3 1
3 1 4 1
4 1 5 1
@<TRIPOS>MOLECULE
CH4
5 4
SMALL
USER_CHARGES


@<TRIPOS>ATOM
1 C 24.51 88.321 67.252 C 0.0 **** 0.0
2 H 24.674 88.64 66.223 H 0.0 **** 0.0
3 H 25.141 88.909 67.92 H 0.0 **** 0.0
4 H 24.762 87.265 67.35 H 0.0 **** 0.0
5 H 23.463 88.471 67.516 H 0.0 **** 0.0
@<TRIPOS>BOND
1 1 2 1
2 1 3 1
3 1 4 1
4 1 5 1
@<TRIPOS>MOLECULE
CH4
5 4
SMALL
USER_CHARGES


@<TRIPOS>ATOM
1 C 14.265 97.46 50.345 C 0.0 **** 0.0
2 H 14.247 96.587 49.694 H 0.0 **** 0.0
3 H 15.296 97.684 50.624 H 0.0 **** 0.0
4 H 13.682 97.256 51.243 H 0.0 **** 0.0
5 H 13.837 98.314 49.82 H 0.0 **** 0.0
@<TRIPOS>BOND
1 1 2 1
2 1 3 1
3 1 4 1
4 1 5 1
@<TRIPOS>MOLECULE
CH4
5 4
SMALL
USER_CHARGES


@<TRIPOS>ATOM
1 C 24.292 71.086 47.386 C 0.0 **** 0.0
2 H 23.694 71.361 48.254 H 0.0 **** 0.0
3 H 24.538 70.025 47.436 H 0.0 **** 0.0
4 H 25.211 71.672 47.378 H 0.0 **** 0.0
5 H 23.725 71.286 46.477 H 0.0 **** 0.0
@<TRIPOS>BOND
1 1 5 1
2 1 2 1
3 1 3 1
4 1 4 1
@<TRIPOS>MOLECULE
CH4
5 4
SMALL
USER_CHARGES


@<TRIPOS>ATOM
1 C 59.691 34.381 10.108 C 0.0 **** 0.0
2 H 59.86 33.636 10.886 H 0.0 **** 0.0
3 H 59.228 33.904 9.244 H 0.0 **** 0.0
4 H 60.644 34.821 9.814 H 0.0 **** 0.0
5 H 59.033 35.161 10.49 H 0.0 **** 0.0
@<TRIPOS>BOND
1 1 2 1
2 1 3 1
3 1 4 1
4 1 5 1
@<TRIPOS>MOLECULE
CH4
5 4
SMALL
USER_CHARGES


@<TRIPOS>ATOM
1 C 84.415 91.096 24.455 C 0.0 **** 0.0
2 H 84.702 91.604 25.376 H 0.0 **** 0.0
3 H 85.3 90.927 23.843 H 0.0 **** 0.0
4 H 83.705 91.714 23.906 H 0.0 **** 0.0
5 H 83.952 90.14 24.698 H 0.0 **** 0.0
@<TRIPOS>BOND
1 1 2 1
2 1 3 1
3 1 4 1
4 1 5 1
@<TRIPOS>MOLECULE
CH4
5 4
SMALL
USER_CHARGES


@<TRIPOS>ATOM
1 C 9.427 58.724 43.449 C 0.0 **** 0.0
2 H 9.367 58.151 44.374 H 0.0 **** 0.0
3 H 8.421 58.93 43.083 H 0.0 **** 0.0
4 H 9.976 58.151 42.701 H 0.0 **** 0.0
5 H 9.945 59.665 43.638 H 0.0 **** 0.0
@<TRIPOS>BOND
1 1 2 1
2 1 3 1
3 1 4 1
4 1 5 1
@<TRIPOS>MOLECULE
CH4
5 4
SMALL
USER_CHARGES


@<TRIPOS>ATOM
1 C 35.617 65.718 49.635 C 0.0 **** 0.0
2 H 35.533 65.793 50.719 H 0.0 **** 0.0
3 H 35.875 64.694 49.361 H 0.0 **** 0.0
4 H 36.395 66.395 49.283 H 0.0 **** 0.0
5 H 34.666 65.988 49.176 H 0.0 **** 0.0
@<TRIPOS>BOND
1 1 2 1
2 1 3 1
3 1 4 1
4 1 5 1
@<TRIPOS>MOLECULE
CH4
5 4
SMALL
USER_CHARGES


@<TRIPOS>ATOM
1 C 25.979 35.081 21.714 C 0.0 **** 0.0
2 H 26.903 35.478 22.136 H 0.0 **** 0.0
3 H 25.577 35.79 20.99 H 0.0 **** 0.0
4 H 25.253 34.926 22.513 H 0.0 **** 0.0
5 H 26.184 34.132 21.22 H 0.0 **** 0.0
@<TRIPOS>BOND
1 1 2 1
2 1 3 1
3 1 4 1
4 1 5 1
@<TRIPOS>MOLECULE
CH4
5 4
SMALL
USER_CHARGES


@<TRIPOS>ATOM
1 C 20.111 53.475 18.064 C 0.0 **** 0.0
2 H 19.079 53.816 18.148 H 0.0 **** 0.0
3 H 20.548 53.864 17.144 H 0.0 **** 0.0
4 H 20.133 52.386 18.046 H 0.0 **** 0.0
5 H 20.683 53.836 18.919 H 0.0 **** 0.0
@<TRIPOS>BOND
1 1 2 1
2 1 3 1
3 1 4 1
4 1 5 1
@<TRIPOS>MOLECULE
CH4
5 4
SMALL
USER_CHARGES


@<TRIPOS>ATOM
1 C 10.464 47.711 66.176 C 0.0 **** 0.0
2 H 11.18 47.148 65.577 H 0.0 **** 0.0
3 H 10.93 48.007 67.115 H 0.0 **** 0.0
4 H 9.593 47.089 66.382 H 0.0 **** 0.0
5 H 10.153 48.601 65.628 H 0.0 **** 0.0
@<TRIPOS>BOND
1 1 2 1
2 1 3 1
3 1 4 1
4 1 5 1
@<TRIPOS>MOLECULE
CH4
5 4
SMALL
USER_CHARGES


@<TRIPOS>ATOM
1 C 12.571 17.526 97.206 C 0.0 **** 0.0
2 H 13.454 18.157 97.115 H 0.0 **** 0.0
3 H 11.712 18.036 96.769 H 0.0 **** 0.0
4 H 12.376 17.324 98.26 H 0.0 **** 0.0
5 H 12.741 16.585 96.682 H 0.0 **** 0.0
@<TRIPOS>BOND
1 1 2 1
2 1 3 1
3 1 4 1
4 1 5 1
@<TRIPOS>MOLECULE
CH4
5 4
SMALL
USER_CHARGES


@<TRIPOS>ATOM
1 C 29.019 81.642 13.73 C 0.0 **** 0.0
2 H 28.988 81.713 14.818 H 0.0 **** 0.0
3 H 29.674 80.82 13.439 H 0.0 **** 0.0
4 H 29.402 82.576 13.317 H 0.0 **** 0.0
5 H 28.015 81.461 13.349 H 0.0 **** 0.0
@<TRIPOS>BOND
1 1 2 1
2 1 3 1
3 1 4 1
4 1 5 1
@<TRIPOS>MOLECULE
CH4
5 4
SMALL
USER_CHARGES


@<TRIPOS>ATOM
1 C 33.398 68.357 34.264 C 0.0 **** 0.0
2 H 32.805 68.415 33.352 H 0.0 **** 0.0
3 H 33.472 69.348 34.713 H 0.0 **** 0.0
4 H 34.397 67.991 34.025 H 0.0 **** 0.0
5 H 32.92 67.674 34.966 H 0.0 **** 0.0
@<TRIPOS>BOND
1 1 2 1
2 1 3 1
3 1 4 1
4 1 5 1
@<TRIPOS>MOLECULE
CH4
5 4
SMALL
USER_CHARGES


@<TRIPOS>ATOM
1 C 78.097 20.355 80.616 C 0.0 **** 0.0
2 H 77.495 20.092 79.746 H 0.0 **** 0.0
3 H 77.71 21.27 81.063 H 0.0 **** 0.0
4 H 79.131 20.509 80.309 H 0.0 **** 0.0
5 H 78.052 19.546 81.346 H 0.0 **** 0.0
@<TRIPOS>BOND
1 1 2 1
2 1 3 1
3 1 4 1
4 1 5 1
@<TRIPOS>MOLECULE
CH4
5 4
SMALL
USER_CHARGES


@<TRIPOS>ATOM
1 C 83.285 1.608 43.946 C 0.0 **** 0.0
2 H 82.529 1.25 44.645 H 0.0 **** 0.0
3 H 83.054 2.633 43.655 H 0.0 **** 0.0
4 H 83.292 0.971 43.061 H 0.0 **** 0.0
5 H 84.265 1.577 44.423 H 0.0 **** 0.0
@<TRIPOS>BOND
1 1 2 1
2 1 3 1
3 1 4 1
4 1 5 1
@<TRIPOS>MOLECULE
CH4
5 4
SMALL
USER_CHARGES


@<TRIPOS>ATOM
1 C 21.503 53.078 96.93 C 0.0 **** 0.0
2 H 20.814 52.262 96.712 H 0.0 **** 0.0
3 H 20.964 54.026 96.904 H 0.0 **** 0.0
4 H 22.298 53.092 96.184 H 0.0 **** 0.0
5 H 21.936 52.933 97.92 H 0.0 **** 0.0
@<TRIPOS>BOND
1 1 2 1
2 1 3 1
3 1 4 1
4 1 5 1
@<TRIPOS>MOLECULE
CH4
5 4
SMALL
USER_CHARGES


@<TRIPOS>ATOM
1 C 59.569 50.249 78.302 C 0.0 **** 0.0
2 H 60.421 49.586 78.453 H 0.0 **** 0.0
3 H 59.763 51.206 78.787 H 0.0 **** 0.0
4 H 58.676 49.797 78.733 H 0.0 **** 0.0
5 H 59.417 50.407 77.234 H 0.0 **** 0.0
@<TRIPOS>BOND
1 1 2 1
2 1 3 1
3 1 4 1
4 1 5 1
@<TRIPOS>MOLECULE
CH4
5 4
SMALL
USER_CHARGES


@<TRIPOS>ATOM
1 C 81.308 49.489 56.175 C 0.0 **** 0.0
2 H 80.763 49.999 56.97 H 0.0 **** 0.0
3 H 80.794 49.642 55.226 H 0.0 **** 0.0
4 H 81.356 48.422 56.395 H 0.0 **** 0.0
5 H 82.318 49.892 56.112 H 0.0 **** 0.0
@<TRIPOS>BOND
1 1 2 1
2 1 3 1
3 1 4 1
4 1 5 1
@<TRIPOS>MOLECULE
CH4
5 4
SMALL
USER_CHARGES


@<TRIPOS>ATOM
1 C 64.654 25.768 35.083 C 0.0 **** 0.0
2 H 63.921 26.434 35.539 H 0.0 **** 0.0
3 H 65.482 26.356 34.687 H 0.0 **** 0.0
4 H 64.183 25.21 34.274 H 0.0 **** 0.0
5 H 65.029 25.073 35.834 H 0.0 **** 0.0
@<TRIPOS>BOND
1 1 2 1
2 1 3 1
3 1 4 1
4 1 5 1
@<TRIPOS>MOLECULE
CH4
5 4
SMALL
USER_CHARGES


@<TRIPOS>ATOM
1 C 8.658 55.063 90.471 C 0.0 **** 0.0
2 H 9.004 54.501 89.603 H 0.0 **** 0.0
3 H 9.2 56.007 90.531 H 0.0 **** 0.0
4 H 8.838 54.482 91.375 H 0.0 **** 0.0
5 H 7.591 55.262 90.372 H 0.0 **** 0.0
@<TRIPOS>BOND
1 1 2 1
2 1 3 1
3 1 4 1
4 1 5 1
@<TRIPOS>MOLECULE
CH4
5 4
SMALL
USER_CHARGES


@<TRIPOS>ATOM
1 C 25.274 23.286 31.222 C 0.0 **** 0.0
2 H 25.653 22.284 31.423 H 0.0 **** 0.0
3 H 24.438 23.224 30.525 H 0.0 **** 0.0
4 H 26.067 23.893 30.786 H 0.0 **** 0.0
5 H 24.938 23.741 32.153 H 0.0 **** 0.0
@<TRIPOS>BOND
1 1 2 1
2 1 3 1
3 1 4 1
4 1 5 1
@<TRIPOS>MOLECULE
CH4
5 4
SMALL
USER_CHARGES


@<TRIPOS>ATOM
1 C 23.33 85.075 58.709 C 0.0 **** 0.0
2 H 23.239 84.065 59.108 H 0.0 **** 0.0
3 H 22.887 85.114 57.714 H 0.0 **** 0.0
4 H 24.383 85.349 58.65 H 0.0 **** 0.0
5 H 22.81 85.772 59.366 H 0.0 **** 0.0
@<TRIPOS>BOND
1 1 2 1
2 1 3 1
3 1 4 1
4 1 5 1
@<TRIPOS>MOLECULE
CH4
5 4
SMALL
USER_CHARGES


@<TRIPOS>ATOM
1 C 57.075 52.278 16.578 C 0.0 **** 0.0
2 H 56.313 52.491 17.328 H 0.0 **** 0.0
3 H 58.041 52.151 17.068 H 0.0 **** 0.0
4 H 57.132 53.108 15.873 H 0.0 **** 0.0
5 H 56.815 51.364 16.045 H 0.0 **** 0.0
@<TRIPOS>BOND
1 1 2 1
2 1 3 1
3 1 4 1
4 1 5 1
@<TRIPOS>MOLECULE
CH4
5 4
SMALL
USER_CHARGES


@<TRIPOS>ATOM
1 C 55.977 70.74 7.719 C 0.0 **** 0.0
2 H 56.184 69.993 6.953 H 0.0 **** 0.0
3 H 54.901 70.901 7.787 H 0.0 **** 0.0
4 H 56.469 71.676 7.456 H 0.0 **** 0.0
5 H 56.353 70.388 8.68 H 0.0 **** 0.0
@<TRIPOS>BOND
1 1 2 1
2 1 3 1
3 1 4 1
4 1 5 1
@<TRIPOS>MOLECULE
CH4
5 4
SMALL
USER_CHARGES


@<TRIPOS>ATOM
1 C 10.526 58.562 24.067 C 0.0 **** 0.0
2 H 9.632 58.217 24.587 H 0.0 **** 0.0
3 H 10.597 59.647 24.149 H 0.0 **** 0.0
4 H 10.466 58.279 23.016 H 0.0 **** 0.0
5 H 11.407 58.105 24.517 H 0.0 **** 0.0
@<TRIPOS>BOND
1 1 2 1
2 1 3 1
3 1 4 1
4 1 5 1
@<TRIPOS>MOLECULE
CH4
5 4
SMALL
USER_CHARGES


@<TRIPOS>ATOM
1 C 82.088 65.762 61.859 C 0.0 **** 0.0
2 H 82.057 65.508 60.799 H 0.0 **** 0.0
3 H 83.083 65.555 62.253 H 0.0 **** 0.0
4 H 81.351 65.165 62.397 H 0.0 **** 0.0
5 H 81.859 66.821 61.985 H 0.0 **** 0.0
@<TRIPOS>BOND
1 1 2 1
2 1 3 1
3 1 4 1
4 1 5 1
@<TRIPOS>MOLECULE
CH4
5 4
SMALL
USER_CHARGES


@<TRIPOS>ATOM
1 C 87.52 69.062 39.434 C 0.0 **** 0.0
2 H 88.061 69.997 39.579 H 0.0 **** 0.0
3 H 88.222 68.274 39.162 H 0.0 **** 0.0
4 H 86.787 69.187 38.637 H 0.0 **** 0.0
5 H 87.009 68.791 40.358 H 0.0 **** 0.0
@<TRIPOS>BOND
1 1 2 1
2 1 3 1
3 1 4 1
4 1 5 1
@<TRIPOS>MOLECULE
CH4
5 4
SMALL
USER_CHARGES


@<TRIPOS>ATOM
1 C 81.516 71.537 75.264 C 0.0 **** 0.0
2 H 81.732 72.147 74.387 H 0.0 **** 0.0
3 H 82.437 71.36 75.82 H 0.0 **** 0.0
4 H 81.093 70.584 74.949 H 0.0 **** 0.0
5 H 80.802 72.059 75.902 H 0.0 **** 0.0
@<TRIPOS>BOND
1 1 2 1
2 1 3 1
3 1 4 1
4 1 5 1
@<TRIPOS>MOLECULE
CH4
5 4
SMALL
USER_CHARGES


@<TRIPOS>ATOM
1 C 11.764 30.72 14.206 C 0.0 **** 0.0
2 H 11.298 30.153 13.4 H 0.0 **** 0.0
3 H 12.145 30.032 14.961 H 0.0 **** 0.0
4 H 11.025 31.383 14.657 H 0.0 **** 0.0
5 H 12.587 31.312 13.806 H 0.0 **** 0.0
@<TRIPOS>BOND
1 1 2 1
2 1 3 1
3 1 4 1
4 1 5 1
@<TRIPOS>MOLECULE
CH4
5 4
SMALL
USER_CHARGES


@<TRIPOS>ATOM
1 C 77.288 55.081 32.752 C 0.0 **** 0.0
2 H 76.873 55.9 32.164 H 0.0 **** 0.0
3 H 76.985 55.191 33.793 H 0.0 **** 0.0
4 H 78.375 55.1 32.684 H 0.0 **** 0.0
5 H 76.916 54.132 32.364 H 0.0 **** 0.0
@<TRIPOS>BOND
1 1 2 1
2 1 3 1
3 1 4 1
4 1 5 1
@<TRIPOS>MOLECULE
CH4
5 4
SMALL
USER_CHARGES


@<TRIPOS>ATOM
1 C 58.537 4.911 81.958 C 0.0 **** 0.0
2 H 58.367 4.815 80.885 H 0.0 **** 0.0
3 H 58.731 3.926 82.384 H 0.0 **** 0.0
4 H 57.653 5.343 82.428 H 0.0 **** 0.0
5 H 59.396 5.559 82.133 H 0.0 **** 0.0
@<TRIPOS>BOND
1 1 2 1
2 1 3 1
3 1 4 1
4 1 5 1
@<TRIPOS>MOLECULE
CH4
5 4
SMALL
USER_CHARGES


@<TRIPOS>ATOM
1 C 76.176 60.756 73.389 C 0.0 **** 0.0
2 H 76.094 60.979 74.453 H 0.0 **** 0.0
3 H 75.552 61.448 72.824 H 0.0 **** 0.0
4 H 75.844 59.734 73.207 H 0.0 **** 0.0
5 H 77.214 60.862 73.075 H 0.0 **** 0.0
@<TRIPOS>BOND
1 1 2 1
2 1 3 1
3 1 4 1
4 1 5 1
@<TRIPOS>MOLECULE
CH4
5 4
SMALL
USER_CHARGES


@<TRIPOS>ATOM
1 C 52.874 54.402 18.59 C 0.0 **** 0.0
2 H 52.905 54.719 19.633 H 0.0 **** 0.0
3 H 53.837 53.974 18.311 H 0.0 **** 0.0
4 H 52.661 55.262 17.956 H 0.0 **** 0.0
5 H 52.092 53.653 18.462 H 0.0 **** 0.0
@<TRIPOS>BOND
1 1 2 1
2 1 3 1
3 1 4 1
4 1 5 1
@<TRIPOS>MOLECULE
CH4
5 4
SMALL
USER_CHARGES


@<TRIPOS>ATOM
1 C 81.975 64.411 44.341 C 0.0 **** 0.0
2 H 80.988 64.799 44.088 H 0.0 **** 0.0
3 H 81.868 63.547 44.996 H 0.0 **** 0.0
4 H 82.549 65.185 44.851 H 0.0 **** 0.0
5 H 82.493 64.115 43.429 H 0.0 **** 0.0
@<TRIPOS>BOND
1 1 2 1
2 1 3 1
3 1 4 1
4 1 5 1
@<TRIPOS>MOLECULE
CH4
5 4
SMALL
USER_CHARGES


@<TRIPOS>ATOM
1 C 72.076 52.221 66.71 C 0.0 **** 0.0
2 H 71.782 51.872 67.7 H 0.0 **** 0.0
3 H 72.798 53.032 66.811 H 0.0 **** 0.0
4 H 71.197 52.581 66.176 H 0.0 **** 0.0
5 H 72.528 51.399 66.155 H 0.0 **** 0.0
@<TRIPOS>BOND
1 1 2 1
2 1 3 1
3 1 4 1
4 1 5 1
@<TRIPOS>MOLECULE
CH4
5 4
SMALL
USER_CHARGES


@<TRIPOS>ATOM
1 C 45.161 78.902 13.733 C 0.0 **** 0.0
2 H 45.372 78.961 14.801 H 0.0 **** 0.0
3 H 44.841 79.88 13.371 H 0.0 **** 0.0
4 H 44.369 78.173 13.559 H 0.0 **** 0.0
5 H 46.061 78.594 13.202 H 0.0 **** 0.0
@<TRIPOS>BOND
1 1 2 1
2 1 3 1
3 1 4 1
4 1 5 1
@<TRIPOS>MOLECULE
CH4
5 4
SMALL
USER_CHARGES


@<TRIPOS>ATOM
1 C 35.222 20.717 27.307 C 0.0 **** 0.0
2 H 34.492 20.931 26.526 H 0.0 **** 0.0
3 H 34.774 20.905 28.283 H 0.0 **** 0.0
4 H 36.092 21.36 27.177 H 0.0 **** 0.0
5 H 35.528 19.673 27.242 H 0.0 **** 0.0
@<TRIPOS>BOND
1 1 3 1
2 1 4 1
3 1 5 1
4 1 2 1
@<TRIPOS>MOLECULE
CH4
5 4
SMALL
USER_CHARGES


@<TRIPOS>ATOM
1 C 54.852 29.085 93.94 C 0.0 **** 0.0
2 H 54.955 28.975 92.86 H 0.0 **** 0.0
3 H 54.474 30.081 94.169 H 0.0 **** 0.0
4 H 55.825 28.947 94.413 H 0.0 **** 0.0
5 H 54.156 28.335 94.317 H 0.0 **** 0.0
@<TRIPOS>BOND
1 1 2 1
2 1 3 1
3 1 4 1
4 1 5 1
@<TRIPOS>MOLECULE
CH4
5 4
SMALL
USER_CHARGES


@<TRIPOS>ATOM
1 C 84.031 4.51 83.401 C 0.0 **** 0.0
2 H 84.836 3.994 82.878 H 0.0 **** 0.0
3 H 83.101 4.39 82.845 H 0.0 **** 0.0
4 H 84.272 5.57 83.481 H 0.0 **** 0.0
5 H 83.916 4.087 84.399 H 0.0 **** 0.0
@<TRIPOS>BOND
1 1 2 1
2 1 3 1
3 1 4 1
4 1 5 1
@<TRIPOS>MOLECULE
CH4
5 4
SMALL
USER_CHARGES


@<TRIPOS>ATOM
1 C 66.271 96.461 29.506 C 0.0 **** 0.0
2 H 65.248 96.31 29.848 H 0.0 **** 0.0
3 H 66.454 97.527 29.367 H 0.0 **** 0.0
4 H 66.418 95.94 28.559 H 0.0 **** 0.0
5 H 66.964 96.066 30.248 H 0.0 **** 0.0
@<TRIPOS>BOND
1 1 2 1
2 1 3 1
3 1 4 1
4 1 5 1
@<TRIPOS>MOLECULE
CH4
5 4
SMALL
USER_CHARGES


@<TRIPOS>ATOM
1 C 59.511 64.211 35.041 C 0.0 **** 0.0
2 H 58.927 64.033 34.138 H 0.0 **** 0.0
3 H 59.068 63.663 35.873 H 0.0 **** 0.0
4 H 59.514 65.277 35.267 H 0.0 **** 0.0
5 H 60.535 63.869 34.885 H 0.0 **** 0.0
@<TRIPOS>BOND
1 1 2 1
2 1 3 1
3 1 4 1
4 1 5 1
@<TRIPOS>MOLECULE
CH4
5 4
SMALL
USER_CHARGES


@<TRIPOS>ATOM
1 C 64.525 3.023 2.087 C 0.0 **** 0.0
2 H 64.555 2.475 1.146 H 0.0 **** 0.0
3 H 64.724 2.338 2.912 H 0.0 **** 0.0
4 H 63.539 3.47 2.215 H 0.0 **** 0.0
5 H 65.281 3.808 2.075 H 0.0 **** 0.0
@<TRIPOS>BOND
1 1 2 1
2 1 3 1
3 1 4 1
4 1 5 1
@<TRIPOS>MOLECULE
CH4
5 4
SMALL
USER_CHARGES


@<TRIPOS>ATOM
1 C 61.279 45.154 11.858 C 0.0 **** 0.0
2 H 60.674 45.974 11.473 H 0.0 **** 0.0
3 H 62.292 45.234 11.463 H 0.0 **** 0.0
4 H 60.842 44.204 11.548 H 0.0 **** 0.0
5 H 61.308 45.203 12.946 H 0.0 **** 0.0
@<TRIPOS>BOND
1 1 2 1
2 1 3 1
3 1 4 1
4 1 5 1
@<TRIPOS>MOLECULE
CH4
5 4
SMALL
USER_CHARGES


@<TRIPOS>ATOM
1 C 29.668 67.793 31.814 C 0.0 **** 0.0
2 H 28.989 68.026 32.635 H 0.0 **** 0.0
3 H 29.622 68.586 31.068 H 0.0 **** 0.0
4 H 29.376 66.847 31.359 H 0.0 **** 0.0
5 H 30.686 67.713 32.197 H 0.0 **** 0.0
@<TRIPOS>BOND
1 1 2 1
2 1 3 1
3 1 4 1
4 1 5 1
@<TRIPOS>MOLECULE
CH4
5 4
SMALL
USER_CHARGES


@<TRIPOS>ATOM
1 C 8.786 4.455 82.572 C 0.0 **** 0.0
2 H 8.477 4.111 81.585 H 0.0 **** 0.0
3 H 7.968 4.311 83.278 H 0.0 **** 0.0
4 H 9.043 5.513 82.524 H 0.0 **** 0.0
5 H 9.655 3.885 82.9 H 0.0 **** 0.0
@<TRIPOS>BOND
1 1 5 1
2 1 2 1
3 1 3 1
4 1 4 1
@<TRIPOS>MOLECULE
CH4
5 4
SMALL
USER_CHARGES


@<TRIPOS>ATOM
1 C 10.354 62.286 77.908 C 0.0 **** 0.0
2 H 10.369 62.298 78.998 H 0.0 **** 0.0
3 H 11.32 61.947 77.535 H 0.0 **** 0.0
4 H 10.153 63.291 77.537 H 0.0 **** 0.0
5 H 9.572 61.609 77.563 H 0.0 **** 0.0
@<TRIPOS>BOND
1 1 2 1
2 1 3 1
3 1 4 1
4 1 5 1
@<TRIPOS>MOLECULE
CH4
5 4
SMALL
USER_CHARGES


@<TRIPOS>ATOM
1 C 41.616 3.607 4.111 C 0.0 **** 0.0
2 H 40.575 3.882 4.282 H 0.0 **** 0.0
3 H 42.218 3.919 4.965 H 0.0 **** 0.0
4 H 41.979 4.1 3.21 H 0.0 **** 0.0
5 H 41.691 2.526 3.99 H 0.0 **** 0.0
@<TRIPOS>BOND
1 1 2 1
2 1 3 1
3 1 4 1
4 1 5 1
@<TRIPOS>MOLECULE
CH4
5 4
SMALL
USER_CHARGES


@<TRIPOS>ATOM
1 C 97.558 63.145 92.694 C 0.0 **** 0.0
2 H 97.785 63.322 93.745 H 0.0 **** 0.0
3 H 97.723 64.062 92.128 H 0.0 **** 0.0
4 H 96.516 62.839 92.594 H 0.0 **** 0.0
5 H 98.206 62.358 92.31 H 0.0 **** 0.0
@<TRIPOS>BOND
1 1 2 1
2 1 3 1
3 1 4 1
4 1 5 1
@<TRIPOS>MOLECULE
CH4
5 4
SMALL
USER_CHARGES


@<TRIPOS>ATOM
1 C 5.627 67.474 59.163 C 0.0 **** 0.0
2 H 5.621 67.453 58.073 H 0.0 **** 0.0
3 H 5.295 68.453 59.509 H 0.0 **** 0.0
4 H 6.639 67.285 59.523 H 0.0 **** 0.0
5 H 4.956 66.706 59.545 H 0.0 **** 0.0
@<TRIPOS>BOND
1 1 2 1
2 1 3 1
3 1 4 1
4 1 5 1
@<TRIPOS>MOLECULE
CH4
5 4
SMALL
USER_CHARGES


@<TRIPOS>ATOM
1 C 82.049 92.046 89.544 C 0.0 **** 0.0
2 H 80.968 91.968 89.428 H 0.0 **** 0.0
3 H 82.393 91.293 90.254 H 0.0 **** 0.0
4 H 82.304 93.039 89.913 H 0.0 **** 0.0
5 H 82.53 91.882 88.579 H 0.0 **** 0.0
@<TRIPOS>BOND
1 1 2 1
2 1 3 1
3 1 4 1
4 1 5 1
@<TRIPOS>MOLECULE
CH4
5 4
SMALL
USER_CHARGES


@<TRIPOS>ATOM
1 C 26.423 38.234 78.864 C 0.0 **** 0.0
2 H 26.734 38.972 78.125 H 0.0 **** 0.0
3 H 25.46 38.525 79.284 H 0.0 **** 0.0
4 H 27.166 38.181 79.66 H 0.0 **** 0.0
5 H 26.331 37.259 78.387 H 0.0 **** 0.0
@<TRIPOS>BOND
1 1 2 1
2 1 3 1
3 1 4 1
4 1 5 1
@<TRIPOS>MOLECULE
CH4
5 4
SMALL
USER_CHARGES


@<TRIPOS>ATOM
1 C 38.993 35.307 10.912 C 0.0 **** 0.0
2 H 38.877 34.363 10.38 H 0.0 **** 0.0
3 H 38.023 35.635 11.284 H 0.0 **** 0.0
4 H 39.396 36.059 10.233 H 0.0 **** 0.0
5 H 39.677 35.17 11.75 H 0.0 **** 0.0
@<TRIPOS>BOND
1 1 2 1
2 1 3 1
3 1 4 1
4 1 5 1
@<TRIPOS>MOLECULE
CH4
5 4
SMALL
USER_CHARGES


@<TRIPOS>ATOM
1 C 82.424 79.028 10.1 C 0.0 **** 0.0
2 H 82.591 78.029 10.502 H 0.0 **** 0.0
3 H 83.188 79.252 9.355 H 0.0 **** 0.0
4 H 82.478 79.758 10.907 H 0.0 **** 0.0
5 H 81.439 79.072 9.635 H 0.0 **** 0.0
@<TRIPOS>BOND
1 1 2 1
2 1 3 1
3 1 4 1
4 1 5 1
@<TRIPOS>MOLECULE
CH4
5 4
SMALL
USER_CHARGES


@<TRIPOS>ATOM
1 C 45.07 91.23 72.985 C 0.0 **** 0.0
2 H 44.226 91.526 72.361 H 0.0 **** 0.0
3 H 45.221 91.974 73.767 H 0.0 **** 0.0
4 H 45.968 91.16 72.371 H 0.0 **** 0.0
5 H 44.864 90.261 73.439 H 0.0 **** 0.0
@<TRIPOS>BOND
1 1 2 1
2 1 3 1
3 1 4 1
4 1 5 1
@<TRIPOS>MOLECULE
CH4
5 4
SMALL
USER_CHARGES


@<TRIPOS>ATOM
1 C 60.147 97.974 73.148 C 0.0 **** 0.0
2 H 59.502 97.337 73.754 H 0.0 **** 0.0
3 H 59.747 98.037 72.136 H 0.0 **** 0.0
4 H 61.15 97.55 73.118 H 0.0 **** 0.0
5 H 60.186 98.971 73.587 H 0.0 **** 0.0
@<TRIPOS>BOND
1 1 2 1
2 1 3 1
3 1 4 1
4 1 5 1
@<TRIPOS>MOLECULE
CH4
5 4
SMALL
USER_CHARGES


@<TRIPOS>ATOM
1 C 55.36 89.735 16.029 C 0.0 **** 0.0
2 H 55.367 89.731 14.939 H 0.0 **** 0.0
3 H 54.361 89.988 16.384 H 0.0 **** 0.0
4 H 56.074 90.473 16.394 H 0.0 **** 0.0
5 H 55.638 88.747 16.397 H 0.0 **** 0.0
@<TRIPOS>BOND
1 1 2 1
2 1 3 1
3 1 4 1
4 1 5 1
@<TRIPOS>MOLECULE
CH4
5 4
SMALL
USER_CHARGES


@<TRIPOS>ATOM
1 C 40.79 90.038 93.597 C 0.0 **** 0.0
2 H 40.933 91.075 93.899 H 0.0 **** 0.0
3 H 39.896 89.64 94.077 H 0.0 **** 0.0
4 H 41.657 89.449 93.897 H 0.0 **** 0.0
5 H 40.674 89.988 92.514 H 0.0 **** 0.0
@<TRIPOS>BOND
1 1 2 1
2 1 3 1
3 1 4 1
4 1 5 1
@<TRIPOS>MOLECULE
CH4
5 4
SMALL
USER_CHARGES


@<TRIPOS>ATOM
1 C 40.957 55.128 63.416 C 0.0 **** 0.0
2 H 41.084 55.625 64.378 H 0.0 **** 0.0
3 H 40.015 55.444 62.966 H 0.0 **** 0.0
4 H 40.945 54.048 63.564 H 0.0 **** 0.0
5 H 41.783 55.396 62.757 H 0.0 **** 0.0
@<TRIPOS>BOND
1 1 2 1
2 1 3 1
3 1 4 1
4 1 5 1
@<TRIPOS>MOLECULE
CH4
5 4
SMALL
USER_CHARGES


@<TRIPOS>ATOM
1 C 8.441 76.09 58.606 C 0.0 **** 0.0
2 H 9.479 76.008 58.283 H 0.0 **** 0.0
3 H 8.221 77.127 58.859 H 0.0 **** 0.0
4 H 8.283 75.46 59.481 H 0.0 **** 0.0
5 H 7.784 75.765 57.8 H 0.0 **** 0.0
@<TRIPOS>BOND
1 1 2 1
2 1 3 1
3 1 4 1
4 1 5 1
@<TRIPOS>MOLECULE
CH4
5 4
SMALL
USER_CHARGES


@<TRIPOS>ATOM
1 C 16.177 64.869 41.586 C 0.0 **** 0.0
2 H 17.026 64.519 42.173 H 0.0 **** 0.0
3 H 16.368 64.688 40.528 H 0.0 **** 0.0
4 H 16.036 65.937 41.753 H 0.0 **** 0.0
5 H 15.279 64.331 41.89 H 0.0 **** 0.0
@<TRIPOS>BOND
1 1 2 1
2 1 3 1
3 1 4 1
4 1 5 1
@<TRIPOS>MOLECULE
CH4
5 4
SMALL
USER_CHARGES


@<TRIPOS>ATOM
1 C 24.941 18.831 38.572 C 0.0 **** 0.0
2 H 24.652 18.8 39.623 H 0.0 **** 0.0
3 H 24.158 19.321 37.994 H 0.0 **** 0.0
4 H 25.082 17.814 38.205 H 0.0 **** 0.0
5 H 25.873 19.387 38.469 H 0.0 **** 0.0
@<TRIPOS>BOND
1 1 2 1
2 1 3 1
3 1 4 1
4 1 5 1
@<TRIPOS>MOLECULE
CH4
5 4
SMALL
USER_CHARGES


@<TRIPOS>ATOM
1 C 97.882 76.476 24.541 C 0.0 **** 0.0
2 H 97.926 76.438 23.453 H 0.0 **** 0.0
3 H 98.864 76.243 24.952 H 0.0 **** 0.0
4 H 97.155 75.748 24.901 H 0.0 **** 0.0
5 H 97.583 77.475 24.857 H 0.0 **** 0.0
@<TRIPOS>BOND
1 1 4 1
2 1 5 1
3 1 2 1
4 1 3 1
@<TRIPOS>MOLECULE
CH4
5 4
SMALL
USER_CHARGES


@<TRIPOS>ATOM
1 C 97.965 88.275 73.144 C 0.0 **** 0.0
2 H 99.053 88.209 73.155 H 0.0 **** 0.0
3 H 97.61 88.257 72.114 H 0.0 **** 0.0
4 H 97.653 89.204 73.621 H 0.0 **** 0.0
5 H 97.545 87.429 73.688 H 0.0 **** 0.0
@<TRIPOS>BOND
1 1 2 1
2 1 3 1
3 1 4 1
4 1 5 1
@<TRIPOS>MOLECULE
CH4
5 4
SMALL
USER_CHARGES


@<TRIPOS>ATOM
1 C 72.287 93.748 75.069 C 0.0 **** 0.0
2 H 72.964 93.066 74.555 H 0.0 **** 0.0
3 H 71.5 94.064 74.383 H 0.0 **** 0.0
4 H 72.841 94.62 75.413 H 0.0 **** 0.0
5 H 71.841 93.24 75.924 H 0.0 **** 0.0
@<TRIPOS>BOND
1 1 2 1
2 1 3 1
3 1 4 1
4 1 5 1
@<TRIPOS>MOLECULE
CH4
5 4
SMALL
USER_CHARGES


@<TRIPOS>ATOM
1 C 28.755 50.606 35.616 C 0.0 **** 0.0
2 H 28.244 51.552 35.44 H 0.0 **** 0.0
3 H 28.613 50.303 36.654 H 0.0 **** 0.0
4 H 29.82 50.726 35.415 H 0.0 **** 0.0
5 H 28.345 49.843 34.955 H 0.0 **** 0.0
@<TRIPOS>BOND
1 1 2 1
2 1 3 1
3 1 4 1
4 1 5 1
@<TRIPOS>MOLECULE
CH4
5 4
SMALL
USER_CHARGES


@<TRIPOS>ATOM
1 C 92.851 76.992 81.336 C 0.0 **** 0.0
2 H 92.77 77.302 80.294 H 0.0 **** 0.0
3 H 92.624 75.929 81.417 H 0.0 **** 0.0
4 H 92.146 77.562 81.941 H 0.0 **** 0.0
5 H 93.865 77.175 81.691 H 0.0 **** 0.0
@<TRIPOS>BOND
1 1 2 1
2 1 3 1
3 1 4 1
4 1 5 1
@<TRIPOS>MOLECULE
CH4
5 4
SMALL
USER_CHARGES


@<TRIPOS>ATOM
1 C 70.337 64.022 48.769 C 0.0 **** 0.0
2 H 69.265 63.829 48.821 H 0.0 **** 0.0
3 H 70.758 63.507 47.905 H 0.0 **** 0.0
4 H 70.815 63.658 49.678 H 0.0 **** 0.0
5 H 70.508 65.094 48.673 H 0.0 **** 0.0
@<TRIPOS>BOND
1 1 2 1
2 1 3 1
3 1 4 1
4 1 5 1
@<TRIPOS>MOLECULE
CH4
5 4
SMALL
USER_CHARGES


@<TRIPOS>ATOM
1 C 72.453 30.297 57.612 C 0.0 **** 0.0
2 H 72.378 30.344 58.698 H 0.0 **** 0.0
3 H 72.593 31.302 57.214 H 0.0 **** 0.0
4 H 71.538 29.868 57.203 H 0.0 **** 0.0
5 H 73.302 29.674 57.334 H 0.0 **** 0.0
@<TRIPOS>BOND
1 1 2 1
2 1 3 1
3 1 4 1
4 1 5 1
@<TRIPOS>MOLECULE
CH4
5 4
SMALL
USER_CHARGES


@<TRIPOS>ATOM
1 C 12.255 29.385 38.522 C 0.0 **** 0.0
2 H 11.458 28.687 38.263 H 0.0 **** 0.0
3 H 13.196 29.033 38.1 H 0.0 **** 0.0
4 H 12.343 29.45 39.606 H 0.0 **** 0.0
5 H 12.02 30.37 38.117 H 0.0 **** 0.0
@<TRIPOS>BOND
1 1 2 1
2 1 3 1
3 1 4 1
4 1 5 1
@<TRIPOS>MOLECULE
CH4
5 4
SMALL
USER_CHARGES


@<TRIPOS>ATOM
1 C 81.847 61.57 13.382 C 0.0 **** 0.0
2 H 82.709 61.008 13.742 H 0.0 **** 0.0
3 H 81.798 62.529 13.898 H 0.0 **** 0.0
4 H 80.937 61.004 13.579 H 0.0 **** 0.0
5 H 81.945 61.739 12.31 H 0.0 **** 0.0
@<TRIPOS>BOND
1 1 2 1
2 1 3 1
3 1 4 1
4 1 5 1
@<TRIPOS>MOLECULE
CH4
5 4
SMALL
USER_CHARGES


@<TRIPOS>ATOM
1 C 66.694 17.321 58.342 C 0.0 **** 0.0
2 H 67.009 17.663 59.328 H 0.0 **** 0.0
3 H 67.224 16.403 58.09 H 0.0 **** 0.0
4 H 66.921 18.088 57.602 H 0.0 **** 0.0
5 H 65.62 17.131 58.35 H 0.0 **** 0.0
@<TRIPOS>BOND
1 1 2 1
2 1 3 1
3 1 4 1
4 1 5 1
@<TRIPOS>MOLECULE
CH4
5 4
SMALL
USER_CHARGES


@<TRIPOS>ATOM
1 C 64.38 8.608 80.222 C 0.0 **** 0.0
2 H 64.236 8.546 81.3 H 0.0 **** 0.0
3 H 65.267 8.04 79.941 H 0.0 **** 0.0
4 H 64.51 9.651 79.932 H 0.0 **** 0.0
5 H 63.508 8.196 79.715 H 0.0 **** 0.0
@<TRIPOS>BOND
1 1 2 1
2 1 3 1
3 1 4 1
4 1 5 1
@<TRIPOS>MOLECULE
CH4
5 4
SMALL
USER_CHARGES


@<TRIPOS>ATOM
1 C 79.689 30.352 83.41 C 0.0 **** 0.0
2 H 79.604 30.641 82.363 H 0.0 **** 0.0
3 H 80.73 30.125 83.641 H 0.0 **** 0.0
4 H 79.075 29.471 83.595 H 0.0 **** 0.0
5 H 79.347 31.172 84.042 H 0.0 **** 0.0
@<TRIPOS>BOND
1 1 2 1
2 1 3 1
3 1 4 1
4 1 5 1
@<TRIPOS>MOLECULE
CH4
5 4
SMALL
USER_CHARGES


@<TRIPOS>ATOM
1 C 80.358 95.07 56.752 C 0.0 **** 0.0
2 H 80.327 96.146 56.583 H 0.0 **** 0.0
3 H 80.73 94.87 57.757 H 0.0 **** 0.0
4 H 81.021 94.607 56.021 H 0.0 **** 0.0
5 H 79.355 94.657 56.646 H 0.0 **** 0.0
@<TRIPOS>BOND
1 1 2 1
2 1 3 1
3 1 4 1
4 1 5 1
@<TRIPOS>MOLECULE
CH4
5 4
SMALL
USER_CHARGES


@<TRIPOS>ATOM
1 C 17.604 60.661 63.7 C 0.0 **** 0.0
2 H 16.56 60.635 63.386 H 0.0 **** 0.0
3 H 18.051 59.677 63.557 H 0.0 **** 0.0
4 H 17.66 60.937 64.753 H 0.0 **** 0.0
5 H 18.144 61.395 63.102 H 0.0 **** 0.0
@<TRIPOS>BOND
1 1 2 1
2 1 3 1
3 1 4 1
4 1 5 1
@<TRIPOS>MOLECULE
CH4
5 4
SMALL
USER_CHARGES


@<TRIPOS>ATOM
1 C 38.964 52.668 69.468 C 0.0 **** 0.0
2 H 38.66 52.723 70.514 H 0.0 **** 0.0
3 H 38.73 51.679 69.074 H 0.0 **** 0.0
4 H 40.037 52.845 69.393 H 0.0 **** 0.0
5 H 38.43 53.425 68.894 H 0.0 **** 0.0
@<TRIPOS>BOND
1 1 2 1
2 1 3 1
3 1 4 1
4 1 5 1
@<TRIPOS>MOLECULE
CH4
5 4
SMALL
USER_CHARGES


@<TRIPOS>ATOM
1 C 96.176 58.868 35.798 C 0.0 **** 0.0
2 H 96.758 57.958 35.946 H 0.0 **** 0.0
3 H 95.304 58.852 36.452 H 0.0 **** 0.0
4 H 95.851 58.926 34.76 H 0.0 **** 0.0
5 H 96.792 59.736 36.035 H 0.0 **** 0.0
@<TRIPOS>BOND
1 1 2 1
2 1 3 1
3 1 4 1
4 1 5 1
@<TRIPOS>MOLECULE
CH4
5 4
SMALL
USER_CHARGES


@<TRIPOS>ATOM
1 C 30.6 67.036 55.034 C 0.0 **** 0.0
2 H 29.748 67.157 55.702 H 0.0 **** 0.0
3 H 31.046 68.011 54.835 H 0.0 **** 0.0
4 H 30.266 66.591 54.096 H 0.0 **** 0.0
5 H 31.34 66.387 55.501 H 0.0 **** 0.0
@<TRIPOS>BOND
1 1 2 1
2 1 3 1
3 1 4 1
4 1 5 1
@<TRIPOS>MOLECULE
CH4
5 4
SMALL
USER_CHARGES


@<TRIPOS>ATOM
1 C 68.571 79.626 81.751 C 0.0 **** 0.0
2 H 69.227 79.702 82.618 H 0.0 **** 0.0
3 H 68.345 80.625 81.378 H 0.0 **** 0.0
4 H 67.646 79.127 82.039 H 0.0 **** 0.0
5 H 69.067 79.05 80.97 H 0.0 **** 0.0
@<TRIPOS>BOND
1 1 2 1
2 1 3 1
3 1 4 1
4 1 5 1
@<TRIPOS>MOLECULE
CH4
5 4
SMALL
USER_CHARGES


@<TRIPOS>ATOM
1 C 24.372 88.4 83.64 C 0.0 **** 0.0
2 H 23.313 88.486 83.883 H 0.0 **** 0.0
3 H 24.555 87.448 83.142 H 0.0 **** 0.0
4 H 24.96 88.45 84.557 H 0.0 **** 0.0
5 H 24.661 89.217 82.979 H 0.0 **** 0.0
@<TRIPOS>BOND
1 1 2 1
2 1 3 1
3 1 4 1
4 1 5 1
@<TRIPOS>MOLECULE
CH4
5 4
SMALL
USER_CHARGES


@<TRIPOS>ATOM
1 C 89.591 15.4 7.203 C 0.0 **** 0.0
2 H 88.906 14.573 7.39 H 0.0 **** 0.0
3 H 89.912 15.377 6.162 H 0.0 **** 0.0
4 H 90.459 15.307 7.855 H 0.0 **** 0.0
5 H 89.084 16.344 7.406 H 0.0 **** 0.0
@<TRIPOS>BOND
1 1 2 1
2 1 3 1
3 1 4 1
4 1 5 1
@<TRIPOS>MOLECULE
CH4
5 4
SMALL
USER_CHARGES


@<TRIPOS>ATOM
1 C 61.646 16.997 11.156 C 0.0 **** 0.0
2 H 61.289 17.438 10.226 H 0.0 **** 0.0
3 H 62.704 17.226 11.284 H 0.0 **** 0.0
4 H 61.51 15.916 11.121 H 0.0 **** 0.0
5 H 61.081 17.407 11.993 H 0.0 **** 0.0
@<TRIPOS>BOND
1 1 2 1
2 1 3 1
3 1 4 1
4 1 5 1
@<TRIPOS>MOLECULE
CH4
5 4
SMALL
USER_CHARGES


@<TRIPOS>ATOM
1 C 34.739 1.788 9.386 C 0.0 **** 0.0
2 H 34.034 2.569 9.101 H 0.0 **** 0.0
3 H 35.35 2.136 10.218 H 0.0 **** 0.0
4 H 35.38 1.55 8.537 H 0.0 **** 0.0
5 H 34.189 0.896 9.686 H 0.0 **** 0.0
@<TRIPOS>BOND
1 1 2 1
2 1 3 1
3 1 4 1
4 1 5 1
@<TRIPOS>MOLECULE
CH4
5 4
SMALL
USER_CHARGES


@<TRIPOS>ATOM
1 C 85.293 90.732 81.234 C 0.0 **** 0.0
2 H 85.866 91.509 80.73 H 0.0 **** 0.0
3 H 85.878 90.325 82.059 H 0.0 **** 0.0
4 H 85.06 89.936 80.526 H 0.0 **** 0.0
5 H 84.366 91.156 81.62 H 0.0 **** 0.0
@<TRIPOS>BOND
1 1 2 1
2 1 3 1
3 1 4 1
4 1 5 1
@<TRIPOS>MOLECULE
CH4
5 4
SMALL
USER_CHARGES


@<TRIPOS>ATOM
1 C 84.67 46.999 23.556 C 0.0 **** 0.0
2 H 84.627 47.197 22.485 H 0.0 **** 0.0
3 H 84.146 46.068 23.775 H 0.0 **** 0.0
4 H 84.196 47.819 24.096 H 0.0 **** 0.0
5 H 85.711 46.912 23.867 H 0.0 **** 0.0
@<TRIPOS>BOND
1 1 2 1
2 1 3 1
3 1 4 1
4 1 5 1
@<TRIPOS>MOLECULE
CH4
5 4
SMALL
USER_CHARGES


@<TRIPOS>ATOM
1 C 79.714 15.964 57.837 C 0.0 **** 0.0
2 H 79.26 15.723 56.875 H 0.0 **** 0.0
3 H 79.953 15.041 58.366 H 0.0 **** 0.0
4 H 79.016 16.553 58.431 H 0.0 **** 0.0
5 H 80.627 16.537 57.674 H 0.0 **** 0.0
@<TRIPOS>BOND
1 1 2 1
2 1 3 1
3 1 4 1
4 1 5 1
@<TRIPOS>MOLECULE
CH4
5 4
SMALL
USER_CHARGES


@<TRIPOS>ATOM
1 C 26.627 31.494 2.716 C 0.0 **** 0.0
2 H 27.337 30.748 3.073 H 0.0 **** 0.0
3 H 25.611 31.126 2.862 H 0.0 **** 0.0
4 H 26.798 31.678 1.655 H 0.0 **** 0.0
5 H 26.763 32.421 3.272 H 0.0 **** 0.0
@<TRIPOS>BOND
1 1 5 1
2 1 2 1
3 1 3 1
4 1 4 1
@<TRIPOS>MOLECULE
CH4
5 4
SMALL
USER_CHARGES


@<TRIPOS>ATOM
1 C 12.483 44.08 97.166 C 0.0 **** 0.0
2 H 11.748 44.817 96.84 H 0.0 **** 0.0
3 H 12.223 43.104 96.757 H 0.0 **** 0.0
4 H 12.488 44.029 98.254 H 0.0 **** 0.0
5 H 13.471 44.372 96.811 H 0.0 **** 0.0
@<TRIPOS>BOND
1 1 2 1
2 1 3 1
3 1 4 1
4 1 5 1
@<TRIPOS>MOLECULE
CH4
5 4
SMALL
USER_CHARGES


@<TRIPOS>ATOM
1 C 73.595 30.21 5.339 C 0.0 **** 0.0
2 H 72.944 30.475 4.506 H 0.0 **** 0.0
3 H 73.029 30.25 6.27 H 0.0 **** 0.0
4 H 74.426 30.913 5.388 H 0.0 **** 0.0
5 H 73.981 29.201 5.191 H 0.0 **** 0.0
@<TRIPOS>BOND
1 1 2 1
2 1 3 1
3 1 4 1
4 1 5 1
@<TRIPOS>MOLECULE
CH4
5 4
SMALL
USER_CHARGES


@<TRIPOS>ATOM
1 C 29.347 87.61 35.447 C 0.0 **** 0.0
2 H 29.478 86.566 35.163 H 0.0 **** 0.0
3 H 29.193 87.678 36.524 H 0.0 **** 0.0
4 H 28.481 88.021 34.929 H 0.0 **** 0.0
5 H 30.238 88.175 35.17 H 0.0 **** 0.0
@<TRIPOS>BOND
1 1 2 1
2 1 3 1
3 1 4 1
4 1 5 1
@<TRIPOS>MOLECULE
CH4
5 4
SMALL
USER_CHARGES


@<TRIPOS>ATOM
1 C 7.555 8.435 28.844 C 0.0 **** 0.0
2 H 7.6 8.387 29.932 H 0.0 **** 0.0
3 H 7.129 7.509 28.457 H 0.0 **** 0.0
4 H 8.561 8.567 28.445 H 0.0 **** 0.0
5 H 6.931 9.276 28.543 H 0.0 **** 0.0
@<TRIPOS>BOND
1 1 2 1
2 1 3 1
3 1 4 1
4 1 5 1
@<TRIPOS>MOLECULE
CH4
5 4
SMALL
USER_CHARGES


@<TRIPOS>ATOM
1 C 70.02 72.759 65.453 C 0.0 **** 0.0
2 H 69.939 73.158 64.442 H 0.0 **** 0.0
3 H 70.452 73.517 66.108 H 0.0 **** 0.0
4 H 70.659 71.877 65.446 H 0.0 **** 0.0
5 H 69.029 72.487 65.817 H 0.0 **** 0.0
@<TRIPOS>BOND
1 1 2 1
2 1 3 1
3 1 4 1
4 1 5 1
@<TRIPOS>MOLECULE
CH4
5 4
SMALL
USER_CHARGES


@<TRIPOS>ATOM
1 C 81.947 53.46 33.017 C 0.0 **** 0.0
2 H 81.494 53.616 32.038 H 0.0 **** 0.0
3 H 81.245 52.931 33.662 H 0.0 **** 0.0
4 H 82.194 54.424 33.461 H 0.0 **** 0.0
5 H 82.855 52.867 32.906 H 0.0 **** 0.0
@<TRIPOS>BOND
1 1 2 1
2 1 3 1
3 1 4 1
4 1 5 1
@<TRIPOS>MOLECULE
CH4
5 4
SMALL
USER_CHARGES


@<TRIPOS>ATOM
1 C 78.313 89.867 52.38 C 0.0 **** 0.0
2 H 78.027 89.66 53.411 H 0.0 **** 0.0
3 H 79.078 89.156 52.066 H 0.0 **** 0.0
4 H 78.708 90.881 52.309 H 0.0 **** 0.0
5 H 77.44 89.771 51.735 H 0.0 **** 0.0
@<TRIPOS>BOND
1 1 2 1
2 1 3 1
3 1 4 1
4 1 5 1
@<TRIPOS>MOLECULE
CH4
5 4
SMALL
USER_CHARGES


@<TRIPOS>ATOM
1 C 15.1 36.857 83.476 C 0.0 **** 0.0
2 H 15.223 36.059 84.209 H 0.0 **** 0.0
3 H 15.938 36.841 82.779 H 0.0 **** 0.0
4 H 15.072 37.818 83.988 H 0.0 **** 0.0
5 H 14.169 36.708 82.929 H 0.0 **** 0.0
@<TRIPOS>BOND
1 1 2 1
2 1 3 1
3 1 4 1
4 1 5 1
@<TRIPOS>MOLECULE
CH4
5 4
SMALL
USER_CHARGES


@<TRIPOS>ATOM
1 C 55.919 66.62 69.905 C 0.0 **** 0.0
2 H 55.032 67.003 69.4 H 0.0 **** 0.0
3 H 56.806 66.875 69.324 H 0.0 **** 0.0
4 H 55.844 65.536 69.998 H 0.0 **** 0.0
5 H 55.993 67.066 70.897 H 0.0 **** 0.0
@<TRIPOS>BOND
1 1 2 1
2 1 3 1
3 1 4 1
4 1 5 1
@<TRIPOS>MOLECULE
CH4
5 4
SMALL
USER_CHARGES


@<TRIPOS>ATOM
1 C 34.767 63.07 25.897 C 0.0 **** 0.0
2 H 34.789 62.72 24.865 H 0.0 **** 0.0
3 H 34.51 64.13 25.916 H 0.0 **** 0.0
4 H 35.748 62.926 26.35 H 0.0 **** 0.0
5 H 34.022 62.505 26.456 H 0.0 **** 0.0
@<TRIPOS>BOND
1 1 2 1
2 1 3 1
3 1 4 1
4 1 5 1
@<TRIPOS>MOLECULE
CH4
5 4
SMALL
USER_CHARGES


@<TRIPOS>ATOM
1 C 56.229 28.533 35.879 C 0.0 **** 0.0
2 H 56.177 28.546 34.79 H 0.0 **** 0.0
3 H 57.223 28.847 36.198 H 0.0 **** 0.0
4 H 56.034 27.523 36.239 H 0.0 **** 0.0
5 H 55.483 29.215 36.286 H 0.0 **** 0.0
@<TRIPOS>BOND
1 1 2 1
2 1 3 1
3 1 4 1
4 1 5 1
@<TRIPOS>MOLECULE
CH4
5 4
SMALL
USER_CHARGES


@<TRIPOS>ATOM
1 C 5.572 38.496 7.847 C 0.0 **** 0.0
2 H 4.648 38.388 7.278 H 0.0 **** 0.0
3 H 6.055 39.436 7.581 H 0.0 **** 0.0
4 H 6.239 37.666 7.617 H 0.0 **** 0.0
5 H 5.343 38.493 8.913 H 0.0 **** 0.0
@<TRIPOS>BOND
1 1 2 1
2 1 3 1
3 1 4 1
4 1 5 1
@<TRIPOS>MOLECULE
CH4
5 4
SMALL
USER_CHARGES


@<TRIPOS>ATOM
1 C 23.844 24.822 82.147 C 0.0 **** 0.0
2 H 23.468 25.254 83.075 H 0.0 **** 0.0
3 H 24.05 23.763 82.298 H 0.0 **** 0.0
4 H 24.761 25.334 81.855 H 0.0 **** 0.0
5 H 23.096 24.94 81.363 H 0.0 **** 0.0
@<TRIPOS>BOND
1 1 2 1
2 1 3 1
3 1 4 1
4 1 5 1
@<TRIPOS>MOLECULE
CH4
5 4
SMALL
USER_CHARGES


@<TRIPOS>ATOM
1 C 67.481 18.541 49.248 C 0.0 **** 0.0
2 H 68.518 18.297 49.019 H 0.0 **** 0.0
3 H 67.025 19.029 48.386 H 0.0 **** 0.0
4 H 67.447 19.213 50.106 H 0.0 **** 0.0
5 H 66.935 17.627 49.48 H 0.0 **** 0.0
@<TRIPOS>BOND
1 1 2 1
2 1 3 1
3 1 4 1
4 1 5 1
@<TRIPOS>MOLECULE
CH4
5 4
SMALL
USER_CHARGES


@<TRIPOS>ATOM
1 C 34.775 8.713 80.749 C 0.0 **** 0.0
2 H 34.81 8.747 79.66 H 0.0 **** 0.0
3 H 33.945 8.079 81.065 H 0.0 **** 0.0
4 H 34.632 9.72 81.14 H 0.0 **** 0.0
5 H 35.71 8.304 81.13 H 0.0 **** 0.0
@<TRIPOS>BOND
1 1 2 1
2 1 3 1
3 1 4 1
4 1 5 1
@<TRIPOS>MOLECULE
CH4
5 4
SMALL
USER_CHARGES


@<TRIPOS>ATOM
1 C 7.207 89.335 55.321 C 0.0 **** 0.0
2 H 7.096 88.787 54.386 H 0.0 **** 0.0
3 H 8.249 89.63 55.447 H 0.0 **** 0.0
4 H 6.905 88.699 56.153 H 0.0 **** 0.0
5 H 6.577 90.225 55.297 H 0.0 **** 0.0
@<TRIPOS>BOND
1 1 2 1
2 1 3 1
3 1 4 1
4 1 5 1
@<TRIPOS>MOLECULE
CH4
5 4
SMALL
USER_CHARGES


@<TRIPOS>ATOM
1 C 13.986 51.35 57.561 C 0.0 **** 0.0
2 H 14.452 51.365 56.575 H 0.0 **** 0.0
3 H 14.76 51.37 58.328 H 0.0 **** 0.0
4 H 13.392 50.442 57.667 H 0.0 **** 0.0
5 H 13.341 52.222 57.671 H 0.0 **** 0.0
@<TRIPOS>BOND
1 1 4 1
2 1 5 1
3 1 2 1
4 1 3 1
@<TRIPOS>MOLECULE
CH4
5 4
SMALL
USER_CHARGES


@<TRIPOS>ATOM
1 C 27.96 63.404 38.027 C 0.0 **** 0.0
2 H 27.022 62.967 37.686 H 0.0 **** 0.0
3 H 27.76 64.357 38.519 H 0.0 **** 0.0
4 H 28.617 63.567 37.173 H 0.0 **** 0.0
5 H 28.442 62.726 38.731 H 0.0 **** 0.0
@<TRIPOS>BOND
1 1 2 1
2 1 3 1
3 1 4 1
4 1 5 1
@<TRIPOS>MOLECULE
CH4
5 4
SMALL
USER_CHARGES


@<TRIPOS>ATOM
1 C 36.162 30.816 71.406 C 0.0 **** 0.0
2 H 35.96 31.149 72.425 H 0.0 **** 0.0
3 H 37.147 31.167 71.098 H 0.0 **** 0.0
4 H 35.404 31.221 70.735 H 0.0 **** 0.0
5 H 36.136 29.727 71.369 H 0.0 **** 0.0
@<TRIPOS>BOND
1 1 2 1
2 1 3 1
3 1 4 1
4 1 5 1
@<TRIPOS>MOLECULE
CH4
5 4
SMALL
USER_CHARGES


@<TRIPOS>ATOM
1 C 34.601 86.579 14.942 C 0.0 **** 0.0
2 H 34.224 86.941 15.898 H 0.0 **** 0.0
3 H 33.932 85.81 14.554 H 0.0 **** 0.0
4 H 35.597 86.159 15.08 H 0.0 **** 0.0
5 H 34.651 87.408 14.235 H 0.0 **** 0.0
@<TRIPOS>BOND
1 1 2 1
2 1 3 1
3 1 4 1
4 1 5 1
@<TRIPOS>MOLECULE
CH4
5 4
SMALL
USER_CHARGES


@<TRIPOS>ATOM
1 C 24.868 26.803 47.492 C 0.0 **** 0.0
2 H 24.61 27.687 46.908 H 0.0 **** 0.0
3 H 25.953 26.71 47.549 H 0.0 **** 0.0
4 H 24.452 25.917 47.012 H 0.0 **** 0.0
5 H 24.457 26.899 48.497 H 0.0 **** 0.0
@<TRIPOS>BOND
1 1 2 1
2 1 3 1
3 1 4 1
4 1 5 1
@<TRIPOS>MOLECULE
CH4
5 4
SMALL
USER_CHARGES


@<TRIPOS>ATOM
1 C 44.647 58.177 21.094 C 0.0 **** 0.0
2 H 45.1 57.191 21.206 H 0.0 **** 0.0
3 H 45.403 58.944 21.262 H 0.0 **** 0.0
4 H 43.844 58.292 21.822 H 0.0 **** 0.0
5 H 44.243 58.278 20.087 H 0.0 **** 0.0
@<TRIPOS>BOND
1 1 2 1
2 1 3 1
3 1 4 1
4 1 5 1
@<TRIPOS>MOLECULE
CH4
5 4
SMALL
USER_CHARGES


@<TRIPOS>ATOM
1 C 41.826 4.139 94.878 C 0.0 **** 0.0
2 H 41.482 3.599 93.996 H 0.0 **** 0.0
3 H 41.015 4.757 95.265 H 0.0 **** 0.0
4 H 42.67 4.774 94.609 H 0.0 **** 0.0
5 H 42.137 3.427 95.642 H 0.0 **** 0.0
@<TRIPOS>BOND
1 1 2 1
2 1 3 1
3 1 4 1
4 1 5 1
@<TRIPOS>MOLECULE
CH4
5 4
SMALL
USER_CHARGES


@<TRIPOS>ATOM
1 C 91.089 63.029 67.581 C 0.0 **** 0.0
2 H 90.613 63.383 68.496 H 0.0 **** 0.0
3 H 90.69 62.05 67.319 H 0.0 **** 0.0
4 H 92.165 62.953 67.739 H 0.0 **** 0.0
5 H 90.889 63.732 66.773 H 0.0 **** 0.0
@<TRIPOS>BOND
1 1 2 1
2 1 3 1
3 1 4 1
4 1 5 1
@<TRIPOS>MOLECULE
CH4
5 4
SMALL
USER_CHARGES


@<TRIPOS>ATOM
1 C 94.855 92.787 18.672 C 0.0 **** 0.0
2 H 95.741 92.573 18.076 H 0.0 **** 0.0
3 H 94.863 92.168 19.57 H 0.0 **** 0.0
4 H 93.962 92.566 18.087 H 0.0 **** 0.0
5 H 94.852 93.839 18.956 H 0.0 **** 0.0
@<TRIPOS>BOND
1 1 2 1
2 1 3 1
3 1 4 1
4 1 5 1
@<TRIPOS>MOLECULE
CH4
5 4
SMALL
USER_CHARGES


@<TRIPOS>ATOM
1 C 75.933 44.5 55.636 C 0.0 **** 0.0
2 H 75.884 44.795 56.684 H 0.0 **** 0.0
3 H 75.101 43.834 55.407 H 0.0 **** 0.0
4 H 76.875 43.984 55.448 H 0.0 **** 0.0
5 H 75.873 45.388 55.006 H 0.0 **** 0.0
@<TRIPOS>BOND
1 1 2 1
2 1 3 1
3 1 4 1
4 1 5 1
@<TRIPOS>MOLECULE
CH4
5 4
SMALL
USER_CHARGES


@<TRIPOS>ATOM
1 C 39.603 63.64 36.775 C 0.0 **** 0.0
2 H 39.617 63.817 37.851 H 0.0 **** 0.0
3 H 40.584 63.866 36.358 H 0.0 **** 0.0
4 H 38.854 64.282 36.311 H 0.0 **** 0.0
5 H 39.357 62.596 36.582 H 0.0 **** 0.0
@<TRIPOS>BOND
1 1 2 1
2 1 3 1
3 1 4 1
4 1 5 1
@<TRIPOS>MOLECULE
CH4
5 4
SMALL
USER_CHARGES


@<TRIPOS>ATOM
1 C 63.363 7.542 12.536 C 0.0 **** 0.0
2 H 63.451 7.058 13.508 H 0.0 **** 0.0
3 H 63.842 6.921 11.777 H 0.0 **** 0.0
4 H 63.851 8.516 12.569 H 0.0 **** 0.0
5 H 62.31 7.672 12.288 H 0.0 **** 0.0
@<TRIPOS>BOND
1 1 2 1
2 1 3 1
3 1 4 1
4 1 5 1
@<TRIPOS>MOLECULE
CH4
5 4
SMALL
USER_CHARGES


@<TRIPOS>ATOM
1 C 32.976 55.425 71.677 C 0.0 **** 0.0
2 H 33.345 54.417 71.869 H 0.0 **** 0.0
3 H 33.717 56.152 72.009 H 0.0 **** 0.0
4 H 32.045 55.58 72.221 H 0.0 **** 0.0
5 H 32.798 55.549 70.609 H 0.0 **** 0.0
@<TRIPOS>BOND
1 1 2 1
2 1 3 1
3 1 4 1
4 1 5 1
@<TRIPOS>MOLECULE
CH4
5 4
SMALL
USER_CHARGES


@<TRIPOS>ATOM
1 C 43.265 25.708 54.829 C 0.0 **** 0.0
2 H 43.568 26.216 53.914 H 0.0 **** 0.0
3 H 43.435 26.365 55.682 H 0.0 **** 0.0
4 H 43.85 24.797 54.95 H 0.0 **** 0.0
5 H 42.206 25.455 54.77 H 0.0 **** 0.0
@<TRIPOS>BOND
1 1 2 1
2 1 3 1
3 1 4 1
4 1 5 1
@<TRIPOS>MOLECULE
CH4
5 4
SMALL
USER_CHARGES


@<TRIPOS>ATOM
1 C 24.295 29.58 1.265 C 0.0 **** 0.0
2 H 24.214 29.394 2.336 H 0.0 **** 0.0
3 H 25.346 29.692 0.996 H 0.0 **** 0.0
4 H 23.756 30.492 1.013 H 0.0 **** 0.0
5 H 23.867 28.741 0.717 H 0.0 **** 0.0
@<TRIPOS>BOND
1 1 2 1
2 1 3 1
3 1 4 1
4 1 5 1
@<TRIPOS>MOLECULE
CH4
5 4
SMALL
USER_CHARGES


@<TRIPOS>ATOM
1 C 66.49 27.301 10.497 C 0.0 **** 0.0
2 H 65.97 26.663 9.782 H 0.0 **** 0.0
3 H 66.682 26.739 11.411 H 0.0 **** 0.0
4 H 65.872 28.169 10.726 H 0.0 **** 0.0
5 H 67.436 27.631 10.067 H 0.0 **** 0.0
@<TRIPOS>BOND
1 1 2 1
2 1 3 1
3 1 4 1
4 1 5 1
@<TRIPOS>MOLECULE
CH4
5 4
SMALL
USER_CHARGES


@<TRIPOS>ATOM
1 C 3.172 9.031 49.45 C 0.0 **** 0.0
2 H 3.06 10.104 49.606 H 0.0 **** 0.0
3 H 3.169 8.817 48.381 H 0.0 **** 0.0
4 H 2.345 8.506 49.929 H 0.0 **** 0.0
5 H 4.114 8.698 49.885 H 0.0 **** 0.0
@<TRIPOS>BOND
1 1 2 1
2 1 3 1
3 1 4 1
4 1 5 1
@<TRIPOS>MOLECULE
CH4
5 4
SMALL
USER_CHARGES


@<TRIPOS>ATOM
1 C 26.008 24.866 8.211 C 0.0 **** 0.0
2 H 26.175 25.554 9.039 H 0.0 **** 0.0
3 H 26.446 25.28 7.302 H 0.0 **** 0.0
4 H 24.937 24.726 8.066 H 0.0 **** 0.0
5 H 26.474 23.907 8.435 H 0.0 **** 0.0
@<TRIPOS>BOND
1 1 2 1
2 1 3 1
3 1 4 1
4 1 5 1
@<TRIPOS>MOLECULE
CH4
5 4
SMALL
USER_CHARGES


@<TRIPOS>ATOM
1 C 42.468 51.816 75.846 C 0.0 **** 0.0
2 H 42.261 52.029 76.895 H 0.0 **** 0.0
3 H 43.15 52.57 75.452 H 0.0 **** 0.0
4 H 41.537 51.837 75.281 H 0.0 **** 0.0
5 H 42.925 50.831 75.759 H 0.0 **** 0.0
@<TRIPOS>BOND
1 1 2 1
2 1 3 1
3 1 4 1
4 1 5 1
@<TRIPOS>MOLECULE
CH4
5 4
SMALL
USER_CHARGES


@<TRIPOS>ATOM
1 C 4.091 65.413 75.982 C 0.0 **** 0.0
2 H 3.96 65.182 77.04 H 0.0 **** 0.0
3 H 3.182 65.874 75.596 H 0.0 **** 0.0
4 H 4.294 64.493 75.433 H 0.0 **** 0.0
5 H 4.928 66.1 75.861 H 0.0 **** 0.0
@<TRIPOS>BOND
1 1 2 1
2 1 3 1
3 1 4 1
4 1 5 1
@<TRIPOS>MOLECULE
CH4
5 4
SMALL
USER_CHARGES


@<TRIPOS>ATOM
1 C 89.052 49.198 43.212 C 0.0 **** 0.0
2 H 88.925 50.167 43.695 H 0.0 **** 0.0
3 H 88.429 49.153 42.318 H 0.0 **** 0.0
4 H 88.756 48.407 43.901 H 0.0 **** 0.0
5 H 90.097 49.065 42.934 H 0.0 **** 0.0
@<TRIPOS>BOND
1 1 2 1
2 1 3 1
3 1 4 1
4 1 5 1
@<TRIPOS>MOLECULE
CH4
5 4
SMALL
USER_CHARGES


@<TRIPOS>ATOM
1 C 1.728 89.419 92.842 C 0.0 **** 0.0
2 H 0.978 88.991 93.507 H 0.0 **** 0.0
3 H 2.649 88.839 92.913 H 0.0 **** 0.0
4 H 1.925 90.451 93.133 H 0.0 **** 0.0
5 H 1.36 89.394 91.816 H 0.0 **** 0.0
@<TRIPOS>BOND
1 1 2 1
2 1 3 1
3 1 4 1
4 1 5 1
@<TRIPOS>MOLECULE
CH4
5 4
SMALL
USER_CHARGES


@<TRIPOS>ATOM
1 C 46.867 44.066 70.665 C 0.0 **** 0.0
2 H 46.115 43.753 71.39 H 0.0 **** 0.0
3 H 47.434 44.905 71.068 H 0.0 **** 0.0
4 H 46.375 44.37 69.741 H 0.0 **** 0.0
5 H 47.542 43.235 70.46 H 0.0 **** 0.0
@<TRIPOS>BOND
1 1 2 1
2 1 3 1
3 1 4 1
4 1 5 1
@<TRIPOS>MOLECULE
CH4
5 4
SMALL
USER_CHARGES


@<TRIPOS>ATOM
1 C 14.268 22.61 42.392 C 0.0 **** 0.0
2 H 13.534 23.4 42.23 H 0.0 **** 0.0
3 H 14.945 22.564 41.538 H 0.0 **** 0.0
4 H 13.755 21.655 42.502 H 0.0 **** 0.0
5 H 14.837 22.824 43.296 H 0.0 **** 0.0
@<TRIPOS>BOND
1 1 2 1
2 1 3 1
3 1 4 1
4 1 5 1
@<TRIPOS>MOLECULE
CH4
5 4
SMALL
USER_CHARGES


@<TRIPOS>ATOM
1 C 73.969 16.338 55.302 C 0.0 **** 0.0
2 H 73.244 17.075 55.648 H 0.0 **** 0.0
3 H 74.549 16.758 54.48 H 0.0 **** 0.0
4 H 73.444 15.447 54.958 H 0.0 **** 0.0
5 H 74.637 16.073 56.121 H 0.0 **** 0.0
@<TRIPOS>BOND
1 1 2 1
2 1 3 1
3 1 4 1
4 1 5 1
@<TRIPOS>MOLECULE
CH4
5 4
SMALL
USER_CHARGES


@<TRIPOS>ATOM
1 C 29.144 2.349 60.652 C 0.0 **** 0.0
2 H 28.814 2.105 61.662 H 0.0 **** 0.0
3 H 29.239 3.431 60.553 H 0.0 **** 0.0
4 H 28.413 1.981 59.933 H 0.0 **** 0.0
5 H 30.109 1.88 60.462 H 0.0 **** 0.0
@<TRIPOS>BOND
1 1 5 1
2 1 2 1
3 1 3 1
4 1 4 1
@<TRIPOS>MOLECULE
CH4
5 4
SMALL
USER_CHARGES


@<TRIPOS>ATOM
1 C 77.752 31.739 59.865 C 0.0 **** 0.0
2 H 78.677 32.25 59.598 H 0.0 **** 0.0
3 H 76.903 32.29 59.461 H 0.0 **** 0.0
4 H 77.667 31.685 60.95 H 0.0 **** 0.0
5 H 77.762 30.73 59.451 H 0.0 **** 0.0
@<TRIPOS>BOND
1 1 2 1
2 1 3 1
3 1 4 1
4 1 5 1
@<TRIPOS>MOLECULE
CH4
5 4
SMALL
USER_CHARGES


@<TRIPOS>ATOM
1 C 90.453 14.127 47.239 C 0.0 **** 0.0
2 H 90.973 13.537 46.484 H 0.0 **** 0.0
3 H 90.295 13.52 48.13 H 0.0 **** 0.0
4 H 89.49 14.453 46.845 H 0.0 **** 0.0
5 H 91.054 15.0 47.495 H 0.0 **** 0.0
@<TRIPOS>BOND
1 1 2 1
2 1 3 1
3 1 4 1
4 1 5 1
@<TRIPOS>MOLECULE
CH4
5 4
SMALL
USER_CHARGES


@<TRIPOS>ATOM
1 C 23.422 2.515 11.174 C 0.0 **** 0.0
2 H 22.963 2.923 10.273 H 0.0 **** 0.0
3 H 22.7 2.536 11.991 H 0.0 **** 0.0
4 H 24.292 3.114 11.441 H 0.0 **** 0.0
5 H 23.732 1.486 10.989 H 0.0 **** 0.0
@<TRIPOS>BOND
1 1 2 1
2 1 3 1
3 1 4 1
4 1 5 1
@<TRIPOS>MOLECULE
CH4
5 4
SMALL
USER_CHARGES


@<TRIPOS>ATOM
1 C 61.39 47.859 83.312 C 0.0 **** 0.0
2 H 61.354 47.325 84.262 H 0.0 **** 0.0
3 H 60.455 48.4 83.164 H 0.0 **** 0.0
4 H 61.53 47.145 82.5 H 0.0 **** 0.0
5 H 62.221 48.564 83.323 H 0.0 **** 0.0
@<TRIPOS>BOND
1 1 2 1
2 1 3 1
3 1 4 1
4 1 5 1
@<TRIPOS>MOLECULE
CH4
5 4
SMALL
USER_CHARGES


@<TRIPOS>ATOM
1 C 50.444 74.617 48.052 C 0.0 **** 0.0
2 H 50.885 75.359 47.386 H 0.0 **** 0.0
3 H 51.227 74.167 48.663 H 0.0 **** 0.0
4 H 49.955 73.843 47.461 H 0.0 **** 0.0
5 H 49.711 75.099 48.698 H 0.0 **** 0.0
@<TRIPOS>BOND
1 1 2 1
2 1 3 1
3 1 4 1
4 1 5 1
@<TRIPOS>MOLECULE
CH4
5 4
SMALL
USER_CHARGES


@<TRIPOS>ATOM
1 C 12.186 59.403 7.935 C 0.0 **** 0.0
2 H 12.341 60.279 7.305 H 0.0 **** 0.0
3 H 11.541 58.694 7.417 H 0.0 **** 0.0
4 H 11.716 59.708 8.87 H 0.0 **** 0.0
5 H 13.147 58.934 8.147 H 0.0 **** 0.0
@<TRIPOS>BOND
1 1 2 1
2 1 3 1
3 1 4 1
4 1 5 1
@<TRIPOS>MOLECULE
CH4
5 4
SMALL
USER_CHARGES


@<TRIPOS>ATOM
1 C 5.081 77.494 89.076 C 0.0 **** 0.0
2 H 5.142 76.7 89.82 H 0.0 **** 0.0
3 H 4.487 78.318 89.473 H 0.0 **** 0.0
4 H 4.61 77.109 88.172 H 0.0 **** 0.0
5 H 6.084 77.849 88.84 H 0.0 **** 0.0
@<TRIPOS>BOND
1 1 2 1
2 1 3 1
3 1 4 1
4 1 5 1
@<TRIPOS>MOLECULE
CH4
5 4
SMALL
USER_CHARGES


@<TRIPOS>ATOM
1 C 36.853 54.251 1.188 C 0.0 **** 0.0
2 H 36.461 53.48 0.526 H 0.0 **** 0.0
3 H 36.047 54.643 1.808 H 0.0 **** 0.0
4 H 37.279 55.059 0.593 H 0.0 **** 0.0
5 H 37.627 53.823 1.826 H 0.0 **** 0.0
@<TRIPOS>BOND
1 1 2 1
2 1 3 1
3 1 4 1
4 1 5 1
@<TRIPOS>MOLECULE
CH4
5 4
SMALL
USER_CHARGES


@<TRIPOS>ATOM
1 C 21.168 97.18 16.732 C 0.0 **** 0.0
2 H 21.713 96.653 15.949 H 0.0 **** 0.0
3 H 20.099 97.135 16.524 H 0.0 **** 0.0
4 H 21.49 98.221 16.761 H 0.0 **** 0.0
5 H 21.371 96.71 17.695 H 0.0 **** 0.0
@<TRIPOS>BOND
1 1 3 1
2 1 4 1
3 1 5 1
4 1 2 1
@<TRIPOS>MOLECULE
CH4
5 4
SMALL
USER_CHARGES


@<TRIPOS>ATOM
1 C 15.424 19.893 68.607 C 0.0 **** 0.0
2 H 16.352 19.331 68.501 H 0.0 **** 0.0
3 H 14.971 20.034 67.625 H 0.0 **** 0.0
4 H 15.637 20.865 69.052 H 0.0 **** 0.0
5 H 14.737 19.342 69.249 H 0.0 **** 0.0
@<TRIPOS>BOND
1 1 2 1
2 1 3 1
3 1 4 1
4 1 5 1
@<TRIPOS>MOLECULE
CH4
5 4
SMALL
USER_CHARGES


@<TRIPOS>ATOM
1 C 70.581 46.892 89.891 C 0.0 **** 0.0
2 H 70.58 46.877 90.98 H 0.0 **** 0.0
3 H 69.83 46.196 89.517 H 0.0 **** 0.0
4 H 71.565 46.596 89.525 H 0.0 **** 0.0
5 H 70.351 47.898 89.541 H 0.0 **** 0.0
@<TRIPOS>BOND
1 1 2 1
2 1 3 1
3 1 4 1
4 1 5 1
@<TRIPOS>MOLECULE
CH4
5 4
SMALL
USER_CHARGES


@<TRIPOS>ATOM
1 C 88.719 59.198 22.401 C 0.0 **** 0.0
2 H 88.201 58.245 22.512 H 0.0 **** 0.0
3 H 88.58 59.57 21.386 H 0.0 **** 0.0
4 H 89.783 59.057 22.595 H 0.0 **** 0.0
5 H 88.313 59.917 23.112 H 0.0 **** 0.0
@<TRIPOS>BOND
1 1 2 1
2 1 3 1
3 1 4 1
4 1 5 1
@<TRIPOS>MOLECULE
CH4
5 4
SMALL
USER_CHARGES


@<TRIPOS>ATOM
1 C 52.871 29.194 41.086 C 0.0 **** 0.0
2 H 53.25 29.383 42.091 H 0.0 **** 0.0
3 H 52.406 28.209 41.053 H 0.0 **** 0.0
4 H 53.695 29.232 40.374 H 0.0 **** 0.0
5 H 52.132 29.954 40.828 H 0.0 **** 0.0
@<TRIPOS>BOND
1 1 2 1
2 1 3 1
3 1 4 1
4 1 5 1
@<TRIPOS>MOLECULE
CH4
5 4
SMALL
USER_CHARGES


@<TRIPOS>ATOM
1 C 65.003 52.964 97.556 C 0.0 **** 0.0
2 H 64.667 53.209 98.564 H 0.0 **** 0.0
3 H 64.14 52.894 96.894 H 0.0 **** 0.0
4 H 65.529 52.01 97.571 H 0.0 **** 0.0
5 H 65.675 53.744 97.198 H 0.0 **** 0.0
@<TRIPOS>BOND
1 1 2 1
2 1 3 1
3 1 4 1
4 1 5 1
@<TRIPOS>MOLECULE
CH4
5 4
SMALL
USER_CHARGES


@<TRIPOS>ATOM
1 C 44.987 4.917 10.916 C 0.0 **** 0.0
2 H 45.602 5.693 11.372 H 0.0 **** 0.0
3 H 45.32 4.745 9.892 H 0.0 **** 0.0
4 H 43.945 5.236 10.91 H 0.0 **** 0.0
5 H 45.082 3.995 11.489 H 0.0 **** 0.0
@<TRIPOS>BOND
1 1 2 1
2 1 3 1
3 1 4 1
4 1 5 1
@<TRIPOS>MOLECULE
CH4
5 4
SMALL
USER_CHARGES


@<TRIPOS>ATOM
1 C 46.031 73.152 56.259 C 0.0 **** 0.0
2 H 45.001 72.932 55.978 H 0.0 **** 0.0
3 H 46.685 72.362 55.888 H 0.0 **** 0.0
4 H 46.107 73.207 57.345 H 0.0 **** 0.0
5 H 46.33 74.106 55.825 H 0.0 **** 0.0
@<TRIPOS>BOND
1 1 2 1
2 1 3 1
3 1 4 1
4 1 5 1
@<TRIPOS>MOLECULE
CH4
5 4
SMALL
USER_CHARGES


@<TRIPOS>ATOM
1 C 11.565 44.26 88.72 C 0.0 **** 0.0
2 H 11.459 44.186 87.638 H 0.0 **** 0.0
3 H 10.988 45.111 89.084 H 0.0 **** 0.0
4 H 12.616 44.399 88.973 H 0.0 **** 0.0
5 H 11.197 43.346 89.185 H 0.0 **** 0.0
@<TRIPOS>BOND
1 1 2 1
2 1 3 1
3 1 4 1
4 1 5 1
@<TRIPOS>MOLECULE
CH4
5 4
SMALL
USER_CHARGES


@<TRIPOS>ATOM
1 C 31.457 95.01 97.011 C 0.0 **** 0.0
2 H 31.315 96.074 97.199 H 0.0 **** 0.0
3 H 30.704 94.441 97.557 H 0.0 **** 0.0
4 H 32.451 94.712 97.346 H 0.0 **** 0.0
5 H 31.359 94.814 95.944 H 0.0 **** 0.0
@<TRIPOS>BOND
1 1 2 1
2 1 3 1
3 1 4 1
4 1 5 1
@<TRIPOS>MOLECULE
CH4
5 4
SMALL
USER_CHARGES


@<TRIPOS>ATOM
1 C 95.615 54.237 93.619 C 0.0 **** 0.0
2 H 95.345 53.92 92.612 H 0.0 **** 0.0
3 H 96.683 54.083 93.775 H 0.0 **** 0.0
4 H 95.053 53.651 94.347 H 0.0 **** 0.0
5 H 95.378 55.294 93.743 H 0.0 **** 0.0
@<TRIPOS>BOND
1 1 2 1
2 1 3 1
3 1 4 1
4 1 5 1
@<TRIPOS>MOLECULE
CH4
5 4
SMALL
USER_CHARGES


@<TRIPOS>ATOM
1 C 66.087 60.525 31.865 C 0.0 **** 0.0
2 H 66.33 60.066 32.824 H 0.0 **** 0.0
3 H 66.041 61.608 31.982 H 0.0 **** 0.0
4 H 65.122 60.155 31.519 H 0.0 **** 0.0
5 H 66.857 60.271 31.136 H 0.0 **** 0.0
@<TRIPOS>BOND
1 1 2 1
2 1 3 1
3 1 4 1
4 1 5 1
@<TRIPOS>MOLECULE
CH4
5 4
SMALL
USER_CHARGES


@<TRIPOS>ATOM
1 C 46.817 70.167 46.0 C 0.0 **** 0.0
2 H 47.432 69.313 46.281 H 0.0 **** 0.0
3 H 47.419 70.879 45.436 H 0.0 **** 0.0
4 H 46.432 70.649 46.899 H 0.0 **** 0.0
5 H 45.984 69.827 45.385 H 0.0 **** 0.0
@<TRIPOS>BOND
1 1 2 1
2 1 3 1
3 1 4 1
4 1 5 1
@<TRIPOS>MOLECULE
CH4
5 4
SMALL
USER_CHARGES


@<TRIPOS>ATOM
1 C 37.569 0.638 90.059 C 0.0 **** 0.0
2 H 37.217 0.028 90.891 H 0.0 **** 0.0
3 H 38.495 1.139 90.343 H 0.0 **** 0.0
4 H 36.813 1.383 89.811 H 0.0 **** 0.0
5 H 37.75 0.001 89.193 H 0.0 **** 0.0
@<TRIPOS>BOND
1 1 2 1
2 1 3 1
3 1 4 1
4 1 5 1
@<TRIPOS>MOLECULE
CH4
5 4
SMALL
USER_CHARGES


@<TRIPOS>ATOM
1 C 44.851 88.313 44.004 C 0.0 **** 0.0
2 H 44.645 87.758 44.919 H 0.0 **** 0.0
3 H 43.955 88.338 43.384 H 0.0 **** 0.0
4 H 45.658 87.824 43.457 H 0.0 **** 0.0
5 H 45.148 89.331 44.256 H 0.0 **** 0.0
@<TRIPOS>BOND
1 1 2 1
2 1 3 1
3 1 4 1
4 1 5 1
@<TRIPOS>MOLECULE
CH4
5 4
SMALL
USER_CHARGES


@<TRIPOS>ATOM
1 C 81.737 17.596 11.498 C 0.0 **** 0.0
2 H 82.061 17.571 10.457 H 0.0 **** 0.0
3 H 81.068 16.757 11.69 H 0.0 **** 0.0
4 H 81.212 18.531 11.692 H 0.0 **** 0.0
5 H 82.607 17.525 12.151 H 0.0 **** 0.0
@<TRIPOS>BOND
1 1 2 1
2 1 3 1
3 1 4 1
4 1 5 1
@<TRIPOS>MOLECULE
CH4
5 4
SMALL
USER_CHARGES


@<TRIPOS>ATOM
1 C 28.464 89.417 89.534 C 0.0 **** 0.0
2 H 28.526 89.824 90.544 H 0.0 **** 0.0
3 H 28.695 90.2 88.812 H 0.0 **** 0.0
4 H 27.455 89.043 89.356 H 0.0 **** 0.0
5 H 29.178 88.601 89.427 H 0.0 **** 0.0
@<TRIPOS>BOND
1 1 2 1
2 1 3 1
3 1 4 1
4 1 5 1
@<TRIPOS>MOLECULE
CH4
5 4
SMALL
USER_CHARGES


@<TRIPOS>ATOM
1 C 64.923 26.666 82.519 C 0.0 **** 0.0
2 H 64.789 26.696 81.438 H 0.0 **** 0.0
3 H 65.784 27.274 82.796 H 0.0 **** 0.0
4 H 65.088 25.636 82.835 H 0.0 **** 0.0
5 H 64.029 27.057 83.006 H 0.0 **** 0.0
@<TRIPOS>BOND
1 1 2 1
2 1 3 1
3 1 4 1
4 1 5 1
@<TRIPOS>MOLECULE
CH4
5 4
SMALL
USER_CHARGES


@<TRIPOS>ATOM
1 C 49.207 44.821 88.256 C 0.0 **** 0.0
2 H 50.02 44.576 88.939 H 0.0 **** 0.0
3 H 49.619 45.231 87.334 H 0.0 **** 0.0
4 H 48.551 45.557 88.72 H 0.0 **** 0.0
5 H 48.638 43.918 88.031 H 0.0 **** 0.0
@<TRIPOS>BOND
1 1 2 1
2 1 3 1
3 1 4 1
4 1 5 1
@<TRIPOS>MOLECULE
CH4
5 4
SMALL
USER_CHARGES


@<TRIPOS>ATOM
1 C 75.795 14.615 78.009 C 0.0 **** 0.0
2 H 75.795 13.772 78.7 H 0.0 **** 0.0
3 H 75.973 14.253 76.996 H 0.0 **** 0.0
4 H 76.582 15.314 78.29 H 0.0 **** 0.0
5 H 74.829 15.119 78.051 H 0.0 **** 0.0
@<TRIPOS>BOND
1 1 2 1
2 1 3 1
3 1 4 1
4 1 5 1
@<TRIPOS>MOLECULE
CH4
5 4
SMALL
USER_CHARGES


@<TRIPOS>ATOM
1 C 50.966 57.944 45.461 C 0.0 **** 0.0
2 H 50.349 57.819 44.571 H 0.0 **** 0.0
3 H 50.325 58.027 46.339 H 0.0 **** 0.0
4 H 51.567 58.848 45.362 H 0.0 **** 0.0
5 H 51.623 57.081 45.571 H 0.0 **** 0.0
@<TRIPOS>BOND
1 1 2 1
2 1 3 1
3 1 4 1
4 1 5 1
@<TRIPOS>MOLECULE
CH4
5 4
SMALL
USER_CHARGES


@<TRIPOS>ATOM
1 C 85.205 70.64 2.07 C 0.0 **** 0.0
2 H 85.446 70.88 3.105 H 0.0 **** 0.0
3 H 84.567 71.42 1.655 H 0.0 **** 0.0
4 H 84.683 69.684 2.031 H 0.0 **** 0.0
5 H 86.125 70.575 1.489 H 0.0 **** 0.0
@<TRIPOS>BOND
1 1 2 1
2 1 3 1
3 1 4 1
4 1 5 1
@<TRIPOS>MOLECULE
CH4
5 4
SMALL
USER_CHARGES


@<TRIPOS>ATOM
1 C 20.947 35.185 84.687 C 0.0 **** 0.0
2 H 21.026 34.75 83.691 H 0.0 **** 0.0
3 H 20.028 34.839 85.163 H 0.0 **** 0.0
4 H 20.928 36.272 84.608 H 0.0 **** 0.0
5 H 21.804 34.879 85.287 H 0.0 **** 0.0
@<TRIPOS>BOND
1 1 2 1
2 1 3 1
3 1 4 1
4 1 5 1
@<TRIPOS>MOLECULE
CH4
5 4
SMALL
USER_CHARGES


@<TRIPOS>ATOM
1 C 30.882 46.959 5.538 C 0.0 **** 0.0
2 H 31.385 47.212 4.605 H 0.0 **** 0.0
3 H 31.292 46.028 5.931 H 0.0 **** 0.0
4 H 29.815 46.837 5.354 H 0.0 **** 0.0
5 H 31.037 47.759 6.262 H 0.0 **** 0.0
@<TRIPOS>BOND
1 1 2 1
2 1 3 1
3 1 4 1
4 1 5 1
@<TRIPOS>MOLECULE
CH4
5 4
SMALL
USER_CHARGES


@<TRIPOS>ATOM
1 C 79.526 64.792 35.853 C 0.0 **** 0.0
2 H 80.101 64.381 36.682 H 0.0 **** 0.0
3 H 80.059 64.613 34.918 H 0.0 **** 0.0
4 H 79.395 65.864 35.997 H 0.0 **** 0.0
5 H 78.55 64.308 35.813 H 0.0 **** 0.0
@<TRIPOS>BOND
1 1 2 1
2 1 3 1
3 1 4 1
4 1 5 1
@<TRIPOS>MOLECULE
CH4
5 4
SMALL
USER_CHARGES


@<TRIPOS>ATOM
1 C 64.023 39.604 60.046 C 0.0 **** 0.0
2 H 63.932 39.621 61.132 H 0.0 **** 0.0
3 H 63.374 38.827 59.639 H 0.0 **** 0.0
4 H 65.057 39.395 59.771 H 0.0 **** 0.0
5 H 63.728 40.572 59.642 H 0.0 **** 0.0
@<TRIPOS>BOND
1 1 2 1
2 1 3 1
3 1 4 1
4 1 5 1
@<TRIPOS>MOLECULE
CH4
5 4
SMALL
USER_CHARGES


@<TRIPOS>ATOM
1 C 55.881 7.863 45.055 C 0.0 **** 0.0
2 H 56.604 7.054 45.163 H 0.0 **** 0.0
3 H 56.075 8.402 44.127 H 0.0 **** 0.0
4 H 55.974 8.547 45.899 H 0.0 **** 0.0
5 H 54.874 7.449 45.031 H 0.0 **** 0.0
@<TRIPOS>BOND
1 1 2 1
2 1 3 1
3 1 4 1
4 1 5 1
@<TRIPOS>MOLECULE
CH4
5 4
SMALL
USER_CHARGES


@<TRIPOS>ATOM
1 C 89.853 53.014 68.702 C 0.0 **** 0.0
2 H 89.847 52.032 69.176 H 0.0 **** 0.0
3 H 90.844 53.214 68.295 H 0.0 **** 0.0
4 H 89.602 53.775 69.441 H 0.0 **** 0.0
5 H 89.118 53.032 67.898 H 0.0 **** 0.0
@<TRIPOS>BOND
1 1 2 1
2 1 3 1
3 1 4 1
4 1 5 1
@<TRIPOS>MOLECULE
CH4
5 4
SMALL
USER_CHARGES


@<TRIPOS>ATOM
1 C 14.259 26.557 73.993 C 0.0 **** 0.0
2 H 13.293 26.873 74.387 H 0.0 **** 0.0
3 H 14.463 25.534 74.311 H 0.0 **** 0.0
4 H 15.039 27.218 74.371 H 0.0 **** 0.0
5 H 14.24 26.602 72.904 H 0.0 **** 0.0
@<TRIPOS>BOND
1 1 2 1
2 1 3 1
3 1 4 1
4 1 5 1
@<TRIPOS>MOLECULE
CH4
5 4
SMALL
USER_CHARGES


@<TRIPOS>ATOM
1 C 33.878 34.422 68.139 C 0.0 **** 0.0
2 H 33.551 34.596 67.114 H 0.0 **** 0.0
3 H 33.022 34.495 68.811 H 0.0 **** 0.0
4 H 34.621 35.17 68.415 H 0.0 **** 0.0
5 H 34.317 33.427 68.216 H 0.0 **** 0.0
@<TRIPOS>BOND
1 1 2 1
2 1 3 1
3 1 4 1
4 1 5 1
@<TRIPOS>MOLECULE
CH4
5 4
SMALL
USER_CHARGES


@<TRIPOS>ATOM
1 C 64.256 67.99 37.683 C 0.0 **** 0.0
2 H 63.904 67.512 36.768 H 0.0 **** 0.0
3 H 63.632 67.676 38.519 H 0.0 **** 0.0
4 H 64.199 69.072 37.572 H 0.0 **** 0.0
5 H 65.29 67.697 37.87 H 0.0 **** 0.0
@<TRIPOS>BOND
1 1 2 1
2 1 3 1
3 1 4 1
4 1 5 1
@<TRIPOS>MOLECULE
CH4
5 4
SMALL
USER_CHARGES


@<TRIPOS>ATOM
1 C 38.77 33.159 29.385 C 0.0 **** 0.0
2 H 38.871 33.086 30.468 H 0.0 **** 0.0
3 H 38.125 34.002 29.137 H 0.0 **** 0.0
4 H 38.332 32.239 28.998 H 0.0 **** 0.0
5 H 39.753 33.31 28.939 H 0.0 **** 0.0
@<TRIPOS>BOND
1 1 2 1
2 1 3 1
3 1 4 1
4 1 5 1
@<TRIPOS>MOLECULE
CH4
5 4
SMALL
USER_CHARGES


@<TRIPOS>ATOM
1 C 28.075 46.374 27.386 C 0.0 **** 0.0
2 H 28.455 46.081 26.408 H 0.0 **** 0.0
3 H 27.094 46.836 27.271 H 0.0 **** 0.0
4 H 28.761 47.087 27.844 H 0.0 **** 0.0
5 H 27.99 45.492 28.022 H 0.0 **** 0.0
@<TRIPOS>BOND
1 1 2 1
2 1 3 1
3 1 4 1
4 1 5 1
@<TRIPOS>MOLECULE
CH4
5 4
SMALL
USER_CHARGES


@<TRIPOS>ATOM
1 C 34.921 26.687 39.943 C 0.0 **** 0.0
2 H 34.726 27.28 40.836 H 0.0 **** 0.0
3 H 35.997 26.61 39.786 H 0.0 **** 0.0
4 H 34.46 27.167 39.08 H 0.0 **** 0.0
5 H 34.5 25.689 40.071 H 0.0 **** 0.0
@<TRIPOS>BOND
1 1 5 1
2 1 2 1
3 1 3 1
4 1 4 1
@<TRIPOS>MOLECULE
CH4
5 4
SMALL
USER_CHARGES


@<TRIPOS>ATOM
1 C 2.71 56.516 60.709 C 0.0 **** 0.0
2 H 3.254 56.16 61.585 H 0.0 **** 0.0
3 H 1.834 57.079 61.03 H 0.0 **** 0.0
4 H 2.395 55.665 60.106 H 0.0 **** 0.0
5 H 3.36 57.161 60.117 H 0.0 **** 0.0
@<TRIPOS>BOND
1 1 2 1
2 1 3 1
3 1 4 1
4 1 5 1
@<TRIPOS>MOLECULE
CH4
5 4
SMALL
USER_CHARGES


@<TRIPOS>ATOM
1 C 25.043 48.629 6.671 C 0.0 **** 0.0
2 H 24.666 47.977 7.458 H 0.0 **** 0.0
3 H 25.595 49.457 7.117 H 0.0 **** 0.0
4 H 24.207 49.02 6.091 H 0.0 **** 0.0
5 H 25.706 48.062 6.016 H 0.0 **** 0.0
@<TRIPOS>BOND
1 1 2 1
2 1 3 1
3 1 4 1
4 1 5 1
@<TRIPOS>MOLECULE
CH4
5 4
SMALL
USER_CHARGES


@<TRIPOS>ATOM
1 C 97.627 31.601 10.402 C 0.0 **** 0.0
2 H 97.234 32.504 10.869 H 0.0 **** 0.0
3 H 97.448 31.641 9.327 H 0.0 **** 0.0
4 H 97.127 30.729 10.822 H 0.0 **** 0.0
5 H 98.698 31.532 10.59 H 0.0 **** 0.0
@<TRIPOS>BOND
1 1 2 1
2 1 3 1
3 1 4 1
4 1 5 1
@<TRIPOS>MOLECULE
CH4
5 4
SMALL
USER_CHARGES


@<TRIPOS>ATOM
1 C 27.754 42.995 80.788 C 0.0 **** 0.0
2 H 26.874 42.458 80.437 H 0.0 **** 0.0
3 H 28.625 42.683 80.211 H 0.0 **** 0.0
4 H 27.918 42.773 81.843 H 0.0 **** 0.0
5 H 27.6 44.067 80.662 H 0.0 **** 0.0
@<TRIPOS>BOND
1 1 2 1
2 1 3 1
3 1 4 1
4 1 5 1
@<TRIPOS>MOLECULE
CH4
5 4
SMALL
USER_CHARGES


@<TRIPOS>ATOM
1 C 7.493 44.31 26.813 C 0.0 **** 0.0
2 H 6.831 44.416 27.672 H 0.0 **** 0.0
3 H 8.369 43.728 27.099 H 0.0 **** 0.0
4 H 7.807 45.297 26.472 H 0.0 **** 0.0
5 H 6.964 43.8 26.008 H 0.0 **** 0.0
@<TRIPOS>BOND
1 1 2 1
2 1 3 1
3 1 4 1
4 1 5 1
@<TRIPOS>MOLECULE
CH4
5 4
SMALL
USER_CHARGES


@<TRIPOS>ATOM
1 C 9.355 84.794 71.376 C 0.0 **** 0.0
2 H 8.274 84.673 71.294 H 0.0 **** 0.0
3 H 9.746 84.081 72.103 H 0.0 **** 0.0
4 H 9.583 85.808 71.703 H 0.0 **** 0.0
5 H 9.815 84.613 70.405 H 0.0 **** 0.0
@<TRIPOS>BOND
1 1 2 1
2 1 3 1
3 1 4 1
4 1 5 1
@<TRIPOS>MOLECULE
CH4
5 4
SMALL
USER_CHARGES


@<TRIPOS>ATOM
1 C 22.659 92.062 28.297 C 0.0 **** 0.0
2 H 22.906 91.072 27.912 H 0.0 **** 0.0
3 H 22.188 92.651 27.51 H 0.0 **** 0.0
4 H 23.57 92.56 28.629 H 0.0 **** 0.0
5 H 21.973 91.963 29.138 H 0.0 **** 0.0
@<TRIPOS>BOND
1 1 2 1
2 1 3 1
3 1 4 1
4 1 5 1
@<TRIPOS>MOLECULE
CH4
5 4
SMALL
USER_CHARGES


@<TRIPOS>ATOM
1 C 70.22 12.962 12.756 C 0.0 **** 0.0
2 H 70.064 11.889 12.866 H 0.0 **** 0.0
3 H 70.67 13.166 11.784 H 0.0 **** 0.0
4 H 70.884 13.315 13.546 H 0.0 **** 0.0
5 H 69.263 13.478 12.83 H 0.0 **** 0.0
@<TRIPOS>BOND
1 1 2 1
2 1 3 1
3 1 4 1
4 1 5 1
@<TRIPOS>MOLECULE
CH4
5 4
SMALL
USER_CHARGES


@<TRIPOS>ATOM
1 C 10.908 22.662 57.518 C 0.0 **** 0.0
2 H 10.775 22.591 56.439 H 0.0 **** 0.0
3 H 10.172 23.353 57.93 H 0.0 **** 0.0
4 H 11.911 23.027 57.738 H 0.0 **** 0.0
5 H 10.773 21.677 57.966 H 0.0 **** 0.0
@<TRIPOS>BOND
1 1 2 1
2 1 3 1
3 1 4 1
4 1 5 1
@<TRIPOS>MOLECULE
CH4
5 4
SMALL
USER_CHARGES


@<TRIPOS>ATOM
1 C 64.608 3.745 40.314 C 0.0 **** 0.0
2 H 63.954 3.386 39.519 H 0.0 **** 0.0
3 H 64.067 3.735 41.26 H 0.0 **** 0.0
4 H 64.927 4.763 40.089 H 0.0 **** 0.0
5 H 65.481 3.097 40.386 H 0.0 **** 0.0
@<TRIPOS>BOND
1 1 2 1
2 1 3 1
3 1 4 1
4 1 5 1
@<TRIPOS>MOLECULE
CH4
5 4
SMALL
USER_CHARGES


@<TRIPOS>ATOM
1 C 64.571 95.719 56.187 C 0.0 **** 0.0
2 H 64.745 95.719 57.263 H 0.0 **** 0.0
3 H 65.528 95.694 55.665 H 0.0 **** 0.0
4 H 64.028 96.622 55.908 H 0.0 **** 0.0
5 H 63.984 94.843 55.914 H 0.0 **** 0.0
@<TRIPOS>BOND
1 1 2 1
2 1 3 1
3 1 4 1
4 1 5 1
@<TRIPOS>MOLECULE
CH4
5 4
SMALL
USER_CHARGES


@<TRIPOS>ATOM
1 C 76.533 89.329 78.212 C 0.0 **** 0.0
2 H 76.73 89.187 79.275 H 0.0 **** 0.0
3 H 75.534 88.961 77.976 H 0.0 **** 0.0
4 H 77.271 88.777 77.63 H 0.0 **** 0.0
5 H 76.597 90.389 77.969 H 0.0 **** 0.0
@<TRIPOS>BOND
1 1 2 1
2 1 3 1
3 1 4 1
4 1 5 1
@<TRIPOS>MOLECULE
CH4
5 4
SMALL
USER_CHARGES


@<TRIPOS>ATOM
1 C 86.825 92.143 65.966 C 0.0 **** 0.0
2 H 86.563 91.113 66.208 H 0.0 **** 0.0
3 H 87.586 92.15 65.185 H 0.0 **** 0.0
4 H 87.213 92.638 66.857 H 0.0 **** 0.0
5 H 85.938 92.67 65.615 H 0.0 **** 0.0
@<TRIPOS>BOND
1 1 2 1
2 1 3 1
3 1 4 1
4 1 5 1
@<TRIPOS>MOLECULE
CH4
5 4
SMALL
USER_CHARGES


@<TRIPOS>ATOM
1 C 97.252 92.407 96.563 C 0.0 **** 0.0
2 H 96.381 92.372 95.909 H 0.0 **** 0.0
3 H 98.143 92.135 95.996 H 0.0 **** 0.0
4 H 97.117 91.705 97.386 H 0.0 **** 0.0
5 H 97.368 93.415 96.96 H 0.0 **** 0.0
@<TRIPOS>BOND
1 1 2 1
2 1 3 1
3 1 4 1
4 1 5 1
@<TRIPOS>MOLECULE
CH4
5 4
SMALL
USER_CHARGES


@<TRIPOS>ATOM
1 C 69.132 84.078 5.267 C 0.0 **** 0.0
2 H 68.361 83.386 4.927 H 0.0 **** 0.0
3 H 69.142 84.956 4.621 H 0.0 **** 0.0
4 H 70.104 83.586 5.228 H 0.0 **** 0.0
5 H 68.919 84.382 6.292 H 0.0 **** 0.0
@<TRIPOS>BOND
1 1 2 1
2 1 3 1
3 1 4 1
4 1 5 1
@<TRIPOS>MOLECULE
CH4
5 4
SMALL
USER_CHARGES


@<TRIPOS>ATOM
1 C 47.038 88.501 86.696 C 0.0 **** 0.0
2 H 47.014 88.014 85.721 H 0.0 **** 0.0
3 H 46.571 89.484 86.622 H 0.0 **** 0.0
4 H 48.073 88.614 87.02 H 0.0 **** 0.0
5 H 46.495 87.894 87.42 H 0.0 **** 0.0
@<TRIPOS>BOND
1 1 2 1
2 1 3 1
3 1 4 1
4 1 5 1
@<TRIPOS>MOLECULE
CH4
5 4
SMALL
USER_CHARGES


@<TRIPOS>ATOM
1 C 56.718 23.314 6.818 C 0.0 **** 0.0
2 H 56.385 24.238 6.344 H 0.0 **** 0.0
3 H 56.398 23.305 7.86 H 0.0 **** 0.0
4 H 57.806 23.255 6.772 H 0.0 **** 0.0
5 H 56.285 22.461 6.297 H 0.0 **** 0.0
@<TRIPOS>BOND
1 1 4 1
2 1 5 1
3 1 2 1
4 1 3 1
@<TRIPOS>MOLECULE
CH4
5 4
SMALL
USER_CHARGES


@<TRIPOS>ATOM
1 C 71.786 8.521 63.57 C 0.0 **** 0.0
2 H 71.685 8.673 64.645 H 0.0 **** 0.0
3 H 72.228 9.409 63.118 H 0.0 **** 0.0
4 H 70.803 8.342 63.135 H 0.0 **** 0.0
5 H 72.428 7.66 63.384 H 0.0 **** 0.0
@<TRIPOS>BOND
1 1 2 1
2 1 3 1
3 1 4 1
4 1 5 1
@<TRIPOS>MOLECULE
CH4
5 4
SMALL
USER_CHARGES


@<TRIPOS>ATOM
1 C 76.509 75.025 67.512 C 0.0 **** 0.0
2 H 75.588 75.018 66.929 H 0.0 **** 0.0
3 H 76.825 73.999 67.703 H 0.0 **** 0.0
4 H 76.334 75.534 68.46 H 0.0 **** 0.0
5 H 77.286 75.548 66.956 H 0.0 **** 0.0
@<TRIPOS>BOND
1 1 2 1
2 1 3 1
3 1 4 1
4 1 5 1
@<TRIPOS>MOLECULE
CH4
5 4
SMALL
USER_CHARGES


@<TRIPOS>ATOM
1 C 75.228 55.979 91.012 C 0.0 **** 0.0
2 H 74.703 56.271 91.921 H 0.0 **** 0.0
3 H 75.782 55.057 91.193 H 0.0 **** 0.0
4 H 75.921 56.769 90.722 H 0.0 **** 0.0
5 H 74.506 55.817 90.212 H 0.0 **** 0.0
@<TRIPOS>BOND
1 1 2 1
2 1 3 1
3 1 4 1
4 1 5 1
@<TRIPOS>MOLECULE
CH4
5 4
SMALL
USER_CHARGES


@<TRIPOS>ATOM
1 C 92.746 3.579 60.476 C 0.0 **** 0.0
2 H 92.761 3.609 61.565 H 0.0 **** 0.0
3 H 92.13 2.743 60.144 H 0.0 **** 0.0
4 H 93.762 3.454 60.102 H 0.0 **** 0.0
5 H 92.33 4.511 60.093 H 0.0 **** 0.0
@<TRIPOS>BOND
1 1 2 1
2 1 3 1
3 1 4 1
4 1 5 1
@<TRIPOS>MOLECULE
CH4
5 4
SMALL
USER_CHARGES


@<TRIPOS>ATOM
1 C 16.44 61.375 4.915 C 0.0 **** 0.0
2 H 16.592 61.31 3.838 H 0.0 **** 0.0
3 H 15.378 61.508 5.124 H 0.0 **** 0.0
4 H 16.998 62.225 5.309 H 0.0 **** 0.0
5 H 16.792 60.458 5.388 H 0.0 **** 0.0
@<TRIPOS>BOND
1 1 2 1
2 1 3 1
3 1 4 1
4 1 5 1
@<TRIPOS>MOLECULE
CH4
5 4
SMALL
USER_CHARGES


@<TRIPOS>ATOM
1 C 35.139 75.143 45.964 C 0.0 **** 0.0
2 H 34.872 76.179 46.172 H 0.0 **** 0.0
3 H 35.163 74.58 46.897 H 0.0 **** 0.0
4 H 36.121 75.109 45.493 H 0.0 **** 0.0
5 H 34.399 74.706 45.293 H 0.0 **** 0.0
@<TRIPOS>BOND
1 1 2 1
2 1 3 1
3 1 4 1
4 1 5 1
@<TRIPOS>MOLECULE
CH4
5 4
SMALL
USER_CHARGES


@<TRIPOS>ATOM
1 C 7.731 58.332 14.478 C 0.0 **** 0.0
2 H 8.446 59.068 14.846 H 0.0 **** 0.0
3 H 8.126 57.861 13.578 H 0.0 **** 0.0
4 H 6.787 58.825 14.248 H 0.0 **** 0.0
5 H 7.567 57.572 15.243 H 0.0 **** 0.0
@<TRIPOS>BOND
1 1 2 1
2 1 3 1
3 1 4 1
4 1 5 1
@<TRIPOS>MOLECULE
CH4
5 4
SMALL
USER_CHARGES


@<TRIPOS>ATOM
1 C 86.274 21.174 92.218 C 0.0 **** 0.0
2 H 87.099 20.53 91.914 H 0.0 **** 0.0
3 H 86.276 22.078 91.609 H 0.0 **** 0.0
4 H 86.39 21.442 93.268 H 0.0 **** 0.0
5 H 85.331 20.644 92.08 H 0.0 **** 0.0
@<TRIPOS>BOND
1 1 2 1
2 1 3 1
3 1 4 1
4 1 5 1
@<TRIPOS>MOLECULE
CH4
5 4
SMALL
USER_CHARGES


@<TRIPOS>ATOM
1 C 78.465 16.723 3.53 C 0.0 **** 0.0
2 H 79.317 16.796 4.207 H 0.0 **** 0.0
3 H 78.505 17.538 2.807 H 0.0 **** 0.0
4 H 77.54 16.788 4.102 H 0.0 **** 0.0
5 H 78.501 15.768 3.004 H 0.0 **** 0.0
@<TRIPOS>BOND
1 1 2 1
2 1 3 1
3 1 4 1
4 1 5 1
@<TRIPOS>MOLECULE
CH4
5 4
SMALL
USER_CHARGES


@<TRIPOS>ATOM
1 C 95.356 11.913 48.89 C 0.0 **** 0.0
2 H 96.071 11.233 49.354 H 0.0 **** 0.0
3 H 94.555 11.337 48.427 H 0.0 **** 0.0
4 H 95.863 12.508 48.13 H 0.0 **** 0.0
5 H 94.938 12.573 49.65 H 0.0 **** 0.0
@<TRIPOS>BOND
1 1 2 1
2 1 3 1
3 1 4 1
4 1 5 1
@<TRIPOS>MOLECULE
CH4
5 4
SMALL
USER_CHARGES


@<TRIPOS>ATOM
1 C 41.588 54.498 16.351 C 0.0 **** 0.0
2 H 40.835 55.179 16.747 H 0.0 **** 0.0
3 H 41.85 53.763 17.113 H 0.0 **** 0.0
4 H 42.476 55.063 16.069 H 0.0 **** 0.0
5 H 41.19 53.986 15.474 H 0.0 **** 0.0
@<TRIPOS>BOND
1 1 2 1
2 1 3 1
3 1 4 1
4 1 5 1
@<TRIPOS>MOLECULE
CH4
5 4
SMALL
USER_CHARGES


@<TRIPOS>ATOM
1 C 50.964 75.707 77.826 C 0.0 **** 0.0
2 H 51.617 75.923 78.672 H 0.0 **** 0.0
3 H 51.29 74.786 77.342 H 0.0 **** 0.0
4 H 51.01 76.53 77.113 H 0.0 **** 0.0
5 H 49.94 75.589 78.18 H 0.0 **** 0.0
@<TRIPOS>BOND
1 1 2 1
2 1 3 1
3 1 4 1
4 1 5 1
@<TRIPOS>MOLECULE
CH4
5 4
SMALL
USER_CHARGES


@<TRIPOS>ATOM
1 C 51.458 82.531 50.747 C 0.0 **** 0.0
2 H 51.667 82.419 51.811 H 0.0 **** 0.0
3 H 52.074 83.332 50.338 H 0.0 **** 0.0
4 H 50.405 82.774 50.606 H 0.0 **** 0.0
5 H 51.687 81.597 50.232 H 0.0 **** 0.0
@<TRIPOS>BOND
1 1 2 1
2 1 3 1
3 1 4 1
4 1 5 1
@<TRIPOS>MOLECULE
CH4
5 4
SMALL
USER_CHARGES


@<TRIPOS>ATOM
1 C 38.087 40.702 36.817 C 0.0 **** 0.0
2 H 38.123 41.505 37.554 H 0.0 **** 0.0
3 H 37.106 40.227 36.845 H 0.0 **** 0.0
4 H 38.855 39.964 37.046 H 0.0 **** 0.0
5 H 38.263 41.114 35.823 H 0.0 **** 0.0
@<TRIPOS>BOND
1 1 2 1
2 1 3 1
3 1 4 1
4 1 5 1
@<TRIPOS>MOLECULE
CH4
5 4
SMALL
USER_CHARGES


@<TRIPOS>ATOM
1 C 11.181 91.398 91.534 C 0.0 **** 0.0
2 H 10.158 91.741 91.688 H 0.0 **** 0.0
3 H 11.866 92.241 91.636 H 0.0 **** 0.0
4 H 11.275 90.972 90.535 H 0.0 **** 0.0
5 H 11.426 90.64 92.277 H 0.0 **** 0.0
@<TRIPOS>BOND
1 1 2 1
2 1 3 1
3 1 4 1
4 1 5 1
@<TRIPOS>MOLECULE
CH4
5 4
SMALL
USER_CHARGES


@<TRIPOS>ATOM
1 C 78.423 4.696 40.396 C 0.0 **** 0.0
2 H 79.468 4.595 40.104 H 0.0 **** 0.0
3 H 78.259 5.685 40.823 H 0.0 **** 0.0
4 H 78.177 3.935 41.137 H 0.0 **** 0.0
5 H 77.788 4.568 39.519 H 0.0 **** 0.0
@<TRIPOS>BOND
1 1 2 1
2 1 3 1
3 1 4 1
4 1 5 1
@<TRIPOS>MOLECULE
CH4
5 4
SMALL
USER_CHARGES


@<TRIPOS>ATOM
1 C 77.615 19.849 75.927 C 0.0 **** 0.0
2 H 77.356 18.795 75.828 H 0.0 **** 0.0
3 H 78.113 20.188 75.019 H 0.0 **** 0.0
4 H 78.283 19.98 76.779 H 0.0 **** 0.0
5 H 76.708 20.432 76.084 H 0.0 **** 0.0
@<TRIPOS>BOND
1 1 3 1
2 1 4 1
3 1 5 1
4 1 2 1
@<TRIPOS>MOLECULE
CH4
5 4
SMALL
USER_CHARGES


@<TRIPOS>ATOM
1 C 30.788 61.314 13.546 C 0.0 **** 0.0
2 H 31.49 61.762 14.249 H 0.0 **** 0.0
3 H 30.379 62.089 12.898 H 0.0 **** 0.0
4 H 29.978 60.835 14.097 H 0.0 **** 0.0
5 H 31.306 60.569 12.941 H 0.0 **** 0.0
@<TRIPOS>BOND
1 1 2 1
2 1 3 1
3 1 4 1
4 1 5 1
@<TRIPOS>MOLECULE
CH4
5 4
SMALL
USER_CHARGES


@<TRIPOS>ATOM
1 C 43.372 13.012 25.822 C 0.0 **** 0.0
2 H 43.559 14.038 26.139 H 0.0 **** 0.0
3 H 43.856 12.323 26.515 H 0.0 **** 0.0
4 H 43.775 12.863 24.82 H 0.0 **** 0.0
5 H 42.298 12.825 25.813 H 0.0 **** 0.0
@<TRIPOS>BOND
1 1 2 1
2 1 3 1
3 1 4 1
4 1 5 1
@<TRIPOS>MOLECULE
CH4
5 4
SMALL
USER_CHARGES


@<TRIPOS>ATOM
1 C 45.322 89.314 37.433 C 0.0 **** 0.0
2 H 45.619 88.665 38.257 H 0.0 **** 0.0
3 H 45.899 89.058 36.544 H 0.0 **** 0.0
4 H 45.511 90.353 37.703 H 0.0 **** 0.0
5 H 44.26 89.178 37.228 H 0.0 **** 0.0
@<TRIPOS>BOND
1 1 2 1
2 1 3 1
3 1 4 1
4 1 5 1
@<TRIPOS>MOLECULE
CH4
5 4
SMALL
USER_CHARGES


@<TRIPOS>ATOM
1 C 72.263 72.227 58.644 C 0.0 **** 0.0
2 H 72.462 72.293 59.713 H 0.0 **** 0.0
3 H 73.014 71.593 58.173 H 0.0 **** 0.0
4 H 72.302 73.225 58.205 H 0.0 **** 0.0
5 H 71.273 71.799 58.484 H 0.0 **** 0.0
@<TRIPOS>BOND
1 1 2 1
2 1 3 1
3 1 4 1
4 1 5 1
@<TRIPOS>MOLECULE
CH4
5 4
SMALL
USER_CHARGES


@<TRIPOS>ATOM
1 C 22.891 59.931 8.295 C 0.0 **** 0.0
2 H 23.095 59.588 7.281 H 0.0 **** 0.0
3 H 22.119 60.701 8.27 H 0.0 **** 0.0
4 H 23.802 60.344 8.728 H 0.0 **** 0.0
5 H 22.549 59.092 8.901 H 0.0 **** 0.0
@<TRIPOS>BOND
1 1 2 1
2 1 3 1
3 1 4 1
4 1 5 1
@<TRIPOS>MOLECULE
CH4
5 4
SMALL
USER_CHARGES


@<TRIPOS>ATOM
1 C 56.108 10.78 7.639 C 0.0 **** 0.0
2 H 55.834 10.528 6.614 H 0.0 **** 0.0
3 H 55.87 11.826 7.831 H 0.0 **** 0.0
4 H 57.176 10.617 7.779 H 0.0 **** 0.0
5 H 55.55 10.147 8.329 H 0.0 **** 0.0
@<TRIPOS>BOND
1 1 2 1
2 1 3 1
3 1 4 1
4 1 5 1
@<TRIPOS>MOLECULE
CH4
5 4
SMALL
USER_CHARGES


@<TRIPOS>ATOM
1 C 27.857 7.271 93.202 C 0.0 **** 0.0
2 H 27.325 8.138 93.594 H 0.0 **** 0.0
3 H 28.154 7.463 92.171 H 0.0 **** 0.0
4 H 27.205 6.398 93.237 H 0.0 **** 0.0
5 H 28.745 7.086 93.807 H 0.0 **** 0.0
@<TRIPOS>BOND
1 1 2 1
2 1 3 1
3 1 4 1
4 1 5 1
@<TRIPOS>MOLECULE
CH4
5 4
SMALL
USER_CHARGES


@<TRIPOS>ATOM
1 C 35.546 23.251 23.205 C 0.0 **** 0.0
2 H 36.094 22.338 22.972 H 0.0 **** 0.0
3 H 35.879 23.639 24.167 H 0.0 **** 0.0
4 H 34.479 23.033 23.25 H 0.0 **** 0.0
5 H 35.732 23.994 22.429 H 0.0 **** 0.0
@<TRIPOS>BOND
1 1 2 1
2 1 3 1
3 1 4 1
4 1 5 1
@<TRIPOS>MOLECULE
CH4
5 4
SMALL
USER_CHARGES


@<TRIPOS>ATOM
1 C 16.731 14.516 87.764 C 0.0 **** 0.0
2 H 16.725 14.963 88.758 H 0.0 **** 0.0
3 H 16.325 15.226 87.043 H 0.0 **** 0.0
4 H 16.12 13.613 87.768 H 0.0 **** 0.0
5 H 17.754 14.261 87.487 H 0.0 **** 0.0
@<TRIPOS>BOND
1 1 2 1
2 1 3 1
3 1 4 1
4 1 5 1
@<TRIPOS>MOLECULE
CH4
5 4
SMALL
USER_CHARGES


@<TRIPOS>ATOM
1 C 3.133 85.495 33.714 C 0.0 **** 0.0
2 H 3.248 86.033 34.655 H 0.0 **** 0.0
3 H 2.111 85.124 33.632 H 0.0 **** 0.0
4 H 3.828 84.656 33.688 H 0.0 **** 0.0
5 H 3.343 86.168 32.882 H 0.0 **** 0.0
@<TRIPOS>BOND
1 1 2 1
2 1 3 1
3 1 4 1
4 1 5 1
@<TRIPOS>MOLECULE
CH4
5 4
SMALL
USER_CHARGES


@<TRIPOS>ATOM
1 C 95.752 37.703 77.348 C 0.0 **** 0.0
2 H 95.725 37.462 76.285 H 0.0 **** 0.0
3 H 95.626 36.79 77.93 H 0.0 **** 0.0
4 H 94.946 38.399 77.583 H 0.0 **** 0.0
5 H 96.71 38.161 77.592 H 0.0 **** 0.0
@<TRIPOS>BOND
1 1 2 1
2 1 3 1
3 1 4 1
4 1 5 1
@<TRIPOS>MOLECULE
CH4
5 4
SMALL
USER_CHARGES


@<TRIPOS>ATOM
1 C 30.098 1.198 67.632 C 0.0 **** 0.0
2 H 30.592 1.878 66.937 H 0.0 **** 0.0
3 H 30.786 0.938 68.437 H 0.0 **** 0.0
4 H 29.798 0.293 67.103 H 0.0 **** 0.0
5 H 29.217 1.684 68.05 H 0.0 **** 0.0
@<TRIPOS>BOND
1 1 2 1
2 1 3 1
3 1 4 1
4 1 5 1
@<TRIPOS>MOLECULE
CH4
5 4
SMALL
USER_CHARGES


@<TRIPOS>ATOM
1 C 96.659 62.542 49.222 C 0.0 **** 0.0
2 H 97.197 63.27 48.614 H 0.0 **** 0.0
3 H 96.067 63.064 49.974 H 0.0 **** 0.0
4 H 97.373 61.882 49.714 H 0.0 **** 0.0
5 H 95.999 61.953 48.584 H 0.0 **** 0.0
@<TRIPOS>BOND
1 1 2 1
2 1 3 1
3 1 4 1
4 1 5 1
@<TRIPOS>MOLECULE
CH4
5 4
SMALL
USER_CHARGES


@<TRIPOS>ATOM
1 C 9.231 62.4 28.345 C 0.0 **** 0.0
2 H 9.08 63.334 27.804 H 0.0 **** 0.0
3 H 10.127 61.904 27.971 H 0.0 **** 0.0
4 H 8.368 61.752 28.198 H 0.0 **** 0.0
5 H 9.35 62.611 29.408 H 0.0 **** 0.0
@<TRIPOS>BOND
1 1 2 1
2 1 3 1
3 1 4 1
4 1 5 1
@<TRIPOS>MOLECULE
CH4
5 4
SMALL
USER_CHARGES


@<TRIPOS>ATOM
1 C 85.573 49.153 94.153 C 0.0 **** 0.0
2 H 86.347 48.967 94.898 H 0.0 **** 0.0
3 H 84.666 49.497 94.65 H 0.0 **** 0.0
4 H 85.364 48.232 93.61 H 0.0 **** 0.0
5 H 85.918 49.916 93.455 H 0.0 **** 0.0
@<TRIPOS>BOND
1 1 2 1
2 1 3 1
3 1 4 1
4 1 5 1
@<TRIPOS>MOLECULE
CH4
5 4
SMALL
USER_CHARGES


@<TRIPOS>ATOM
1 C 42.324 62.197 9.541 C 0.0 **** 0.0
2 H 41.638 61.855 8.766 H 0.0 **** 0.0
3 H 42.049 63.205 9.851 H 0.0 **** 0.0
4 H 43.341 62.201 9.15 H 0.0 **** 0.0
5 H 42.268 61.525 10.398 H 0.0 **** 0.0
@<TRIPOS>BOND
1 1 2 1
2 1 3 1
3 1 4 1
4 1 5 1
@<TRIPOS>MOLECULE
CH4
5 4
SMALL
USER_CHARGES


@<TRIPOS>ATOM
1 C 48.867 67.28 56.154 C 0.0 **** 0.0
2 H 49.769 67.218 56.763 H 0.0 **** 0.0
3 H 47.995 67.351 56.803 H 0.0 **** 0.0
4 H 48.787 66.388 55.532 H 0.0 **** 0.0
5 H 48.92 68.163 55.517 H 0.0 **** 0.0
@<TRIPOS>BOND
1 1 2 1
2 1 3 1
3 1 4 1
4 1 5 1
@<TRIPOS>MOLECULE
CH4
5 4
SMALL
USER_CHARGES


@<TRIPOS>ATOM
1 C 4.766 92.144 13.846 C 0.0 **** 0.0
2 H 4.276 93.057 13.506 H 0.0 **** 0.0
3 H 5.758 92.387 14.23 H 0.0 **** 0.0
4 H 4.86 91.45 13.011 H 0.0 **** 0.0
5 H 4.173 91.685 14.636 H 0.0 **** 0.0
@<TRIPOS>BOND
1 1 2 1
2 1 3 1
3 1 4 1
4 1 5 1
@<TRIPOS>MOLECULE
CH4
5 4
SMALL
USER_CHARGES


@<TRIPOS>ATOM
1 C 14.087 53.622 49.612 C 0.0 **** 0.0
2 H 14.824 52.833 49.466 H 0.0 **** 0.0
3 H 14.382 54.504 49.043 H 0.0 **** 0.0
4 H 14.029 53.874 50.671 H 0.0 **** 0.0
5 H 13.112 53.277 49.267 H 0.0 **** 0.0
@<TRIPOS>BOND
1 1 2 1
2 1 3 1
3 1 4 1
4 1 5 1
@<TRIPOS>MOLECULE
CH4
5 4
SMALL
USER_CHARGES


@<TRIPOS>ATOM
1 C 69.086 4.127 9.184 C 0.0 **** 0.0
2 H 69.591 3.528 8.427 H 0.0 **** 0.0
3 H 69.116 5.178 8.895 H 0.0 **** 0.0
4 H 69.587 3.999 10.143 H 0.0 **** 0.0
5 H 68.048 3.803 9.27 H 0.0 **** 0.0
@<TRIPOS>BOND
1 1 2 1
2 1 3 1
3 1 4 1
4 1 5 1
@<TRIPOS>MOLECULE
CH4
5 4
SMALL
USER_CHARGES


@<TRIPOS>ATOM
1 C 81.422 22.049 40.801 C 0.0 **** 0.0
2 H 80.386 22.024 41.14 H 0.0 **** 0.0
3 H 81.479 21.668 39.781 H 0.0 **** 0.0
4 H 82.034 21.429 41.456 H 0.0 **** 0.0
5 H 81.787 23.076 40.826 H 0.0 **** 0.0
@<TRIPOS>BOND
1 1 2 1
2 1 3 1
3 1 4 1
4 1 5 1
@<TRIPOS>MOLECULE
CH4
5 4
SMALL
USER_CHARGES


@<TRIPOS>ATOM
1 C 63.556 74.822 40.623 C 0.0 **** 0.0
2 H 63.567 74.804 39.533 H 0.0 **** 0.0
3 H 64.573 74.708 40.998 H 0.0 **** 0.0
4 H 62.938 74.003 40.993 H 0.0 **** 0.0
5 H 63.145 75.771 40.966 H 0.0 **** 0.0
@<TRIPOS>BOND
1 1 2 1
2 1 3 1
3 1 4 1
4 1 5 1
@<TRIPOS>MOLECULE
CH4
5 4
SMALL
USER_CHARGES


@<TRIPOS>ATOM
1 C 59.293 17.362 84.591 C 0.0 **** 0.0
2 H 58.216 17.482 84.476 H 0.0 **** 0.0
3 H 59.507 16.373 84.997 H 0.0 **** 0.0
4 H 59.673 18.125 85.271 H 0.0 **** 0.0
5 H 59.776 17.469 83.619 H 0.0 **** 0.0
@<TRIPOS>BOND
1 1 2 1
2 1 3 1
3 1 4 1
4 1 5 1
@<TRIPOS>MOLECULE
CH4
5 4
SMALL
USER_CHARGES


@<TRIPOS>ATOM
1 C 94.477 4.019 36.234 C 0.0 **** 0.0
2 H 93.484 3.582 36.123 H 0.0 **** 0.0
3 H 94.425 5.091 36.046 H 0.0 **** 0.0
4 H 95.158 3.557 35.52 H 0.0 **** 0.0
5 H 94.839 3.844 37.247 H 0.0 **** 0.0
@<TRIPOS>BOND
1 1 2 1
2 1 3 1
3 1 4 1
4 1 5 1
@<TRIPOS>MOLECULE
CH4
5 4
SMALL
USER_CHARGES


@<TRIPOS>ATOM
1 C 69.474 3.945 37.053 C 0.0 **** 0.0
2 H 69.094 3.416 36.179 H 0.0 **** 0.0
3 H 69.153 4.987 37.014 H 0.0 **** 0.0
4 H 70.563 3.9 37.06 H 0.0 **** 0.0
5 H 69.085 3.478 37.957 H 0.0 **** 0.0
@<TRIPOS>BOND
1 1 2 1
2 1 3 1
3 1 4 1
4 1 5 1
@<TRIPOS>MOLECULE
CH4
5 4
SMALL
USER_CHARGES


@<TRIPOS>ATOM
1 C 77.021 58.269 83.12 C 0.0 **** 0.0
2 H 77.79 57.512 83.272 H 0.0 **** 0.0
3 H 76.624 58.185 82.108 H 0.0 **** 0.0
4 H 77.455 59.259 83.259 H 0.0 **** 0.0
5 H 76.217 58.119 83.84 H 0.0 **** 0.0
@<TRIPOS>BOND
1 1 2 1
2 1 3 1
3 1 4 1
4 1 5 1
@<TRIPOS>MOLECULE
CH4
5 4
SMALL
USER_CHARGES


@<TRIPOS>ATOM
1 C 21.428 91.075 25.718 C 0.0 **** 0.0
2 H 21.248 92.092 25.369 H 0.0 **** 0.0
3 H 20.941 90.369 25.044 H 0.0 **** 0.0
4 H 21.022 90.958 26.723 H 0.0 **** 0.0
5 H 22.5 90.881 25.734 H 0.0 **** 0.0
@<TRIPOS>BOND
1 1 2 1
2 1 3 1
3 1 4 1
4 1 5 1
@<TRIPOS>MOLECULE
CH4
5 4
SMALL
USER_CHARGES


@<TRIPOS>ATOM
1 C 25.579 23.051 79.993 C 0.0 **** 0.0
2 H 25.571 22.561 80.967 H 0.0 **** 0.0
3 H 24.94 22.498 79.304 H 0.0 **** 0.0
4 H 26.598 23.073 79.606 H 0.0 **** 0.0
5 H 25.207 24.07 80.096 H 0.0 **** 0.0
@<TRIPOS>BOND
1 1 2 1
2 1 3 1
3 1 4 1
4 1 5 1
@<TRIPOS>MOLECULE
CH4
5 4
SMALL
USER_CHARGES


@<TRIPOS>ATOM
1 C 93.288 93.785 84.959 C 0.0 **** 0.0
2 H 93.218 93.985 86.029 H 0.0 **** 0.0
3 H 92.36 94.086 84.472 H 0.0 **** 0.0
4 H 93.453 92.719 84.799 H 0.0 **** 0.0
5 H 94.12 94.349 84.539 H 0.0 **** 0.0
@<TRIPOS>BOND
1 1 2 1
2 1 3 1
3 1 4 1
4 1 5 1
@<TRIPOS>MOLECULE
CH4
5 4
SMALL
USER_CHARGES


@<TRIPOS>ATOM
1 C 57.856 92.847 25.944 C 0.0 **** 0.0
2 H 58.113 93.905 25.998 H 0.0 **** 0.0
3 H 57.458 92.52 26.905 H 0.0 **** 0.0
4 H 58.748 92.269 25.704 H 0.0 **** 0.0
5 H 57.105 92.695 25.169 H 0.0 **** 0.0
@<TRIPOS>BOND
1 1 2 1
2 1 3 1
3 1 4 1
4 1 5 1
@<TRIPOS>MOLECULE
CH4
5 4
SMALL
USER_CHARGES


@<TRIPOS>ATOM
1 C 59.376 56.654 26.898 C 0.0 **** 0.0
2 H 59.79 57.163 27.768 H 0.0 **** 0.0
3 H 59.959 56.912 26.014 H 0.0 **** 0.0
4 H 58.341 56.964 26.754 H 0.0 **** 0.0
5 H 59.413 55.576 27.056 H 0.0 **** 0.0
@<TRIPOS>BOND
1 1 2 1
2 1 3 1
3 1 4 1
4 1 5 1
@<TRIPOS>MOLECULE
CH4
5 4
SMALL
USER_CHARGES


@<TRIPOS>ATOM
1 C 58.575 85.174 57.518 C 0.0 **** 0.0
2 H 58.776 84.356 58.21 H 0.0 **** 0.0
3 H 59.194 86.032 57.781 H 0.0 **** 0.0
4 H 57.523 85.452 57.582 H 0.0 **** 0.0
5 H 58.806 84.855 56.502 H 0.0 **** 0.0
@<TRIPOS>BOND
1 1 2 1
2 1 3 1
3 1 4 1
4 1 5 1
@<TRIPOS>MOLECULE
CH4
5 4
SMALL
USER_CHARGES


@<TRIPOS>ATOM
1 C 38.434 49.606 15.73 C 0.0 **** 0.0
2 H 38.887 50.053 16.615 H 0.0 **** 0.0
3 H 38.891 50.029 14.835 H 0.0 **** 0.0
4 H 37.364 49.815 15.725 H 0.0 **** 0.0
5 H 38.594 48.528 15.745 H 0.0 **** 0.0
@<TRIPOS>BOND
1 1 2 1
2 1 3 1
3 1 4 1
4 1 5 1
@<TRIPOS>MOLECULE
CH4
5 4
SMALL
USER_CHARGES


@<TRIPOS>ATOM
1 C 57.009 20.542 78.2 C 0.0 **** 0.0
2 H 56.414 19.628 78.196 H 0.0 **** 0.0
3 H 58.064 20.288 78.098 H 0.0 **** 0.0
4 H 56.852 21.073 79.139 H 0.0 **** 0.0
5 H 56.705 21.177 77.369 H 0.0 **** 0.0
@<TRIPOS>BOND
1 1 2 1
2 1 3 1
3 1 4 1
4 1 5 1
@<TRIPOS>MOLECULE
CH4
5 4
SMALL
USER_CHARGES


@<TRIPOS>ATOM
1 C 92.045 47.641 90.277 C 0.0 **** 0.0
2 H 91.176 47.155 90.72 H 0.0 **** 0.0
3 H 91.883 47.77 89.207 H 0.0 **** 0.0
4 H 92.929 47.023 90.44 H 0.0 **** 0.0
5 H 92.193 48.615 90.743 H 0.0 **** 0.0
@<TRIPOS>BOND
1 1 2 1
2 1 3 1
3 1 4 1
4 1 5 1
@<TRIPOS>MOLECULE
CH4
5 4
SMALL
USER_CHARGES


@<TRIPOS>ATOM
1 C 11.375 83.02 60.202 C 0.0 **** 0.0
2 H 10.848 82.154 60.603 H 0.0 **** 0.0
3 H 11.977 83.475 60.989 H 0.0 **** 0.0
4 H 10.651 83.746 59.832 H 0.0 **** 0.0
5 H 12.023 82.705 59.385 H 0.0 **** 0.0
@<TRIPOS>BOND
1 1 2 1
2 1 3 1
3 1 4 1
4 1 5 1
@<TRIPOS>MOLECULE
CH4
5 4
SMALL
USER_CHARGES


@<TRIPOS>ATOM
1 C 28.805 24.311 47.808 C 0.0 **** 0.0
2 H 28.424 23.91 46.868 H 0.0 **** 0.0
3 H 29.645 23.704 48.147 H 0.0 **** 0.0
4 H 28.015 24.291 48.558 H 0.0 **** 0.0
5 H 29.137 25.338 47.656 H 0.0 **** 0.0
@<TRIPOS>BOND
1 1 2 1
2 1 3 1
3 1 4 1
4 1 5 1
@<TRIPOS>MOLECULE
CH4
5 4
SMALL
USER_CHARGES


@<TRIPOS>ATOM
1 C 23.765 14.783 14.251 C 0.0 **** 0.0
2 H 23.685 15.852 14.448 H 0.0 **** 0.0
3 H 22.77 14.369 14.088 H 0.0 **** 0.0
4 H 24.228 14.29 15.106 H 0.0 **** 0.0
5 H 24.376 14.622 13.363 H 0.0 **** 0.0
@<TRIPOS>BOND
1 1 2 1
2 1 3 1
3 1 4 1
4 1 5 1
@<TRIPOS>MOLECULE
CH4
5 4
SMALL
USER_CHARGES


@<TRIPOS>ATOM
1 C 47.473 26.081 41.553 C 0.0 **** 0.0
2 H 47.189 25.051 41.335 H 0.0 **** 0.0
3 H 48.557 26.148 41.645 H 0.0 **** 0.0
4 H 47.008 26.395 42.488 H 0.0 **** 0.0
5 H 47.136 26.729 40.744 H 0.0 **** 0.0
@<TRIPOS>BOND
1 1 2 1
2 1 3 1
3 1 4 1
4 1 5 1
@<TRIPOS>MOLECULE
CH4
5 4
SMALL
USER_CHARGES


@<TRIPOS>ATOM
1 C 30.677 85.911 32.984 C 0.0 **** 0.0
2 H 29.973 86.743 33.02 H 0.0 **** 0.0
3 H 30.885 85.657 31.944 H 0.0 **** 0.0
4 H 30.245 85.048 33.49 H 0.0 **** 0.0
5 H 31.604 86.198 33.481 H 0.0 **** 0.0
@<TRIPOS>BOND
1 1 2 1
2 1 3 1
3 1 4 1
4 1 5 1
@<TRIPOS>MOLECULE
CH4
5 4
SMALL
USER_CHARGES


@<TRIPOS>ATOM
1 C 2.316 30.326 52.777 C 0.0 **** 0.0
2 H 1.772 30.161 51.847 H 0.0 **** 0.0
3 H 3.177 29.659 52.817 H 0.0 **** 0.0
4 H 1.658 30.122 53.623 H 0.0 **** 0.0
5 H 2.654 31.361 52.822 H 0.0 **** 0.0
@<TRIPOS>BOND
1 1 2 1
2 1 3 1
3 1 4 1
4 1 5 1
@<TRIPOS>MOLECULE
CH4
5 4
SMALL
USER_CHARGES


@<TRIPOS>ATOM
1 C 51.867 58.148 10.867 C 0.0 **** 0.0
2 H 52.285 58.108 9.86 H 0.0 **** 0.0
3 H 50.865 58.575 10.827 H 0.0 **** 0.0
4 H 52.503 58.768 11.499 H 0.0 **** 0.0
5 H 51.818 57.14 11.279 H 0.0 **** 0.0
@<TRIPOS>BOND
1 1 2 1
2 1 3 1
3 1 4 1
4 1 5 1
@<TRIPOS>MOLECULE
CH4
5 4
SMALL
USER_CHARGES


@<TRIPOS>ATOM
1 C 16.006 89.373 62.9 C 0.0 **** 0.0
2 H 15.324 88.766 63.496 H 0.0 **** 0.0
3 H 15.995 89.022 61.867 H 0.0 **** 0.0
4 H 17.015 89.288 63.303 H 0.0 **** 0.0
5 H 15.687 90.415 62.933 H 0.0 **** 0.0
@<TRIPOS>BOND
1 1 2 1
2 1 3 1
3 1 4 1
4 1 5 1
@<TRIPOS>MOLECULE
CH4
5 4
SMALL
USER_CHARGES


@<TRIPOS>ATOM
1 C 20.336 13.505 67.942 C 0.0 **** 0.0
2 H 20.687 13.115 66.987 H 0.0 **** 0.0
3 H 21.17 13.959 68.478 H 0.0 **** 0.0
4 H 19.921 12.692 68.537 H 0.0 **** 0.0
5 H 19.565 14.256 67.766 H 0.0 **** 0.0
@<TRIPOS>BOND
1 1 2 1
2 1 3 1
3 1 4 1
4 1 5 1
@<TRIPOS>MOLECULE
CH4
5 4
SMALL
USER_CHARGES


@<TRIPOS>ATOM
1 C 87.16 60.128 55.545 C 0.0 **** 0.0
2 H 87.1 60.189 56.632 H 0.0 **** 0.0
3 H 87.252 61.132 55.13 H 0.0 **** 0.0
4 H 86.258 59.654 55.158 H 0.0 **** 0.0
5 H 88.031 59.537 55.263 H 0.0 **** 0.0
@<TRIPOS>BOND
1 1 2 1
2 1 3 1
3 1 4 1
4 1 5 1
@<TRIPOS>MOLECULE
CH4
5 4
SMALL
USER_CHARGES


@<TRIPOS>ATOM
1 C 71.442 17.356 2.431 C 0.0 **** 0.0
2 H 71.349 17.394 1.345 H 0.0 **** 0.0
3 H 71.432 18.369 2.832 H 0.0 **** 0.0
4 H 72.379 16.868 2.698 H 0.0 **** 0.0
5 H 70.607 16.791 2.847 H 0.0 **** 0.0
@<TRIPOS>BOND
1 1 2 1
2 1 3 1
3 1 4 1
4 1 5 1
@<TRIPOS>MOLECULE
CH4
5 4
SMALL
USER_CHARGES


@<TRIPOS>ATOM
1 C 72.239 89.371 12.091 C 0.0 **** 0.0
2 H 71.998 88.725 12.936 H 0.0 **** 0.0
3 H 71.318 89.682 11.598 H 0.0 **** 0.0
4 H 72.864 88.826 11.384 H 0.0 **** 0.0
5 H 72.775 90.25 12.448 H 0.0 **** 0.0
@<TRIPOS>BOND
1 1 2 1
2 1 3 1
3 1 4 1
4 1 5 1
@<TRIPOS>MOLECULE
CH4
5 4
SMALL
USER_CHARGES


@<TRIPOS>ATOM
1 C 47.515 81.738 1.695 C 0.0 **** 0.0
2 H 47.228 81.801 2.745 H 0.0 **** 0.0
3 H 47.673 82.742 1.301 H 0.0 **** 0.0
4 H 46.723 81.246 1.131 H 0.0 **** 0.0
5 H 48.437 81.163 1.605 H 0.0 **** 0.0
@<TRIPOS>BOND
1 1 2 1
2 1 3 1
3 1 4 1
4 1 5 1
@<TRIPOS>MOLECULE
CH4
5 4
SMALL
USER_CHARGES


@<TRIPOS>ATOM
1 C 14.389 10.845 89.07 C 0.0 **** 0.0
2 H 14.392 10.214 89.959 H 0.0 **** 0.0
3 H 15.158 11.612 89.167 H 0.0 **** 0.0
4 H 13.413 11.319 88.963 H 0.0 **** 0.0
5 H 14.594 10.233 88.191 H 0.0 **** 0.0
@<TRIPOS>BOND
1 1 2 1
2 1 3 1
3 1 4 1
4 1 5 1
@<TRIPOS>MOLECULE
CH4
5 4
SMALL
USER_CHARGES


@<TRIPOS>ATOM
1 C 47.382 9.216 92.2 C 0.0 **** 0.0
2 H 47.305 9.189 93.287 H 0.0 **** 0.0
3 H 46.4 9.039 91.762 H 0.0 **** 0.0
4 H 48.075 8.444 91.866 H 0.0 **** 0.0
5 H 47.749 10.194 91.888 H 0.0 **** 0.0
@<TRIPOS>BOND
1 1 5 1
2 1 4 1
3 1 2 1
4 1 3 1
@<TRIPOS>MOLECULE
CH4
5 4
SMALL
USER_CHARGES


@<TRIPOS>ATOM
1 C 71.053 68.771 64.583 C 0.0 **** 0.0
2 H 71.303 68.407 65.58 H 0.0 **** 0.0
3 H 71.615 68.205 63.839 H 0.0 **** 0.0
4 H 71.31 69.827 64.507 H 0.0 **** 0.0
5 H 69.985 68.643 64.406 H 0.0 **** 0.0
@<TRIPOS>BOND
1 1 2 1
2 1 3 1
3 1 4 1
4 1 5 1
@<TRIPOS>MOLECULE
CH4
5 4
SMALL
USER_CHARGES


@<TRIPOS>ATOM
1 C 65.528 7.082 97.856 C 0.0 **** 0.0
2 H 64.966 7.452 96.998 H 0.0 **** 0.0
3 H 64.849 6.577 98.544 H 0.0 **** 0.0
4 H 66.005 7.919 98.365 H 0.0 **** 0.0
5 H 66.29 6.381 97.516 H 0.0 **** 0.0
@<TRIPOS>BOND
1 1 2 1
2 1 3 1
3 1 4 1
4 1 5 1
@<TRIPOS>MOLECULE
CH4
5 4
SMALL
USER_CHARGES


@<TRIPOS>ATOM
1 C 53.956 76.849 54.397 C 0.0 **** 0.0
2 H 53.266 77.415 55.022 H 0.0 **** 0.0
3 H 54.937 76.821 54.872 H 0.0 **** 0.0
4 H 54.038 77.328 53.421 H 0.0 **** 0.0
5 H 53.583 75.832 54.273 H 0.0 **** 0.0
@<TRIPOS>BOND
1 1 2 1
2 1 3 1
3 1 4 1
4 1 5 1
@<TRIPOS>MOLECULE
CH4
5 4
SMALL
USER_CHARGES


@<TRIPOS>ATOM
1 C 70.641 54.201 58.663 C 0.0 **** 0.0
2 H 70.29 53.393 58.021 H 0.0 **** 0.0
3 H 71.653 53.98 59.003 H 0.0 **** 0.0
4 H 69.98 54.293 59.524 H 0.0 **** 0.0
5 H 70.641 55.136 58.103 H 0.0 **** 0.0
@<TRIPOS>BOND
1 1 2 1
2 1 3 1
3 1 4 1
4 1 5 1
@<TRIPOS>MOLECULE
CH4
5 4
SMALL
USER_CHARGES


@<TRIPOS>ATOM
1 C 97.324 72.935 15.937 C 0.0 **** 0.0
2 H 97.84 73.642 15.287 H 0.0 **** 0.0
3 H 96.91 72.125 15.336 H 0.0 **** 0.0
4 H 96.518 73.447 16.462 H 0.0 **** 0.0
5 H 98.029 72.527 16.661 H 0.0 **** 0.0
@<TRIPOS>BOND
1 1 2 1
2 1 3 1
3 1 4 1
4 1 5 1
@<TRIPOS>MOLECULE
CH4
5 4
SMALL
USER_CHARGES


@<TRIPOS>ATOM
1 C 6.612 80.84 49.669 C 0.0 **** 0.0
2 H 5.571 80.861 49.99 H 0.0 **** 0.0
3 H 7.197 81.519 50.29 H 0.0 **** 0.0
4 H 6.677 81.153 48.627 H 0.0 **** 0.0
5 H 7.002 79.827 49.77 H 0.0 **** 0.0
@<TRIPOS>BOND
1 1 2 1
2 1 3 1
3 1 4 1
4 1 5 1
@<TRIPOS>MOLECULE
CH4
5 4
SMALL
USER_CHARGES


@<TRIPOS>ATOM
1 C 31.182 23.532 32.023 C 0.0 **** 0.0
2 H 31.528 24.517 32.336 H 0.0 **** 0.0
3 H 31.452 22.795 32.78 H 0.0 **** 0.0
4 H 31.651 23.267 31.075 H 0.0 **** 0.0
5 H 30.099 23.549 31.901 H 0.0 **** 0.0
@<TRIPOS>BOND
1 1 2 1
2 1 3 1
3 1 4 1
4 1 5 1
@<TRIPOS>MOLECULE
CH4
5 4
SMALL
USER_CHARGES


@<TRIPOS>ATOM
1 C 96.416 54.749 13.806 C 0.0 **** 0.0
2 H 96.148 55.721 14.22 H 0.0 **** 0.0
3 H 95.928 54.619 12.84 H 0.0 **** 0.0
4 H 96.092 53.962 14.486 H 0.0 **** 0.0
5 H 97.497 54.696 13.677 H 0.0 **** 0.0
@<TRIPOS>BOND
1 1 4 1
2 1 3 1
3 1 2 1
4 1 5 1
@<TRIPOS>MOLECULE
CH4
5 4
SMALL
USER_CHARGES


@<TRIPOS>ATOM
1 C 17.903 73.247 25.653 C 0.0 **** 0.0
2 H 17.563 73.83 26.509 H 0.0 **** 0.0
3 H 18.527 72.423 26.0 H 0.0 **** 0.0
4 H 18.481 73.885 24.985 H 0.0 **** 0.0
5 H 17.039 72.849 25.12 H 0.0 **** 0.0
@<TRIPOS>BOND
1 1 2 1
2 1 3 1
3 1 4 1
4 1 5 1
@<TRIPOS>MOLECULE
CH4
5 4
SMALL
USER_CHARGES


@<TRIPOS>ATOM
1 C 28.88 28.221 78.626 C 0.0 **** 0.0
2 H 29.518 27.367 78.853 H 0.0 **** 0.0
3 H 29.284 29.113 79.105 H 0.0 **** 0.0
4 H 27.874 28.032 79.001 H 0.0 **** 0.0
5 H 28.844 28.371 77.547 H 0.0 **** 0.0
@<TRIPOS>BOND
1 1 2 1
2 1 3 1
3 1 4 1
4 1 5 1
@<TRIPOS>MOLECULE
CH4
5 4
SMALL
USER_CHARGES


@<TRIPOS>ATOM
1 C 80.651 31.064 66.982 C 0.0 **** 0.0
2 H 80.781 29.99 67.118 H 0.0 **** 0.0
3 H 79.858 31.244 66.256 H 0.0 **** 0.0
4 H 81.582 31.499 66.62 H 0.0 **** 0.0
5 H 80.382 31.52 67.935 H 0.0 **** 0.0
@<TRIPOS>BOND
1 1 2 1
2 1 3 1
3 1 4 1
4 1 5 1
@<TRIPOS>MOLECULE
CH4
5 4
SMALL
USER_CHARGES


@<TRIPOS>ATOM
1 C 51.343 63.613 84.268 C 0.0 **** 0.0
2 H 51.399 63.916 85.313 H 0.0 **** 0.0
3 H 52.296 63.819 83.779 H 0.0 **** 0.0
4 H 50.551 64.172 83.77 H 0.0 **** 0.0
5 H 51.128 62.547 84.21 H 0.0 **** 0.0
@<TRIPOS>BOND
1 1 2 1
2 1 3 1
3 1 4 1
4 1 5 1
@<TRIPOS>MOLECULE
CH4
5 4
SMALL
USER_CHARGES


@<TRIPOS>ATOM
1 C 95.698 71.831 73.99 C 0.0 **** 0.0
2 H 96.377 71.455 74.755 H 0.0 **** 0.0
3 H 94.672 71.774 74.356 H 0.0 **** 0.0
4 H 95.796 71.227 73.088 H 0.0 **** 0.0
5 H 95.946 72.868 73.763 H 0.0 **** 0.0
@<TRIPOS>BOND
1 1 2 1
2 1 3 1
3 1 4 1
4 1 5 1
@<TRIPOS>MOLECULE
CH4
5 4
SMALL
USER_CHARGES


@<TRIPOS>ATOM
1 C 18.24 14.343 98.335 C 0.0 **** 0.0
2 H 18.532 15.196 97.723 H 0.0 **** 0.0
3 H 19.062 14.075 99.0 H 0.0 **** 0.0
4 H 18.003 13.497 97.69 H 0.0 **** 0.0
5 H 17.363 14.605 98.928 H 0.0 **** 0.0
@<TRIPOS>BOND
1 1 2 1
2 1 3 1
3 1 4 1
4 1 5 1
@<TRIPOS>MOLECULE
CH4
5 4
SMALL
USER_CHARGES


@<TRIPOS>ATOM
1 C 33.721 70.01 59.685 C 0.0 **** 0.0
2 H 34.642 70.08 59.105 H 0.0 **** 0.0
3 H 33.791 70.66 60.557 H 0.0 **** 0.0
4 H 33.575 68.98 60.01 H 0.0 **** 0.0
5 H 32.878 70.319 59.067 H 0.0 **** 0.0
@<TRIPOS>BOND
1 1 2 1
2 1 3 1
3 1 4 1
4 1 5 1
@<TRIPOS>MOLECULE
CH4
5 4
SMALL
USER_CHARGES


@<TRIPOS>ATOM
1 C 43.64 8.363 1.486 C 0.0 **** 0.0
2 H 43.448 7.7 2.33 H 0.0 **** 0.0
3 H 44.643 8.181 1.101 H 0.0 **** 0.0
4 H 43.558 9.4 1.814 H 0.0 **** 0.0
5 H 42.908 8.171 0.701 H 0.0 **** 0.0
@<TRIPOS>BOND
1 1 2 1
2 1 3 1
3 1 4 1
4 1 5 1
@<TRIPOS>MOLECULE
CH4
5 4
SMALL
USER_CHARGES


@<TRIPOS>ATOM
1 C 61.566 49.578 30.591 C 0.0 **** 0.0
2 H 61.525 49.504 29.504 H 0.0 **** 0.0
3 H 60.592 49.888 30.971 H 0.0 **** 0.0
4 H 62.319 50.313 30.876 H 0.0 **** 0.0
5 H 61.828 48.607 31.011 H 0.0 **** 0.0
@<TRIPOS>BOND
1 1 4 1
2 1 5 1
3 1 2 1
4 1 3 1
@<TRIPOS>MOLECULE
CH4
5 4
SMALL
USER_CHARGES


@<TRIPOS>ATOM
1 C 59.175 31.688 78.766 C 0.0 **** 0.0
2 H 59.053 30.824 78.113 H 0.0 **** 0.0
3 H 58.387 31.687 79.52 H 0.0 **** 0.0
4 H 59.111 32.602 78.175 H 0.0 **** 0.0
5 H 60.147 31.64 79.256 H 0.0 **** 0.0
@<TRIPOS>BOND
1 1 2 1
2 1 3 1
3 1 4 1
4 1 5 1
@<TRIPOS>MOLECULE
CH4
5 4
SMALL
USER_CHARGES


@<TRIPOS>ATOM
1 C 25.149 39.554 9.675 C 0.0 **** 0.0
2 H 25.238 39.704 10.751 H 0.0 **** 0.0
3 H 24.095 39.504 9.401 H 0.0 **** 0.0
4 H 25.643 38.624 9.396 H 0.0 **** 0.0
5 H 25.621 40.387 9.153 H 0.0 **** 0.0
@<TRIPOS>BOND
1 1 2 1
2 1 3 1
3 1 4 1
4 1 5 1
@<TRIPOS>MOLECULE
CH4
5 4
SMALL
USER_CHARGES


@<TRIPOS>ATOM
1 C 13.168 64.849 59.169 C 0.0 **** 0.0
2 H 13.198 64.432 58.162 H 0.0 **** 0.0
3 H 12.772 64.104 59.859 H 0.0 **** 0.0
4 H 12.526 65.73 59.178 H 0.0 **** 0.0
5 H 14.175 65.13 59.476 H 0.0 **** 0.0
@<TRIPOS>BOND
1 1 2 1
2 1 3 1
3 1 4 1
4 1 5 1
@<TRIPOS>MOLECULE
CH4
5 4
SMALL
USER_CHARGES


@<TRIPOS>ATOM
1 C 94.503 11.512 59.54 C 0.0 **** 0.0
2 H 95.509 11.64 59.139 H 0.0 **** 0.0
3 H 93.993 12.476 59.553 H 0.0 **** 0.0
4 H 94.564 11.12 60.555 H 0.0 **** 0.0
5 H 93.948 10.815 58.914 H 0.0 **** 0.0
@<TRIPOS>BOND
1 1 2 1
2 1 3 1
3 1 4 1
4 1 5 1
@<TRIPOS>MOLECULE
CH4
5 4
SMALL
USER_CHARGES


@<TRIPOS>ATOM
1 C 92.912 12.911 90.276 C 0.0 **** 0.0
2 H 92.782 12.673 89.22 H 0.0 **** 0.0
3 H 93.836 12.461 90.639 H 0.0 **** 0.0
4 H 92.068 12.517 90.843 H 0.0 **** 0.0
5 H 92.96 13.993 90.401 H 0.0 **** 0.0
@<TRIPOS>BOND
1 1 2 1
2 1 3 1
3 1 4 1
4 1 5 1
@<TRIPOS>MOLECULE
CH4
5 4
SMALL
USER_CHARGES


@<TRIPOS>ATOM
1 C 58.649 56.641 48.626 C 0.0 **** 0.0
2 H 57.856 56.636 47.879 H 0.0 **** 0.0
3 H 58.342 57.247 49.478 H 0.0 **** 0.0
4 H 59.556 57.06 48.19 H 0.0 **** 0.0
5 H 58.843 55.62 48.957 H 0.0 **** 0.0
@<TRIPOS>BOND
1 1 2 1
2 1 3 1
3 1 4 1
4 1 5 1
@<TRIPOS>MOLECULE
CH4
5 4
SMALL
USER_CHARGES


@<TRIPOS>ATOM
1 C 46.277 61.907 42.841 C 0.0 **** 0.0
2 H 46.201 62.148 41.781 H 0.0 **** 0.0
3 H 45.596 62.543 43.407 H 0.0 **** 0.0
4 H 47.299 62.075 43.18 H 0.0 **** 0.0
5 H 46.01 60.861 42.996 H 0.0 **** 0.0
@<TRIPOS>BOND
1 1 2 1
2 1 3 1
3 1 4 1
4 1 5 1
@<TRIPOS>MOLECULE
CH4
5 4
SMALL
USER_CHARGES


@<TRIPOS>ATOM
1 C 57.652 8.343 49.0 C 0.0 **** 0.0
2 H 57.672 8.335 47.911 H 0.0 **** 0.0
3 H 56.95 7.589 49.357 H 0.0 **** 0.0
4 H 57.338 9.327 49.35 H 0.0 **** 0.0
5 H 58.648 8.122 49.383 H 0.0 **** 0.0
@<TRIPOS>BOND
1 1 2 1
2 1 3 1
3 1 4 1
4 1 5 1
@<TRIPOS>MOLECULE
CH4
5 4
SMALL
USER_CHARGES


@<TRIPOS>ATOM
1 C 25.326 52.067 69.778 C 0.0 **** 0.0
2 H 25.151 52.117 70.853 H 0.0 **** 0.0
3 H 26.399 52.084 69.584 H 0.0 **** 0.0
4 H 24.855 52.923 69.294 H 0.0 **** 0.0
5 H 24.899 51.145 69.384 H 0.0 **** 0.0
@<TRIPOS>BOND
1 1 2 1
2 1 3 1
3 1 4 1
4 1 5 1
@<TRIPOS>MOLECULE
CH4
5 4
SMALL
USER_CHARGES


@<TRIPOS>ATOM
1 C 40.802 86.297 8.414 C 0.0 **** 0.0
2 H 40.74 86.006 7.365 H 0.0 **** 0.0
3 H 41.394 87.208 8.504 H 0.0 **** 0.0
4 H 41.274 85.498 8.985 H 0.0 **** 0.0
5 H 39.798 86.476 8.8 H 0.0 **** 0.0
@<TRIPOS>BOND
1 1 2 1
2 1 3 1
3 1 4 1
4 1 5 1
@<TRIPOS>MOLECULE
CH4
5 4
SMALL
USER_CHARGES


@<TRIPOS>ATOM
1 C 50.354 27.374 75.003 C 0.0 **** 0.0
2 H 49.319 27.061 75.138 H 0.0 **** 0.0
3 H 50.449 28.431 75.254 H 0.0 **** 0.0
4 H 50.647 27.219 73.964 H 0.0 **** 0.0
5 H 50.999 26.786 75.655 H 0.0 **** 0.0
@<TRIPOS>BOND
1 1 2 1
2 1 3 1
3 1 4 1
4 1 5 1
@<TRIPOS>MOLECULE
CH4
5 4
SMALL
USER_CHARGES


@<TRIPOS>ATOM
1 C 45.886 86.493 8.583 C 0.0 **** 0.0
2 H 45.714 86.307 7.523 H 0.0 **** 0.0
3 H 45.021 87.004 9.007 H 0.0 **** 0.0
4 H 46.772 87.117 8.702 H 0.0 **** 0.0
5 H 46.038 85.545 9.098 H 0.0 **** 0.0
@<TRIPOS>BOND
1 1 2 1
2 1 3 1
3 1 4 1
4 1 5 1
@<TRIPOS>MOLECULE
CH4
5 4
SMALL
USER_CHARGES


@<TRIPOS>ATOM
1 C 96.209 36.378 53.003 C 0.0 **** 0.0
2 H 96.89 35.551 52.802 H 0.0 **** 0.0
3 H 96.716 37.125 53.614 H 0.0 **** 0.0
4 H 95.333 36.007 53.535 H 0.0 **** 0.0
5 H 95.898 36.829 52.06 H 0.0 **** 0.0
@<TRIPOS>BOND
1 1 2 1
2 1 3 1
3 1 4 1
4 1 5 1
@<TRIPOS>MOLECULE
CH4
5 4
SMALL
USER_CHARGES


@<TRIPOS>ATOM
1 C 36.583 50.371 20.236 C 0.0 **** 0.0
2 H 35.653 50.336 20.804 H 0.0 **** 0.0
3 H 37.182 49.49 20.466 H 0.0 **** 0.0
4 H 37.138 51.269 20.505 H 0.0 **** 0.0
5 H 36.357 50.389 19.17 H 0.0 **** 0.0
@<TRIPOS>BOND
1 1 2 1
2 1 3 1
3 1 4 1
4 1 5 1
@<TRIPOS>MOLECULE
CH4
5 4
SMALL
USER_CHARGES


@<TRIPOS>ATOM
1 C 92.464 76.427 19.972 C 0.0 **** 0.0
2 H 92.584 76.337 21.052 H 0.0 **** 0.0
3 H 93.297 75.933 19.472 H 0.0 **** 0.0
4 H 92.446 77.482 19.696 H 0.0 **** 0.0
5 H 91.528 75.957 19.671 H 0.0 **** 0.0
@<TRIPOS>BOND
1 1 2 1
2 1 3 1
3 1 4 1
4 1 5 1
@<TRIPOS>MOLECULE
CH4
5 4
SMALL
USER_CHARGES


@<TRIPOS>ATOM
1 C 11.273 76.512 75.22 C 0.0 **** 0.0
2 H 11.256 76.371 74.14 H 0.0 **** 0.0
3 H 10.497 75.898 75.679 H 0.0 **** 0.0
4 H 11.09 77.561 75.452 H 0.0 **** 0.0
5 H 12.247 76.218 75.609 H 0.0 **** 0.0
@<TRIPOS>BOND
1 1 2 1
2 1 3 1
3 1 4 1
4 1 5 1
@<TRIPOS>MOLECULE
CH4
5 4
SMALL
USER_CHARGES


@<TRIPOS>ATOM
1 C 18.888 77.477 23.547 C 0.0 **** 0.0
2 H 18.201 78.265 23.856 H 0.0 **** 0.0
3 H 18.924 77.433 22.458 H 0.0 **** 0.0
4 H 18.543 76.52 23.939 H 0.0 **** 0.0
5 H 19.884 77.691 23.936 H 0.0 **** 0.0
@<TRIPOS>BOND
1 1 3 1
2 1 4 1
3 1 5 1
4 1 2 1
@<TRIPOS>MOLECULE
CH4
5 4
SMALL
USER_CHARGES


@<TRIPOS>ATOM
1 C 57.041 44.565 26.869 C 0.0 **** 0.0
2 H 56.934 44.896 27.902 H 0.0 **** 0.0
3 H 58.076 44.271 26.688 H 0.0 **** 0.0
4 H 56.771 45.379 26.197 H 0.0 **** 0.0
5 H 56.385 43.713 26.691 H 0.0 **** 0.0
@<TRIPOS>BOND
1 1 2 1
2 1 3 1
3 1 4 1
4 1 5 1
@<TRIPOS>MOLECULE
CH4
5 4
SMALL
USER_CHARGES


@<TRIPOS>ATOM
1 C 38.506 15.316 18.701 C 0.0 **** 0.0
2 H 39.173 15.694 19.475 H 0.0 **** 0.0
3 H 37.618 15.947 18.647 H 0.0 **** 0.0
4 H 38.212 14.294 18.943 H 0.0 **** 0.0
5 H 39.02 15.328 17.74 H 0.0 **** 0.0
@<TRIPOS>BOND
1 1 2 1
2 1 3 1
3 1 4 1
4 1 5 1
@<TRIPOS>MOLECULE
CH4
5 4
SMALL
USER_CHARGES


@<TRIPOS>ATOM
1 C 40.63 54.361 77.954 C 0.0 **** 0.0
2 H 40.702 53.572 77.204 H 0.0 **** 0.0
3 H 39.585 54.646 78.081 H 0.0 **** 0.0
4 H 41.206 55.226 77.627 H 0.0 **** 0.0
5 H 41.026 53.997 78.902 H 0.0 **** 0.0
@<TRIPOS>BOND
1 1 2 1
2 1 3 1
3 1 4 1
4 1 5 1
@<TRIPOS>MOLECULE
CH4
5 4
SMALL
USER_CHARGES


@<TRIPOS>ATOM
1 C 41.044 2.404 18.357 C 0.0 **** 0.0
2 H 40.704 3.328 17.888 H 0.0 **** 0.0
3 H 40.233 1.675 18.351 H 0.0 **** 0.0
4 H 41.343 2.607 19.385 H 0.0 **** 0.0
5 H 41.894 2.008 17.802 H 0.0 **** 0.0
@<TRIPOS>BOND
1 1 2 1
2 1 3 1
3 1 4 1
4 1 5 1
@<TRIPOS>MOLECULE
CH4
5 4
SMALL
USER_CHARGES


@<TRIPOS>ATOM
1 C 6.139 3.135 36.825 C 0.0 **** 0.0
2 H 7.111 2.671 36.997 H 0.0 **** 0.0
3 H 6.042 4.019 37.455 H 0.0 **** 0.0
4 H 5.349 2.424 37.07 H 0.0 **** 0.0
5 H 6.056 3.424 35.777 H 0.0 **** 0.0
@<TRIPOS>BOND
1 1 2 1
2 1 3 1
3 1 4 1
4 1 5 1
@<TRIPOS>MOLECULE
CH4
5 4
SMALL
USER_CHARGES


@<TRIPOS>ATOM
1 C 15.591 37.459 90.308 C 0.0 **** 0.0
2 H 15.014 38.383 90.333 H 0.0 **** 0.0
3 H 16.304 37.499 89.484 H 0.0 **** 0.0
4 H 14.918 36.614 90.166 H 0.0 **** 0.0
5 H 16.129 37.341 91.249 H 0.0 **** 0.0
@<TRIPOS>BOND
1 1 2 1
2 1 3 1
3 1 4 1
4 1 5 1
@<TRIPOS>MOLECULE
CH4
5 4
SMALL
USER_CHARGES


@<TRIPOS>ATOM
1 C 91.05 3.155 48.267 C 0.0 **** 0.0
2 H 90.911 3.306 47.196 H 0.0 **** 0.0
3 H 90.303 3.731 48.814 H 0.0 **** 0.0
4 H 92.048 3.489 48.553 H 0.0 **** 0.0
5 H 90.939 2.097 48.502 H 0.0 **** 0.0
@<TRIPOS>BOND
1 1 2 1
2 1 3 1
3 1 4 1
4 1 5 1
@<TRIPOS>MOLECULE
CH4
5 4
SMALL
USER_CHARGES


@<TRIPOS>ATOM
1 C 78.951 46.47 6.813 C 0.0 **** 0.0
2 H 78.801 46.723 5.764 H 0.0 **** 0.0
3 H 79.837 46.984 7.188 H 0.0 **** 0.0
4 H 79.087 45.393 6.911 H 0.0 **** 0.0
5 H 78.08 46.78 7.39 H 0.0 **** 0.0
@<TRIPOS>BOND
1 1 2 1
2 1 3 1
3 1 4 1
4 1 5 1
@<TRIPOS>MOLECULE
CH4
5 4
SMALL
USER_CHARGES


@<TRIPOS>ATOM
1 C 12.995 32.871 53.447 C 0.0 **** 0.0
2 H 12.887 31.792 53.556 H 0.0 **** 0.0
3 H 14.043 33.115 53.269 H 0.0 **** 0.0
4 H 12.658 33.363 54.359 H 0.0 **** 0.0
5 H 12.394 33.214 52.605 H 0.0 **** 0.0
@<TRIPOS>BOND
1 1 2 1
2 1 3 1
3 1 4 1
4 1 5 1
@<TRIPOS>MOLECULE
CH4
5 4
SMALL
USER_CHARGES


@<TRIPOS>ATOM
1 C 86.36 11.459 9.203 C 0.0 **** 0.0
2 H 86.708 11.063 8.249 H 0.0 **** 0.0
3 H 86.938 11.016 10.014 H 0.0 **** 0.0
4 H 85.305 11.216 9.334 H 0.0 **** 0.0
5 H 86.487 12.542 9.215 H 0.0 **** 0.0
@<TRIPOS>BOND
1 1 2 1
2 1 3 1
3 1 4 1
4 1 5 1
@<TRIPOS>MOLECULE
CH4
5 4
SMALL
USER_CHARGES


@<TRIPOS>ATOM
1 C 63.975 8.264 43.766 C 0.0 **** 0.0
2 H 64.811 8.655 43.187 H 0.0 **** 0.0
3 H 63.277 9.073 43.988 H 0.0 **** 0.0
4 H 64.347 7.839 44.698 H 0.0 **** 0.0
5 H 63.464 7.491 43.192 H 0.0 **** 0.0
@<TRIPOS>BOND
1 1 2 1
2 1 3 1
3 1 4 1
4 1 5 1
@<TRIPOS>MOLECULE
CH4
5 4
SMALL
USER_CHARGES


@<TRIPOS>ATOM
1 C 73.986 27.568 87.829 C 0.0 **** 0.0
2 H 73.878 27.015 86.896 H 0.0 **** 0.0
3 H 73.294 27.168 88.571 H 0.0 **** 0.0
4 H 73.764 28.621 87.655 H 0.0 **** 0.0
5 H 75.008 27.468 88.194 H 0.0 **** 0.0
@<TRIPOS>BOND
1 1 2 1
2 1 3 1
3 1 4 1
4 1 5 1
@<TRIPOS>MOLECULE
CH4
5 4
SMALL
USER_CHARGES


@<TRIPOS>ATOM
1 C 86.737 83.354 96.423 C 0.0 **** 0.0
2 H 86.78 83.077 97.476 H 0.0 **** 0.0
3 H 87.168 84.346 96.291 H 0.0 **** 0.0
4 H 85.699 83.36 96.091 H 0.0 **** 0.0
5 H 87.303 82.631 95.834 H 0.0 **** 0.0
@<TRIPOS>BOND
1 1 2 1
2 1 3 1
3 1 4 1
4 1 5 1
@<TRIPOS>MOLECULE
CH4
5 4
SMALL
USER_CHARGES


@<TRIPOS>ATOM
1 C 84.48 44.313 13.145 C 0.0 **** 0.0
2 H 83.846 44.336 14.031 H 0.0 **** 0.0
3 H 83.855 44.276 12.252 H 0.0 **** 0.0
4 H 85.119 43.43 13.178 H 0.0 **** 0.0
5 H 85.1 45.209 13.118 H 0.0 **** 0.0
@<TRIPOS>BOND
1 1 2 1
2 1 3 1
3 1 4 1
4 1 5 1
@<TRIPOS>MOLECULE
CH4
5 4
SMALL
USER_CHARGES


@<TRIPOS>ATOM
1 C 28.78 49.842 88.48 C 0.0 **** 0.0
2 H 27.842 50.05 88.996 H 0.0 **** 0.0
3 H 29.588 50.397 88.958 H 0.0 **** 0.0
4 H 28.696 50.147 87.437 H 0.0 **** 0.0
5 H 28.993 48.774 88.531 H 0.0 **** 0.0
@<TRIPOS>BOND
1 1 2 1
2 1 3 1
3 1 4 1
4 1 5 1
@<TRIPOS>MOLECULE
CH4
5 4
SMALL
USER_CHARGES


@<TRIPOS>ATOM
1 C 45.135 48.637 30.629 C 0.0 **** 0.0
2 H 45.966 49.277 30.332 H 0.0 **** 0.0
3 H 44.201 49.191 30.538 H 0.0 **** 0.0
4 H 45.272 48.321 31.663 H 0.0 **** 0.0
5 H 45.103 47.76 29.982 H 0.0 **** 0.0
@<TRIPOS>BOND
1 1 2 1
2 1 3 1
3 1 4 1
4 1 5 1
@<TRIPOS>MOLECULE
CH4
5 4
SMALL
USER_CHARGES


@<TRIPOS>ATOM
1 C 66.387 53.586 3.581 C 0.0 **** 0.0
2 H 66.426 53.733 4.661 H 0.0 **** 0.0
3 H 65.383 53.812 3.221 H 0.0 **** 0.0
4 H 66.633 52.551 3.346 H 0.0 **** 0.0
5 H 67.104 54.25 3.099 H 0.0 **** 0.0
@<TRIPOS>BOND
1 1 2 1
2 1 3 1
3 1 4 1
4 1 5 1
@<TRIPOS>MOLECULE
CH4
5 4
SMALL
USER_CHARGES


@<TRIPOS>ATOM
1 C 89.849 67.062 79.386 C 0.0 **** 0.0
2 H 89.576 66.074 79.014 H 0.0 **** 0.0
3 H 90.866 67.299 79.073 H 0.0 **** 0.0
4 H 89.793 67.068 80.475 H 0.0 **** 0.0
5 H 89.162 67.805 78.983 H 0.0 **** 0.0
@<TRIPOS>BOND
1 1 2 1
2 1 3 1
3 1 4 1
4 1 5 1
@<TRIPOS>MOLECULE
CH4
5 4
SMALL
USER_CHARGES


@<TRIPOS>ATOM
1 C 38.327 30.879 66.683 C 0.0 **** 0.0
2 H 38.424 30.577 65.64 H 0.0 **** 0.0
3 H 38.949 31.755 66.866 H 0.0 **** 0.0
4 H 38.649 30.062 67.329 H 0.0 **** 0.0
5 H 37.286 31.121 66.895 H 0.0 **** 0.0
@<TRIPOS>BOND
1 1 2 1
2 1 3 1
3 1 4 1
4 1 5 1
@<TRIPOS>MOLECULE
CH4
5 4
SMALL
USER_CHARGES


@<TRIPOS>ATOM
1 C 14.216 6.875 78.206 C 0.0 **** 0.0
2 H 14.685 6.364 79.046 H 0.0 **** 0.0
3 H 13.136 6.899 78.353 H 0.0 **** 0.0
4 H 14.445 6.343 77.283 H 0.0 **** 0.0
5 H 14.597 7.894 78.142 H 0.0 **** 0.0
@<TRIPOS>BOND
1 1 2 1
2 1 3 1
3 1 4 1
4 1 5 1
@<TRIPOS>MOLECULE
CH4
5 4
SMALL
USER_CHARGES


@<TRIPOS>ATOM
1 C 10.461 50.171 30.497 C 0.0 **** 0.0
2 H 9.385 50.284 30.36 H 0.0 **** 0.0
3 H 10.793 49.251 30.015 H 0.0 **** 0.0
4 H 10.688 50.125 31.563 H 0.0 **** 0.0
5 H 10.975 51.022 30.052 H 0.0 **** 0.0
@<TRIPOS>BOND
1 1 2 1
2 1 3 1
3 1 4 1
4 1 5 1
@<TRIPOS>MOLECULE
CH4
5 4
SMALL
USER_CHARGES


@<TRIPOS>ATOM
1 C 15.322 5.657 64.346 C 0.0 **** 0.0
2 H 15.422 4.598 64.583 H 0.0 **** 0.0
3 H 14.27 5.941 64.387 H 0.0 **** 0.0
4 H 15.711 5.844 63.345 H 0.0 **** 0.0
5 H 15.886 6.245 65.071 H 0.0 **** 0.0
@<TRIPOS>BOND
1 1 2 1
2 1 3 1
3 1 4 1
4 1 5 1
@<TRIPOS>MOLECULE
CH4
5 4
SMALL
USER_CHARGES


@<TRIPOS>ATOM
1 C 6.474 80.898 73.451 C 0.0 **** 0.0
2 H 5.766 80.422 72.771 H 0.0 **** 0.0
3 H 6.828 81.831 73.012 H 0.0 **** 0.0
4 H 7.319 80.231 73.619 H 0.0 **** 0.0
5 H 5.981 81.106 74.4 H 0.0 **** 0.0
@<TRIPOS>BOND
1 1 2 1
2 1 3 1
3 1 4 1
4 1 5 1
@<TRIPOS>MOLECULE
CH4
5 4
SMALL
USER_CHARGES


@<TRIPOS>ATOM
1 C 83.447 23.512 72.518 C 0.0 **** 0.0
2 H 83.038 24.152 71.737 H 0.0 **** 0.0
3 H 83.055 23.825 73.486 H 0.0 **** 0.0
4 H 84.534 23.593 72.522 H 0.0 **** 0.0
5 H 83.16 22.478 72.327 H 0.0 **** 0.0
@<TRIPOS>BOND
1 1 2 1
2 1 3 1
3 1 4 1
4 1 5 1
@<TRIPOS>MOLECULE
CH4
5 4
SMALL
USER_CHARGES


@<TRIPOS>ATOM
1 C 50.617 66.034 14.001 C 0.0 **** 0.0
2 H 50.314 66.374 14.992 H 0.0 **** 0.0
3 H 49.9 65.3 13.634 H 0.0 **** 0.0
4 H 51.605 65.579 14.06 H 0.0 **** 0.0
5 H 50.648 66.885 13.32 H 0.0 **** 0.0
@<TRIPOS>BOND
1 1 2 1
2 1 3 1
3 1 4 1
4 1 5 1
@<TRIPOS>MOLECULE
CH4
5 4
SMALL
USER_CHARGES


@<TRIPOS>ATOM
1 C 72.334 85.603 18.197 C 0.0 **** 0.0
2 H 72.339 85.6 17.107 H 0.0 **** 0.0
3 H 72.419 86.628 18.558 H 0.0 **** 0.0
4 H 73.176 85.016 18.565 H 0.0 **** 0.0
5 H 71.403 85.166 18.557 H 0.0 **** 0.0
@<TRIPOS>BOND
1 1 2 1
2 1 3 1
3 1 4 1
4 1 5 1
@<TRIPOS>MOLECULE
CH4
5 4
SMALL
USER_CHARGES


@<TRIPOS>ATOM
1 C 62.704 85.007 61.467 C 0.0 **** 0.0
2 H 62.989 84.005 61.787 H 0.0 **** 0.0
3 H 63.158 85.743 62.133 H 0.0 **** 0.0
4 H 61.619 85.106 61.502 H 0.0 **** 0.0
5 H 63.052 85.176 60.448 H 0.0 **** 0.0
@<TRIPOS>BOND
1 1 2 1
2 1 3 1
3 1 4 1
4 1 5 1
@<TRIPOS>MOLECULE
CH4
5 4
SMALL
USER_CHARGES


@<TRIPOS>ATOM
1 C 69.864 54.82 4.727 C 0.0 **** 0.0
2 H 70.099 53.774 4.92 H 0.0 **** 0.0
3 H 70.789 55.393 4.656 H 0.0 **** 0.0
4 H 69.256 55.212 5.543 H 0.0 **** 0.0
5 H 69.313 54.903 3.791 H 0.0 **** 0.0
@<TRIPOS>BOND
1 1 2 1
2 1 3 1
3 1 4 1
4 1 5 1
@<TRIPOS>MOLECULE
CH4
5 4
SMALL
USER_CHARGES


@<TRIPOS>ATOM
1 C 84.601 40.746 47.055 C 0.0 **** 0.0
2 H 85.123 41.411 47.743 H 0.0 **** 0.0
3 H 84.186 39.903 47.609 H 0.0 **** 0.0
4 H 85.3 40.378 46.304 H 0.0 **** 0.0
5 H 83.794 41.291 46.564 H 0.0 **** 0.0
@<TRIPOS>BOND
1 1 2 1
2 1 3 1
3 1 4 1
4 1 5 1
@<TRIPOS>MOLECULE
CH4
5 4
SMALL
USER_CHARGES


@<TRIPOS>ATOM
1 C 60.284 69.132 51.933 C 0.0 **** 0.0
2 H 59.879 70.143 51.887 H 0.0 **** 0.0
3 H 61.071 69.089 52.685 H 0.0 **** 0.0
4 H 60.695 68.861 50.96 H 0.0 **** 0.0
5 H 59.489 68.434 52.198 H 0.0 **** 0.0
@<TRIPOS>BOND
1 1 2 1
2 1 3 1
3 1 4 1
4 1 5 1
@<TRIPOS>MOLECULE
CH4
5 4
SMALL
USER_CHARGES


@<TRIPOS>ATOM
1 C 49.913 84.335 4.83 C 0.0 **** 0.0
2 H 50.854 84.767 4.491 H 0.0 **** 0.0
3 H 49.095 84.728 4.227 H 0.0 **** 0.0
4 H 49.751 84.593 5.877 H 0.0 **** 0.0
5 H 49.954 83.25 4.726 H 0.0 **** 0.0
@<TRIPOS>BOND
1 1 2 1
2 1 3 1
3 1 4 1
4 1 5 1
@<TRIPOS>MOLECULE
CH4
5 4
SMALL
USER_CHARGES


@<TRIPOS>ATOM
1 C 15.638 33.378 82.732 C 0.0 **** 0.0
2 H 15.618 33.405 81.642 H 0.0 **** 0.0
3 H 15.336 32.388 83.076 H 0.0 **** 0.0
4 H 14.951 34.126 83.127 H 0.0 **** 0.0
5 H 16.648 33.592 83.081 H 0.0 **** 0.0
@<TRIPOS>BOND
1 1 2 1
2 1 3 1
3 1 4 1
4 1 5 1
@<TRIPOS>MOLECULE
CH4
5 4
SMALL
USER_CHARGES


@<TRIPOS>ATOM
1 C 7.629 25.215 26.884 C 0.0 **** 0.0
2 H 7.593 24.924 25.834 H 0.0 **** 0.0
3 H 8.077 26.205 26.971 H 0.0 **** 0.0
4 H 8.227 24.495 27.441 H 0.0 **** 0.0
5 H 6.617 25.237 27.289 H 0.0 **** 0.0
@<TRIPOS>BOND
1 1 2 1
2 1 3 1
3 1 4 1
4 1 5 1
@<TRIPOS>MOLECULE
CH4
5 4
SMALL
USER_CHARGES


@<TRIPOS>ATOM
1 C 60.332 40.789 30.497 C 0.0 **** 0.0
2 H 59.414 41.161 30.951 H 0.0 **** 0.0
3 H 61.19 41.141 31.07 H 0.0 **** 0.0
4 H 60.404 41.154 29.473 H 0.0 **** 0.0
5 H 60.32 39.699 30.494 H 0.0 **** 0.0
@<TRIPOS>BOND
1 1 2 1
2 1 3 1
3 1 4 1
4 1 5 1
@<TRIPOS>MOLECULE
CH4
5 4
SMALL
USER_CHARGES


@<TRIPOS>ATOM
1 C 30.217 90.565 20.744 C 0.0 **** 0.0
2 H 29.33 89.934 20.801 H 0.0 **** 0.0
3 H 30.677 90.456 19.762 H 0.0 **** 0.0
4 H 30.927 90.262 21.514 H 0.0 **** 0.0
5 H 29.933 91.606 20.9 H 0.0 **** 0.0
@<TRIPOS>BOND
1 1 2 1
2 1 3 1
3 1 4 1
4 1 5 1
@<TRIPOS>MOLECULE
CH4
5 4
SMALL
USER_CHARGES


@<TRIPOS>ATOM
1 C 63.793 17.625 76.875 C 0.0 **** 0.0
2 H 64.194 16.628 76.691 H 0.0 **** 0.0
3 H 64.376 18.359 76.318 H 0.0 **** 0.0
4 H 63.849 17.848 77.94 H 0.0 **** 0.0
5 H 62.753 17.663 76.549 H 0.0 **** 0.0
@<TRIPOS>BOND
1 1 2 1
2 1 3 1
3 1 4 1
4 1 5 1
@<TRIPOS>MOLECULE
CH4
5 4
SMALL
USER_CHARGES


@<TRIPOS>ATOM
1 C 94.373 19.23 75.161 C 0.0 **** 0.0
2 H 94.094 18.228 75.487 H 0.0 **** 0.0
3 H 95.061 19.159 74.318 H 0.0 **** 0.0
4 H 94.859 19.757 75.983 H 0.0 **** 0.0
5 H 93.48 19.775 74.857 H 0.0 **** 0.0
@<TRIPOS>BOND
1 1 2 1
2 1 3 1
3 1 4 1
4 1 5 1
@<TRIPOS>MOLECULE
CH4
5 4
SMALL
USER_CHARGES


@<TRIPOS>ATOM
1 C 90.501 10.647 36.01 C 0.0 **** 0.0
2 H 91.545 10.337 35.982 H 0.0 **** 0.0
3 H 90.443 11.734 35.944 H 0.0 **** 0.0
4 H 90.049 10.315 36.945 H 0.0 **** 0.0
5 H 89.967 10.202 35.17 H 0.0 **** 0.0
@<TRIPOS>BOND
1 1 2 1
2 1 3 1
3 1 4 1
4 1 5 1
@<TRIPOS>MOLECULE
CH4
5 4
SMALL
USER_CHARGES


@<TRIPOS>ATOM
1 C 79.647 4.131 61.119 C 0.0 **** 0.0
2 H 79.819 3.093 61.404 H 0.0 **** 0.0
3 H 78.599 4.383 61.285 H 0.0 **** 0.0
4 H 79.89 4.264 60.065 H 0.0 **** 0.0
5 H 80.278 4.783 61.723 H 0.0 **** 0.0
@<TRIPOS>BOND
1 1 2 1
2 1 3 1
3 1 4 1
4 1 5 1
@<TRIPOS>MOLECULE
CH4
5 4
SMALL
USER_CHARGES


@<TRIPOS>ATOM
1 C 9.16 5.727 55.061 C 0.0 **** 0.0
2 H 10.04 5.084 55.055 H 0.0 **** 0.0
3 H 9.296 6.522 55.794 H 0.0 **** 0.0
4 H 8.281 5.137 55.324 H 0.0 **** 0.0
5 H 9.022 6.163 54.072 H 0.0 **** 0.0
@<TRIPOS>BOND
1 1 2 1
2 1 3 1
3 1 4 1
4 1 5 1
@<TRIPOS>MOLECULE
CH4
5 4
SMALL
USER_CHARGES


@<TRIPOS>ATOM
1 C 4.977 42.228 22.376 C 0.0 **** 0.0
2 H 5.209 43.197 22.817 H 0.0 **** 0.0
3 H 5.297 41.435 23.053 H 0.0 **** 0.0
4 H 5.5 42.126 21.425 H 0.0 **** 0.0
5 H 3.903 42.152 22.21 H 0.0 **** 0.0
@<TRIPOS>BOND
1 1 2 1
2 1 3 1
3 1 4 1
4 1 5 1
@<TRIPOS>MOLECULE
CH4
5 4
SMALL
USER_CHARGES


@<TRIPOS>ATOM
1 C 37.963 3.94 17.333 C 0.0 **** 0.0
2 H 38.187 4.22 16.303 H 0.0 **** 0.0
3 H 38.732 4.34 17.993 H 0.0 **** 0.0
4 H 37.939 2.854 17.417 H 0.0 **** 0.0
5 H 36.992 4.348 17.617 H 0.0 **** 0.0
@<TRIPOS>BOND
1 1 2 1
2 1 3 1
3 1 4 1
4 1 5 1
@<TRIPOS>MOLECULE
CH4
5 4
SMALL
USER_CHARGES


@<TRIPOS>ATOM
1 C 57.685 44.026 89.929 C 0.0 **** 0.0
2 H 57.521 44.845 90.629 H 0.0 **** 0.0
3 H 57.775 43.09 90.48 H 0.0 **** 0.0
4 H 58.601 44.206 89.366 H 0.0 **** 0.0
5 H 56.842 43.962 89.24 H 0.0 **** 0.0
@<TRIPOS>BOND
1 1 2 1
2 1 3 1
3 1 4 1
4 1 5 1
@<TRIPOS>MOLECULE
CH4
5 4
SMALL
USER_CHARGES


@<TRIPOS>ATOM
1 C 76.523 47.093 63.64 C 0.0 **** 0.0
2 H 76.028 46.94 64.599 H 0.0 **** 0.0
3 H 76.67 48.16 63.474 H 0.0 **** 0.0
4 H 75.903 46.683 62.843 H 0.0 **** 0.0
5 H 77.489 46.589 63.645 H 0.0 **** 0.0
@<TRIPOS>BOND
1 1 2 1
2 1 3 1
3 1 4 1
4 1 5 1
@<TRIPOS>MOLECULE
CH4
5 4
SMALL
USER_CHARGES


@<TRIPOS>ATOM
1 C 24.578 66.468 30.031 C 0.0 **** 0.0
2 H 23.797 66.24 29.305 H 0.0 **** 0.0
3 H 24.205 67.201 30.747 H 0.0 **** 0.0
4 H 25.447 66.874 29.514 H 0.0 **** 0.0
5 H 24.861 65.556 30.558 H 0.0 **** 0.0
@<TRIPOS>BOND
1 1 2 1
2 1 3 1
3 1 4 1
4 1 5 1
@<TRIPOS>MOLECULE
CH4
5 4
SMALL
USER_CHARGES


@<TRIPOS>ATOM
1 C 66.601 98.381 63.129 C 0.0 **** 0.0
2 H 65.798 98.994 62.72 H 0.0 **** 0.0
3 H 66.174 97.584 63.739 H 0.0 **** 0.0
4 H 67.254 99.0 63.743 H 0.0 **** 0.0
5 H 67.176 97.945 62.312 H 0.0 **** 0.0
@<TRIPOS>BOND
1 1 2 1
2 1 3 1
3 1 4 1
4 1 5 1
@<TRIPOS>MOLECULE
CH4
5 4
SMALL
USER_CHARGES


@<TRIPOS>ATOM
1 C 37.002 64.972 80.928 C 0.0 **** 0.0
2 H 36.892 64.032 81.47 H 0.0 **** 0.0
3 H 36.28 65.006 80.112 H 0.0 **** 0.0
4 H 38.012 65.043 80.525 H 0.0 **** 0.0
5 H 36.822 65.805 81.608 H 0.0 **** 0.0
@<TRIPOS>BOND
1 1 2 1
2 1 3 1
3 1 4 1
4 1 5 1
@<TRIPOS>MOLECULE
CH4
5 4
SMALL
USER_CHARGES


@<TRIPOS>ATOM
1 C 31.292 39.14 61.421 C 0.0 **** 0.0
2 H 31.433 39.27 62.494 H 0.0 **** 0.0
3 H 31.932 38.332 61.066 H 0.0 **** 0.0
4 H 31.554 40.064 60.907 H 0.0 **** 0.0
5 H 30.25 38.894 61.219 H 0.0 **** 0.0
@<TRIPOS>BOND
1 1 2 1
2 1 3 1
3 1 4 1
4 1 5 1
@<TRIPOS>MOLECULE
CH4
5 4
SMALL
USER_CHARGES


@<TRIPOS>ATOM
1 C 82.515 76.869 57.971 C 0.0 **** 0.0
2 H 82.525 77.724 58.648 H 0.0 **** 0.0
3 H 81.954 77.124 57.072 H 0.0 **** 0.0
4 H 82.043 76.02 58.466 H 0.0 **** 0.0
5 H 83.538 76.609 57.7 H 0.0 **** 0.0
@<TRIPOS>BOND
1 1 2 1
2 1 3 1
3 1 4 1
4 1 5 1
@<TRIPOS>MOLECULE
CH4
5 4
SMALL
USER_CHARGES


@<TRIPOS>ATOM
1 C 33.145 58.219 97.454 C 0.0 **** 0.0
2 H 33.699 58.393 98.376 H 0.0 **** 0.0
3 H 33.62 57.415 96.891 H 0.0 **** 0.0
4 H 33.141 59.129 96.855 H 0.0 **** 0.0
5 H 32.119 57.938 97.694 H 0.0 **** 0.0
@<TRIPOS>BOND
1 1 5 1
2 1 2 1
3 1 3 1
4 1 4 1
@<TRIPOS>MOLECULE
CH4
5 4
SMALL
USER_CHARGES


@<TRIPOS>ATOM
1 C 82.844 28.241 16.277 C 0.0 **** 0.0
2 H 83.817 27.933 15.896 H 0.0 **** 0.0
3 H 82.779 29.329 16.27 H 0.0 **** 0.0
4 H 82.721 27.877 17.297 H 0.0 **** 0.0
5 H 82.058 27.825 15.646 H 0.0 **** 0.0
@<TRIPOS>BOND
1 1 2 1
2 1 3 1
3 1 4 1
4 1 5 1
@<TRIPOS>MOLECULE
CH4
5 4
SMALL
USER_CHARGES


@<TRIPOS>ATOM
1 C 87.611 32.143 93.021 C 0.0 **** 0.0
2 H 87.461 33.148 93.414 H 0.0 **** 0.0
3 H 88.474 31.688 93.508 H 0.0 **** 0.0
4 H 87.787 32.196 91.946 H 0.0 **** 0.0
5 H 86.724 31.541 93.215 H 0.0 **** 0.0
@<TRIPOS>BOND
1 1 2 1
2 1 3 1
3 1 4 1
4 1 5 1
@<TRIPOS>MOLECULE
CH4
5 4
SMALL
USER_CHARGES


@<TRIPOS>ATOM
1 C 21.216 81.082 10.12 C 0.0 **** 0.0
2 H 22.229 81.045 10.521 H 0.0 **** 0.0
3 H 20.553 80.494 10.755 H 0.0 **** 0.0
4 H 21.21 80.674 9.11 H 0.0 **** 0.0
5 H 20.873 82.117 10.096 H 0.0 **** 0.0
@<TRIPOS>BOND
1 1 2 1
2 1 3 1
3 1 4 1
4 1 5 1
@<TRIPOS>MOLECULE
CH4
5 4
SMALL
USER_CHARGES


@<TRIPOS>ATOM
1 C 55.111 88.471 81.743 C 0.0 **** 0.0
2 H 55.141 89.037 82.675 H 0.0 **** 0.0
3 H 54.286 87.759 81.778 H 0.0 **** 0.0
4 H 56.05 87.934 81.615 H 0.0 **** 0.0
5 H 54.966 89.155 80.907 H 0.0 **** 0.0
@<TRIPOS>BOND
1 1 2 1
2 1 3 1
3 1 4 1
4 1 5 1
@<TRIPOS>MOLECULE
CH4
5 4
SMALL
USER_CHARGES


@<TRIPOS>ATOM
1 C 1.359 60.205 19.297 C 0.0 **** 0.0
2 H 1.368 60.389 18.222 H 0.0 **** 0.0
3 H 1.873 59.267 19.508 H 0.0 **** 0.0
4 H 0.328 60.142 19.646 H 0.0 **** 0.0
5 H 1.867 61.022 19.809 H 0.0 **** 0.0
@<TRIPOS>BOND
1 1 2 1
2 1 3 1
3 1 4 1
4 1 5 1
@<TRIPOS>MOLECULE
CH4
5 4
SMALL
USER_CHARGES


@<TRIPOS>ATOM
1 C 26.049 65.487 14.447 C 0.0 **** 0.0
2 H 25.216 65.861 15.043 H 0.0 **** 0.0
3 H 26.867 66.207 14.475 H 0.0 **** 0.0
4 H 25.723 65.348 13.416 H 0.0 **** 0.0
5 H 26.388 64.534 14.853 H 0.0 **** 0.0
@<TRIPOS>BOND
1 1 2 1
2 1 3 1
3 1 4 1
4 1 5 1
@<TRIPOS>MOLECULE
CH4
5 4
SMALL
USER_CHARGES


@<TRIPOS>ATOM
1 C 63.934 79.341 23.1 C 0.0 **** 0.0
2 H 63.996 80.418 23.26 H 0.0 **** 0.0
3 H 63.936 78.831 24.064 H 0.0 **** 0.0
4 H 64.79 79.012 22.512 H 0.0 **** 0.0
5 H 63.013 79.106 22.566 H 0.0 **** 0.0
@<TRIPOS>BOND
1 1 2 1
2 1 3 1
3 1 4 1
4 1 5 1
@<TRIPOS>MOLECULE
CH4
5 4
SMALL
USER_CHARGES


@<TRIPOS>ATOM
1 C 53.944 66.547 29.183 C 0.0 **** 0.0
2 H 54.523 66.018 28.426 H 0.0 **** 0.0
3 H 54.504 67.419 29.524 H 0.0 **** 0.0
4 H 53.757 65.883 30.027 H 0.0 **** 0.0
5 H 52.995 66.869 28.756 H 0.0 **** 0.0
@<TRIPOS>BOND
1 1 2 1
2 1 3 1
3 1 4 1
4 1 5 1
@<TRIPOS>MOLECULE
CH4
5 4
SMALL
USER_CHARGES


@<TRIPOS>ATOM
1 C 5.785 22.156 61.743 C 0.0 **** 0.0
2 H 5.935 22.877 60.939 H 0.0 **** 0.0
3 H 5.1 22.574 62.481 H 0.0 **** 0.0
4 H 6.742 21.937 62.217 H 0.0 **** 0.0
5 H 5.364 21.239 61.333 H 0.0 **** 0.0
@<TRIPOS>BOND
1 1 2 1
2 1 3 1
3 1 4 1
4 1 5 1
@<TRIPOS>MOLECULE
CH4
5 4
SMALL
USER_CHARGES


@<TRIPOS>ATOM
1 C 88.783 20.854 40.466 C 0.0 **** 0.0
2 H 88.784 19.801 40.185 H 0.0 **** 0.0
3 H 88.05 21.39 39.863 H 0.0 **** 0.0
4 H 89.773 21.276 40.295 H 0.0 **** 0.0
5 H 88.525 20.948 41.521 H 0.0 **** 0.0
@<TRIPOS>BOND
1 1 2 1
2 1 3 1
3 1 4 1
4 1 5 1
@<TRIPOS>MOLECULE
CH4
5 4
SMALL
USER_CHARGES


@<TRIPOS>ATOM
1 C 58.066 28.644 71.89 C 0.0 **** 0.0
2 H 57.124 28.902 72.374 H 0.0 **** 0.0
3 H 57.912 28.562 70.814 H 0.0 **** 0.0
4 H 58.425 27.691 72.28 H 0.0 **** 0.0
5 H 58.803 29.421 72.094 H 0.0 **** 0.0
@<TRIPOS>BOND
1 1 2 1
2 1 3 1
3 1 4 1
4 1 5 1
@<TRIPOS>MOLECULE
CH4
5 4
SMALL
USER_CHARGES


@<TRIPOS>ATOM
1 C 93.599 13.159 34.259 C 0.0 **** 0.0
2 H 94.528 12.675 33.956 H 0.0 **** 0.0
3 H 93.594 13.292 35.341 H 0.0 **** 0.0
4 H 92.753 12.538 33.964 H 0.0 **** 0.0
5 H 93.522 14.132 33.773 H 0.0 **** 0.0
@<TRIPOS>BOND
1 1 2 1
2 1 3 1
3 1 4 1
4 1 5 1
@<TRIPOS>MOLECULE
CH4
5 4
SMALL
USER_CHARGES


@<TRIPOS>ATOM
1 C 48.338 30.321 51.303 C 0.0 **** 0.0
2 H 49.111 29.581 51.51 H 0.0 **** 0.0
3 H 48.74 31.321 51.466 H 0.0 **** 0.0
4 H 47.49 30.156 51.968 H 0.0 **** 0.0
5 H 48.011 30.225 50.268 H 0.0 **** 0.0
@<TRIPOS>BOND
1 1 2 1
2 1 3 1
3 1 4 1
4 1 5 1
@<TRIPOS>MOLECULE
CH4
5 4
SMALL
USER_CHARGES


@<TRIPOS>ATOM
1 C 58.229 56.655 34.972 C 0.0 **** 0.0
2 H 59.257 56.925 34.728 H 0.0 **** 0.0
3 H 57.764 56.177 34.11 H 0.0 **** 0.0
4 H 57.671 57.554 35.235 H 0.0 **** 0.0
5 H 58.226 55.966 35.816 H 0.0 **** 0.0
@<TRIPOS>BOND
1 1 2 1
2 1 3 1
3 1 4 1
4 1 5 1
@<TRIPOS>MOLECULE
CH4
5 4
SMALL
USER_CHARGES


@<TRIPOS>ATOM
1 C 52.137 37.395 20.421 C 0.0 **** 0.0
2 H 52.223 37.382 19.334 H 0.0 **** 0.0
3 H 53.024 37.861 20.85 H 0.0 **** 0.0
4 H 52.047 36.374 20.79 H 0.0 **** 0.0
5 H 51.253 37.965 20.708 H 0.0 **** 0.0
@<TRIPOS>BOND
1 1 2 1
2 1 3 1
3 1 4 1
4 1 5 1
@<TRIPOS>MOLECULE
CH4
5 4
SMALL
USER_CHARGES


@<TRIPOS>ATOM
1 C 12.682 50.914 51.288 C 0.0 **** 0.0
2 H 12.195 50.657 50.347 H 0.0 **** 0.0
3 H 12.054 51.61 51.844 H 0.0 **** 0.0
4 H 13.646 51.379 51.082 H 0.0 **** 0.0
5 H 12.833 50.009 51.877 H 0.0 **** 0.0
@<TRIPOS>BOND
1 1 2 1
2 1 3 1
3 1 4 1
4 1 5 1
@<TRIPOS>MOLECULE
CH4
5 4
SMALL
USER_CHARGES


@<TRIPOS>ATOM
1 C 86.683 27.304 70.891 C 0.0 **** 0.0
2 H 86.78 27.467 69.818 H 0.0 **** 0.0
3 H 87.674 27.203 71.334 H 0.0 **** 0.0
4 H 86.11 26.394 71.07 H 0.0 **** 0.0
5 H 86.168 28.152 71.342 H 0.0 **** 0.0
@<TRIPOS>BOND
1 1 4 1
2 1 5 1
3 1 2 1
4 1 3 1
@<TRIPOS>MOLECULE
CH4
5 4
SMALL
USER_CHARGES


@<TRIPOS>ATOM
1 C 92.93 33.429 62.01 C 0.0 **** 0.0
2 H 93.663 34.183 61.724 H 0.0 **** 0.0
3 H 93.366 32.436 61.89 H 0.0 **** 0.0
4 H 92.05 33.519 61.374 H 0.0 **** 0.0
5 H 92.644 33.577 63.051 H 0.0 **** 0.0
@<TRIPOS>BOND
1 1 2 1
2 1 3 1
3 1 4 1
4 1 5 1
@<TRIPOS>MOLECULE
CH4
5 4
SMALL
USER_CHARGES


@<TRIPOS>ATOM
1 C 19.49 53.282 70.144 C 0.0 **** 0.0
2 H 18.947 53.393 69.205 H 0.0 **** 0.0
3 H 19.631 52.222 70.359 H 0.0 **** 0.0
4 H 18.919 53.743 70.95 H 0.0 **** 0.0
5 H 20.462 53.769 70.061 H 0.0 **** 0.0
@<TRIPOS>BOND
1 1 2 1
2 1 3 1
3 1 4 1
4 1 5 1
@<TRIPOS>MOLECULE
CH4
5 4
SMALL
USER_CHARGES


@<TRIPOS>ATOM
1 C 4.636 26.639 5.724 C 0.0 **** 0.0
2 H 4.061 26.573 4.801 H 0.0 **** 0.0
3 H 5.048 25.659 5.966 H 0.0 **** 0.0
4 H 3.985 26.969 6.534 H 0.0 **** 0.0
5 H 5.448 27.354 5.597 H 0.0 **** 0.0
@<TRIPOS>BOND
1 1 2 1
2 1 3 1
3 1 4 1
4 1 5 1
@<TRIPOS>MOLECULE
CH4
5 4
SMALL
USER_CHARGES


@<TRIPOS>ATOM
1 C 30.543 39.276 65.336 C 0.0 **** 0.0
2 H 29.944 39.945 64.719 H 0.0 **** 0.0
3 H 31.407 38.933 64.767 H 0.0 **** 0.0
4 H 29.939 38.418 65.633 H 0.0 **** 0.0
5 H 30.881 39.807 66.226 H 0.0 **** 0.0
@<TRIPOS>BOND
1 1 2 1
2 1 3 1
3 1 4 1
4 1 5 1
@<TRIPOS>MOLECULE
CH4
5 4
SMALL
USER_CHARGES


@<TRIPOS>ATOM
1 C 34.285 10.231 11.147 C 0.0 **** 0.0
2 H 34.491 10.44 12.196 H 0.0 **** 0.0
3 H 33.26 10.52 10.914 H 0.0 **** 0.0
4 H 34.415 9.166 10.956 H 0.0 **** 0.0
5 H 34.974 10.8 10.522 H 0.0 **** 0.0
@<TRIPOS>BOND
1 1 2 1
2 1 3 1
3 1 4 1
4 1 5 1
@<TRIPOS>MOLECULE
CH4
5 4
SMALL
USER_CHARGES


@<TRIPOS>ATOM
1 C 21.497 62.636 18.423 C 0.0 **** 0.0
2 H 21.425 61.726 17.829 H 0.0 **** 0.0
3 H 20.521 62.87 18.849 H 0.0 **** 0.0
4 H 21.823 63.46 17.787 H 0.0 **** 0.0
5 H 22.218 62.489 19.226 H 0.0 **** 0.0
@<TRIPOS>BOND
1 1 2 1
2 1 3 1
3 1 4 1
4 1 5 1
@<TRIPOS>MOLECULE
CH4
5 4
SMALL
USER_CHARGES


@<TRIPOS>ATOM
1 C 26.395 1.629 68.946 C 0.0 **** 0.0
2 H 26.252 1.505 70.02 H 0.0 **** 0.0
3 H 27.198 0.974 68.608 H 0.0 **** 0.0
4 H 26.656 2.665 68.732 H 0.0 **** 0.0
5 H 25.472 1.372 68.425 H 0.0 **** 0.0
@<TRIPOS>BOND
1 1 2 1
2 1 3 1
3 1 4 1
4 1 5 1
@<TRIPOS>MOLECULE
CH4
5 4
SMALL
USER_CHARGES


@<TRIPOS>ATOM
1 C 79.166 38.009 74.349 C 0.0 **** 0.0
2 H 79.631 38.455 75.228 H 0.0 **** 0.0
3 H 78.256 38.556 74.102 H 0.0 **** 0.0
4 H 78.919 36.968 74.558 H 0.0 **** 0.0
5 H 79.858 38.056 73.508 H 0.0 **** 0.0
@<TRIPOS>BOND
1 1 2 1
2 1 3 1
3 1 4 1
4 1 5 1
@<TRIPOS>MOLECULE
CH4
5 4
SMALL
USER_CHARGES


@<TRIPOS>ATOM
1 C 21.599 69.834 81.384 C 0.0 **** 0.0
2 H 21.435 69.69 80.316 H 0.0 **** 0.0
3 H 21.057 69.068 81.94 H 0.0 **** 0.0
4 H 21.239 70.82 81.677 H 0.0 **** 0.0
5 H 22.664 69.756 81.601 H 0.0 **** 0.0
@<TRIPOS>BOND
1 1 2 1
2 1 3 1
3 1 4 1
4 1 5 1
@<TRIPOS>MOLECULE
CH4
5 4
SMALL
USER_CHARGES


@<TRIPOS>ATOM
1 C 21.4 20.278 68.467 C 0.0 **** 0.0
2 H 21.356 20.526 69.527 H 0.0 **** 0.0
3 H 21.183 21.168 67.876 H 0.0 **** 0.0
4 H 20.664 19.505 68.244 H 0.0 **** 0.0
5 H 22.396 19.912 68.22 H 0.0 **** 0.0
@<TRIPOS>BOND
1 1 2 1
2 1 3 1
3 1 4 1
4 1 5 1
@<TRIPOS>MOLECULE
CH4
5 4
SMALL
USER_CHARGES


@<TRIPOS>ATOM
1 C 66.885 87.868 81.91 C 0.0 **** 0.0
2 H 66.372 87.04 82.396 H 0.0 **** 0.0
3 H 66.154 88.512 81.42 H 0.0 **** 0.0
4 H 67.581 87.478 81.167 H 0.0 **** 0.0
5 H 67.435 88.443 82.655 H 0.0 **** 0.0
@<TRIPOS>BOND
1 1 2 1
2 1 3 1
3 1 4 1
4 1 5 1
@<TRIPOS>MOLECULE
CH4
5 4
SMALL
USER_CHARGES


@<TRIPOS>ATOM
1 C 85.463 58.02 7.277 C 0.0 **** 0.0
2 H 85.818 57.02 7.528 H 0.0 **** 0.0
3 H 85.331 58.097 6.197 H 0.0 **** 0.0
4 H 86.194 58.758 7.607 H 0.0 **** 0.0
5 H 84.511 58.203 7.774 H 0.0 **** 0.0
@<TRIPOS>BOND
1 1 2 1
2 1 3 1
3 1 4 1
4 1 5 1
@<TRIPOS>MOLECULE
CH4
5 4
SMALL
USER_CHARGES


@<TRIPOS>ATOM
1 C 4.778 89.078 85.065 C 0.0 **** 0.0
2 H 4.11 89.054 85.926 H 0.0 **** 0.0
3 H 4.261 88.678 84.193 H 0.0 **** 0.0
4 H 5.661 88.474 85.274 H 0.0 **** 0.0
5 H 5.081 90.107 84.869 H 0.0 **** 0.0
@<TRIPOS>BOND
1 1 2 1
2 1 3 1
3 1 4 1
4 1 5 1
@<TRIPOS>MOLECULE
CH4
5 4
SMALL
USER_CHARGES


@<TRIPOS>ATOM
1 C 54.333 47.378 95.903 C 0.0 **** 0.0
2 H 55.291 47.12 95.454 H 0.0 **** 0.0
3 H 53.982 46.547 96.515 H 0.0 **** 0.0
4 H 53.606 47.584 95.117 H 0.0 **** 0.0
5 H 54.452 48.264 96.528 H 0.0 **** 0.0
@<TRIPOS>BOND
1 1 2 1
2 1 3 1
3 1 4 1
4 1 5 1
@<TRIPOS>MOLECULE
CH4
5 4
SMALL
USER_CHARGES


@<TRIPOS>ATOM
1 C 49.157 56.336 59.884 C 0.0 **** 0.0
2 H 49.246 55.31 59.529 H 0.0 **** 0.0
3 H 50.103 56.857 59.732 H 0.0 **** 0.0
4 H 48.911 56.333 60.946 H 0.0 **** 0.0
5 H 48.368 56.846 59.331 H 0.0 **** 0.0
@<TRIPOS>BOND
1 1 2 1
2 1 3 1
3 1 4 1
4 1 5 1
@<TRIPOS>MOLECULE
CH4
5 4
SMALL
USER_CHARGES


@<TRIPOS>ATOM
1 C 81.094 4.612 90.578 C 0.0 **** 0.0
2 H 81.507 4.856 91.556 H 0.0 **** 0.0
3 H 80.244 3.941 90.7 H 0.0 **** 0.0
4 H 81.858 4.125 89.972 H 0.0 **** 0.0
5 H 80.767 5.527 90.083 H 0.0 **** 0.0
@<TRIPOS>BOND
1 1 2 1
2 1 3 1
3 1 4 1
4 1 5 1
@<TRIPOS>MOLECULE
CH4
5 4
SMALL
USER_CHARGES


@<TRIPOS>ATOM
1 C 25.949 84.574 77.554 C 0.0 **** 0.0
2 H 25.071 84.201 77.027 H 0.0 **** 0.0
3 H 25.682 84.804 78.586 H 0.0 **** 0.0
4 H 26.311 85.477 77.062 H 0.0 **** 0.0
5 H 26.731 83.815 77.541 H 0.0 **** 0.0
@<TRIPOS>BOND
1 1 3 1
2 1 4 1
3 1 5 1
4 1 2 1
@<TRIPOS>MOLECULE
CH4
5 4
SMALL
USER_CHARGES


@<TRIPOS>ATOM
1 C 55.091 58.444 13.495 C 0.0 **** 0.0
2 H 55.181 58.242 14.562 H 0.0 **** 0.0
3 H 55.16 57.508 12.941 H 0.0 **** 0.0
4 H 55.895 59.111 13.183 H 0.0 **** 0.0
5 H 54.129 58.916 13.294 H 0.0 **** 0.0
@<TRIPOS>BOND
1 1 2 1
2 1 3 1
3 1 4 1
4 1 5 1
@<TRIPOS>MOLECULE
CH4
5 4
SMALL
USER_CHARGES


@<TRIPOS>ATOM
1 C 6.776 85.495 62.275 C 0.0 **** 0.0
2 H 7.463 85.009 61.582 H 0.0 **** 0.0
3 H 6.38 84.756 62.971 H 0.0 **** 0.0
4 H 5.956 85.946 61.717 H 0.0 **** 0.0
5 H 7.307 86.269 62.83 H 0.0 **** 0.0
@<TRIPOS>BOND
1 1 2 1
2 1 3 1
3 1 4 1
4 1 5 1
@<TRIPOS>MOLECULE
CH4
5 4
SMALL
USER_CHARGES


@<TRIPOS>ATOM
1 C 19.426 83.757 26.184 C 0.0 **** 0.0
2 H 19.488 83.676 27.269 H 0.0 **** 0.0
3 H 20.25 84.37 25.818 H 0.0 **** 0.0
4 H 18.478 84.219 25.908 H 0.0 **** 0.0
5 H 19.488 82.763 25.742 H 0.0 **** 0.0
@<TRIPOS>BOND
1 1 2 1
2 1 3 1
3 1 4 1
4 1 5 1
@<TRIPOS>MOLECULE
CH4
5 4
SMALL
USER_CHARGES


@<TRIPOS>ATOM
1 C 42.369 6.742 73.74 C 0.0 **** 0.0
2 H 42.048 5.707 73.621 H 0.0 **** 0.0
3 H 43.329 6.767 74.255 H 0.0 **** 0.0
4 H 41.627 7.286 74.325 H 0.0 **** 0.0
5 H 42.47 7.206 72.759 H 0.0 **** 0.0
@<TRIPOS>BOND
1 1 2 1
2 1 3 1
3 1 4 1
4 1 5 1
@<TRIPOS>MOLECULE
CH4
5 4
SMALL
USER_CHARGES


@<TRIPOS>ATOM
1 C 56.048 16.381 22.102 C 0.0 **** 0.0
2 H 55.807 16.385 21.039 H 0.0 **** 0.0
3 H 56.473 15.415 22.374 H 0.0 **** 0.0
4 H 55.141 16.555 22.681 H 0.0 **** 0.0
5 H 56.771 17.169 22.313 H 0.0 **** 0.0
@<TRIPOS>BOND
1 1 2 1
2 1 3 1
3 1 4 1
4 1 5 1
@<TRIPOS>MOLECULE
CH4
5 4
SMALL
USER_CHARGES


@<TRIPOS>ATOM
1 C 42.375 70.158 42.334 C 0.0 **** 0.0
2 H 42.445 70.68 43.288 H 0.0 **** 0.0
3 H 41.904 69.187 42.486 H 0.0 **** 0.0
4 H 43.375 70.018 41.923 H 0.0 **** 0.0
5 H 41.777 70.748 41.64 H 0.0 **** 0.0
@<TRIPOS>BOND
1 1 2 1
2 1 3 1
3 1 4 1
4 1 5 1
@<TRIPOS>MOLECULE
CH4
5 4
SMALL
USER_CHARGES


@<TRIPOS>ATOM
1 C 21.226 64.922 30.785 C 0.0 **** 0.0
2 H 22.3 64.89 30.972 H 0.0 **** 0.0
3 H 21.041 64.821 29.715 H 0.0 **** 0.0
4 H 20.825 65.873 31.135 H 0.0 **** 0.0
5 H 20.74 64.105 31.318 H 0.0 **** 0.0
@<TRIPOS>BOND
1 1 2 1
2 1 3 1
3 1 4 1
4 1 5 1
@<TRIPOS>MOLECULE
CH4
5 4
SMALL
USER_CHARGES


@<TRIPOS>ATOM
1 C 16.099 41.779 6.798 C 0.0 **** 0.0
2 H 16.411 40.786 7.121 H 0.0 **** 0.0
3 H 15.071 41.738 6.439 H 0.0 **** 0.0
4 H 16.752 42.121 5.995 H 0.0 **** 0.0
5 H 16.163 42.471 7.638 H 0.0 **** 0.0
@<TRIPOS>BOND
1 1 2 1
2 1 3 1
3 1 4 1
4 1 5 1
@<TRIPOS>MOLECULE
CH4
5 4
SMALL
USER_CHARGES


@<TRIPOS>ATOM
1 C 65.703 45.198 36.058 C 0.0 **** 0.0
2 H 65.477 45.323 37.117 H 0.0 **** 0.0
3 H 66.285 44.288 35.916 H 0.0 **** 0.0
4 H 66.276 46.055 35.706 H 0.0 **** 0.0
5 H 64.772 45.127 35.495 H 0.0 **** 0.0
@<TRIPOS>BOND
1 1 2 1
2 1 3 1
3 1 4 1
4 1 5 1
@<TRIPOS>MOLECULE
CH4
5 4
SMALL
USER_CHARGES


@<TRIPOS>ATOM
1 C 37.206 59.948 94.556 C 0.0 **** 0.0
2 H 37.047 59.306 93.689 H 0.0 **** 0.0
3 H 36.242 60.222 94.986 H 0.0 **** 0.0
4 H 37.736 60.849 94.248 H 0.0 **** 0.0
5 H 37.798 59.414 95.299 H 0.0 **** 0.0
@<TRIPOS>BOND
1 1 2 1
2 1 3 1
3 1 4 1
4 1 5 1
@<TRIPOS>MOLECULE
CH4
5 4
SMALL
USER_CHARGES


@<TRIPOS>ATOM
1 C 40.785 93.159 97.487 C 0.0 **** 0.0
2 H 41.387 92.815 96.645 H 0.0 **** 0.0
3 H 41.355 93.885 98.067 H 0.0 **** 0.0
4 H 40.527 92.31 98.12 H 0.0 **** 0.0
5 H 39.873 93.625 97.115 H 0.0 **** 0.0
@<TRIPOS>BOND
1 1 2 1
2 1 3 1
3 1 4 1
4 1 5 1
@<TRIPOS>MOLECULE
CH4
5 4
SMALL
USER_CHARGES


@<TRIPOS>ATOM
1 C 69.565 26.227 18.519 C 0.0 **** 0.0
2 H 69.257 25.804 19.475 H 0.0 **** 0.0
3 H 68.705 26.685 18.031 H 0.0 **** 0.0
4 H 69.965 25.436 17.884 H 0.0 **** 0.0
5 H 70.333 26.982 18.686 H 0.0 **** 0.0
@<TRIPOS>BOND
1 1 2 1
2 1 3 1
3 1 4 1
4 1 5 1
@<TRIPOS>MOLECULE
CH4
5 4
SMALL
USER_CHARGES


@<TRIPOS>ATOM
1 C 87.163 80.448 89.244 C 0.0 **** 0.0
2 H 87.772 80.394 88.342 H 0.0 **** 0.0
3 H 86.231 80.968 89.023 H 0.0 **** 0.0
4 H 87.708 80.99 90.018 H 0.0 **** 0.0
5 H 86.943 79.439 89.594 H 0.0 **** 0.0
@<TRIPOS>BOND
1 1 2 1
2 1 3 1
3 1 4 1
4 1 5 1
@<TRIPOS>MOLECULE
CH4
5 4
SMALL
USER_CHARGES


@<TRIPOS>ATOM
1 C 25.514 16.353 7.31 C 0.0 **** 0.0
2 H 25.914 16.936 6.481 H 0.0 **** 0.0
3 H 25.899 16.748 8.251 H 0.0 **** 0.0
4 H 25.818 15.312 7.201 H 0.0 **** 0.0
5 H 24.426 16.416 7.307 H 0.0 **** 0.0
@<TRIPOS>BOND
1 1 2 1
2 1 3 1
3 1 4 1
4 1 5 1
@<TRIPOS>MOLECULE
CH4
5 4
SMALL
USER_CHARGES


@<TRIPOS>ATOM
1 C 35.446 27.604 65.014 C 0.0 **** 0.0
2 H 36.22 27.596 65.78 H 0.0 **** 0.0
3 H 35.47 26.663 64.463 H 0.0 **** 0.0
4 H 35.623 28.432 64.327 H 0.0 **** 0.0
5 H 34.47 27.725 65.484 H 0.0 **** 0.0
@<TRIPOS>BOND
1 1 2 1
2 1 3 1
3 1 4 1
4 1 5 1
@<TRIPOS>MOLECULE
CH4
5 4
SMALL
USER_CHARGES


@<TRIPOS>ATOM
1 C 3.647 96.424 68.43 C 0.0 **** 0.0
2 H 3.683 97.451 68.068 H 0.0 **** 0.0
3 H 4.042 95.755 67.664 H 0.0 **** 0.0
4 H 2.615 96.153 68.652 H 0.0 **** 0.0
5 H 4.249 96.336 69.335 H 0.0 **** 0.0
@<TRIPOS>BOND
1 1 2 1
2 1 3 1
3 1 4 1
4 1 5 1
@<TRIPOS>MOLECULE
CH4
5 4
SMALL
USER_CHARGES


@<TRIPOS>ATOM
1 C 78.859 73.623 65.292 C 0.0 **** 0.0
2 H 78.796 73.296 66.33 H 0.0 **** 0.0
3 H 78.872 74.712 65.254 H 0.0 **** 0.0
4 H 77.995 73.25 64.741 H 0.0 **** 0.0
5 H 79.772 73.231 64.844 H 0.0 **** 0.0
@<TRIPOS>BOND
1 1 2 1
2 1 3 1
3 1 4 1
4 1 5 1
@<TRIPOS>MOLECULE
CH4
5 4
SMALL
USER_CHARGES


@<TRIPOS>ATOM
1 C 65.007 62.893 25.807 C 0.0 **** 0.0
2 H 65.069 62.01 26.443 H 0.0 **** 0.0
3 H 65.29 63.775 26.382 H 0.0 **** 0.0
4 H 63.986 63.008 25.443 H 0.0 **** 0.0
5 H 65.684 62.778 24.96 H 0.0 **** 0.0
@<TRIPOS>BOND
1 1 2 1
2 1 3 1
3 1 4 1
4 1 5 1
@<TRIPOS>MOLECULE
CH4
5 4
SMALL
USER_CHARGES


@<TRIPOS>ATOM
1 C 53.14 98.333 68.062 C 0.0 **** 0.0
2 H 53.908 98.827 68.658 H 0.0 **** 0.0
3 H 52.175 98.432 68.559 H 0.0 **** 0.0
4 H 53.387 97.277 67.955 H 0.0 **** 0.0
5 H 53.091 98.796 67.077 H 0.0 **** 0.0
@<TRIPOS>BOND
1 1 2 1
2 1 3 1
3 1 4 1
4 1 5 1
@<TRIPOS>MOLECULE
CH4
5 4
SMALL
USER_CHARGES


@<TRIPOS>ATOM
1 C 63.282 85.838 73.937 C 0.0 **** 0.0
2 H 63.084 86.454 73.059 H 0.0 **** 0.0
3 H 63.361 86.476 74.817 H 0.0 **** 0.0
4 H 64.216 85.295 73.796 H 0.0 **** 0.0
5 H 62.466 85.129 74.074 H 0.0 **** 0.0
@<TRIPOS>BOND
1 1 2 1
2 1 3 1
3 1 4 1
4 1 5 1
@<TRIPOS>MOLECULE
CH4
5 4
SMALL
USER_CHARGES


@<TRIPOS>ATOM
1 C 32.301 4.5 25.638 C 0.0 **** 0.0
2 H 33.126 3.792 25.567 H 0.0 **** 0.0
3 H 32.361 5.212 24.814 H 0.0 **** 0.0
4 H 32.361 5.035 26.585 H 0.0 **** 0.0
5 H 31.355 3.961 25.584 H 0.0 **** 0.0
@<TRIPOS>BOND
1 1 2 1
2 1 3 1
3 1 4 1
4 1 5 1
@<TRIPOS>MOLECULE
CH4
5 4
SMALL
USER_CHARGES


@<TRIPOS>ATOM
1 C 34.14 47.165 72.233 C 0.0 **** 0.0
2 H 34.992 46.755 72.774 H 0.0 **** 0.0
3 H 34.475 47.561 71.274 H 0.0 **** 0.0
4 H 33.688 47.966 72.819 H 0.0 **** 0.0
5 H 33.405 46.378 72.065 H 0.0 **** 0.0
@<TRIPOS>BOND
1 1 2 1
2 1 3 1
3 1 4 1
4 1 5 1
@<TRIPOS>MOLECULE
CH4
5 4
SMALL
USER_CHARGES


@<TRIPOS>ATOM
1 C 89.198 57.892 93.586 C 0.0 **** 0.0
2 H 89.167 57.905 92.497 H 0.0 **** 0.0
3 H 88.213 57.634 93.975 H 0.0 **** 0.0
4 H 89.487 58.877 93.953 H 0.0 **** 0.0
5 H 89.926 57.153 93.92 H 0.0 **** 0.0
@<TRIPOS>BOND
1 1 2 1
2 1 3 1
3 1 4 1
4 1 5 1
@<TRIPOS>MOLECULE
CH4
5 4
SMALL
USER_CHARGES


@<TRIPOS>ATOM
1 C 41.769 2.54 55.297 C 0.0 **** 0.0
2 H 41.933 2.588 56.373 H 0.0 **** 0.0
3 H 42.371 3.303 54.803 H 0.0 **** 0.0
4 H 40.714 2.714 55.082 H 0.0 **** 0.0
5 H 42.056 1.555 54.929 H 0.0 **** 0.0
@<TRIPOS>BOND
1 1 2 1
2 1 3 1
3 1 4 1
4 1 5 1
@<TRIPOS>MOLECULE
CH4
5 4
SMALL
USER_CHARGES


@<TRIPOS>ATOM
1 C 94.761 86.539 17.026 C 0.0 **** 0.0
2 H 94.341 86.759 16.045 H 0.0 **** 0.0
3 H 94.908 87.469 17.576 H 0.0 **** 0.0
4 H 95.719 86.033 16.905 H 0.0 **** 0.0
5 H 94.077 85.894 17.578 H 0.0 **** 0.0
@<TRIPOS>BOND
1 1 2 1
2 1 3 1
3 1 4 1
4 1 5 1
@<TRIPOS>MOLECULE
CH4
5 4
SMALL
USER_CHARGES


@<TRIPOS>ATOM
1 C 43.663 43.776 9.87 C 0.0 **** 0.0
2 H 43.592 44.798 10.242 H 0.0 **** 0.0
3 H 44.329 43.75 9.006 H 0.0 **** 0.0
4 H 42.673 43.427 9.577 H 0.0 **** 0.0
5 H 44.059 43.131 10.654 H 0.0 **** 0.0
@<TRIPOS>BOND
1 1 2 1
2 1 3 1
3 1 4 1
4 1 5 1
@<TRIPOS>MOLECULE
CH4
5 4
SMALL
USER_CHARGES


@<TRIPOS>ATOM
1 C 64.405 97.257 9.449 C 0.0 **** 0.0
2 H 65.115 98.018 9.773 H 0.0 **** 0.0
3 H 63.389 97.635 9.565 H 0.0 **** 0.0
4 H 64.532 96.36 10.056 H 0.0 **** 0.0
5 H 64.586 97.015 8.401 H 0.0 **** 0.0
@<TRIPOS>BOND
1 1 2 1
2 1 3 1
3 1 4 1
4 1 5 1
@<TRIPOS>MOLECULE
CH4
5 4
SMALL
USER_CHARGES


@<TRIPOS>ATOM
1 C 74.545 90.187 71.669 C 0.0 **** 0.0
2 H 73.751 89.481 71.426 H 0.0 **** 0.0
3 H 74.647 90.261 72.752 H 0.0 **** 0.0
4 H 74.298 91.167 71.259 H 0.0 **** 0.0
5 H 75.484 89.839 71.239 H 0.0 **** 0.0
@<TRIPOS>BOND
1 1 2 1
2 1 3 1
3 1 4 1
4 1 5 1
@<TRIPOS>MOLECULE
CH4
5 4
SMALL
USER_CHARGES


@<TRIPOS>ATOM
1 C 53.707 65.831 43.782 C 0.0 **** 0.0
2 H 54.724 65.968 43.415 H 0.0 **** 0.0
3 H 53.108 66.705 43.525 H 0.0 **** 0.0
4 H 53.726 65.709 44.865 H 0.0 **** 0.0
5 H 53.272 64.943 43.324 H 0.0 **** 0.0
@<TRIPOS>BOND
1 1 2 1
2 1 3 1
3 1 4 1
4 1 5 1
@<TRIPOS>MOLECULE
CH4
5 4
SMALL
USER_CHARGES


@<TRIPOS>ATOM
1 C 30.865 27.026 3.912 C 0.0 **** 0.0
2 H 30.171 27.81 4.212 H 0.0 **** 0.0
3 H 31.808 27.476 3.6 H 0.0 **** 0.0
4 H 30.439 26.462 3.082 H 0.0 **** 0.0
5 H 31.042 26.356 4.753 H 0.0 **** 0.0
@<TRIPOS>BOND
1 1 2 1
2 1 3 1
3 1 4 1
4 1 5 1
@<TRIPOS>MOLECULE
CH4
5 4
SMALL
USER_CHARGES


@<TRIPOS>ATOM
1 C 79.082 75.542 84.853 C 0.0 **** 0.0
2 H 78.912 75.579 85.929 H 0.0 **** 0.0
3 H 79.172 76.557 84.464 H 0.0 **** 0.0
4 H 78.243 75.041 84.37 H 0.0 **** 0.0
5 H 80.0 74.992 84.649 H 0.0 **** 0.0
@<TRIPOS>BOND
1 1 2 1
2 1 3 1
3 1 4 1
4 1 5 1
@<TRIPOS>MOLECULE
CH4
5 4
SMALL
USER_CHARGES


@<TRIPOS>ATOM
1 C 54.575 27.743 32.944 C 0.0 **** 0.0
2 H 54.999 28.422 32.204 H 0.0 **** 0.0
3 H 55.339 27.035 33.267 H 0.0 **** 0.0
4 H 53.74 27.2 32.501 H 0.0 **** 0.0
5 H 54.223 28.315 33.802 H 0.0 **** 0.0
@<TRIPOS>BOND
1 1 2 1
2 1 3 1
3 1 4 1
4 1 5 1
@<TRIPOS>MOLECULE
CH4
5 4
SMALL
USER_CHARGES


@<TRIPOS>ATOM
1 C 95.542 49.44 34.154 C 0.0 **** 0.0
2 H 96.407 49.205 33.534 H 0.0 **** 0.0
3 H 95.098 48.516 34.524 H 0.0 **** 0.0
4 H 94.808 49.985 33.561 H 0.0 **** 0.0
5 H 95.857 50.055 34.998 H 0.0 **** 0.0
@<TRIPOS>BOND
1 1 2 1
2 1 3 1
3 1 4 1
4 1 5 1
@<TRIPOS>MOLECULE
CH4
5 4
SMALL
USER_CHARGES


@<TRIPOS>ATOM
1 C 17.227 73.471 75.495 C 0.0 **** 0.0
2 H 17.97 73.314 74.712 H 0.0 **** 0.0
3 H 17.732 73.597 76.453 H 0.0 **** 0.0
4 H 16.563 72.609 75.544 H 0.0 **** 0.0
5 H 16.646 74.366 75.27 H 0.0 **** 0.0
@<TRIPOS>BOND
1 1 2 1
2 1 3 1
3 1 4 1
4 1 5 1
@<TRIPOS>MOLECULE
CH4
5 4
SMALL
USER_CHARGES


@<TRIPOS>ATOM
1 C 10.922 65.76 73.894 C 0.0 **** 0.0
2 H 11.275 65.984 74.9 H 0.0 **** 0.0
3 H 11.774 65.688 73.218 H 0.0 **** 0.0
4 H 10.257 66.556 73.557 H 0.0 **** 0.0
5 H 10.382 64.814 73.901 H 0.0 **** 0.0
@<TRIPOS>BOND
1 1 2 1
2 1 3 1
3 1 4 1
4 1 5 1
@<TRIPOS>MOLECULE
CH4
5 4
SMALL
USER_CHARGES


@<TRIPOS>ATOM
1 C 46.282 71.484 42.353 C 0.0 **** 0.0
2 H 45.332 70.951 42.358 H 0.0 **** 0.0
3 H 46.127 72.506 42.701 H 0.0 **** 0.0
4 H 46.683 71.502 41.34 H 0.0 **** 0.0
5 H 46.986 70.978 43.013 H 0.0 **** 0.0
@<TRIPOS>BOND
1 1 2 1
2 1 3 1
3 1 4 1
4 1 5 1
@<TRIPOS>MOLECULE
CH4
5 4
SMALL
USER_CHARGES


@<TRIPOS>ATOM
1 C 13.241 53.173 34.88 C 0.0 **** 0.0
2 H 13.578 53.659 35.796 H 0.0 **** 0.0
3 H 12.153 53.202 34.833 H 0.0 **** 0.0
4 H 13.579 52.137 34.874 H 0.0 **** 0.0
5 H 13.657 53.696 34.019 H 0.0 **** 0.0
@<TRIPOS>BOND
1 1 2 1
2 1 3 1
3 1 4 1
4 1 5 1
@<TRIPOS>MOLECULE
CH4
5 4
SMALL
USER_CHARGES


@<TRIPOS>ATOM
1 C 74.878 54.589 50.959 C 0.0 **** 0.0
2 H 75.201 54.076 50.053 H 0.0 **** 0.0
3 H 75.69 54.587 51.686 H 0.0 **** 0.0
4 H 74.013 54.076 51.378 H 0.0 **** 0.0
5 H 74.609 55.617 50.717 H 0.0 **** 0.0
@<TRIPOS>BOND
1 1 2 1
2 1 3 1
3 1 4 1
4 1 5 1
@<TRIPOS>MOLECULE
CH4
5 4
SMALL
USER_CHARGES


@<TRIPOS>ATOM
1 C 3.498 8.464 72.94 C 0.0 **** 0.0
2 H 2.662 9.105 73.218 H 0.0 **** 0.0
3 H 3.424 8.21 71.882 H 0.0 **** 0.0
4 H 3.47 7.552 73.536 H 0.0 **** 0.0
5 H 4.435 8.99 73.123 H 0.0 **** 0.0
@<TRIPOS>BOND
1 1 2 1
2 1 3 1
3 1 4 1
4 1 5 1
@<TRIPOS>MOLECULE
CH4
5 4
SMALL
USER_CHARGES


@<TRIPOS>ATOM
1 C 11.642 29.65 45.624 C 0.0 **** 0.0
2 H 11.54 29.298 44.597 H 0.0 **** 0.0
3 H 11.379 30.707 45.673 H 0.0 **** 0.0
4 H 12.672 29.515 45.953 H 0.0 **** 0.0
5 H 10.976 29.079 46.271 H 0.0 **** 0.0
@<TRIPOS>BOND
1 1 2 1
2 1 3 1
3 1 4 1
4 1 5 1
@<TRIPOS>MOLECULE
CH4
5 4
SMALL
USER_CHARGES


@<TRIPOS>ATOM
1 C 38.424 17.417 24.191 C 0.0 **** 0.0
2 H 38.416 17.416 25.281 H 0.0 **** 0.0
3 H 38.947 16.53 23.831 H 0.0 **** 0.0
4 H 38.934 18.311 23.833 H 0.0 **** 0.0
5 H 37.399 17.41 23.821 H 0.0 **** 0.0
@<TRIPOS>BOND
1 1 2 1
2 1 3 1
3 1 4 1
4 1 5 1
@<TRIPOS>MOLECULE
CH4
5 4
SMALL
USER_CHARGES


@<TRIPOS>ATOM
1 C 6.848 61.303 54.753 C 0.0 **** 0.0
2 H 7.623 60.545 54.637 H 0.0 **** 0.0
3 H 7.189 62.068 55.45 H 0.0 **** 0.0
4 H 5.941 60.838 55.14 H 0.0 **** 0.0
5 H 6.638 61.759 53.785 H 0.0 **** 0.0
@<TRIPOS>BOND
1 1 2 1
2 1 3 1
3 1 4 1
4 1 5 1
@<TRIPOS>MOLECULE
CH4
5 4
SMALL
USER_CHARGES


@<TRIPOS>ATOM
1 C 78.976 26.545 9.686 C 0.0 **** 0.0
2 H 79.178 26.45 8.619 H 0.0 **** 0.0
3 H 78.555 27.53 9.889 H 0.0 **** 0.0
4 H 79.905 26.425 10.244 H 0.0 **** 0.0
5 H 78.267 25.776 9.992 H 0.0 **** 0.0
@<TRIPOS>BOND
1 1 2 1
2 1 3 1
3 1 4 1
4 1 5 1
@<TRIPOS>MOLECULE
CH4
5 4
SMALL
USER_CHARGES


@<TRIPOS>ATOM
1 C 27.698 48.569 7.93 C 0.0 **** 0.0
2 H 27.706 48.555 6.841 H 0.0 **** 0.0
3 H 28.676 48.264 8.304 H 0.0 **** 0.0
4 H 26.938 47.879 8.297 H 0.0 **** 0.0
5 H 27.473 49.576 8.28 H 0.0 **** 0.0
@<TRIPOS>BOND
1 1 2 1
2 1 3 1
3 1 4 1
4 1 5 1
@<TRIPOS>MOLECULE
CH4
5 4
SMALL
USER_CHARGES


@<TRIPOS>ATOM
1 C 6.621 17.955 76.966 C 0.0 **** 0.0
2 H 6.748 18.287 75.936 H 0.0 **** 0.0
3 H 6.001 17.058 76.984 H 0.0 **** 0.0
4 H 6.139 18.742 77.545 H 0.0 **** 0.0
5 H 7.597 17.731 77.398 H 0.0 **** 0.0
@<TRIPOS>BOND
1 1 2 1
2 1 3 1
3 1 4 1
4 1 5 1
@<TRIPOS>MOLECULE
CH4
5 4
SMALL
USER_CHARGES


@<TRIPOS>ATOM
1 C 48.456 7.62 6.792 C 0.0 **** 0.0
2 H 48.432 6.619 7.224 H 0.0 **** 0.0
3 H 48.834 8.325 7.532 H 0.0 **** 0.0
4 H 47.448 7.911 6.495 H 0.0 **** 0.0
5 H 49.108 7.623 5.919 H 0.0 **** 0.0
@<TRIPOS>BOND
1 1 2 1
2 1 3 1
3 1 4 1
4 1 5 1
@<TRIPOS>MOLECULE
CH4
5 4
SMALL
USER_CHARGES


@<TRIPOS>ATOM
1 C 42.26 3.82 88.469 C 0.0 **** 0.0
2 H 42.06 3.404 87.482 H 0.0 **** 0.0
3 H 41.87 4.837 88.521 H 0.0 **** 0.0
4 H 43.335 3.833 88.647 H 0.0 **** 0.0
5 H 41.774 3.205 89.227 H 0.0 **** 0.0
@<TRIPOS>BOND
1 1 2 1
2 1 3 1
3 1 4 1
4 1 5 1
@<TRIPOS>MOLECULE
CH4
5 4
SMALL
USER_CHARGES


@<TRIPOS>ATOM
1 C 3.543 40.125 97.793 C 0.0 **** 0.0
2 H 3.53 40.226 96.708 H 0.0 **** 0.0
3 H 2.87 40.86 98.234 H 0.0 **** 0.0
4 H 4.556 40.292 98.16 H 0.0 **** 0.0
5 H 3.218 39.122 98.068 H 0.0 **** 0.0
@<TRIPOS>BOND
1 1 2 1
2 1 3 1
3 1 4 1
4 1 5 1
@<TRIPOS>MOLECULE
CH4
5 4
SMALL
USER_CHARGES


@<TRIPOS>ATOM
1 C 35.193 75.74 28.941 C 0.0 **** 0.0
2 H 36.233 75.905 29.221 H 0.0 **** 0.0
3 H 34.548 75.963 29.791 H 0.0 **** 0.0
4 H 35.056 74.701 28.644 H 0.0 **** 0.0
5 H 34.934 76.393 28.107 H 0.0 **** 0.0
@<TRIPOS>BOND
1 1 2 1
2 1 3 1
3 1 4 1
4 1 5 1
@<TRIPOS>MOLECULE
CH4
5 4
SMALL
USER_CHARGES


@<TRIPOS>ATOM
1 C 54.172 74.417 47.384 C 0.0 **** 0.0
2 H 54.909 74.269 46.595 H 0.0 **** 0.0
3 H 53.277 73.837 47.158 H 0.0 **** 0.0
4 H 53.914 75.474 47.446 H 0.0 **** 0.0
5 H 54.588 74.088 48.336 H 0.0 **** 0.0
@<TRIPOS>BOND
1 1 2 1
2 1 3 1
3 1 4 1
4 1 5 1
@<TRIPOS>MOLECULE
CH4
5 4
SMALL
USER_CHARGES


@<TRIPOS>ATOM
1 C 19.327 86.917 19.757 C 0.0 **** 0.0
2 H 20.173 87.378 19.247 H 0.0 **** 0.0
3 H 19.534 86.862 20.826 H 0.0 **** 0.0
4 H 19.17 85.912 19.365 H 0.0 **** 0.0
5 H 18.432 87.516 19.59 H 0.0 **** 0.0
@<TRIPOS>BOND
1 1 2 1
2 1 3 1
3 1 4 1
4 1 5 1
@<TRIPOS>MOLECULE
CH4
5 4
SMALL
USER_CHARGES


@<TRIPOS>ATOM
1 C 76.718 51.877 17.541 C 0.0 **** 0.0
2 H 77.806 51.87 17.467 H 0.0 **** 0.0
3 H 76.348 50.852 17.546 H 0.0 **** 0.0
4 H 76.3 52.411 16.688 H 0.0 **** 0.0
5 H 76.42 52.376 18.463 H 0.0 **** 0.0
@<TRIPOS>BOND
1 1 2 1
2 1 3 1
3 1 4 1
4 1 5 1
@<TRIPOS>MOLECULE
CH4
5 4
SMALL
USER_CHARGES


@<TRIPOS>ATOM
1 C 16.282 66.484 25.474 C 0.0 **** 0.0
2 H 15.456 66.908 24.902 H 0.0 **** 0.0
3 H 15.901 65.716 26.147 H 0.0 **** 0.0
4 H 16.763 67.271 26.055 H 0.0 **** 0.0
5 H 17.007 66.042 24.791 H 0.0 **** 0.0
@<TRIPOS>BOND
1 1 2 1
2 1 3 1
3 1 4 1
4 1 5 1
@<TRIPOS>MOLECULE
CH4
5 4
SMALL
USER_CHARGES


@<TRIPOS>ATOM
1 C 30.053 14.862 40.89 C 0.0 **** 0.0
2 H 29.9 14.898 41.969 H 0.0 **** 0.0
3 H 30.456 13.887 40.614 H 0.0 **** 0.0
4 H 30.754 15.642 40.597 H 0.0 **** 0.0
5 H 29.101 15.019 40.383 H 0.0 **** 0.0
@<TRIPOS>BOND
1 1 2 1
2 1 3 1
3 1 4 1
4 1 5 1
@<TRIPOS>MOLECULE
CH4
5 4
SMALL
USER_CHARGES


@<TRIPOS>ATOM
1 C 48.013 35.536 10.667 C 0.0 **** 0.0
2 H 47.641 35.008 11.546 H 0.0 **** 0.0
3 H 48.748 34.914 10.155 H 0.0 **** 0.0
4 H 48.481 36.47 10.977 H 0.0 **** 0.0
5 H 47.184 35.749 9.994 H 0.0 **** 0.0
@<TRIPOS>BOND
1 1 2 1
2 1 3 1
3 1 4 1
4 1 5 1
@<TRIPOS>MOLECULE
CH4
5 4
SMALL
USER_CHARGES


@<TRIPOS>ATOM
1 C 7.61 80.089 76.189 C 0.0 **** 0.0
2 H 7.964 80.992 75.693 H 0.0 **** 0.0
3 H 6.545 80.185 76.402 H 0.0 **** 0.0
4 H 8.157 79.95 77.122 H 0.0 **** 0.0
5 H 7.775 79.229 75.54 H 0.0 **** 0.0
@<TRIPOS>BOND
1 1 2 1
2 1 3 1
3 1 4 1
4 1 5 1
@<TRIPOS>MOLECULE
CH4
5 4
SMALL
USER_CHARGES


@<TRIPOS>ATOM
1 C 71.589 91.198 97.839 C 0.0 **** 0.0
2 H 71.977 91.596 96.902 H 0.0 **** 0.0
3 H 72.268 90.434 98.217 H 0.0 **** 0.0
4 H 70.606 90.759 97.668 H 0.0 **** 0.0
5 H 71.505 92.004 98.569 H 0.0 **** 0.0
@<TRIPOS>BOND
1 1 2 1
2 1 3 1
3 1 4 1
4 1 5 1
@<TRIPOS>MOLECULE
CH4
5 4
SMALL
USER_CHARGES


@<TRIPOS>ATOM
1 C 58.375 84.754 34.562 C 0.0 **** 0.0
2 H 58.386 85.617 35.229 H 0.0 **** 0.0
3 H 58.978 84.969 33.68 H 0.0 **** 0.0
4 H 57.349 84.543 34.259 H 0.0 **** 0.0
5 H 58.786 83.888 35.082 H 0.0 **** 0.0
@<TRIPOS>BOND
1 1 2 1
2 1 3 1
3 1 4 1
4 1 5 1
@<TRIPOS>MOLECULE
CH4
5 4
SMALL
USER_CHARGES


@<TRIPOS>ATOM
1 C 88.509 6.055 88.996 C 0.0 **** 0.0
2 H 88.897 6.657 88.174 H 0.0 **** 0.0
3 H 87.485 6.357 89.215 H 0.0 **** 0.0
4 H 89.129 6.204 89.879 H 0.0 **** 0.0
5 H 88.525 5.002 88.714 H 0.0 **** 0.0
@<TRIPOS>BOND
1 1 2 1
2 1 3 1
3 1 4 1
4 1 5 1
@<TRIPOS>MOLECULE
CH4
5 4
SMALL
USER_CHARGES


@<TRIPOS>ATOM
1 C 2.628 87.59 95.528 C 0.0 **** 0.0
2 H 2.319 88.602 95.267 H 0.0 **** 0.0
3 H 1.809 86.898 95.332 H 0.0 **** 0.0
4 H 2.892 87.552 96.585 H 0.0 **** 0.0
5 H 3.493 87.308 94.927 H 0.0 **** 0.0
@<TRIPOS>BOND
1 1 2 1
2 1 3 1
3 1 4 1
4 1 5 1
@<TRIPOS>MOLECULE
CH4
5 4
SMALL
USER_CHARGES


@<TRIPOS>ATOM
1 C 28.915 91.908 80.014 C 0.0 **** 0.0
2 H 28.69 92.042 81.072 H 0.0 **** 0.0
3 H 29.485 90.989 79.878 H 0.0 **** 0.0
4 H 29.5 92.755 79.657 H 0.0 **** 0.0
5 H 27.984 91.845 79.45 H 0.0 **** 0.0
@<TRIPOS>BOND
1 1 2 1
2 1 3 1
3 1 4 1
4 1 5 1
@<TRIPOS>MOLECULE
CH4
5 4
SMALL
USER_CHARGES


@<TRIPOS>ATOM
1 C 2.495 15.657 43.654 C 0.0 **** 0.0
2 H 2.829 15.868 42.638 H 0.0 **** 0.0
3 H 3.361 15.537 44.304 H 0.0 **** 0.0
4 H 1.907 14.739 43.658 H 0.0 **** 0.0
5 H 1.881 16.483 44.013 H 0.0 **** 0.0
@<TRIPOS>BOND
1 1 2 1
2 1 3 1
3 1 4 1
4 1 5 1
@<TRIPOS>MOLECULE
CH4
5 4
SMALL
USER_CHARGES


@<TRIPOS>ATOM
1 C 45.485 54.651 15.839 C 0.0 **** 0.0
2 H 45.194 54.741 16.886 H 0.0 **** 0.0
3 H 46.232 53.863 15.737 H 0.0 **** 0.0
4 H 45.906 55.597 15.497 H 0.0 **** 0.0
5 H 44.61 54.404 15.239 H 0.0 **** 0.0
@<TRIPOS>BOND
1 1 2 1
2 1 3 1
3 1 4 1
4 1 5 1
@<TRIPOS>MOLECULE
CH4
5 4
SMALL
USER_CHARGES


@<TRIPOS>ATOM
1 C 57.868 44.686 2.821 C 0.0 **** 0.0
2 H 57.847 45.311 3.714 H 0.0 **** 0.0
3 H 58.561 43.858 2.974 H 0.0 **** 0.0
4 H 58.196 45.282 1.969 H 0.0 **** 0.0
5 H 56.87 44.294 2.628 H 0.0 **** 0.0
@<TRIPOS>BOND
1 1 2 1
2 1 3 1
3 1 4 1
4 1 5 1
@<TRIPOS>MOLECULE
CH4
5 4
SMALL
USER_CHARGES


@<TRIPOS>ATOM
1 C 73.44 22.651 47.789 C 0.0 **** 0.0
2 H 72.687 23.379 48.09 H 0.0 **** 0.0
3 H 73.545 21.894 48.567 H 0.0 **** 0.0
4 H 74.395 23.155 47.642 H 0.0 **** 0.0
5 H 73.133 22.175 46.857 H 0.0 **** 0.0
@<TRIPOS>BOND
1 1 2 1
2 1 3 1
3 1 4 1
4 1 5 1
@<TRIPOS>MOLECULE
CH4
5 4
SMALL
USER_CHARGES


@<TRIPOS>ATOM
1 C 2.286 84.338 10.421 C 0.0 **** 0.0
2 H 2.594 84.612 11.43 H 0.0 **** 0.0
3 H 1.639 85.116 10.015 H 0.0 **** 0.0
4 H 1.743 83.393 10.451 H 0.0 **** 0.0
5 H 3.167 84.231 9.788 H 0.0 **** 0.0
@<TRIPOS>BOND
1 1 2 1
2 1 3 1
3 1 4 1
4 1 5 1
@<TRIPOS>MOLECULE
CH4
5 4
SMALL
USER_CHARGES


@<TRIPOS>ATOM
1 C 40.303 46.492 96.949 C 0.0 **** 0.0
2 H 40.082 46.564 95.884 H 0.0 **** 0.0
3 H 41.346 46.204 97.084 H 0.0 **** 0.0
4 H 39.657 45.742 97.405 H 0.0 **** 0.0
5 H 40.128 47.458 97.423 H 0.0 **** 0.0
@<TRIPOS>BOND
1 1 3 1
2 1 4 1
3 1 5 1
4 1 2 1
@<TRIPOS>MOLECULE
CH4
5 4
SMALL
USER_CHARGES


@<TRIPOS>ATOM
1 C 29.019 22.983 11.78 C 0.0 **** 0.0
2 H 29.102 23.362 10.761 H 0.0 **** 0.0
3 H 28.606 23.759 12.424 H 0.0 **** 0.0
4 H 30.006 22.696 12.142 H 0.0 **** 0.0
5 H 28.362 22.113 11.791 H 0.0 **** 0.0
@<TRIPOS>BOND
1 1 2 1
2 1 3 1
3 1 4 1
4 1 5 1
@<TRIPOS>MOLECULE
CH4
5 4
SMALL
USER_CHARGES


@<TRIPOS>ATOM
1 C 58.155 95.871 8.224 C 0.0 **** 0.0
2 H 58.175 95.25 7.328 H 0.0 **** 0.0
3 H 59.063 96.472 8.27 H 0.0 **** 0.0
4 H 58.095 95.234 9.106 H 0.0 **** 0.0
5 H 57.286 96.528 8.19 H 0.0 **** 0.0
@<TRIPOS>BOND
1 1 2 1
2 1 3 1
3 1 4 1
4 1 5 1
@<TRIPOS>MOLECULE
CH4
5 4
SMALL
USER_CHARGES


@<TRIPOS>ATOM
1 C 71.121 37.006 52.627 C 0.0 **** 0.0
2 H 70.9 37.675 53.458 H 0.0 **** 0.0
3 H 71.922 36.324 52.913 H 0.0 **** 0.0
4 H 71.434 37.591 51.762 H 0.0 **** 0.0
5 H 70.228 36.434 52.374 H 0.0 **** 0.0
@<TRIPOS>BOND
1 1 2 1
2 1 3 1
3 1 4 1
4 1 5 1
@<TRIPOS>MOLECULE
CH4
5 4
SMALL
USER_CHARGES


@<TRIPOS>ATOM
1 C 46.449 33.603 54.084 C 0.0 **** 0.0
2 H 46.929 33.868 55.026 H 0.0 **** 0.0
3 H 46.222 32.537 54.079 H 0.0 **** 0.0
4 H 47.12 33.836 53.257 H 0.0 **** 0.0
5 H 45.526 34.172 53.975 H 0.0 **** 0.0
@<TRIPOS>BOND
1 1 2 1
2 1 3 1
3 1 4 1
4 1 5 1
@<TRIPOS>MOLECULE
CH4
5 4
SMALL
USER_CHARGES


@<TRIPOS>ATOM
1 C 93.227 16.86 22.293 C 0.0 **** 0.0
2 H 92.972 17.92 22.33 H 0.0 **** 0.0
3 H 93.968 16.693 21.511 H 0.0 **** 0.0
4 H 92.331 16.278 22.077 H 0.0 **** 0.0
5 H 93.637 16.552 23.255 H 0.0 **** 0.0
@<TRIPOS>BOND
1 1 2 1
2 1 3 1
3 1 4 1
4 1 5 1
@<TRIPOS>MOLECULE
CH4
5 4
SMALL
USER_CHARGES


@<TRIPOS>ATOM
1 C 42.996 61.957 42.884 C 0.0 **** 0.0
2 H 42.141 61.621 42.297 H 0.0 **** 0.0
3 H 43.587 61.094 43.19 H 0.0 **** 0.0
4 H 42.643 62.488 43.768 H 0.0 **** 0.0
5 H 43.611 62.625 42.28 H 0.0 **** 0.0
@<TRIPOS>BOND
1 1 2 1
2 1 3 1
3 1 4 1
4 1 5 1
@<TRIPOS>MOLECULE
CH4
5 4
SMALL
USER_CHARGES


@<TRIPOS>ATOM
1 C 48.76 45.334 27.982 C 0.0 **** 0.0
2 H 48.346 45.99 27.216 H 0.0 **** 0.0
3 H 49.552 45.857 28.519 H 0.0 **** 0.0
4 H 49.168 44.439 27.512 H 0.0 **** 0.0
5 H 47.973 45.051 28.681 H 0.0 **** 0.0
@<TRIPOS>BOND
1 1 2 1
2 1 3 1
3 1 4 1
4 1 5 1
@<TRIPOS>MOLECULE
CH4
5 4
SMALL
USER_CHARGES


@<TRIPOS>ATOM
1 C 44.226 72.672 44.667 C 0.0 **** 0.0
2 H 44.916 73.488 44.455 H 0.0 **** 0.0
3 H 43.632 72.919 45.547 H 0.0 **** 0.0
4 H 44.792 71.759 44.855 H 0.0 **** 0.0
5 H 43.567 72.522 43.812 H 0.0 **** 0.0
@<TRIPOS>BOND
1 1 2 1
2 1 3 1
3 1 4 1
4 1 5 1
@<TRIPOS>MOLECULE
CH4
5 4
SMALL
USER_CHARGES


@<TRIPOS>ATOM
1 C 37.08 92.587 61.597 C 0.0 **** 0.0
2 H 36.959 91.634 62.112 H 0.0 **** 0.0
3 H 36.545 92.556 60.647 H 0.0 **** 0.0
4 H 38.139 92.768 61.413 H 0.0 **** 0.0
5 H 36.676 93.388 62.216 H 0.0 **** 0.0
@<TRIPOS>BOND
1 1 2 1
2 1 3 1
3 1 4 1
4 1 5 1
@<TRIPOS>MOLECULE
CH4
5 4
SMALL
USER_CHARGES


@<TRIPOS>ATOM
1 C 77.964 8.517 13.983 C 0.0 **** 0.0
2 H 78.437 7.576 14.266 H 0.0 **** 0.0
3 H 76.958 8.319 13.612 H 0.0 **** 0.0
4 H 78.552 8.998 13.201 H 0.0 **** 0.0
5 H 77.909 9.172 14.852 H 0.0 **** 0.0
@<TRIPOS>BOND
1 1 2 1
2 1 3 1
3 1 4 1
4 1 5 1
@<TRIPOS>MOLECULE
CH4
5 4
SMALL
USER_CHARGES


@<TRIPOS>ATOM
1 C 78.784 22.971 11.951 C 0.0 **** 0.0
2 H 79.162 22.137 11.359 H 0.0 **** 0.0
3 H 78.012 23.495 11.388 H 0.0 **** 0.0
4 H 79.601 23.657 12.174 H 0.0 **** 0.0
5 H 78.362 22.594 12.882 H 0.0 **** 0.0
@<TRIPOS>BOND
1 1 2 1
2 1 3 1
3 1 4 1
4 1 5 1
@<TRIPOS>MOLECULE
CH4
5 4
SMALL
USER_CHARGES


@<TRIPOS>ATOM
1 C 44.567 86.12 75.405 C 0.0 **** 0.0
2 H 44.647 86.471 74.377 H 0.0 **** 0.0
3 H 44.313 86.957 76.056 H 0.0 **** 0.0
4 H 45.519 85.692 75.718 H 0.0 **** 0.0
5 H 43.788 85.36 75.47 H 0.0 **** 0.0
@<TRIPOS>BOND
1 1 2 1
2 1 3 1
3 1 4 1
4 1 5 1
@<TRIPOS>MOLECULE
CH4
5 4
SMALL
USER_CHARGES


@<TRIPOS>ATOM
1 C 3.956 18.377 40.151 C 0.0 **** 0.0
2 H 4.019 18.988 41.051 H 0.0 **** 0.0
3 H 3.584 17.385 40.411 H 0.0 **** 0.0
4 H 4.945 18.288 39.703 H 0.0 **** 0.0
5 H 3.275 18.846 39.441 H 0.0 **** 0.0
@<TRIPOS>BOND
1 1 2 1
2 1 3 1
3 1 4 1
4 1 5 1
@<TRIPOS>MOLECULE
CH4
5 4
SMALL
USER_CHARGES


@<TRIPOS>ATOM
1 C 18.047 47.262 79.162 C 0.0 **** 0.0
2 H 18.168 47.439 80.231 H 0.0 **** 0.0
3 H 19.028 47.185 78.694 H 0.0 **** 0.0
4 H 17.496 48.091 78.718 H 0.0 **** 0.0
5 H 17.495 46.335 79.008 H 0.0 **** 0.0
@<TRIPOS>BOND
1 1 2 1
2 1 3 1
3 1 4 1
4 1 5 1
@<TRIPOS>MOLECULE
CH4
5 4
SMALL
USER_CHARGES


@<TRIPOS>ATOM
1 C 92.135 51.161 7.042 C 0.0 **** 0.0
2 H 91.612 50.557 6.3 H 0.0 **** 0.0
3 H 92.073 50.673 8.016 H 0.0 **** 0.0
4 H 91.673 52.146 7.099 H 0.0 **** 0.0
5 H 93.181 51.266 6.753 H 0.0 **** 0.0
@<TRIPOS>BOND
1 1 2 1
2 1 3 1
3 1 4 1
4 1 5 1
@<TRIPOS>MOLECULE
CH4
5 4
SMALL
USER_CHARGES


@<TRIPOS>ATOM
1 C 93.903 96.051 73.148 C 0.0 **** 0.0
2 H 93.93 96.107 72.06 H 0.0 **** 0.0
3 H 93.253 96.836 73.536 H 0.0 **** 0.0
4 H 94.91 96.184 73.543 H 0.0 **** 0.0
5 H 93.519 95.077 73.452 H 0.0 **** 0.0
@<TRIPOS>BOND
1 1 2 1
2 1 3 1
3 1 4 1
4 1 5 1
@<TRIPOS>MOLECULE
CH4
5 4
SMALL
USER_CHARGES


@<TRIPOS>ATOM
1 C 82.873 66.216 54.246 C 0.0 **** 0.0
2 H 82.726 65.212 54.643 H 0.0 **** 0.0
3 H 83.415 66.819 54.974 H 0.0 **** 0.0
4 H 81.904 66.672 54.043 H 0.0 **** 0.0
5 H 83.448 66.159 53.321 H 0.0 **** 0.0
@<TRIPOS>BOND
1 1 3 1
2 1 4 1
3 1 5 1
4 1 2 1
@<TRIPOS>MOLECULE
CH4
5 4
SMALL
USER_CHARGES


@<TRIPOS>ATOM
1 C 4.329 56.939 48.549 C 0.0 **** 0.0
2 H 3.345 56.983 49.015 H 0.0 **** 0.0
3 H 4.273 56.343 47.637 H 0.0 **** 0.0
4 H 5.038 56.481 49.239 H 0.0 **** 0.0
5 H 4.661 57.948 48.304 H 0.0 **** 0.0
@<TRIPOS>BOND
1 1 2 1
2 1 3 1
3 1 4 1
4 1 5 1
@<TRIPOS>MOLECULE
CH4
5 4
SMALL
USER_CHARGES


@<TRIPOS>ATOM
1 C 97.228 37.416 56.897 C 0.0 **** 0.0
2 H 96.643 38.328 57.02 H 0.0 **** 0.0
3 H 97.231 36.858 57.834 H 0.0 **** 0.0
4 H 98.251 37.675 56.625 H 0.0 **** 0.0
5 H 96.786 36.805 56.111 H 0.0 **** 0.0
@<TRIPOS>BOND
1 1 2 1
2 1 3 1
3 1 4 1
4 1 5 1
@<TRIPOS>MOLECULE
CH4
5 4
SMALL
USER_CHARGES


@<TRIPOS>ATOM
1 C 89.308 44.692 76.209 C 0.0 **** 0.0
2 H 89.392 43.87 76.919 H 0.0 **** 0.0
3 H 89.626 44.354 75.222 H 0.0 **** 0.0
4 H 89.942 45.518 76.532 H 0.0 **** 0.0
5 H 88.272 45.027 76.162 H 0.0 **** 0.0
@<TRIPOS>BOND
1 1 2 1
2 1 3 1
3 1 4 1
4 1 5 1
@<TRIPOS>MOLECULE
CH4
5 4
SMALL
USER_CHARGES


@<TRIPOS>ATOM
1 C 23.982 82.215 69.977 C 0.0 **** 0.0
2 H 23.413 82.375 69.061 H 0.0 **** 0.0
3 H 25.047 82.192 69.743 H 0.0 **** 0.0
4 H 23.688 81.267 70.426 H 0.0 **** 0.0
5 H 23.78 83.027 70.676 H 0.0 **** 0.0
@<TRIPOS>BOND
1 1 2 1
2 1 3 1
3 1 4 1
4 1 5 1
@<TRIPOS>MOLECULE
CH4
5 4
SMALL
USER_CHARGES


@<TRIPOS>ATOM
1 C 53.535 74.42 71.318 C 0.0 **** 0.0
2 H 54.383 74.518 71.996 H 0.0 **** 0.0
3 H 53.894 74.399 70.289 H 0.0 **** 0.0
4 H 52.863 75.268 71.452 H 0.0 **** 0.0
5 H 53.001 73.495 71.536 H 0.0 **** 0.0
@<TRIPOS>BOND
1 1 2 1
2 1 3 1
3 1 4 1
4 1 5 1
@<TRIPOS>MOLECULE
CH4
5 4
SMALL
USER_CHARGES


@<TRIPOS>ATOM
1 C 1.551 2.745 77.632 C 0.0 **** 0.0
2 H 2.128 3.479 77.069 H 0.0 **** 0.0
3 H 0.709 2.406 77.029 H 0.0 **** 0.0
4 H 1.182 3.2 78.551 H 0.0 **** 0.0
5 H 2.188 1.895 77.878 H 0.0 **** 0.0
@<TRIPOS>BOND
1 1 2 1
2 1 3 1
3 1 4 1
4 1 5 1
@<TRIPOS>MOLECULE
CH4
5 4
SMALL
USER_CHARGES


@<TRIPOS>ATOM
1 C 22.517 85.406 67.779 C 0.0 **** 0.0
2 H 22.686 85.335 68.853 H 0.0 **** 0.0
3 H 21.615 84.854 67.515 H 0.0 **** 0.0
4 H 23.37 84.982 67.249 H 0.0 **** 0.0
5 H 22.399 86.453 67.498 H 0.0 **** 0.0
@<TRIPOS>BOND
1 1 2 1
2 1 3 1
3 1 4 1
4 1 5 1
@<TRIPOS>MOLECULE
CH4
5 4
SMALL
USER_CHARGES


@<TRIPOS>ATOM
1 C 40.122 86.82 45.862 C 0.0 **** 0.0
2 H 40.416 86.726 44.817 H 0.0 **** 0.0
3 H 40.948 87.24 46.436 H 0.0 **** 0.0
4 H 39.868 85.836 46.257 H 0.0 **** 0.0
5 H 39.255 87.476 45.938 H 0.0 **** 0.0
@<TRIPOS>BOND
1 1 2 1
2 1 3 1
3 1 4 1
4 1 5 1
@<TRIPOS>MOLECULE
CH4
5 4
SMALL
USER_CHARGES


@<TRIPOS>ATOM
1 C 6.61 88.317 93.888 C 0.0 **** 0.0
2 H 6.002 88.968 93.26 H 0.0 **** 0.0
3 H 6.432 87.277 93.612 H 0.0 **** 0.0
4 H 6.341 88.467 94.934 H 0.0 **** 0.0
5 H 7.664 88.556 93.746 H 0.0 **** 0.0
@<TRIPOS>BOND
1 1 2 1
2 1 3 1
3 1 4 1
4 1 5 1
@<TRIPOS>MOLECULE
CH4
5 4
SMALL
USER_CHARGES


@<TRIPOS>ATOM
1 C 2.152 17.53 14.341 C 0.0 **** 0.0
2 H 3.046 17.437 13.724 H 0.0 **** 0.0
3 H 2.304 18.313 15.085 H 0.0 **** 0.0
4 H 1.959 16.583 14.845 H 0.0 **** 0.0
5 H 1.301 17.788 13.711 H 0.0 **** 0.0
@<TRIPOS>BOND
1 1 2 1
2 1 3 1
3 1 4 1
4 1 5 1
@<TRIPOS>MOLECULE
CH4
5 4
SMALL
USER_CHARGES


@<TRIPOS>ATOM
1 C 53.762 80.176 53.528 C 0.0 **** 0.0
2 H 54.71 79.699 53.281 H 0.0 **** 0.0
3 H 53.911 80.877 54.349 H 0.0 **** 0.0
4 H 53.039 79.417 53.824 H 0.0 **** 0.0
5 H 53.388 80.713 52.655 H 0.0 **** 0.0
@<TRIPOS>BOND
1 1 2 1
2 1 3 1
3 1 4 1
4 1 5 1
@<TRIPOS>MOLECULE
CH4
5 4
SMALL
USER_CHARGES


@<TRIPOS>ATOM
1 C 94.608 11.161 88.149 C 0.0 **** 0.0
2 H 95.217 12.057 88.27 H 0.0 **** 0.0
3 H 94.38 10.742 89.129 H 0.0 **** 0.0
4 H 95.154 10.427 87.557 H 0.0 **** 0.0
5 H 93.68 11.421 87.639 H 0.0 **** 0.0
@<TRIPOS>BOND
1 1 2 1
2 1 3 1
3 1 4 1
4 1 5 1
@<TRIPOS>MOLECULE
CH4
5 4
SMALL
USER_CHARGES


@<TRIPOS>ATOM
1 C 83.509 2.236 60.154 C 0.0 **** 0.0
2 H 83.787 1.499 59.4 H 0.0 **** 0.0
3 H 83.269 1.727 61.088 H 0.0 **** 0.0
4 H 82.639 2.796 59.811 H 0.0 **** 0.0
5 H 84.341 2.921 60.316 H 0.0 **** 0.0
@<TRIPOS>BOND
1 1 2 1
2 1 3 1
3 1 4 1
4 1 5 1
@<TRIPOS>MOLECULE
CH4
5 4
SMALL
USER_CHARGES


@<TRIPOS>ATOM
1 C 3.268 46.307 43.084 C 0.0 **** 0.0
2 H 2.369 46.889 42.88 H 0.0 **** 0.0
3 H 4.068 46.629 42.417 H 0.0 **** 0.0
4 H 3.06 45.25 42.919 H 0.0 **** 0.0
5 H 3.573 46.46 44.119 H 0.0 **** 0.0
@<TRIPOS>BOND
1 1 2 1
2 1 3 1
3 1 4 1
4 1 5 1
@<TRIPOS>MOLECULE
CH4
5 4
SMALL
USER_CHARGES


@<TRIPOS>ATOM
1 C 96.959 59.722 43.792 C 0.0 **** 0.0
2 H 96.749 59.736 44.861 H 0.0 **** 0.0
3 H 96.535 60.612 43.327 H 0.0 **** 0.0
4 H 96.516 58.832 43.346 H 0.0 **** 0.0
5 H 98.038 59.709 43.634 H 0.0 **** 0.0
@<TRIPOS>BOND
1 1 2 1
2 1 3 1
3 1 4 1
4 1 5 1
@<TRIPOS>MOLECULE
CH4
5 4
SMALL
USER_CHARGES


@<TRIPOS>ATOM
1 C 15.13 3.513 8.599 C 0.0 **** 0.0
2 H 14.996 3.325 9.664 H 0.0 **** 0.0
3 H 15.441 2.592 8.105 H 0.0 **** 0.0
4 H 15.894 4.277 8.458 H 0.0 **** 0.0
5 H 14.189 3.856 8.17 H 0.0 **** 0.0
@<TRIPOS>BOND
1 1 5 1
2 1 2 1
3 1 3 1
4 1 4 1
@<TRIPOS>MOLECULE
CH4
5 4
SMALL
USER_CHARGES


@<TRIPOS>ATOM
1 C 81.197 27.944 1.034 C 0.0 **** 0.0
2 H 81.31 28.076 2.11 H 0.0 **** 0.0
3 H 81.834 28.658 0.511 H 0.0 **** 0.0
4 H 80.156 28.112 0.755 H 0.0 **** 0.0
5 H 81.486 26.929 0.76 H 0.0 **** 0.0
@<TRIPOS>BOND
1 1 2 1
2 1 3 1
3 1 4 1
4 1 5 1
@<TRIPOS>MOLECULE
CH4
5 4
SMALL
USER_CHARGES


@<TRIPOS>ATOM
1 C 44.581 83.253 41.932 C 0.0 **** 0.0
2 H 45.514 83.784 42.119 H 0.0 **** 0.0
3 H 43.892 83.427 42.759 H 0.0 **** 0.0
4 H 44.782 82.185 41.845 H 0.0 **** 0.0
5 H 44.136 83.615 41.006 H 0.0 **** 0.0
@<TRIPOS>BOND
1 1 2 1
2 1 3 1
3 1 4 1
4 1 5 1
@<TRIPOS>MOLECULE
CH4
5 4
SMALL
USER_CHARGES


@<TRIPOS>ATOM
1 C 56.654 20.291 83.326 C 0.0 **** 0.0
2 H 57.451 19.549 83.276 H 0.0 **** 0.0
3 H 57.043 21.263 83.021 H 0.0 **** 0.0
4 H 56.28 20.354 84.348 H 0.0 **** 0.0
5 H 55.843 19.998 82.659 H 0.0 **** 0.0
@<TRIPOS>BOND
1 1 2 1
2 1 3 1
3 1 4 1
4 1 5 1
@<TRIPOS>MOLECULE
CH4
5 4
SMALL
USER_CHARGES


@<TRIPOS>ATOM
1 C 86.876 70.468 47.275 C 0.0 **** 0.0
2 H 87.003 70.512 46.193 H 0.0 **** 0.0
3 H 86.844 71.48 47.678 H 0.0 **** 0.0
4 H 87.713 69.927 47.716 H 0.0 **** 0.0
5 H 85.945 69.952 47.511 H 0.0 **** 0.0
@<TRIPOS>BOND
1 1 2 1
2 1 3 1
3 1 4 1
4 1 5 1
@<TRIPOS>MOLECULE
CH4
5 4
SMALL
USER_CHARGES


@<TRIPOS>ATOM
1 C 72.579 60.997 40.386 C 0.0 **** 0.0
2 H 72.77 61.784 41.116 H 0.0 **** 0.0
3 H 71.736 61.284 39.756 H 0.0 **** 0.0
4 H 72.345 60.068 40.906 H 0.0 **** 0.0
5 H 73.464 60.854 39.766 H 0.0 **** 0.0
@<TRIPOS>BOND
1 1 2 1
2 1 3 1
3 1 4 1
4 1 5 1
@<TRIPOS>MOLECULE
CH4
5 4
SMALL
USER_CHARGES


@<TRIPOS>ATOM
1 C 90.792 53.792 56.18 C 0.0 **** 0.0
2 H 90.234 54.28 55.38 H 0.0 **** 0.0
3 H 91.855 54.005 56.062 H 0.0 **** 0.0
4 H 90.629 52.716 56.132 H 0.0 **** 0.0
5 H 90.449 54.17 57.143 H 0.0 **** 0.0
@<TRIPOS>BOND
1 1 2 1
2 1 3 1
3 1 4 1
4 1 5 1
@<TRIPOS>MOLECULE
CH4
5 4
SMALL
USER_CHARGES


@<TRIPOS>ATOM
1 C 56.833 36.719 65.114 C 0.0 **** 0.0
2 H 56.127 37.53 65.295 H 0.0 **** 0.0
3 H 56.4 36.012 64.406 H 0.0 **** 0.0
4 H 57.047 36.208 66.053 H 0.0 **** 0.0
5 H 57.757 37.126 64.703 H 0.0 **** 0.0
@<TRIPOS>BOND
1 1 2 1
2 1 3 1
3 1 4 1
4 1 5 1
@<TRIPOS>MOLECULE
CH4
5 4
SMALL
USER_CHARGES


@<TRIPOS>ATOM
1 C 72.316 36.293 86.018 C 0.0 **** 0.0
2 H 71.591 36.061 85.238 H 0.0 **** 0.0
3 H 71.799 36.713 86.881 H 0.0 **** 0.0
4 H 73.038 37.017 85.638 H 0.0 **** 0.0
5 H 72.836 35.382 86.313 H 0.0 **** 0.0
@<TRIPOS>BOND
1 1 2 1
2 1 3 1
3 1 4 1
4 1 5 1
@<TRIPOS>MOLECULE
CH4
5 4
SMALL
USER_CHARGES


@<TRIPOS>ATOM
1 C 96.861 51.869 4.029 C 0.0 **** 0.0
2 H 96.613 51.864 2.968 H 0.0 **** 0.0
3 H 97.808 51.35 4.183 H 0.0 **** 0.0
4 H 96.075 51.363 4.589 H 0.0 **** 0.0
5 H 96.95 52.898 4.376 H 0.0 **** 0.0
@<TRIPOS>BOND
1 1 4 1
2 1 5 1
3 1 2 1
4 1 3 1
@<TRIPOS>MOLECULE
CH4
5 4
SMALL
USER_CHARGES


@<TRIPOS>ATOM
1 C 31.963 84.536 76.967 C 0.0 **** 0.0
2 H 31.806 83.746 76.232 H 0.0 **** 0.0
3 H 33.033 84.677 77.125 H 0.0 **** 0.0
4 H 31.49 84.256 77.908 H 0.0 **** 0.0
5 H 31.525 85.464 76.601 H 0.0 **** 0.0
@<TRIPOS>BOND
1 1 2 1
2 1 3 1
3 1 4 1
4 1 5 1
@<TRIPOS>MOLECULE
CH4
5 4
SMALL
USER_CHARGES


@<TRIPOS>ATOM
1 C 52.175 52.402 65.576 C 0.0 **** 0.0
2 H 51.677 52.35 64.608 H 0.0 **** 0.0
3 H 51.73 53.199 66.172 H 0.0 **** 0.0
4 H 53.236 52.607 65.428 H 0.0 **** 0.0
5 H 52.059 51.451 66.095 H 0.0 **** 0.0
@<TRIPOS>BOND
1 1 2 1
2 1 3 1
3 1 4 1
4 1 5 1
@<TRIPOS>MOLECULE
CH4
5 4
SMALL
USER_CHARGES


@<TRIPOS>ATOM
1 C 15.235 63.357 84.292 C 0.0 **** 0.0
2 H 15.677 63.58 85.264 H 0.0 **** 0.0
3 H 15.488 62.337 84.004 H 0.0 **** 0.0
4 H 15.624 64.053 83.549 H 0.0 **** 0.0
5 H 14.151 63.46 84.354 H 0.0 **** 0.0
@<TRIPOS>BOND
1 1 2 1
2 1 3 1
3 1 4 1
4 1 5 1
@<TRIPOS>MOLECULE
CH4
5 4
SMALL
USER_CHARGES


@<TRIPOS>ATOM
1 C 69.296 33.283 32.903 C 0.0 **** 0.0
2 H 68.973 34.027 33.631 H 0.0 **** 0.0
3 H 69.445 32.326 33.403 H 0.0 **** 0.0
4 H 70.233 33.604 32.446 H 0.0 **** 0.0
5 H 68.534 33.176 32.131 H 0.0 **** 0.0
@<TRIPOS>BOND
1 1 2 1
2 1 3 1
3 1 4 1
4 1 5 1
@<TRIPOS>MOLECULE
CH4
5 4
SMALL
USER_CHARGES


@<TRIPOS>ATOM
1 C 38.45 95.937 9.411 C 0.0 **** 0.0
2 H 38.784 95.15 8.734 H 0.0 **** 0.0
3 H 37.74 96.583 8.893 H 0.0 **** 0.0
4 H 39.308 96.526 9.735 H 0.0 **** 0.0
5 H 37.968 95.488 10.279 H 0.0 **** 0.0
@<TRIPOS>BOND
1 1 2 1
2 1 3 1
3 1 4 1
4 1 5 1
@<TRIPOS>MOLECULE
CH4
5 4
SMALL
USER_CHARGES


@<TRIPOS>ATOM
1 C 60.463 64.853 88.15 C 0.0 **** 0.0
2 H 59.675 65.519 87.797 H 0.0 **** 0.0
3 H 61.421 65.174 87.741 H 0.0 **** 0.0
4 H 60.251 63.835 87.822 H 0.0 **** 0.0
5 H 60.503 64.883 89.239 H 0.0 **** 0.0
@<TRIPOS>BOND
1 1 2 1
2 1 3 1
3 1 4 1
4 1 5 1
@<TRIPOS>MOLECULE
CH4
5 4
SMALL
USER_CHARGES


@<TRIPOS>ATOM
1 C 9.044 94.325 95.421 C 0.0 **** 0.0
2 H 9.445 95.159 95.998 H 0.0 **** 0.0
3 H 8.345 94.703 94.675 H 0.0 **** 0.0
4 H 8.527 93.637 96.089 H 0.0 **** 0.0
5 H 9.861 93.803 94.923 H 0.0 **** 0.0
@<TRIPOS>BOND
1 1 2 1
2 1 3 1
3 1 4 1
4 1 5 1
@<TRIPOS>MOLECULE
CH4
5 4
SMALL
USER_CHARGES


@<TRIPOS>ATOM
1 C 34.784 80.748 87.05 C 0.0 **** 0.0
2 H 35.382 80.668 86.142 H 0.0 **** 0.0
3 H 35.382 80.435 87.907 H 0.0 **** 0.0
4 H 33.906 80.108 86.965 H 0.0 **** 0.0
5 H 34.468 81.783 87.185 H 0.0 **** 0.0
@<TRIPOS>BOND
1 1 2 1
2 1 3 1
3 1 4 1
4 1 5 1
@<TRIPOS>MOLECULE
CH4
5 4
SMALL
USER_CHARGES


@<TRIPOS>ATOM
1 C 40.338 1.113 76.108 C 0.0 **** 0.0
2 H 40.424 0.059 76.371 H 0.0 **** 0.0
3 H 39.763 1.212 75.187 H 0.0 **** 0.0
4 H 41.334 1.533 75.962 H 0.0 **** 0.0
5 H 39.832 1.648 76.912 H 0.0 **** 0.0
@<TRIPOS>BOND
1 1 2 1
2 1 3 1
3 1 4 1
4 1 5 1
@<TRIPOS>MOLECULE
CH4
5 4
SMALL
USER_CHARGES


@<TRIPOS>ATOM
1 C 98.312 70.125 94.294 C 0.0 **** 0.0
2 H 98.418 70.211 93.212 H 0.0 **** 0.0
3 H 97.288 70.365 94.579 H 0.0 **** 0.0
4 H 98.997 70.818 94.782 H 0.0 **** 0.0
5 H 98.546 69.106 94.602 H 0.0 **** 0.0
@<TRIPOS>BOND
1 1 2 1
2 1 3 1
3 1 4 1
4 1 5 1
@<TRIPOS>MOLECULE
CH4
5 4
SMALL
USER_CHARGES


@<TRIPOS>ATOM
1 C 53.639 13.256 88.692 C 0.0 **** 0.0
2 H 53.672 13.289 87.603 H 0.0 **** 0.0
3 H 53.469 14.261 89.08 H 0.0 **** 0.0
4 H 54.587 12.875 89.073 H 0.0 **** 0.0
5 H 52.829 12.601 89.012 H 0.0 **** 0.0
@<TRIPOS>BOND
1 1 2 1
2 1 3 1
3 1 4 1
4 1 5 1
@<TRIPOS>MOLECULE
CH4
5 4
SMALL
USER_CHARGES


@<TRIPOS>ATOM
1 C 68.369 18.809 3.456 C 0.0 **** 0.0
2 H 68.511 17.746 3.652 H 0.0 **** 0.0
3 H 69.295 19.344 3.668 H 0.0 **** 0.0
4 H 67.573 19.193 4.094 H 0.0 **** 0.0
5 H 68.097 18.952 2.41 H 0.0 **** 0.0
@<TRIPOS>BOND
1 1 2 1
2 1 3 1
3 1 4 1
4 1 5 1
@<TRIPOS>MOLECULE
CH4
5 4
SMALL
USER_CHARGES


@<TRIPOS>ATOM
1 C 95.5 62.324 84.001 C 0.0 **** 0.0
2 H 95.187 61.872 83.059 H 0.0 **** 0.0
3 H 94.628 62.478 84.637 H 0.0 **** 0.0
4 H 95.978 63.283 83.802 H 0.0 **** 0.0
5 H 96.205 61.663 84.504 H 0.0 **** 0.0
@<TRIPOS>BOND
1 1 2 1
2 1 3 1
3 1 4 1
4 1 5 1
@<TRIPOS>MOLECULE
CH4
5 4
SMALL
USER_CHARGES


@<TRIPOS>ATOM
1 C 67.073 53.878 10.594 C 0.0 **** 0.0
2 H 66.605 54.277 9.695 H 0.0 **** 0.0
3 H 66.813 52.824 10.702 H 0.0 **** 0.0
4 H 66.719 54.43 11.464 H 0.0 **** 0.0
5 H 68.156 53.979 10.515 H 0.0 **** 0.0
@<TRIPOS>BOND
1 1 2 1
2 1 3 1
3 1 4 1
4 1 5 1
@<TRIPOS>MOLECULE
CH4
5 4
SMALL
USER_CHARGES


@<TRIPOS>ATOM
1 C 96.011 16.54 19.659 C 0.0 **** 0.0
2 H 97.032 16.402 20.015 H 0.0 **** 0.0
3 H 95.599 17.455 20.086 H 0.0 **** 0.0
4 H 95.402 15.689 19.965 H 0.0 **** 0.0
5 H 96.012 16.614 18.572 H 0.0 **** 0.0
@<TRIPOS>BOND
1 1 2 1
2 1 3 1
3 1 4 1
4 1 5 1
@<TRIPOS>MOLECULE
CH4
5 4
SMALL
USER_CHARGES


@<TRIPOS>ATOM
1 C 79.044 95.245 60.064 C 0.0 **** 0.0
2 H 78.928 96.025 59.311 H 0.0 **** 0.0
3 H 78.827 95.658 61.05 H 0.0 **** 0.0
4 H 80.067 94.87 60.043 H 0.0 **** 0.0
5 H 78.353 94.43 59.851 H 0.0 **** 0.0
@<TRIPOS>BOND
1 1 2 1
2 1 3 1
3 1 4 1
4 1 5 1
@<TRIPOS>MOLECULE
CH4
5 4
SMALL
USER_CHARGES


@<TRIPOS>ATOM
1 C 85.1 26.935 78.512 C 0.0 **** 0.0
2 H 86.171 26.779 78.377 H 0.0 **** 0.0
3 H 84.932 27.558 79.39 H 0.0 **** 0.0
4 H 84.607 25.972 78.648 H 0.0 **** 0.0
5 H 84.692 27.43 77.631 H 0.0 **** 0.0
@<TRIPOS>BOND
1 1 2 1
2 1 3 1
3 1 4 1
4 1 5 1
@<TRIPOS>MOLECULE
CH4
5 4
SMALL
USER_CHARGES


@<TRIPOS>ATOM
1 C 14.798 25.531 25.728 C 0.0 **** 0.0
2 H 14.911 25.348 24.659 H 0.0 **** 0.0
3 H 15.611 25.046 26.268 H 0.0 **** 0.0
4 H 13.844 25.127 26.067 H 0.0 **** 0.0
5 H 14.826 26.605 25.917 H 0.0 **** 0.0
@<TRIPOS>BOND
1 1 2 1
2 1 3 1
3 1 4 1
4 1 5 1
@<TRIPOS>MOLECULE
CH4
5 4
SMALL
USER_CHARGES


@<TRIPOS>ATOM
1 C 10.475 72.49 97.056 C 0.0 **** 0.0
2 H 10.824 71.457 97.082 H 0.0 **** 0.0
3 H 11.267 73.131 96.67 H 0.0 **** 0.0
4 H 10.209 72.808 98.064 H 0.0 **** 0.0
5 H 9.601 72.562 96.41 H 0.0 **** 0.0
@<TRIPOS>BOND
1 1 2 1
2 1 3 1
3 1 4 1
4 1 5 1
@<TRIPOS>MOLECULE
CH4
5 4
SMALL
USER_CHARGES


@<TRIPOS>ATOM
1 C 61.215 7.799 22.759 C 0.0 **** 0.0
2 H 61.837 7.321 23.516 H 0.0 **** 0.0
3 H 61.658 7.645 21.775 H 0.0 **** 0.0
4 H 61.148 8.867 22.965 H 0.0 **** 0.0
5 H 60.217 7.361 22.781 H 0.0 **** 0.0
@<TRIPOS>BOND
1 1 2 1
2 1 3 1
3 1 4 1
4 1 5 1
@<TRIPOS>MOLECULE
CH4
5 4
SMALL
USER_CHARGES


@<TRIPOS>ATOM
1 C 22.055 86.907 81.637 C 0.0 **** 0.0
2 H 21.775 86.964 82.689 H 0.0 **** 0.0
3 H 23.088 86.569 81.554 H 0.0 **** 0.0
4 H 21.957 87.892 81.182 H 0.0 **** 0.0
5 H 21.399 86.203 81.125 H 0.0 **** 0.0
@<TRIPOS>BOND
1 1 2 1
2 1 3 1
3 1 4 1
4 1 5 1
@<TRIPOS>MOLECULE
CH4
5 4
SMALL
USER_CHARGES


@<TRIPOS>ATOM
1 C 34.167 43.199 24.743 C 0.0 **** 0.0
2 H 34.302 43.483 25.787 H 0.0 **** 0.0
3 H 34.923 42.464 24.467 H 0.0 **** 0.0
4 H 34.27 44.081 24.111 H 0.0 **** 0.0
5 H 33.175 42.769 24.609 H 0.0 **** 0.0
@<TRIPOS>BOND
1 1 2 1
2 1 3 1
3 1 4 1
4 1 5 1
@<TRIPOS>MOLECULE
CH4
5 4
SMALL
USER_CHARGES


@<TRIPOS>ATOM
1 C 81.681 3.351 5.442 C 0.0 **** 0.0
2 H 82.656 3.837 5.488 H 0.0 **** 0.0
3 H 81.431 3.137 4.402 H 0.0 **** 0.0
4 H 80.926 4.011 5.869 H 0.0 **** 0.0
5 H 81.712 2.42 6.007 H 0.0 **** 0.0
@<TRIPOS>BOND
1 1 2 1
2 1 3 1
3 1 4 1
4 1 5 1
@<TRIPOS>MOLECULE
CH4
5 4
SMALL
USER_CHARGES


@<TRIPOS>ATOM
1 C 37.403 55.753 83.373 C 0.0 **** 0.0
2 H 36.745 56.12 84.161 H 0.0 **** 0.0
3 H 36.98 54.847 82.94 H 0.0 **** 0.0
4 H 38.384 55.532 83.794 H 0.0 **** 0.0
5 H 37.502 56.515 82.6 H 0.0 **** 0.0
@<TRIPOS>BOND
1 1 2 1
2 1 3 1
3 1 4 1
4 1 5 1
@<TRIPOS>MOLECULE
CH4
5 4
SMALL
USER_CHARGES


@<TRIPOS>ATOM
1 C 4.509 94.261 72.165 C 0.0 **** 0.0
2 H 3.527 93.806 72.031 H 0.0 **** 0.0
3 H 4.913 93.975 73.136 H 0.0 **** 0.0
4 H 4.415 95.346 72.115 H 0.0 **** 0.0
5 H 5.178 93.918 71.376 H 0.0 **** 0.0
@<TRIPOS>BOND
1 1 5 1
2 1 2 1
3 1 3 1
4 1 4 1
@<TRIPOS>MOLECULE
CH4
5 4
SMALL
USER_CHARGES


@<TRIPOS>ATOM
1 C 40.261 66.921 42.305 C 0.0 **** 0.0
2 H 40.29 66.854 43.393 H 0.0 **** 0.0
3 H 39.687 67.8 42.011 H 0.0 **** 0.0
4 H 39.79 66.026 41.898 H 0.0 **** 0.0
5 H 41.277 67.005 41.919 H 0.0 **** 0.0
@<TRIPOS>BOND
1 1 2 1
2 1 3 1
3 1 4 1
4 1 5 1
@<TRIPOS>MOLECULE
CH4
5 4
SMALL
USER_CHARGES


@<TRIPOS>ATOM
1 C 13.481 53.428 18.314 C 0.0 **** 0.0
2 H 13.482 53.099 17.275 H 0.0 **** 0.0
3 H 13.755 52.593 18.959 H 0.0 **** 0.0
4 H 12.486 53.784 18.581 H 0.0 **** 0.0
5 H 14.202 54.236 18.439 H 0.0 **** 0.0
@<TRIPOS>BOND
1 1 2 1
2 1 3 1
3 1 4 1
4 1 5 1
@<TRIPOS>MOLECULE
CH4
5 4
SMALL
USER_CHARGES


@<TRIPOS>ATOM
1 C 52.435 10.314 72.838 C 0.0 **** 0.0
2 H 53.459 10.11 73.152 H 0.0 **** 0.0
3 H 52.337 11.369 72.583 H 0.0 **** 0.0
4 H 51.751 10.071 73.65 H 0.0 **** 0.0
5 H 52.195 9.705 71.966 H 0.0 **** 0.0
@<TRIPOS>BOND
1 1 2 1
2 1 3 1
3 1 4 1
4 1 5 1
@<TRIPOS>MOLECULE
CH4
5 4
SMALL
USER_CHARGES


@<TRIPOS>ATOM
1 C 59.588 85.265 74.91 C 0.0 **** 0.0
2 H 59.164 85.325 73.907 H 0.0 **** 0.0
3 H 58.858 85.624 75.635 H 0.0 **** 0.0
4 H 60.486 85.881 74.962 H 0.0 **** 0.0
5 H 59.844 84.229 75.134 H 0.0 **** 0.0
@<TRIPOS>BOND
1 1 2 1
2 1 3 1
3 1 4 1
4 1 5 1
@<TRIPOS>MOLECULE
CH4
5 4
SMALL
USER_CHARGES


@<TRIPOS>ATOM
1 C 76.421 47.821 52.791 C 0.0 **** 0.0
2 H 77.199 47.431 52.135 H 0.0 **** 0.0
3 H 75.442 47.543 52.399 H 0.0 **** 0.0
4 H 76.498 48.908 52.839 H 0.0 **** 0.0
5 H 76.545 47.404 53.79 H 0.0 **** 0.0
@<TRIPOS>BOND
1 1 2 1
2 1 3 1
3 1 4 1
4 1 5 1
@<TRIPOS>MOLECULE
CH4
5 4
SMALL
USER_CHARGES


@<TRIPOS>ATOM
1 C 73.469 23.472 6.726 C 0.0 **** 0.0
2 H 73.449 24.491 7.11 H 0.0 **** 0.0
3 H 72.541 22.965 6.993 H 0.0 **** 0.0
4 H 74.313 22.936 7.16 H 0.0 **** 0.0
5 H 73.572 23.495 5.641 H 0.0 **** 0.0
@<TRIPOS>BOND
1 1 2 1
2 1 3 1
3 1 4 1
4 1 5 1
@<TRIPOS>MOLECULE
CH4
5 4
SMALL
USER_CHARGES


@<TRIPOS>ATOM
1 C 47.652 84.756 43.457 C 0.0 **** 0.0
2 H 48.46 84.241 42.937 H 0.0 **** 0.0
3 H 48.068 85.369 44.258 H 0.0 **** 0.0
4 H 46.967 84.021 43.88 H 0.0 **** 0.0
5 H 47.115 85.392 42.754 H 0.0 **** 0.0
@<TRIPOS>BOND
1 1 2 1
2 1 3 1
3 1 4 1
4 1 5 1
@<TRIPOS>MOLECULE
CH4
5 4
SMALL
USER_CHARGES


@<TRIPOS>ATOM
1 C 28.84 96.067 94.489 C 0.0 **** 0.0
2 H 29.027 96.028 93.416 H 0.0 **** 0.0
3 H 28.056 96.796 94.695 H 0.0 **** 0.0
4 H 29.754 96.361 95.006 H 0.0 **** 0.0
5 H 28.525 95.084 94.839 H 0.0 **** 0.0
@<TRIPOS>BOND
1 1 2 1
2 1 3 1
3 1 4 1
4 1 5 1
@<TRIPOS>MOLECULE
CH4
5 4
SMALL
USER_CHARGES


@<TRIPOS>ATOM
1 C 17.105 39.932 58.909 C 0.0 **** 0.0
2 H 17.068 38.957 58.425 H 0.0 **** 0.0
3 H 18.084 40.073 59.368 H 0.0 **** 0.0
4 H 16.333 39.986 59.677 H 0.0 **** 0.0
5 H 16.935 40.713 58.168 H 0.0 **** 0.0
@<TRIPOS>BOND
1 1 2 1
2 1 3 1
3 1 4 1
4 1 5 1
@<TRIPOS>MOLECULE
CH4
5 4
SMALL
USER_CHARGES


@<TRIPOS>ATOM
1 C 44.352 72.691 10.057 C 0.0 **** 0.0
2 H 43.298 72.911 9.889 H 0.0 **** 0.0
3 H 44.626 71.789 9.51 H 0.0 **** 0.0
4 H 44.525 72.538 11.122 H 0.0 **** 0.0
5 H 44.957 73.527 9.707 H 0.0 **** 0.0
@<TRIPOS>BOND
1 1 2 1
2 1 3 1
3 1 4 1
4 1 5 1
@<TRIPOS>MOLECULE
CH4
5 4
SMALL
USER_CHARGES


@<TRIPOS>ATOM
1 C 86.896 13.098 24.739 C 0.0 **** 0.0
2 H 87.292 13.801 25.471 H 0.0 **** 0.0
3 H 87.657 12.354 24.502 H 0.0 **** 0.0
4 H 86.619 13.636 23.832 H 0.0 **** 0.0
5 H 86.018 12.601 25.151 H 0.0 **** 0.0
@<TRIPOS>BOND
1 1 2 1
2 1 3 1
3 1 4 1
4 1 5 1
@<TRIPOS>MOLECULE
CH4
5 4
SMALL
USER_CHARGES


@<TRIPOS>ATOM
1 C 18.711 41.864 64.236 C 0.0 **** 0.0
2 H 18.98 40.908 63.786 H 0.0 **** 0.0
3 H 17.86 42.289 63.704 H 0.0 **** 0.0
4 H 19.558 42.547 64.172 H 0.0 **** 0.0
5 H 18.446 41.711 65.282 H 0.0 **** 0.0
@<TRIPOS>BOND
1 1 2 1
2 1 3 1
3 1 4 1
4 1 5 1
@<TRIPOS>MOLECULE
CH4
5 4
SMALL
USER_CHARGES


@<TRIPOS>ATOM
1 C 46.42 13.867 82.176 C 0.0 **** 0.0
2 H 46.889 14.673 81.612 H 0.0 **** 0.0
3 H 46.185 14.216 83.182 H 0.0 **** 0.0
4 H 47.103 13.02 82.236 H 0.0 **** 0.0
5 H 45.502 13.558 81.675 H 0.0 **** 0.0
@<TRIPOS>BOND
1 1 2 1
2 1 3 1
3 1 4 1
4 1 5 1
@<TRIPOS>MOLECULE
CH4
5 4
SMALL
USER_CHARGES


@<TRIPOS>ATOM
1 C 93.741 66.683 83.94 C 0.0 **** 0.0
2 H 94.188 67.595 84.336 H 0.0 **** 0.0
3 H 92.656 66.78 83.942 H 0.0 **** 0.0
4 H 94.031 65.836 84.563 H 0.0 **** 0.0
5 H 94.091 66.52 82.921 H 0.0 **** 0.0
@<TRIPOS>BOND
1 1 2 1
2 1 3 1
3 1 4 1
4 1 5 1
@<TRIPOS>MOLECULE
CH4
5 4
SMALL
USER_CHARGES


@<TRIPOS>ATOM
1 C 80.56 70.045 55.229 C 0.0 **** 0.0
2 H 80.969 69.828 54.243 H 0.0 **** 0.0
3 H 80.496 71.125 55.367 H 0.0 **** 0.0
4 H 81.209 69.619 55.994 H 0.0 **** 0.0
5 H 79.565 69.608 55.313 H 0.0 **** 0.0
@<TRIPOS>BOND
1 1 2 1
2 1 3 1
3 1 4 1
4 1 5 1
@<TRIPOS>MOLECULE
CH4
5 4
SMALL
USER_CHARGES


@<TRIPOS>ATOM
1 C 75.385 39.695 66.717 C 0.0 **** 0.0
2 H 75.313 39.586 67.799 H 0.0 **** 0.0
3 H 74.903 40.624 66.413 H 0.0 **** 0.0
4 H 74.89 38.853 66.233 H 0.0 **** 0.0
5 H 76.435 39.717 66.423 H 0.0 **** 0.0
@<TRIPOS>BOND
1 1 2 1
2 1 3 1
3 1 4 1
4 1 5 1
@<TRIPOS>MOLECULE
CH4
5 4
SMALL
USER_CHARGES


@<TRIPOS>ATOM
1 C 80.705 6.027 24.082 C 0.0 **** 0.0
2 H 81.595 5.944 23.458 H 0.0 **** 0.0
3 H 80.068 6.826 23.701 H 0.0 **** 0.0
4 H 81.0 6.254 25.106 H 0.0 **** 0.0
5 H 80.157 5.085 24.061 H 0.0 **** 0.0
@<TRIPOS>BOND
1 1 2 1
2 1 3 1
3 1 4 1
4 1 5 1
@<TRIPOS>MOLECULE
CH4
5 4
SMALL
USER_CHARGES


@<TRIPOS>ATOM
1 C 1.884 76.558 70.276 C 0.0 **** 0.0
2 H 2.408 76.837 69.362 H 0.0 **** 0.0
3 H 2.563 76.647 71.125 H 0.0 **** 0.0
4 H 1.537 75.528 70.195 H 0.0 **** 0.0
5 H 1.03 77.219 70.422 H 0.0 **** 0.0
@<TRIPOS>BOND
1 1 2 1
2 1 3 1
3 1 4 1
4 1 5 1
@<TRIPOS>MOLECULE
CH4
5 4
SMALL
USER_CHARGES


@<TRIPOS>ATOM
1 C 66.902 43.706 16.702 C 0.0 **** 0.0
2 H 66.441 43.529 15.73 H 0.0 **** 0.0
3 H 67.508 42.843 16.979 H 0.0 **** 0.0
4 H 66.124 43.859 17.45 H 0.0 **** 0.0
5 H 67.534 44.592 16.649 H 0.0 **** 0.0
@<TRIPOS>BOND
1 1 2 1
2 1 3 1
3 1 4 1
4 1 5 1
@<TRIPOS>MOLECULE
CH4
5 4
SMALL
USER_CHARGES


@<TRIPOS>ATOM
1 C 58.963 48.066 90.918 C 0.0 **** 0.0
2 H 59.908 48.068 91.462 H 0.0 **** 0.0
3 H 58.528 47.067 90.948 H 0.0 **** 0.0
4 H 59.14 48.354 89.882 H 0.0 **** 0.0
5 H 58.277 48.776 91.38 H 0.0 **** 0.0
@<TRIPOS>BOND
1 1 2 1
2 1 3 1
3 1 4 1
4 1 5 1
@<TRIPOS>MOLECULE
CH4
5 4
SMALL
USER_CHARGES


@<TRIPOS>ATOM
1 C 79.119 79.509 40.17 C 0.0 **** 0.0
2 H 78.439 79.113 39.416 H 0.0 **** 0.0
3 H 78.707 80.43 40.583 H 0.0 **** 0.0
4 H 80.087 79.717 39.713 H 0.0 **** 0.0
5 H 79.243 78.776 40.967 H 0.0 **** 0.0
@<TRIPOS>BOND
1 1 2 1
2 1 3 1
3 1 4 1
4 1 5 1
@<TRIPOS>MOLECULE
CH4
5 4
SMALL
USER_CHARGES


@<TRIPOS>ATOM
1 C 66.978 79.018 92.058 C 0.0 **** 0.0
2 H 67.303 78.061 91.648 H 0.0 **** 0.0
3 H 66.734 79.698 91.241 H 0.0 **** 0.0
4 H 67.779 79.445 92.661 H 0.0 **** 0.0
5 H 66.096 78.865 92.68 H 0.0 **** 0.0
@<TRIPOS>BOND
1 1 2 1
2 1 3 1
3 1 4 1
4 1 5 1
@<TRIPOS>MOLECULE
CH4
5 4
SMALL
USER_CHARGES


@<TRIPOS>ATOM
1 C 73.972 56.631 35.288 C 0.0 **** 0.0
2 H 74.745 56.252 34.62 H 0.0 **** 0.0
3 H 73.002 56.568 34.795 H 0.0 **** 0.0
4 H 74.186 57.671 35.538 H 0.0 **** 0.0
5 H 73.956 56.035 36.2 H 0.0 **** 0.0
@<TRIPOS>BOND
1 1 2 1
2 1 3 1
3 1 4 1
4 1 5 1
@<TRIPOS>MOLECULE
CH4
5 4
SMALL
USER_CHARGES


@<TRIPOS>ATOM
1 C 7.993 64.164 25.252 C 0.0 **** 0.0
2 H 7.604 63.719 26.168 H 0.0 **** 0.0
3 H 8.833 63.57 24.889 H 0.0 **** 0.0
4 H 8.328 65.181 25.456 H 0.0 **** 0.0
5 H 7.208 64.184 24.497 H 0.0 **** 0.0
@<TRIPOS>BOND
1 1 2 1
2 1 3 1
3 1 4 1
4 1 5 1
@<TRIPOS>MOLECULE
CH4
5 4
SMALL
USER_CHARGES


@<TRIPOS>ATOM
1 C 8.708 49.375 20.328 C 0.0 **** 0.0
2 H 9.251 48.495 20.672 H 0.0 **** 0.0
3 H 7.648 49.138 20.242 H 0.0 **** 0.0
4 H 9.093 49.682 19.356 H 0.0 **** 0.0
5 H 8.842 50.186 21.044 H 0.0 **** 0.0
@<TRIPOS>BOND
1 1 2 1
2 1 3 1
3 1 4 1
4 1 5 1
@<TRIPOS>MOLECULE
CH4
5 4
SMALL
USER_CHARGES


@<TRIPOS>ATOM
1 C 12.179 81.489 54.206 C 0.0 **** 0.0
2 H 13.223 81.802 54.168 H 0.0 **** 0.0
3 H 11.583 82.268 54.681 H 0.0 **** 0.0
4 H 12.097 80.566 54.781 H 0.0 **** 0.0
5 H 11.814 81.319 53.193 H 0.0 **** 0.0
@<TRIPOS>BOND
1 1 2 1
2 1 3 1
3 1 4 1
4 1 5 1
@<TRIPOS>MOLECULE
CH4
5 4
SMALL
USER_CHARGES


@<TRIPOS>ATOM
1 C 19.881 89.321 4.541 C 0.0 **** 0.0
2 H 19.579 89.115 3.513 H 0.0 **** 0.0
3 H 20.939 89.584 4.562 H 0.0 **** 0.0
4 H 19.715 88.434 5.152 H 0.0 **** 0.0
5 H 19.292 90.149 4.933 H 0.0 **** 0.0
@<TRIPOS>BOND
1 1 2 1
2 1 3 1
3 1 4 1
4 1 5 1
@<TRIPOS>MOLECULE
CH4
5 4
SMALL
USER_CHARGES


@<TRIPOS>ATOM
1 C 8.277 2.062 66.249 C 0.0 **** 0.0
2 H 8.033 2.753 67.056 H 0.0 **** 0.0
3 H 8.766 1.18 66.662 H 0.0 **** 0.0
4 H 8.947 2.552 65.542 H 0.0 **** 0.0
5 H 7.362 1.765 65.736 H 0.0 **** 0.0
@<TRIPOS>BOND
1 1 2 1
2 1 3 1
3 1 4 1
4 1 5 1
@<TRIPOS>MOLECULE
CH4
5 4
SMALL
USER_CHARGES


@<TRIPOS>ATOM
1 C 58.889 82.826 82.333 C 0.0 **** 0.0
2 H 59.594 83.201 81.591 H 0.0 **** 0.0
3 H 58.535 83.655 82.947 H 0.0 **** 0.0
4 H 59.385 82.09 82.966 H 0.0 **** 0.0
5 H 58.043 82.36 81.828 H 0.0 **** 0.0
@<TRIPOS>BOND
1 1 2 1
2 1 3 1
3 1 4 1
4 1 5 1
@<TRIPOS>MOLECULE
CH4
5 4
SMALL
USER_CHARGES


@<TRIPOS>ATOM
1 C 22.258 85.695 29.421 C 0.0 **** 0.0
2 H 23.221 85.215 29.243 H 0.0 **** 0.0
3 H 22.389 86.525 30.115 H 0.0 **** 0.0
4 H 21.565 84.97 29.847 H 0.0 **** 0.0
5 H 21.859 86.068 28.478 H 0.0 **** 0.0
@<TRIPOS>BOND
1 1 2 1
2 1 3 1
3 1 4 1
4 1 5 1
@<TRIPOS>MOLECULE
CH4
5 4
SMALL
USER_CHARGES


@<TRIPOS>ATOM
1 C 98.414 67.014 36.56 C 0.0 **** 0.0
2 H 98.99 67.61 37.267 H 0.0 **** 0.0
3 H 98.175 67.619 35.685 H 0.0 **** 0.0
4 H 97.491 66.679 37.034 H 0.0 **** 0.0
5 H 99.0 66.148 36.253 H 0.0 **** 0.0
@<TRIPOS>BOND
1 1 2 1
2 1 3 1
3 1 4 1
4 1 5 1
@<TRIPOS>MOLECULE
CH4
5 4
SMALL
USER_CHARGES


@<TRIPOS>ATOM
1 C 56.308 30.4 84.817 C 0.0 **** 0.0
2 H 55.57 30.06 84.09 H 0.0 **** 0.0
3 H 56.767 31.324 84.463 H 0.0 **** 0.0
4 H 57.076 29.636 84.94 H 0.0 **** 0.0
5 H 55.818 30.581 85.773 H 0.0 **** 0.0
@<TRIPOS>BOND
1 1 2 1
2 1 3 1
3 1 4 1
4 1 5 1
@<TRIPOS>MOLECULE
CH4
5 4
SMALL
USER_CHARGES


@<TRIPOS>ATOM
1 C 81.792 50.797 62.81 C 0.0 **** 0.0
2 H 81.548 50.535 63.84 H 0.0 **** 0.0
3 H 82.608 50.167 62.458 H 0.0 **** 0.0
4 H 82.094 51.844 62.764 H 0.0 **** 0.0
5 H 80.916 50.644 62.18 H 0.0 **** 0.0
@<TRIPOS>BOND
1 1 5 1
2 1 2 1
3 1 3 1
4 1 4 1
@<TRIPOS>MOLECULE
CH4
5 4
SMALL
USER_CHARGES


@<TRIPOS>ATOM
1 C 4.638 98.09 55.194 C 0.0 **** 0.0
2 H 4.969 97.454 56.015 H 0.0 **** 0.0
3 H 3.594 98.366 55.348 H 0.0 **** 0.0
4 H 4.736 97.55 54.253 H 0.0 **** 0.0
5 H 5.251 98.991 55.162 H 0.0 **** 0.0
@<TRIPOS>BOND
1 1 3 1
2 1 4 1
3 1 5 1
4 1 2 1
@<TRIPOS>MOLECULE
CH4
5 4
SMALL
USER_CHARGES


@<TRIPOS>ATOM
1 C 26.653 85.58 18.992 C 0.0 **** 0.0
2 H 26.288 86.457 19.526 H 0.0 **** 0.0
3 H 27.742 85.606 18.954 H 0.0 **** 0.0
4 H 26.254 85.579 17.978 H 0.0 **** 0.0
5 H 26.329 84.678 19.511 H 0.0 **** 0.0
@<TRIPOS>BOND
1 1 2 1
2 1 3 1
3 1 4 1
4 1 5 1
@<TRIPOS>MOLECULE
CH4
5 4
SMALL
USER_CHARGES


@<TRIPOS>ATOM
1 C 91.276 66.088 54.037 C 0.0 **** 0.0
2 H 91.317 65.654 55.036 H 0.0 **** 0.0
3 H 91.095 65.301 53.305 H 0.0 **** 0.0
4 H 92.223 66.58 53.815 H 0.0 **** 0.0
5 H 90.468 66.819 53.992 H 0.0 **** 0.0
@<TRIPOS>BOND
1 1 2 1
2 1 3 1
3 1 4 1
4 1 5 1
@<TRIPOS>MOLECULE
CH4
5 4
SMALL
USER_CHARGES


@<TRIPOS>ATOM
1 C 13.11 9.627 20.193 C 0.0 **** 0.0
2 H 13.38 9.433 19.155 H 0.0 **** 0.0
3 H 13.193 8.704 20.768 H 0.0 **** 0.0
4 H 12.085 9.994 20.238 H 0.0 **** 0.0
5 H 13.783 10.377 20.609 H 0.0 **** 0.0
@<TRIPOS>BOND
1 1 2 1
2 1 3 1
3 1 4 1
4 1 5 1
@<TRIPOS>MOLECULE
CH4
5 4
SMALL
USER_CHARGES


@<TRIPOS>ATOM
1 C 64.997 49.355 22.687 C 0.0 **** 0.0
2 H 64.809 50.369 23.04 H 0.0 **** 0.0
3 H 65.25 48.717 23.534 H 0.0 **** 0.0
4 H 65.826 49.365 21.979 H 0.0 **** 0.0
5 H 64.104 48.97 22.196 H 0.0 **** 0.0
@<TRIPOS>BOND
1 1 2 1
2 1 3 1
3 1 4 1
4 1 5 1
@<TRIPOS>MOLECULE
CH4
5 4
SMALL
USER_CHARGES


@<TRIPOS>ATOM
1 C 1.075 46.287 46.014 C 0.0 **** 0.0
2 H 0.286 46.691 46.649 H 0.0 **** 0.0
3 H 1.452 47.074 45.359 H 0.0 **** 0.0
4 H 0.674 45.473 45.41 H 0.0 **** 0.0
5 H 1.887 45.913 46.637 H 0.0 **** 0.0
@<TRIPOS>BOND
1 1 2 1
2 1 3 1
3 1 4 1
4 1 5 1
@<TRIPOS>MOLECULE
CH4
5 4
SMALL
USER_CHARGES


@<TRIPOS>ATOM
1 C 82.631 57.47 23.912 C 0.0 **** 0.0
2 H 83.528 57.597 23.305 H 0.0 **** 0.0
3 H 82.905 57.055 24.882 H 0.0 **** 0.0
4 H 81.944 56.792 23.407 H 0.0 **** 0.0
5 H 82.149 58.438 24.053 H 0.0 **** 0.0
@<TRIPOS>BOND
1 1 2 1
2 1 3 1
3 1 4 1
4 1 5 1
@<TRIPOS>MOLECULE
CH4
5 4
SMALL
USER_CHARGES


@<TRIPOS>ATOM
1 C 88.207 35.887 97.348 C 0.0 **** 0.0
2 H 88.162 35.602 98.4 H 0.0 **** 0.0
3 H 87.241 35.698 96.879 H 0.0 **** 0.0
4 H 88.976 35.3 96.846 H 0.0 **** 0.0
5 H 88.449 36.947 97.269 H 0.0 **** 0.0
@<TRIPOS>BOND
1 1 2 1
2 1 3 1
3 1 4 1
4 1 5 1
@<TRIPOS>MOLECULE
CH4
5 4
SMALL
USER_CHARGES


@<TRIPOS>ATOM
1 C 34.582 6.788 25.598 C 0.0 **** 0.0
2 H 35.267 7.406 25.019 H 0.0 **** 0.0
3 H 34.719 6.991 26.66 H 0.0 **** 0.0
4 H 34.786 5.736 25.4 H 0.0 **** 0.0
5 H 33.555 7.018 25.313 H 0.0 **** 0.0
@<TRIPOS>BOND
1 1 2 1
2 1 3 1
3 1 4 1
4 1 5 1
@<TRIPOS>MOLECULE
CH4
5 4
SMALL
USER_CHARGES


@<TRIPOS>ATOM
1 C 44.705 12.022 78.156 C 0.0 **** 0.0
2 H 45.273 11.564 77.347 H 0.0 **** 0.0
3 H 43.642 11.995 77.915 H 0.0 **** 0.0
4 H 45.022 13.058 78.282 H 0.0 **** 0.0
5 H 44.882 11.473 79.081 H 0.0 **** 0.0
@<TRIPOS>BOND
1 1 2 1
2 1 3 1
3 1 4 1
4 1 5 1
@<TRIPOS>MOLECULE
CH4
5 4
SMALL
USER_CHARGES


@<TRIPOS>ATOM
1 C 1.596 15.266 5.5 C 0.0 **** 0.0
2 H 1.977 14.996 6.485 H 0.0 **** 0.0
3 H 2.427 15.361 4.802 H 0.0 **** 0.0
4 H 1.064 16.215 5.564 H 0.0 **** 0.0
5 H 0.914 14.491 5.15 H 0.0 **** 0.0
@<TRIPOS>BOND
1 1 2 1
2 1 3 1
3 1 4 1
4 1 5 1
@<TRIPOS>MOLECULE
CH4
5 4
SMALL
USER_CHARGES


@<TRIPOS>ATOM
1 C 76.495 41.187 80.464 C 0.0 **** 0.0
2 H 76.989 42.143 80.294 H 0.0 **** 0.0
3 H 76.071 41.171 81.468 H 0.0 **** 0.0
4 H 77.222 40.38 80.364 H 0.0 **** 0.0
5 H 75.701 41.053 79.73 H 0.0 **** 0.0
@<TRIPOS>BOND
1 1 2 1
2 1 3 1
3 1 4 1
4 1 5 1
@<TRIPOS>MOLECULE
CH4
5 4
SMALL
USER_CHARGES


@<TRIPOS>ATOM
1 C 86.322 55.349 34.019 C 0.0 **** 0.0
2 H 86.342 55.278 32.932 H 0.0 **** 0.0
3 H 87.28 55.02 34.422 H 0.0 **** 0.0
4 H 85.526 54.714 34.409 H 0.0 **** 0.0
5 H 86.139 56.382 34.313 H 0.0 **** 0.0
@<TRIPOS>BOND
1 1 2 1
2 1 3 1
3 1 4 1
4 1 5 1
@<TRIPOS>MOLECULE
CH4
5 4
SMALL
USER_CHARGES


@<TRIPOS>ATOM
1 C 87.49 66.787 31.637 C 0.0 **** 0.0
2 H 87.908 67.789 31.728 H 0.0 **** 0.0
3 H 86.93 66.543 32.54 H 0.0 **** 0.0
4 H 88.298 66.067 31.505 H 0.0 **** 0.0
5 H 86.824 66.748 30.775 H 0.0 **** 0.0
@<TRIPOS>BOND
1 1 2 1
2 1 3 1
3 1 4 1
4 1 5 1
@<TRIPOS>MOLECULE
CH4
5 4
SMALL
USER_CHARGES


@<TRIPOS>ATOM
1 C 35.325 75.376 11.529 C 0.0 **** 0.0
2 H 35.762 76.366 11.4 H 0.0 **** 0.0
3 H 34.838 75.071 10.602 H 0.0 **** 0.0
4 H 34.59 75.405 12.334 H 0.0 **** 0.0
5 H 36.11 74.662 11.779 H 0.0 **** 0.0
@<TRIPOS>BOND
1 1 2 1
2 1 3 1
3 1 4 1
4 1 5 1
@<TRIPOS>MOLECULE
CH4
5 4
SMALL
USER_CHARGES


@<TRIPOS>ATOM
1 C 74.382 71.91 20.884 C 0.0 **** 0.0
2 H 74.325 71.984 19.798 H 0.0 **** 0.0
3 H 73.386 71.729 21.289 H 0.0 **** 0.0
4 H 74.776 72.842 21.291 H 0.0 **** 0.0
5 H 75.042 71.087 21.158 H 0.0 **** 0.0
@<TRIPOS>BOND
1 1 2 1
2 1 3 1
3 1 4 1
4 1 5 1
@<TRIPOS>MOLECULE
CH4
5 4
SMALL
USER_CHARGES


@<TRIPOS>ATOM
1 C 94.422 2.678 89.969 C 0.0 **** 0.0
2 H 95.192 2.949 89.246 H 0.0 **** 0.0
3 H 93.573 2.238 89.446 H 0.0 **** 0.0
4 H 94.098 3.569 90.505 H 0.0 **** 0.0
5 H 94.828 1.955 90.677 H 0.0 **** 0.0
@<TRIPOS>BOND
1 1 4 1
2 1 5 1
3 1 2 1
4 1 3 1
@<TRIPOS>MOLECULE
CH4
5 4
SMALL
USER_CHARGES


@<TRIPOS>ATOM
1 C 8.779 33.45 90.748 C 0.0 **** 0.0
2 H 9.239 33.544 91.732 H 0.0 **** 0.0
3 H 7.832 33.99 90.737 H 0.0 **** 0.0
4 H 8.6 32.397 90.531 H 0.0 **** 0.0
5 H 9.446 33.868 89.994 H 0.0 **** 0.0
@<TRIPOS>BOND
1 1 2 1
2 1 3 1
3 1 4 1
4 1 5 1
@<TRIPOS>MOLECULE
CH4
5 4
SMALL
USER_CHARGES


@<TRIPOS>ATOM
1 C 47.308 78.146 71.254 C 0.0 **** 0.0
2 H 48.184 78.62 71.698 H 0.0 **** 0.0
3 H 46.456 78.259 71.925 H 0.0 **** 0.0
4 H 47.508 77.087 71.096 H 0.0 **** 0.0
5 H 47.083 78.621 70.299 H 0.0 **** 0.0
@<TRIPOS>BOND
1 1 2 1
2 1 3 1
3 1 4 1
4 1 5 1
@<TRIPOS>MOLECULE
CH4
5 4
SMALL
USER_CHARGES


@<TRIPOS>ATOM
1 C 82.204 96.722 1.316 C 0.0 **** 0.0
2 H 82.226 95.665 1.052 H 0.0 **** 0.0
3 H 83.182 97.165 1.124 H 0.0 **** 0.0
4 H 81.958 96.827 2.373 H 0.0 **** 0.0
5 H 81.45 97.23 0.716 H 0.0 **** 0.0
@<TRIPOS>BOND
1 1 2 1
2 1 3 1
3 1 4 1
4 1 5 1
@<TRIPOS>MOLECULE
CH4
5 4
SMALL
USER_CHARGES


@<TRIPOS>ATOM
1 C 82.146 40.223 17.403 C 0.0 **** 0.0
2 H 82.17 40.041 18.478 H 0.0 **** 0.0
3 H 81.184 39.903 17.002 H 0.0 **** 0.0
4 H 82.946 39.662 16.921 H 0.0 **** 0.0
5 H 82.283 41.288 17.213 H 0.0 **** 0.0
@<TRIPOS>BOND
1 1 2 1
2 1 3 1
3 1 4 1
4 1 5 1
@<TRIPOS>MOLECULE
CH4
5 4
SMALL
USER_CHARGES


@<TRIPOS>ATOM
1 C 24.942 43.676 56.569 C 0.0 **** 0.0
2 H 25.032 43.702 57.655 H 0.0 **** 0.0
3 H 23.997 43.208 56.294 H 0.0 **** 0.0
4 H 25.769 43.102 56.15 H 0.0 **** 0.0
5 H 24.971 44.694 56.179 H 0.0 **** 0.0
@<TRIPOS>BOND
1 1 2 1
2 1 3 1
3 1 4 1
4 1 5 1
@<TRIPOS>MOLECULE
CH4
5 4
SMALL
USER_CHARGES


@<TRIPOS>ATOM
1 C 8.217 26.816 64.281 C 0.0 **** 0.0
2 H 8.382 27.312 65.237 H 0.0 **** 0.0
3 H 9.153 26.38 63.932 H 0.0 **** 0.0
4 H 7.86 27.543 63.551 H 0.0 **** 0.0
5 H 7.472 26.029 64.404 H 0.0 **** 0.0
@<TRIPOS>BOND
1 1 2 1
2 1 3 1
3 1 4 1
4 1 5 1
@<TRIPOS>MOLECULE
CH4
5 4
SMALL
USER_CHARGES


@<TRIPOS>ATOM
1 C 93.26 45.21 66.5 C 0.0 **** 0.0
2 H 93.391 45.219 67.582 H 0.0 **** 0.0
3 H 93.202 44.179 66.149 H 0.0 **** 0.0
4 H 94.108 45.707 66.028 H 0.0 **** 0.0
5 H 92.341 45.735 66.24 H 0.0 **** 0.0
@<TRIPOS>BOND
1 1 2 1
2 1 3 1
3 1 4 1
4 1 5 1
@<TRIPOS>MOLECULE
CH4
5 4
SMALL
USER_CHARGES


@<TRIPOS>ATOM
1 C 84.46 28.483 24.866 C 0.0 **** 0.0
2 H 84.272 29.014 25.799 H 0.0 **** 0.0
3 H 83.823 27.599 24.818 H 0.0 **** 0.0
4 H 85.506 28.18 24.825 H 0.0 **** 0.0
5 H 84.237 29.137 24.024 H 0.0 **** 0.0
@<TRIPOS>BOND
1 1 2 1
2 1 3 1
3 1 4 1
4 1 5 1
@<TRIPOS>MOLECULE
CH4
5 4
SMALL
USER_CHARGES


@<TRIPOS>ATOM
1 C 63.203 98.042 42.986 C 0.0 **** 0.0
2 H 64.217 98.205 43.351 H 0.0 **** 0.0
3 H 63.233 97.405 42.102 H 0.0 **** 0.0
4 H 62.752 99.001 42.727 H 0.0 **** 0.0
5 H 62.61 97.56 43.762 H 0.0 **** 0.0
@<TRIPOS>BOND
1 1 4 1
2 1 5 1
3 1 2 1
4 1 3 1
@<TRIPOS>MOLECULE
CH4
5 4
SMALL
USER_CHARGES


@<TRIPOS>ATOM
1 C 25.832 21.984 37.795 C 0.0 **** 0.0
2 H 25.284 21.807 38.721 H 0.0 **** 0.0
3 H 25.195 21.74 36.944 H 0.0 **** 0.0
4 H 26.722 21.356 37.775 H 0.0 **** 0.0
5 H 26.125 23.032 37.741 H 0.0 **** 0.0
@<TRIPOS>BOND
1 1 2 1
2 1 3 1
3 1 4 1
4 1 5 1
@<TRIPOS>MOLECULE
CH4
5 4
SMALL
USER_CHARGES


@<TRIPOS>ATOM
1 C 8.599 65.382 87.641 C 0.0 **** 0.0
2 H 8.15 65.314 88.631 H 0.0 **** 0.0
3 H 9.532 65.943 87.703 H 0.0 **** 0.0
4 H 7.912 65.892 86.965 H 0.0 **** 0.0
5 H 8.802 64.38 87.264 H 0.0 **** 0.0
@<TRIPOS>BOND
1 1 2 1
2 1 3 1
3 1 4 1
4 1 5 1
@<TRIPOS>MOLECULE
CH4
5 4
SMALL
USER_CHARGES


@<TRIPOS>ATOM
1 C 64.888 76.948 43.218 C 0.0 **** 0.0
2 H 64.653 78.011 43.166 H 0.0 **** 0.0
3 H 65.846 76.813 43.72 H 0.0 **** 0.0
4 H 64.944 76.539 42.209 H 0.0 **** 0.0
5 H 64.108 76.431 43.777 H 0.0 **** 0.0
@<TRIPOS>BOND
1 1 2 1
2 1 3 1
3 1 4 1
4 1 5 1
@<TRIPOS>MOLECULE
CH4
5 4
SMALL
USER_CHARGES


@<TRIPOS>ATOM
1 C 44.871 3.651 96.913 C 0.0 **** 0.0
2 H 45.265 4.133 97.808 H 0.0 **** 0.0
3 H 45.672 3.11 96.409 H 0.0 **** 0.0
4 H 44.464 4.407 96.242 H 0.0 **** 0.0
5 H 44.083 2.953 97.195 H 0.0 **** 0.0
@<TRIPOS>BOND
1 1 2 1
2 1 3 1
3 1 4 1
4 1 5 1
@<TRIPOS>MOLECULE
CH4
5 4
SMALL
USER_CHARGES


@<TRIPOS>ATOM
1 C 15.877 28.918 26.353 C 0.0 **** 0.0
2 H 16.065 28.748 27.413 H 0.0 **** 0.0
3 H 14.811 28.807 26.151 H 0.0 **** 0.0
4 H 16.436 28.191 25.764 H 0.0 **** 0.0
5 H 16.196 29.925 26.084 H 0.0 **** 0.0
@<TRIPOS>BOND
1 1 2 1
2 1 3 1
3 1 4 1
4 1 5 1
@<TRIPOS>MOLECULE
CH4
5 4
SMALL
USER_CHARGES


@<TRIPOS>ATOM
1 C 31.784 1.701 62.89 C 0.0 **** 0.0
2 H 31.322 0.742 63.127 H 0.0 **** 0.0
3 H 32.657 1.85 63.527 H 0.0 **** 0.0
4 H 31.066 2.502 63.063 H 0.0 **** 0.0
5 H 32.092 1.707 61.845 H 0.0 **** 0.0
@<TRIPOS>BOND
1 1 2 1
2 1 3 1
3 1 4 1
4 1 5 1
@<TRIPOS>MOLECULE
CH4
5 4
SMALL
USER_CHARGES


@<TRIPOS>ATOM
1 C 89.75 43.026 69.708 C 0.0 **** 0.0
2 H 89.002 42.774 70.461 H 0.0 **** 0.0
3 H 90.741 43.01 70.162 H 0.0 **** 0.0
4 H 89.546 44.021 69.313 H 0.0 **** 0.0
5 H 89.709 42.298 68.898 H 0.0 **** 0.0
@<TRIPOS>BOND
1 1 2 1
2 1 3 1
3 1 4 1
4 1 5 1
@<TRIPOS>MOLECULE
CH4
5 4
SMALL
USER_CHARGES


@<TRIPOS>ATOM
1 C 28.48 34.146 71.593 C 0.0 **** 0.0
2 H 29.282 34.483 70.936 H 0.0 **** 0.0
3 H 28.096 33.191 71.235 H 0.0 **** 0.0
4 H 27.678 34.883 71.594 H 0.0 **** 0.0
5 H 28.866 34.027 72.605 H 0.0 **** 0.0
@<TRIPOS>BOND
1 1 2 1
2 1 3 1
3 1 4 1
4 1 5 1
@<TRIPOS>MOLECULE
CH4
5 4
SMALL
USER_CHARGES


@<TRIPOS>ATOM
1 C 17.377 7.066 29.894 C 0.0 **** 0.0
2 H 17.034 6.044 29.733 H 0.0 **** 0.0
3 H 17.417 7.59 28.939 H 0.0 **** 0.0
4 H 18.371 7.048 30.341 H 0.0 **** 0.0
5 H 16.687 7.579 30.563 H 0.0 **** 0.0
@<TRIPOS>BOND
1 1 2 1
2 1 3 1
3 1 4 1
4 1 5 1
@<TRIPOS>MOLECULE
CH4
5 4
SMALL
USER_CHARGES


@<TRIPOS>ATOM
1 C 50.604 18.789 17.15 C 0.0 **** 0.0
2 H 50.429 18.793 16.074 H 0.0 **** 0.0
3 H 49.794 18.254 17.648 H 0.0 **** 0.0
4 H 50.64 19.815 17.516 H 0.0 **** 0.0
5 H 51.551 18.294 17.363 H 0.0 **** 0.0
@<TRIPOS>BOND
1 1 2 1
2 1 3 1
3 1 4 1
4 1 5 1
@<TRIPOS>MOLECULE
CH4
5 4
SMALL
USER_CHARGES


@<TRIPOS>ATOM
1 C 20.362 20.619 22.028 C 0.0 **** 0.0
2 H 20.465 21.463 22.711 H 0.0 **** 0.0
3 H 21.328 20.128 21.91 H 0.0 **** 0.0
4 H 20.014 20.977 21.059 H 0.0 **** 0.0
5 H 19.641 19.91 22.434 H 0.0 **** 0.0
@<TRIPOS>BOND
1 1 2 1
2 1 3 1
3 1 4 1
4 1 5 1
@<TRIPOS>MOLECULE
CH4
5 4
SMALL
USER_CHARGES


@<TRIPOS>ATOM
1 C 75.338 81.454 85.244 C 0.0 **** 0.0
2 H 76.415 81.32 85.339 H 0.0 **** 0.0
3 H 74.83 80.874 86.015 H 0.0 **** 0.0
4 H 75.015 81.114 84.26 H 0.0 **** 0.0
5 H 75.092 82.51 85.361 H 0.0 **** 0.0
@<TRIPOS>BOND
1 1 2 1
2 1 3 1
3 1 4 1
4 1 5 1
@<TRIPOS>MOLECULE
CH4
5 4
SMALL
USER_CHARGES


@<TRIPOS>ATOM
1 C 7.26 74.715 41.786 C 0.0 **** 0.0
2 H 6.375 74.675 41.151 H 0.0 **** 0.0
3 H 6.969 74.561 42.825 H 0.0 **** 0.0
4 H 7.738 75.689 41.682 H 0.0 **** 0.0
5 H 7.959 73.934 41.485 H 0.0 **** 0.0
@<TRIPOS>BOND
1 1 2 1
2 1 3 1
3 1 4 1
4 1 5 1
@<TRIPOS>MOLECULE
CH4
5 4
SMALL
USER_CHARGES


@<TRIPOS>ATOM
1 C 75.864 3.407 64.446 C 0.0 **** 0.0
2 H 75.46 3.664 63.466 H 0.0 **** 0.0
3 H 75.444 4.074 65.198 H 0.0 **** 0.0
4 H 76.949 3.511 64.43 H 0.0 **** 0.0
5 H 75.602 2.376 64.686 H 0.0 **** 0.0
@<TRIPOS>BOND
1 1 2 1
2 1 3 1
3 1 4 1
4 1 5 1
@<TRIPOS>MOLECULE
CH4
5 4
SMALL
USER_CHARGES


@<TRIPOS>ATOM
1 C 39.791 96.138 44.058 C 0.0 **** 0.0
2 H 40.059 96.193 43.003 H 0.0 **** 0.0
3 H 39.242 97.037 44.34 H 0.0 **** 0.0
4 H 40.696 96.061 44.659 H 0.0 **** 0.0
5 H 39.165 95.262 44.229 H 0.0 **** 0.0
@<TRIPOS>BOND
1 1 2 1
2 1 3 1
3 1 4 1
4 1 5 1
@<TRIPOS>MOLECULE
CH4
5 4
SMALL
USER_CHARGES


@<TRIPOS>ATOM
1 C 64.951 39.094 18.22 C 0.0 **** 0.0
2 H 64.329 38.938 19.101 H 0.0 **** 0.0
3 H 65.983 38.832 18.453 H 0.0 **** 0.0
4 H 64.901 40.141 17.921 H 0.0 **** 0.0
5 H 64.592 38.466 17.405 H 0.0 **** 0.0
@<TRIPOS>BOND
1 1 2 1
2 1 3 1
3 1 4 1
4 1 5 1
@<TRIPOS>MOLECULE
CH4
5 4
SMALL
USER_CHARGES


@<TRIPOS>ATOM
1 C 16.681 26.362 3.838 C 0.0 **** 0.0
2 H 16.481 26.222 2.775 H 0.0 **** 0.0
3 H 16.497 27.402 4.108 H 0.0 **** 0.0
4 H 17.72 26.109 4.049 H 0.0 **** 0.0
5 H 16.024 25.714 4.419 H 0.0 **** 0.0
@<TRIPOS>BOND
1 1 2 1
2 1 3 1
3 1 4 1
4 1 5 1
@<TRIPOS>MOLECULE
CH4
5 4
SMALL
USER_CHARGES


@<TRIPOS>ATOM
1 C 71.212 89.618 93.945 C 0.0 **** 0.0
2 H 70.975 89.523 95.004 H 0.0 **** 0.0
3 H 71.193 88.633 93.479 H 0.0 **** 0.0
4 H 72.204 90.055 93.833 H 0.0 **** 0.0
5 H 70.475 90.262 93.465 H 0.0 **** 0.0
@<TRIPOS>BOND
1 1 2 1
2 1 3 1
3 1 4 1
4 1 5 1
@<TRIPOS>MOLECULE
CH4
5 4
SMALL
USER_CHARGES


@<TRIPOS>ATOM
1 C 10.024 87.772 92.199 C 0.0 **** 0.0
2 H 10.422 87.815 93.213 H 0.0 **** 0.0
3 H 9.581 86.792 92.024 H 0.0 **** 0.0
4 H 10.832 87.939 91.486 H 0.0 **** 0.0
5 H 9.264 88.544 92.074 H 0.0 **** 0.0
@<TRIPOS>BOND
1 1 2 1
2 1 3 1
3 1 4 1
4 1 5 1
@<TRIPOS>MOLECULE
CH4
5 4
SMALL
USER_CHARGES


@<TRIPOS>ATOM
1 C 46.058 66.309 48.33 C 0.0 **** 0.0
2 H 46.203 66.297 47.249 H 0.0 **** 0.0
3 H 45.6 65.372 48.645 H 0.0 **** 0.0
4 H 45.407 67.141 48.599 H 0.0 **** 0.0
5 H 47.022 66.427 48.824 H 0.0 **** 0.0
@<TRIPOS>BOND
1 1 2 1
2 1 3 1
3 1 4 1
4 1 5 1
@<TRIPOS>MOLECULE
CH4
5 4
SMALL
USER_CHARGES


@<TRIPOS>ATOM
1 C 45.011 22.956 51.437 C 0.0 **** 0.0
2 H 44.987 22.019 50.88 H 0.0 **** 0.0
3 H 45.606 23.688 50.89 H 0.0 **** 0.0
4 H 45.456 22.784 52.417 H 0.0 **** 0.0
5 H 43.995 23.331 51.559 H 0.0 **** 0.0
@<TRIPOS>BOND
1 1 2 1
2 1 3 1
3 1 4 1
4 1 5 1
@<TRIPOS>MOLECULE
CH4
5 4
SMALL
USER_CHARGES


@<TRIPOS>ATOM
1 C 3.751 17.719 51.264 C 0.0 **** 0.0
2 H 2.966 18.403 50.94 H 0.0 **** 0.0
3 H 3.302 16.785 51.602 H 0.0 **** 0.0
4 H 4.311 18.171 52.082 H 0.0 **** 0.0
5 H 4.424 17.518 50.43 H 0.0 **** 0.0
@<TRIPOS>BOND
1 1 2 1
2 1 3 1
3 1 4 1
4 1 5 1
@<TRIPOS>MOLECULE
CH4
5 4
SMALL
USER_CHARGES


@<TRIPOS>ATOM
1 C 4.734 13.538 67.824 C 0.0 **** 0.0
2 H 3.784 13.569 68.358 H 0.0 **** 0.0
3 H 5.233 12.59 68.025 H 0.0 **** 0.0
4 H 5.366 14.36 68.159 H 0.0 **** 0.0
5 H 4.551 13.633 66.753 H 0.0 **** 0.0
@<TRIPOS>BOND
1 1 2 1
2 1 3 1
3 1 4 1
4 1 5 1
@<TRIPOS>MOLECULE
CH4
5 4
SMALL
USER_CHARGES


@<TRIPOS>ATOM
1 C 39.409 23.784 28.367 C 0.0 **** 0.0
2 H 39.948 23.098 29.02 H 0.0 **** 0.0
3 H 38.77 24.431 28.969 H 0.0 **** 0.0
4 H 38.796 23.215 27.669 H 0.0 **** 0.0
5 H 40.123 24.393 27.812 H 0.0 **** 0.0
@<TRIPOS>BOND
1 1 2 1
2 1 3 1
3 1 4 1
4 1 5 1
@<TRIPOS>MOLECULE
CH4
5 4
SMALL
USER_CHARGES


@<TRIPOS>ATOM
1 C 41.25 8.179 30.282 C 0.0 **** 0.0
2 H 41.682 8.466 31.241 H 0.0 **** 0.0
3 H 41.409 8.978 29.558 H 0.0 **** 0.0
4 H 40.18 8.006 30.403 H 0.0 **** 0.0
5 H 41.727 7.266 29.927 H 0.0 **** 0.0
@<TRIPOS>BOND
1 1 5 1
2 1 2 1
3 1 3 1
4 1 4 1
@<TRIPOS>MOLECULE
CH4
5 4
SMALL
USER_CHARGES


@<TRIPOS>ATOM
1 C 91.605 24.365 57.521 C 0.0 **** 0.0
2 H 92.078 24.491 56.546 H 0.0 **** 0.0
3 H 91.543 25.332 58.021 H 0.0 **** 0.0
4 H 92.198 23.679 58.126 H 0.0 **** 0.0
5 H 90.602 23.959 57.388 H 0.0 **** 0.0
@<TRIPOS>BOND
1 1 2 1
2 1 3 1
3 1 4 1
4 1 5 1
@<TRIPOS>MOLECULE
CH4
5 4
SMALL
USER_CHARGES


@<TRIPOS>ATOM
1 C 29.928 52.387 28.002 C 0.0 **** 0.0
2 H 28.957 51.893 27.973 H 0.0 **** 0.0
3 H 30.56 51.899 28.744 H 0.0 **** 0.0
4 H 29.794 53.435 28.271 H 0.0 **** 0.0
5 H 30.399 52.32 27.022 H 0.0 **** 0.0
@<TRIPOS>BOND
1 1 5 1
2 1 2 1
3 1 3 1
4 1 4 1
@<TRIPOS>MOLECULE
CH4
5 4
SMALL
USER_CHARGES


@<TRIPOS>ATOM
1 C 88.141 58.94 29.273 C 0.0 **** 0.0
2 H 88.258 57.914 29.622 H 0.0 **** 0.0
3 H 87.883 59.583 30.114 H 0.0 **** 0.0
4 H 87.348 58.981 28.526 H 0.0 **** 0.0
5 H 89.076 59.281 28.828 H 0.0 **** 0.0
@<TRIPOS>BOND
1 1 2 1
2 1 3 1
3 1 4 1
4 1 5 1
@<TRIPOS>MOLECULE
CH4
5 4
SMALL
USER_CHARGES


@<TRIPOS>ATOM
1 C 36.507 6.337 95.007 C 0.0 **** 0.0
2 H 37.518 6.624 95.297 H 0.0 **** 0.0
3 H 36.553 5.492 94.321 H 0.0 **** 0.0
4 H 36.018 7.178 94.516 H 0.0 **** 0.0
5 H 35.941 6.055 95.895 H 0.0 **** 0.0
@<TRIPOS>BOND
1 1 2 1
2 1 3 1
3 1 4 1
4 1 5 1
@<TRIPOS>MOLECULE
CH4
5 4
SMALL
USER_CHARGES


@<TRIPOS>ATOM
1 C 98.25 79.211 78.453 C 0.0 **** 0.0
2 H 98.85 78.316 78.616 H 0.0 **** 0.0
3 H 97.434 79.238 79.176 H 0.0 **** 0.0
4 H 97.841 79.196 77.443 H 0.0 **** 0.0
5 H 98.876 80.095 78.578 H 0.0 **** 0.0
@<TRIPOS>BOND
1 1 2 1
2 1 3 1
3 1 4 1
4 1 5 1
@<TRIPOS>MOLECULE
CH4
5 4
SMALL
USER_CHARGES


@<TRIPOS>ATOM
1 C 61.088 64.945 53.376 C 0.0 **** 0.0
2 H 60.76 64.359 54.235 H 0.0 **** 0.0
3 H 62.061 65.387 53.589 H 0.0 **** 0.0
4 H 60.364 65.736 53.18 H 0.0 **** 0.0
5 H 61.164 64.298 52.503 H 0.0 **** 0.0
@<TRIPOS>BOND
1 1 2 1
2 1 3 1
3 1 4 1
4 1 5 1
@<TRIPOS>MOLECULE
CH4
5 4
SMALL
USER_CHARGES


@<TRIPOS>ATOM
1 C 1.235 5.005 36.498 C 0.0 **** 0.0
2 H 1.518 4.898 35.45 H 0.0 **** 0.0
3 H 1.31 4.037 36.994 H 0.0 **** 0.0
4 H 0.21 5.369 36.562 H 0.0 **** 0.0
5 H 1.904 5.715 36.984 H 0.0 **** 0.0
@<TRIPOS>BOND
1 1 2 1
2 1 3 1
3 1 4 1
4 1 5 1
@<TRIPOS>MOLECULE
CH4
5 4
SMALL
USER_CHARGES


@<TRIPOS>ATOM
1 C 2.203 93.651 90.67 C 0.0 **** 0.0
2 H 2.082 93.559 91.749 H 0.0 **** 0.0
3 H 2.627 94.628 90.435 H 0.0 **** 0.0
4 H 1.232 93.55 90.186 H 0.0 **** 0.0
5 H 2.872 92.869 90.312 H 0.0 **** 0.0
@<TRIPOS>BOND
1 1 2 1
2 1 3 1
3 1 4 1
4 1 5 1
@<TRIPOS>MOLECULE
CH4
5 4
SMALL
USER_CHARGES


@<TRIPOS>ATOM
1 C 77.449 23.243 48.056 C 0.0 **** 0.0
2 H 77.087 23.176 49.082 H 0.0 **** 0.0
3 H 77.128 24.189 47.619 H 0.0 **** 0.0
4 H 77.042 22.417 47.472 H 0.0 **** 0.0
5 H 78.537 23.19 48.05 H 0.0 **** 0.0
@<TRIPOS>BOND
1 1 2 1
2 1 3 1
3 1 4 1
4 1 5 1
@<TRIPOS>MOLECULE
CH4
5 4
SMALL
USER_CHARGES


@<TRIPOS>ATOM
1 C 1.59 90.851 16.498 C 0.0 **** 0.0
2 H 1.256 91.093 15.489 H 0.0 **** 0.0
3 H 1.428 91.709 17.15 H 0.0 **** 0.0
4 H 2.652 90.604 16.479 H 0.0 **** 0.0
5 H 1.025 89.997 16.873 H 0.0 **** 0.0
@<TRIPOS>BOND
1 1 2 1
2 1 3 1
3 1 4 1
4 1 5 1
@<TRIPOS>MOLECULE
CH4
5 4
SMALL
USER_CHARGES


@<TRIPOS>ATOM
1 C 36.701 33.102 56.684 C 0.0 **** 0.0
2 H 35.754 33.479 56.297 H 0.0 **** 0.0
3 H 36.695 32.012 56.658 H 0.0 **** 0.0
4 H 36.834 33.441 57.712 H 0.0 **** 0.0
5 H 37.52 33.476 56.069 H 0.0 **** 0.0
@<TRIPOS>BOND
1 1 2 1
2 1 3 1
3 1 4 1
4 1 5 1
@<TRIPOS>MOLECULE
CH4
5 4
SMALL
USER_CHARGES


@<TRIPOS>ATOM
1 C 1.587 42.907 93.907 C 0.0 **** 0.0
2 H 0.693 42.284 93.89 H 0.0 **** 0.0
3 H 2.332 42.456 94.564 H 0.0 **** 0.0
4 H 1.33 43.9 94.277 H 0.0 **** 0.0
5 H 1.993 42.988 92.899 H 0.0 **** 0.0
@<TRIPOS>BOND
1 1 2 1
2 1 3 1
3 1 4 1
4 1 5 1
@<TRIPOS>MOLECULE
CH4
5 4
SMALL
USER_CHARGES


@<TRIPOS>ATOM
1 C 83.33 26.533 95.557 C 0.0 **** 0.0
2 H 82.347 26.314 95.14 H 0.0 **** 0.0
3 H 83.339 27.55 95.948 H 0.0 **** 0.0
4 H 84.085 26.435 94.778 H 0.0 **** 0.0
5 H 83.546 25.832 96.363 H 0.0 **** 0.0
@<TRIPOS>BOND
1 1 2 1
2 1 3 1
3 1 4 1
4 1 5 1
@<TRIPOS>MOLECULE
CH4
5 4
SMALL
USER_CHARGES


@<TRIPOS>ATOM
1 C 54.46 57.227 97.083 C 0.0 **** 0.0
2 H 53.924 56.631 96.344 H 0.0 **** 0.0
3 H 55.257 56.627 97.523 H 0.0 **** 0.0
4 H 53.769 57.544 97.864 H 0.0 **** 0.0
5 H 54.89 58.104 96.599 H 0.0 **** 0.0
@<TRIPOS>BOND
1 1 2 1
2 1 3 1
3 1 4 1
4 1 5 1
@<TRIPOS>MOLECULE
CH4
5 4
SMALL
USER_CHARGES


@<TRIPOS>ATOM
1 C 77.738 43.049 89.679 C 0.0 **** 0.0
2 H 78.149 43.063 88.669 H 0.0 **** 0.0
3 H 78.431 43.545 90.359 H 0.0 **** 0.0
4 H 77.593 42.017 89.997 H 0.0 **** 0.0
5 H 76.782 43.571 89.689 H 0.0 **** 0.0
@<TRIPOS>BOND
1 1 2 1
2 1 3 1
3 1 4 1
4 1 5 1
@<TRIPOS>MOLECULE
CH4
5 4
SMALL
USER_CHARGES


@<TRIPOS>ATOM
1 C 42.419 6.727 54.503 C 0.0 **** 0.0
2 H 42.015 6.112 55.308 H 0.0 **** 0.0
3 H 43.492 6.556 54.419 H 0.0 **** 0.0
4 H 42.234 7.779 54.723 H 0.0 **** 0.0
5 H 41.933 6.461 53.564 H 0.0 **** 0.0
@<TRIPOS>BOND
1 1 2 1
2 1 3 1
3 1 4 1
4 1 5 1
@<TRIPOS>MOLECULE
CH4
5 4
SMALL
USER_CHARGES


@<TRIPOS>ATOM
1 C 8.479 90.315 25.457 C 0.0 **** 0.0
2 H 7.827 89.987 24.648 H 0.0 **** 0.0
3 H 8.087 91.236 25.888 H 0.0 **** 0.0
4 H 9.481 90.493 25.067 H 0.0 **** 0.0
5 H 8.52 89.542 26.226 H 0.0 **** 0.0
@<TRIPOS>BOND
1 1 4 1
2 1 5 1
3 1 2 1
4 1 3 1
@<TRIPOS>MOLECULE
CH4
5 4
SMALL
USER_CHARGES


@<TRIPOS>ATOM
1 C 42.407 15.617 3.479 C 0.0 **** 0.0
2 H 41.875 15.589 2.528 H 0.0 **** 0.0
3 H 43.48 15.68 3.293 H 0.0 **** 0.0
4 H 42.189 14.71 4.044 H 0.0 **** 0.0
5 H 42.085 16.487 4.05 H 0.0 **** 0.0
@<TRIPOS>BOND
1 1 2 1
2 1 3 1
3 1 4 1
4 1 5 1
@<TRIPOS>MOLECULE
CH4
5 4
SMALL
USER_CHARGES


@<TRIPOS>ATOM
1 C 32.458 37.933 9.044 C 0.0 **** 0.0
2 H 32.106 38.196 8.047 H 0.0 **** 0.0
3 H 31.647 37.468 9.605 H 0.0 **** 0.0
4 H 32.79 38.833 9.561 H 0.0 **** 0.0
5 H 33.29 37.233 8.962 H 0.0 **** 0.0
@<TRIPOS>BOND
1 1 2 1
2 1 3 1
3 1 4 1
4 1 5 1
@<TRIPOS>MOLECULE
CH4
5 4
SMALL
USER_CHARGES


@<TRIPOS>ATOM
1 C 26.801 7.392 75.306 C 0.0 **** 0.0
2 H 26.892 8.405 75.699 H 0.0 **** 0.0
3 H 27.409 6.715 75.906 H 0.0 **** 0.0
4 H 27.147 7.372 74.273 H 0.0 **** 0.0
5 H 25.758 7.078 75.347 H 0.0 **** 0.0
@<TRIPOS>BOND
1 1 2 1
2 1 3 1
3 1 4 1
4 1 5 1
@<TRIPOS>MOLECULE
CH4
5 4
SMALL
USER_CHARGES


@<TRIPOS>ATOM
1 C 53.059 15.675 19.178 C 0.0 **** 0.0
2 H 53.855 15.83 19.906 H 0.0 **** 0.0
3 H 52.603 14.698 19.34 H 0.0 **** 0.0
4 H 53.475 15.72 18.171 H 0.0 **** 0.0
5 H 52.305 16.453 19.295 H 0.0 **** 0.0
@<TRIPOS>BOND
1 1 2 1
2 1 3 1
3 1 4 1
4 1 5 1
@<TRIPOS>MOLECULE
CH4
5 4
SMALL
USER_CHARGES


@<TRIPOS>ATOM
1 C 84.66 55.857 4.657 C 0.0 **** 0.0
2 H 84.686 56.709 3.978 H 0.0 **** 0.0
3 H 84.798 54.936 4.091 H 0.0 **** 0.0
4 H 83.697 55.829 5.167 H 0.0 **** 0.0
5 H 85.458 55.955 5.393 H 0.0 **** 0.0
@<TRIPOS>BOND
1 1 2 1
2 1 3 1
3 1 4 1
4 1 5 1
@<TRIPOS>MOLECULE
CH4
5 4
SMALL
USER_CHARGES


@<TRIPOS>ATOM
1 C 26.07 80.018 2.494 C 0.0 **** 0.0
2 H 26.277 79.827 3.547 H 0.0 **** 0.0
3 H 25.882 79.072 1.984 H 0.0 **** 0.0
4 H 26.929 80.512 2.039 H 0.0 **** 0.0
5 H 25.193 80.659 2.406 H 0.0 **** 0.0
@<TRIPOS>BOND
1 1 2 1
2 1 3 1
3 1 4 1
4 1 5 1
@<TRIPOS>MOLECULE
CH4
5 4
SMALL
USER_CHARGES


@<TRIPOS>ATOM
1 C 5.601 88.061 65.851 C 0.0 **** 0.0
2 H 5.824 88.483 64.871 H 0.0 **** 0.0
3 H 4.841 87.287 65.749 H 0.0 **** 0.0
4 H 5.233 88.848 66.51 H 0.0 **** 0.0
5 H 6.507 87.627 66.275 H 0.0 **** 0.0
@<TRIPOS>BOND
1 1 2 1
2 1 3 1
3 1 4 1
4 1 5 1
@<TRIPOS>MOLECULE
CH4
5 4
SMALL
USER_CHARGES


@<TRIPOS>ATOM
1 C 20.008 37.078 5.051 C 0.0 **** 0.0
2 H 20.364 36.402 5.827 H 0.0 **** 0.0
3 H 19.818 36.514 4.137 H 0.0 **** 0.0
4 H 20.763 37.84 4.857 H 0.0 **** 0.0
5 H 19.086 37.557 5.381 H 0.0 **** 0.0
@<TRIPOS>BOND
1 1 3 1
2 1 4 1
3 1 5 1
4 1 2 1
@<TRIPOS>MOLECULE
CH4
5 4
SMALL
USER_CHARGES


@<TRIPOS>ATOM
1 C 31.304 56.995 66.632 C 0.0 **** 0.0
2 H 31.764 57.633 67.387 H 0.0 **** 0.0
3 H 30.336 57.408 66.349 H 0.0 **** 0.0
4 H 31.167 55.993 67.039 H 0.0 **** 0.0
5 H 31.949 56.946 65.755 H 0.0 **** 0.0
@<TRIPOS>BOND
1 1 2 1
2 1 3 1
3 1 4 1
4 1 5 1
@<TRIPOS>MOLECULE
CH4
5 4
SMALL
USER_CHARGES


@<TRIPOS>ATOM
1 C 80.368 67.561 45.56 C 0.0 **** 0.0
2 H 81.095 68.171 45.024 H 0.0 **** 0.0
3 H 80.649 66.51 45.482 H 0.0 **** 0.0
4 H 79.38 67.706 45.123 H 0.0 **** 0.0
5 H 80.349 67.856 46.609 H 0.0 **** 0.0
@<TRIPOS>BOND
1 1 2 1
2 1 3 1
3 1 4 1
4 1 5 1
@<TRIPOS>MOLECULE
CH4
5 4
SMALL
USER_CHARGES


@<TRIPOS>ATOM
1 C 68.662 70.213 55.929 C 0.0 **** 0.0
2 H 68.867 70.121 54.863 H 0.0 **** 0.0
3 H 68.376 71.24 56.157 H 0.0 **** 0.0
4 H 69.557 69.95 56.494 H 0.0 **** 0.0
5 H 67.85 69.539 56.202 H 0.0 **** 0.0
@<TRIPOS>BOND
1 1 2 1
2 1 3 1
3 1 4 1
4 1 5 1
@<TRIPOS>MOLECULE
CH4
5 4
SMALL
USER_CHARGES


@<TRIPOS>ATOM
1 C 58.763 52.886 52.938 C 0.0 **** 0.0
2 H 58.155 53.773 52.764 H 0.0 **** 0.0
3 H 59.78 53.187 53.192 H 0.0 **** 0.0
4 H 58.78 52.274 52.037 H 0.0 **** 0.0
5 H 58.339 52.311 53.761 H 0.0 **** 0.0
@<TRIPOS>BOND
1 1 2 1
2 1 3 1
3 1 4 1
4 1 5 1
@<TRIPOS>MOLECULE
CH4
5 4
SMALL
USER_CHARGES


@<TRIPOS>ATOM
1 C 71.903 25.436 46.002 C 0.0 **** 0.0
2 H 71.945 25.5 47.089 H 0.0 **** 0.0
3 H 71.274 26.238 45.615 H 0.0 **** 0.0
4 H 71.484 24.473 45.71 H 0.0 **** 0.0
5 H 72.909 25.533 45.593 H 0.0 **** 0.0
@<TRIPOS>BOND
1 1 2 1
2 1 3 1
3 1 4 1
4 1 5 1
@<TRIPOS>MOLECULE
CH4
5 4
SMALL
USER_CHARGES


@<TRIPOS>ATOM
1 C 31.027 33.59 87.65 C 0.0 **** 0.0
2 H 29.969 33.78 87.47 H 0.0 **** 0.0
3 H 31.615 33.999 86.828 H 0.0 **** 0.0
4 H 31.196 32.515 87.718 H 0.0 **** 0.0
5 H 31.328 34.064 88.584 H 0.0 **** 0.0
@<TRIPOS>BOND
1 1 2 1
2 1 3 1
3 1 4 1
4 1 5 1
@<TRIPOS>MOLECULE
CH4
5 4
SMALL
USER_CHARGES


@<TRIPOS>ATOM
1 C 22.428 76.982 92.859 C 0.0 **** 0.0
2 H 22.756 77.039 91.821 H 0.0 **** 0.0
3 H 21.399 76.624 92.896 H 0.0 **** 0.0
4 H 22.485 77.972 93.312 H 0.0 **** 0.0
5 H 23.072 76.294 93.406 H 0.0 **** 0.0
@<TRIPOS>BOND
1 1 2 1
2 1 3 1
3 1 4 1
4 1 5 1
@<TRIPOS>MOLECULE
CH4
5 4
SMALL
USER_CHARGES


@<TRIPOS>ATOM
1 C 72.667 68.51 80.128 C 0.0 **** 0.0
2 H 73.44 68.022 80.721 H 0.0 **** 0.0
3 H 72.767 68.21 79.084 H 0.0 **** 0.0
4 H 72.776 69.591 80.207 H 0.0 **** 0.0
5 H 71.685 68.215 80.498 H 0.0 **** 0.0
@<TRIPOS>BOND
1 1 2 1
2 1 3 1
3 1 4 1
4 1 5 1
@<TRIPOS>MOLECULE
CH4
5 4
SMALL
USER_CHARGES


@<TRIPOS>ATOM
1 C 65.614 32.627 14.192 C 0.0 **** 0.0
2 H 65.767 31.618 14.576 H 0.0 **** 0.0
3 H 64.567 32.756 13.918 H 0.0 **** 0.0
4 H 66.242 32.779 13.314 H 0.0 **** 0.0
5 H 65.882 33.352 14.96 H 0.0 **** 0.0
@<TRIPOS>BOND
1 1 2 1
2 1 3 1
3 1 4 1
4 1 5 1
@<TRIPOS>MOLECULE
CH4
5 4
SMALL
USER_CHARGES


@<TRIPOS>ATOM
1 C 59.589 57.533 55.103 C 0.0 **** 0.0
2 H 59.807 56.583 54.616 H 0.0 **** 0.0
3 H 60.134 58.332 54.599 H 0.0 **** 0.0
4 H 59.897 57.486 56.147 H 0.0 **** 0.0
5 H 58.519 57.732 55.048 H 0.0 **** 0.0
@<TRIPOS>BOND
1 1 2 1
2 1 3 1
3 1 4 1
4 1 5 1
@<TRIPOS>MOLECULE
CH4
5 4
SMALL
USER_CHARGES


@<TRIPOS>ATOM
1 C 66.961 94.607 83.765 C 0.0 **** 0.0
2 H 67.563 93.786 84.156 H 0.0 **** 0.0
3 H 65.905 94.339 83.817 H 0.0 **** 0.0
4 H 67.237 94.798 82.728 H 0.0 **** 0.0
5 H 67.138 95.503 84.36 H 0.0 **** 0.0
@<TRIPOS>BOND
1 1 2 1
2 1 3 1
3 1 4 1
4 1 5 1
@<TRIPOS>MOLECULE
CH4
5 4
SMALL
USER_CHARGES


@<TRIPOS>ATOM
1 C 6.032 46.245 38.997 C 0.0 **** 0.0
2 H 5.19 46.883 38.729 H 0.0 **** 0.0
3 H 6.965 46.765 38.784 H 0.0 **** 0.0
4 H 5.988 45.323 38.416 H 0.0 **** 0.0
5 H 5.982 46.006 40.06 H 0.0 **** 0.0
@<TRIPOS>BOND
1 1 2 1
2 1 3 1
3 1 4 1
4 1 5 1
@<TRIPOS>MOLECULE
CH4
5 4
SMALL
USER_CHARGES


@<TRIPOS>ATOM
1 C 38.624 49.84 62.494 C 0.0 **** 0.0
2 H 39.419 50.384 63.004 H 0.0 **** 0.0
3 H 37.823 50.532 62.23 H 0.0 **** 0.0
4 H 38.233 49.065 63.152 H 0.0 **** 0.0
5 H 39.021 49.382 61.588 H 0.0 **** 0.0
@<TRIPOS>BOND
1 1 2 1
2 1 3 1
3 1 4 1
4 1 5 1
@<TRIPOS>MOLECULE
CH4
5 4
SMALL
USER_CHARGES


@<TRIPOS>ATOM
1 C 59.814 51.193 74.751 C 0.0 **** 0.0
2 H 59.904 51.46 73.698 H 0.0 **** 0.0
3 H 60.426 50.315 74.956 H 0.0 **** 0.0
4 H 58.772 50.972 74.982 H 0.0 **** 0.0
5 H 60.154 52.026 75.367 H 0.0 **** 0.0
@<TRIPOS>BOND
1 1 2 1
2 1 3 1
3 1 4 1
4 1 5 1
@<TRIPOS>MOLECULE
CH4
5 4
SMALL
USER_CHARGES


@<TRIPOS>ATOM
1 C 18.758 29.891 85.554 C 0.0 **** 0.0
2 H 18.686 28.812 85.69 H 0.0 **** 0.0
3 H 19.782 30.213 85.744 H 0.0 **** 0.0
4 H 18.084 30.39 86.25 H 0.0 **** 0.0
5 H 18.48 30.147 84.532 H 0.0 **** 0.0
@<TRIPOS>BOND
1 1 2 1
2 1 3 1
3 1 4 1
4 1 5 1
@<TRIPOS>MOLECULE
CH4
5 4
SMALL
USER_CHARGES


@<TRIPOS>ATOM
1 C 90.379 90.299 65.075 C 0.0 **** 0.0
2 H 89.994 90.813 65.956 H 0.0 **** 0.0
3 H 90.305 90.959 64.21 H 0.0 **** 0.0
4 H 89.793 89.398 64.895 H 0.0 **** 0.0
5 H 91.422 90.028 65.238 H 0.0 **** 0.0
@<TRIPOS>BOND
1 1 2 1
2 1 3 1
3 1 4 1
4 1 5 1
@<TRIPOS>MOLECULE
CH4
5 4
SMALL
USER_CHARGES


@<TRIPOS>ATOM
1 C 51.05 36.812 52.576 C 0.0 **** 0.0
2 H 50.358 36.79 53.418 H 0.0 **** 0.0
3 H 52.071 36.711 52.942 H 0.0 **** 0.0
4 H 50.945 37.758 52.044 H 0.0 **** 0.0
5 H 50.823 35.988 51.899 H 0.0 **** 0.0
@<TRIPOS>BOND
1 1 2 1
2 1 3 1
3 1 4 1
4 1 5 1
@<TRIPOS>MOLECULE
CH4
5 4
SMALL
USER_CHARGES


@<TRIPOS>ATOM
1 C 50.553 56.444 76.303 C 0.0 **** 0.0
2 H 51.559 56.351 76.712 H 0.0 **** 0.0
3 H 50.593 56.358 75.217 H 0.0 **** 0.0
4 H 50.138 57.414 76.577 H 0.0 **** 0.0
5 H 49.923 55.651 76.707 H 0.0 **** 0.0
@<TRIPOS>BOND
1 1 2 1
2 1 3 1
3 1 4 1
4 1 5 1
@<TRIPOS>MOLECULE
CH4
5 4
SMALL
USER_CHARGES


@<TRIPOS>ATOM
1 C 26.85 55.213 35.614 C 0.0 **** 0.0
2 H 26.765 56.084 34.965 H 0.0 **** 0.0
3 H 26.484 55.466 36.61 H 0.0 **** 0.0
4 H 27.894 54.907 35.677 H 0.0 **** 0.0
5 H 26.255 54.396 35.205 H 0.0 **** 0.0
@<TRIPOS>BOND
1 1 2 1
2 1 3 1
3 1 4 1
4 1 5 1
@<TRIPOS>MOLECULE
CH4
5 4
SMALL
USER_CHARGES


@<TRIPOS>ATOM
1 C 95.697 8.158 47.211 C 0.0 **** 0.0
2 H 95.751 8.121 46.123 H 0.0 **** 0.0
3 H 96.475 7.523 47.635 H 0.0 **** 0.0
4 H 94.72 7.804 47.538 H 0.0 **** 0.0
5 H 95.843 9.185 47.547 H 0.0 **** 0.0
@<TRIPOS>BOND
1 1 2 1
2 1 3 1
3 1 4 1
4 1 5 1
@<TRIPOS>MOLECULE
CH4
5 4
SMALL
USER_CHARGES


@<TRIPOS>ATOM
1 C 42.357 66.537 69.331 C 0.0 **** 0.0
2 H 42.445 67.283 68.542 H 0.0 **** 0.0
3 H 41.306 66.284 69.476 H 0.0 **** 0.0
4 H 42.765 66.939 70.258 H 0.0 **** 0.0
5 H 42.911 65.642 69.048 H 0.0 **** 0.0
@<TRIPOS>BOND
1 1 2 1
2 1 3 1
3 1 4 1
4 1 5 1
@<TRIPOS>MOLECULE
CH4
5 4
SMALL
USER_CHARGES


@<TRIPOS>ATOM
1 C 57.408 23.403 92.994 C 0.0 **** 0.0
2 H 57.038 22.43 92.671 H 0.0 **** 0.0
3 H 56.601 23.958 93.473 H 0.0 **** 0.0
4 H 57.77 23.959 92.129 H 0.0 **** 0.0
5 H 58.224 23.263 93.703 H 0.0 **** 0.0
@<TRIPOS>BOND
1 1 2 1
2 1 3 1
3 1 4 1
4 1 5 1
@<TRIPOS>MOLECULE
CH4
5 4
SMALL
USER_CHARGES


@<TRIPOS>ATOM
1 C 6.568 28.269 92.45 C 0.0 **** 0.0
2 H 6.651 27.809 93.434 H 0.0 **** 0.0
3 H 6.61 29.354 92.552 H 0.0 **** 0.0
4 H 5.621 27.983 91.994 H 0.0 **** 0.0
5 H 7.391 27.931 91.821 H 0.0 **** 0.0
@<TRIPOS>BOND
1 1 2 1
2 1 3 1
3 1 4 1
4 1 5 1
@<TRIPOS>MOLECULE
CH4
5 4
SMALL
USER_CHARGES


@<TRIPOS>ATOM
1 C 73.79 84.019 31.056 C 0.0 **** 0.0
2 H 73.903 84.674 31.92 H 0.0 **** 0.0
3 H 74.469 83.172 31.152 H 0.0 **** 0.0
4 H 74.027 84.573 30.147 H 0.0 **** 0.0
5 H 72.763 83.659 31.005 H 0.0 **** 0.0
@<TRIPOS>BOND
1 1 2 1
2 1 3 1
3 1 4 1
4 1 5 1
@<TRIPOS>MOLECULE
CH4
5 4
SMALL
USER_CHARGES


@<TRIPOS>ATOM
1 C 16.503 11.413 12.667 C 0.0 **** 0.0
2 H 16.804 11.646 13.688 H 0.0 **** 0.0
3 H 15.81 10.571 12.677 H 0.0 **** 0.0
4 H 17.383 11.153 12.079 H 0.0 **** 0.0
5 H 16.013 12.281 12.225 H 0.0 **** 0.0
@<TRIPOS>BOND
1 1 2 1
2 1 3 1
3 1 4 1
4 1 5 1
@<TRIPOS>MOLECULE
CH4
5 4
SMALL
USER_CHARGES


@<TRIPOS>ATOM
1 C 24.424 4.518 86.287 C 0.0 **** 0.0
2 H 24.779 4.809 85.299 H 0.0 **** 0.0
3 H 25.092 4.923 87.047 H 0.0 **** 0.0
4 H 24.407 3.43 86.36 H 0.0 **** 0.0
5 H 23.418 4.908 86.441 H 0.0 **** 0.0
@<TRIPOS>BOND
1 1 2 1
2 1 3 1
3 1 4 1
4 1 5 1
@<TRIPOS>MOLECULE
CH4
5 4
SMALL
USER_CHARGES


@<TRIPOS>ATOM
1 C 55.593 14.275 49.025 C 0.0 **** 0.0
2 H 55.527 14.142 50.105 H 0.0 **** 0.0
3 H 54.589 14.313 48.601 H 0.0 **** 0.0
4 H 56.14 13.438 48.589 H 0.0 **** 0.0
5 H 56.116 15.205 48.805 H 0.0 **** 0.0
@<TRIPOS>BOND
1 1 2 1
2 1 3 1
3 1 4 1
4 1 5 1
@<TRIPOS>MOLECULE
CH4
5 4
SMALL
USER_CHARGES


@<TRIPOS>ATOM
1 C 98.334 45.121 64.693 C 0.0 **** 0.0
2 H 98.448 45.8 65.538 H 0.0 **** 0.0
3 H 98.587 44.108 65.005 H 0.0 **** 0.0
4 H 99.0 45.43 63.887 H 0.0 **** 0.0
5 H 97.302 45.147 64.343 H 0.0 **** 0.0
@<TRIPOS>BOND
1 1 2 1
2 1 3 1
3 1 4 1
4 1 5 1
@<TRIPOS>MOLECULE
CH4
5 4
SMALL
USER_CHARGES


@<TRIPOS>ATOM
1 C 88.885 76.557 40.673 C 0.0 **** 0.0
2 H 89.063 76.341 41.727 H 0.0 **** 0.0
3 H 87.994 76.024 40.338 H 0.0 **** 0.0
4 H 89.744 76.233 40.086 H 0.0 **** 0.0
5 H 88.739 77.629 40.542 H 0.0 **** 0.0
@<TRIPOS>BOND
1 1 2 1
2 1 3 1
3 1 4 1
4 1 5 1
@<TRIPOS>MOLECULE
CH4
5 4
SMALL
USER_CHARGES


@<TRIPOS>ATOM
1 C 72.8 48.406 58.654 C 0.0 **** 0.0
2 H 71.806 48.118 58.997 H 0.0 **** 0.0
3 H 73.225 47.599 58.057 H 0.0 **** 0.0
4 H 73.44 48.597 59.515 H 0.0 **** 0.0
5 H 72.727 49.308 58.047 H 0.0 **** 0.0
@<TRIPOS>BOND
1 1 2 1
2 1 3 1
3 1 4 1
4 1 5 1
@<TRIPOS>MOLECULE
CH4
5 4
SMALL
USER_CHARGES


@<TRIPOS>ATOM
1 C 9.177 81.527 5.237 C 0.0 **** 0.0
2 H 9.762 82.325 5.694 H 0.0 **** 0.0
3 H 9.296 80.612 5.818 H 0.0 **** 0.0
4 H 9.525 81.359 4.218 H 0.0 **** 0.0
5 H 8.125 81.812 5.22 H 0.0 **** 0.0
@<TRIPOS>BOND
1 1 2 1
2 1 3 1
3 1 4 1
4 1 5 1
@<TRIPOS>MOLECULE
CH4
5 4
SMALL
USER_CHARGES


@<TRIPOS>ATOM
1 C 81.042 51.808 76.446 C 0.0 **** 0.0
2 H 80.453 52.66 76.787 H 0.0 **** 0.0
3 H 82.102 52.019 76.591 H 0.0 **** 0.0
4 H 80.847 51.633 75.388 H 0.0 **** 0.0
5 H 80.765 50.923 77.018 H 0.0 **** 0.0
@<TRIPOS>BOND
1 1 2 1
2 1 3 1
3 1 4 1
4 1 5 1
@<TRIPOS>MOLECULE
CH4
5 4
SMALL
USER_CHARGES


@<TRIPOS>ATOM
1 C 88.338 48.419 98.396 C 0.0 **** 0.0
2 H 89.051 47.85 98.993 H 0.0 **** 0.0
3 H 87.493 47.781 98.135 H 0.0 **** 0.0
4 H 88.824 48.77 97.486 H 0.0 **** 0.0
5 H 87.984 49.274 98.972 H 0.0 **** 0.0
@<TRIPOS>BOND
1 1 2 1
2 1 3 1
3 1 4 1
4 1 5 1
@<TRIPOS>MOLECULE
CH4
5 4
SMALL
USER_CHARGES


@<TRIPOS>ATOM
1 C 49.265 56.92 90.178 C 0.0 **** 0.0
2 H 49.288 57.587 89.316 H 0.0 **** 0.0
3 H 49.961 56.096 90.018 H 0.0 **** 0.0
4 H 48.257 56.526 90.306 H 0.0 **** 0.0
5 H 49.556 57.473 91.072 H 0.0 **** 0.0
@<TRIPOS>BOND
1 1 2 1
2 1 3 1
3 1 4 1
4 1 5 1
@<TRIPOS>MOLECULE
CH4
5 4
SMALL
USER_CHARGES


@<TRIPOS>ATOM
1 C 8.087 26.164 54.42 C 0.0 **** 0.0
2 H 7.832 25.303 55.038 H 0.0 **** 0.0
3 H 8.75 25.85 53.614 H 0.0 **** 0.0
4 H 8.588 26.914 55.032 H 0.0 **** 0.0
5 H 7.177 26.59 53.997 H 0.0 **** 0.0
@<TRIPOS>BOND
1 1 2 1
2 1 3 1
3 1 4 1
4 1 5 1
@<TRIPOS>MOLECULE
CH4
5 4
SMALL
USER_CHARGES


@<TRIPOS>ATOM
1 C 11.809 31.61 43.086 C 0.0 **** 0.0
2 H 12.238 32.56 42.768 H 0.0 **** 0.0
3 H 12.58 31.006 43.566 H 0.0 **** 0.0
4 H 11.418 31.079 42.218 H 0.0 **** 0.0
5 H 11.0 31.796 43.793 H 0.0 **** 0.0
@<TRIPOS>BOND
1 1 2 1
2 1 3 1
3 1 4 1
4 1 5 1
@<TRIPOS>MOLECULE
CH4
5 4
SMALL
USER_CHARGES


@<TRIPOS>ATOM
1 C 97.286 0.625 90.927 C 0.0 **** 0.0
2 H 98.109 0.0 91.271 H 0.0 **** 0.0
3 H 97.035 1.353 91.698 H 0.0 **** 0.0
4 H 96.417 0.0 90.72 H 0.0 **** 0.0
5 H 97.582 1.147 90.017 H 0.0 **** 0.0
@<TRIPOS>BOND
1 1 2 1
2 1 3 1
3 1 4 1
4 1 5 1
@<TRIPOS>MOLECULE
CH4
5 4
SMALL
USER_CHARGES


@<TRIPOS>ATOM
1 C 62.224 86.836 14.76 C 0.0 **** 0.0
2 H 62.21 86.801 15.85 H 0.0 **** 0.0
3 H 61.799 85.914 14.362 H 0.0 **** 0.0
4 H 63.252 86.942 14.414 H 0.0 **** 0.0
5 H 61.636 87.686 14.416 H 0.0 **** 0.0
@<TRIPOS>BOND
1 1 2 1
2 1 3 1
3 1 4 1
4 1 5 1
@<TRIPOS>MOLECULE
CH4
5 4
SMALL
USER_CHARGES


@<TRIPOS>ATOM
1 C 43.601 11.538 88.55 C 0.0 **** 0.0
2 H 44.56 11.32 89.02 H 0.0 **** 0.0
3 H 42.815 10.973 89.052 H 0.0 **** 0.0
4 H 43.639 11.253 87.499 H 0.0 **** 0.0
5 H 43.391 12.604 88.631 H 0.0 **** 0.0
@<TRIPOS>BOND
1 1 2 1
2 1 3 1
3 1 4 1
4 1 5 1
@<TRIPOS>MOLECULE
CH4
5 4
SMALL
USER_CHARGES


@<TRIPOS>ATOM
1 C 90.795 67.075 27.733 C 0.0 **** 0.0
2 H 90.797 66.686 28.751 H 0.0 **** 0.0
3 H 91.808 67.361 27.451 H 0.0 **** 0.0
4 H 90.142 67.946 27.679 H 0.0 **** 0.0
5 H 90.432 66.305 27.051 H 0.0 **** 0.0
@<TRIPOS>BOND
1 1 2 1
2 1 3 1
3 1 4 1
4 1 5 1
@<TRIPOS>MOLECULE
CH4
5 4
SMALL
USER_CHARGES


@<TRIPOS>ATOM
1 C 58.097 42.503 86.588 C 0.0 **** 0.0
2 H 57.86 42.937 87.56 H 0.0 **** 0.0
3 H 57.491 42.982 85.819 H 0.0 **** 0.0
4 H 57.882 41.434 86.607 H 0.0 **** 0.0
5 H 59.153 42.658 86.369 H 0.0 **** 0.0
@<TRIPOS>BOND
1 1 2 1
2 1 3 1
3 1 4 1
4 1 5 1
@<TRIPOS>MOLECULE
CH4
5 4
SMALL
USER_CHARGES


@<TRIPOS>ATOM
1 C 44.768 18.877 27.423 C 0.0 **** 0.0
2 H 44.506 19.744 28.029 H 0.0 **** 0.0
3 H 45.043 19.204 26.42 H 0.0 **** 0.0
4 H 43.912 18.204 27.364 H 0.0 **** 0.0
5 H 45.609 18.356 27.879 H 0.0 **** 0.0
@<TRIPOS>BOND
1 1 4 1
2 1 2 1
3 1 3 1
4 1 5 1
@<TRIPOS>MOLECULE
CH4
5 4
SMALL
USER_CHARGES


@<TRIPOS>ATOM
1 C 73.083 94.749 92.121 C 0.0 **** 0.0
2 H 73.066 94.621 93.203 H 0.0 **** 0.0
3 H 72.105 94.497 91.71 H 0.0 **** 0.0
4 H 73.839 94.093 91.689 H 0.0 **** 0.0
5 H 73.322 95.785 91.882 H 0.0 **** 0.0
@<TRIPOS>BOND
1 1 2 1
2 1 3 1
3 1 4 1
4 1 5 1
@<TRIPOS>MOLECULE
CH4
5 4
SMALL
USER_CHARGES


@<TRIPOS>ATOM
1 C 2.455 51.14 82.912 C 0.0 **** 0.0
2 H 1.539 51.393 83.446 H 0.0 **** 0.0
3 H 2.988 50.358 83.453 H 0.0 **** 0.0
4 H 3.087 52.025 82.837 H 0.0 **** 0.0
5 H 2.206 50.786 81.911 H 0.0 **** 0.0
@<TRIPOS>BOND
1 1 2 1
2 1 3 1
3 1 4 1
4 1 5 1
@<TRIPOS>MOLECULE
CH4
5 4
SMALL
USER_CHARGES


@<TRIPOS>ATOM
1 C 53.075 4.113 4.435 C 0.0 **** 0.0
2 H 52.328 3.595 3.835 H 0.0 **** 0.0
3 H 53.281 5.09 3.996 H 0.0 **** 0.0
4 H 53.993 3.525 4.46 H 0.0 **** 0.0
5 H 52.7 4.243 5.45 H 0.0 **** 0.0
@<TRIPOS>BOND
1 1 2 1
2 1 3 1
3 1 4 1
4 1 5 1
@<TRIPOS>MOLECULE
CH4
5 4
SMALL
USER_CHARGES


@<TRIPOS>ATOM
1 C 36.511 87.429 5.112 C 0.0 **** 0.0
2 H 37.363 87.149 4.492 H 0.0 **** 0.0
3 H 36.866 87.95 6.002 H 0.0 **** 0.0
4 H 35.967 86.532 5.409 H 0.0 **** 0.0
5 H 35.85 88.085 4.546 H 0.0 **** 0.0
@<TRIPOS>BOND
1 1 2 1
2 1 3 1
3 1 4 1
4 1 5 1
@<TRIPOS>MOLECULE
CH4
5 4
SMALL
USER_CHARGES


@<TRIPOS>ATOM
1 C 16.914 17.323 95.169 C 0.0 **** 0.0
2 H 16.881 17.064 94.111 H 0.0 **** 0.0
3 H 16.833 18.404 95.281 H 0.0 **** 0.0
4 H 17.857 16.983 95.597 H 0.0 **** 0.0
5 H 16.085 16.841 95.687 H 0.0 **** 0.0
@<TRIPOS>BOND
1 1 2 1
2 1 3 1
3 1 4 1
4 1 5 1
@<TRIPOS>MOLECULE
CH4
5 4
SMALL
USER_CHARGES


@<TRIPOS>ATOM
1 C 86.279 65.22 78.915 C 0.0 **** 0.0
2 H 86.266 66.305 78.815 H 0.0 **** 0.0
3 H 85.488 64.789 78.301 H 0.0 **** 0.0
4 H 86.119 64.949 79.958 H 0.0 **** 0.0
5 H 87.245 64.837 78.585 H 0.0 **** 0.0
@<TRIPOS>BOND
1 1 2 1
2 1 3 1
3 1 4 1
4 1 5 1
@<TRIPOS>MOLECULE
CH4
5 4
SMALL
USER_CHARGES


@<TRIPOS>ATOM
1 C 21.654 50.857 63.226 C 0.0 **** 0.0
2 H 21.772 50.685 64.296 H 0.0 **** 0.0
3 H 22.254 50.133 62.674 H 0.0 **** 0.0
4 H 21.985 51.866 62.981 H 0.0 **** 0.0
5 H 20.605 50.742 62.954 H 0.0 **** 0.0
@<TRIPOS>BOND
1 1 2 1
2 1 3 1
3 1 4 1
4 1 5 1
@<TRIPOS>MOLECULE
CH4
5 4
SMALL
USER_CHARGES


@<TRIPOS>ATOM
1 C 55.945 34.263 77.906 C 0.0 **** 0.0
2 H 56.412 33.584 78.619 H 0.0 **** 0.0
3 H 56.163 33.931 76.891 H 0.0 **** 0.0
4 H 56.339 35.269 78.051 H 0.0 **** 0.0
5 H 54.866 34.269 78.063 H 0.0 **** 0.0
@<TRIPOS>BOND
1 1 2 1
2 1 3 1
3 1 4 1
4 1 5 1
@<TRIPOS>MOLECULE
CH4
5 4
SMALL
USER_CHARGES


@<TRIPOS>ATOM
1 C 60.581 70.405 2.138 C 0.0 **** 0.0
2 H 61.018 70.527 1.147 H 0.0 **** 0.0
3 H 60.468 69.342 2.356 H 0.0 **** 0.0
4 H 59.604 70.887 2.167 H 0.0 **** 0.0
5 H 61.234 70.861 2.881 H 0.0 **** 0.0
@<TRIPOS>BOND
1 1 3 1
2 1 4 1
3 1 5 1
4 1 2 1
@<TRIPOS>MOLECULE
CH4
5 4
SMALL
USER_CHARGES


@<TRIPOS>ATOM
1 C 84.068 7.709 93.915 C 0.0 **** 0.0
2 H 85.025 8.189 93.712 H 0.0 **** 0.0
3 H 83.257 8.376 93.622 H 0.0 **** 0.0
4 H 83.991 7.489 94.98 H 0.0 **** 0.0
5 H 83.998 6.781 93.347 H 0.0 **** 0.0
@<TRIPOS>BOND
1 1 2 1
2 1 3 1
3 1 4 1
4 1 5 1
@<TRIPOS>MOLECULE
CH4
5 4
SMALL
USER_CHARGES


@<TRIPOS>ATOM
1 C 2.138 39.05 86.657 C 0.0 **** 0.0
2 H 3.141 39.478 86.642 H 0.0 **** 0.0
3 H 1.46 39.695 86.098 H 0.0 **** 0.0
4 H 1.795 38.968 87.688 H 0.0 **** 0.0
5 H 2.159 38.061 86.201 H 0.0 **** 0.0
@<TRIPOS>BOND
1 1 2 1
2 1 3 1
3 1 4 1
4 1 5 1
@<TRIPOS>MOLECULE
CH4
5 4
SMALL
USER_CHARGES


@<TRIPOS>ATOM
1 C 47.387 26.331 63.869 C 0.0 **** 0.0
2 H 47.795 25.68 64.642 H 0.0 **** 0.0
3 H 48.202 26.736 63.269 H 0.0 **** 0.0
4 H 46.839 27.149 64.336 H 0.0 **** 0.0
5 H 46.714 25.76 63.231 H 0.0 **** 0.0
@<TRIPOS>BOND
1 1 2 1
2 1 3 1
3 1 4 1
4 1 5 1
@<TRIPOS>MOLECULE
CH4
5 4
SMALL
USER_CHARGES


@<TRIPOS>ATOM
1 C 69.768 76.475 85.969 C 0.0 **** 0.0
2 H 69.7 77.412 86.522 H 0.0 **** 0.0
3 H 70.785 76.088 86.035 H 0.0 **** 0.0
4 H 69.513 76.65 84.924 H 0.0 **** 0.0
5 H 69.075 75.75 86.396 H 0.0 **** 0.0
@<TRIPOS>BOND
1 1 2 1
2 1 3 1
3 1 4 1
4 1 5 1
@<TRIPOS>MOLECULE
CH4
5 4
SMALL
USER_CHARGES


@<TRIPOS>ATOM
1 C 61.547 71.584 41.008 C 0.0 **** 0.0
2 H 60.97 70.792 41.485 H 0.0 **** 0.0
3 H 61.426 71.521 39.927 H 0.0 **** 0.0
4 H 62.6 71.47 41.264 H 0.0 **** 0.0
5 H 61.191 72.553 41.358 H 0.0 **** 0.0
@<TRIPOS>BOND
1 1 2 1
2 1 3 1
3 1 4 1
4 1 5 1
@<TRIPOS>MOLECULE
CH4
5 4
SMALL
USER_CHARGES


@<TRIPOS>ATOM
1 C 18.595 6.922 68.718 C 0.0 **** 0.0
2 H 19.516 7.291 69.17 H 0.0 **** 0.0
3 H 17.739 7.321 69.261 H 0.0 **** 0.0
4 H 18.58 5.833 68.763 H 0.0 **** 0.0
5 H 18.548 7.243 67.677 H 0.0 **** 0.0
@<TRIPOS>BOND
1 1 2 1
2 1 3 1
3 1 4 1
4 1 5 1
@<TRIPOS>MOLECULE
CH4
5 4
SMALL
USER_CHARGES


@<TRIPOS>ATOM
1 C 2.599 95.445 3.081 C 0.0 **** 0.0
2 H 1.564 95.728 3.273 H 0.0 **** 0.0
3 H 2.967 95.986 2.209 H 0.0 **** 0.0
4 H 2.653 94.372 2.894 H 0.0 **** 0.0
5 H 3.21 95.694 3.948 H 0.0 **** 0.0
@<TRIPOS>BOND
1 1 2 1
2 1 3 1
3 1 4 1
4 1 5 1
@<TRIPOS>MOLECULE
CH4
5 4
SMALL
USER_CHARGES


@<TRIPOS>ATOM
1 C 36.201 73.728 75.991 C 0.0 **** 0.0
2 H 37.213 73.549 75.628 H 0.0 **** 0.0
3 H 35.775 74.586 75.47 H 0.0 **** 0.0
4 H 36.23 73.929 77.061 H 0.0 **** 0.0
5 H 35.587 72.847 75.803 H 0.0 **** 0.0
@<TRIPOS>BOND
1 1 5 1
2 1 2 1
3 1 4 1
4 1 3 1
@<TRIPOS>MOLECULE
CH4
5 4
SMALL
USER_CHARGES


@<TRIPOS>ATOM
1 C 35.596 14.995 59.423 C 0.0 **** 0.0
2 H 36.263 14.8 58.583 H 0.0 **** 0.0
3 H 36.186 15.262 60.301 H 0.0 **** 0.0
4 H 35.011 14.1 59.637 H 0.0 **** 0.0
5 H 34.925 15.816 59.172 H 0.0 **** 0.0
@<TRIPOS>BOND
1 1 2 1
2 1 3 1
3 1 4 1
4 1 5 1
@<TRIPOS>MOLECULE
CH4
5 4
SMALL
USER_CHARGES


@<TRIPOS>ATOM
1 C 0.996 65.559 46.423 C 0.0 **** 0.0
2 H 0.149 66.229 46.575 H 0.0 **** 0.0
3 H 1.322 65.164 47.386 H 0.0 **** 0.0
4 H 1.815 66.108 45.959 H 0.0 **** 0.0
5 H 0.696 64.736 45.775 H 0.0 **** 0.0
@<TRIPOS>BOND
1 1 2 1
2 1 3 1
3 1 4 1
4 1 5 1
@<TRIPOS>MOLECULE
CH4
5 4
SMALL
USER_CHARGES


@<TRIPOS>ATOM
1 C 45.524 77.782 79.037 C 0.0 **** 0.0
2 H 44.596 78.093 79.515 H 0.0 **** 0.0
3 H 45.791 78.499 78.261 H 0.0 **** 0.0
4 H 45.391 76.796 78.592 H 0.0 **** 0.0
5 H 46.319 77.739 79.782 H 0.0 **** 0.0
@<TRIPOS>BOND
1 1 2 1
2 1 3 1
3 1 4 1
4 1 5 1
@<TRIPOS>MOLECULE
CH4
5 4
SMALL
USER_CHARGES


@<TRIPOS>ATOM
1 C 48.619 21.96 89.805 C 0.0 **** 0.0
2 H 48.639 21.895 90.893 H 0.0 **** 0.0
3 H 48.761 22.998 89.501 H 0.0 **** 0.0
4 H 47.657 21.602 89.438 H 0.0 **** 0.0
5 H 49.418 21.347 89.39 H 0.0 **** 0.0
@<TRIPOS>BOND
1 1 2 1
2 1 3 1
3 1 4 1
4 1 5 1
@<TRIPOS>MOLECULE
CH4
5 4
SMALL
USER_CHARGES


@<TRIPOS>ATOM
1 C 35.36 19.006 93.535 C 0.0 **** 0.0
2 H 34.697 18.793 92.697 H 0.0 **** 0.0
3 H 35.351 20.076 93.743 H 0.0 **** 0.0
4 H 36.374 18.693 93.284 H 0.0 **** 0.0
5 H 35.019 18.461 94.415 H 0.0 **** 0.0
@<TRIPOS>BOND
1 1 2 1
2 1 3 1
3 1 4 1
4 1 5 1
@<TRIPOS>MOLECULE
CH4
5 4
SMALL
USER_CHARGES


@<TRIPOS>ATOM
1 C 83.837 66.765 18.362 C 0.0 **** 0.0
2 H 83.27 66.054 18.964 H 0.0 **** 0.0
3 H 83.805 66.46 17.315 H 0.0 **** 0.0
4 H 84.871 66.786 18.703 H 0.0 **** 0.0
5 H 83.399 67.758 18.465 H 0.0 **** 0.0
@<TRIPOS>BOND
1 1 2 1
2 1 3 1
3 1 4 1
4 1 5 1
@<TRIPOS>MOLECULE
CH4
5 4
SMALL
USER_CHARGES


@<TRIPOS>ATOM
1 C 34.453 38.903 35.549 C 0.0 **** 0.0
2 H 34.674 38.953 34.483 H 0.0 **** 0.0
3 H 34.053 37.918 35.791 H 0.0 **** 0.0
4 H 33.719 39.667 35.804 H 0.0 **** 0.0
5 H 35.368 39.073 36.118 H 0.0 **** 0.0
@<TRIPOS>BOND
1 1 2 1
2 1 3 1
3 1 4 1
4 1 5 1
@<TRIPOS>MOLECULE
CH4
5 4
SMALL
USER_CHARGES


@<TRIPOS>ATOM
1 C 68.021 60.648 58.084 C 0.0 **** 0.0
2 H 68.611 60.727 57.17 H 0.0 **** 0.0
3 H 67.417 59.741 58.049 H 0.0 **** 0.0
4 H 67.369 61.517 58.171 H 0.0 **** 0.0
5 H 68.689 60.607 58.944 H 0.0 **** 0.0
@<TRIPOS>BOND
1 1 2 1
2 1 3 1
3 1 4 1
4 1 5 1
@<TRIPOS>MOLECULE
CH4
5 4
SMALL
USER_CHARGES


@<TRIPOS>ATOM
1 C 38.193 4.832 87.498 C 0.0 **** 0.0
2 H 37.769 4.019 86.909 H 0.0 **** 0.0
3 H 37.433 5.596 87.662 H 0.0 **** 0.0
4 H 39.037 5.267 86.962 H 0.0 **** 0.0
5 H 38.534 4.445 88.459 H 0.0 **** 0.0
@<TRIPOS>BOND
1 1 2 1
2 1 3 1
3 1 4 1
4 1 5 1
@<TRIPOS>MOLECULE
CH4
5 4
SMALL
USER_CHARGES


@<TRIPOS>ATOM
1 C 96.089 22.252 64.052 C 0.0 **** 0.0
2 H 96.272 22.186 62.979 H 0.0 **** 0.0
3 H 95.996 23.299 64.34 H 0.0 **** 0.0
4 H 96.922 21.799 64.59 H 0.0 **** 0.0
5 H 95.168 21.723 64.296 H 0.0 **** 0.0
@<TRIPOS>BOND
1 1 2 1
2 1 3 1
3 1 4 1
4 1 5 1
@<TRIPOS>MOLECULE
CH4
5 4
SMALL
USER_CHARGES


@<TRIPOS>ATOM
1 C 30.593 46.108 60.773 C 0.0 **** 0.0
2 H 29.662 45.603 61.03 H 0.0 **** 0.0
3 H 30.435 46.737 59.897 H 0.0 **** 0.0
4 H 31.361 45.365 60.555 H 0.0 **** 0.0
5 H 30.914 46.727 61.611 H 0.0 **** 0.0
@<TRIPOS>BOND
1 1 2 1
2 1 3 1
3 1 4 1
4 1 5 1
@<TRIPOS>MOLECULE
CH4
5 4
SMALL
USER_CHARGES


@<TRIPOS>ATOM
1 C 86.367 1.862 3.782 C 0.0 **** 0.0
2 H 86.798 2.233 2.852 H 0.0 **** 0.0
3 H 85.764 2.646 4.241 H 0.0 **** 0.0
4 H 87.168 1.572 4.463 H 0.0 **** 0.0
5 H 85.739 0.996 3.571 H 0.0 **** 0.0
@<TRIPOS>BOND
1 1 2 1
2 1 3 1
3 1 4 1
4 1 5 1
@<TRIPOS>MOLECULE
CH4
5 4
SMALL
USER_CHARGES


@<TRIPOS>ATOM
1 C 96.907 37.684 66.722 C 0.0 **** 0.0
2 H 96.573 37.916 67.733 H 0.0 **** 0.0
3 H 97.85 37.139 66.768 H 0.0 **** 0.0
4 H 97.05 38.61 66.165 H 0.0 **** 0.0
5 H 96.156 37.072 66.223 H 0.0 **** 0.0
@<TRIPOS>BOND
1 1 2 1
2 1 3 1
3 1 4 1
4 1 5 1
@<TRIPOS>MOLECULE
CH4
5 4
SMALL
USER_CHARGES


@<TRIPOS>ATOM
1 C 1.137 54.264 76.649 C 0.0 **** 0.0
2 H 0.975 54.511 75.6 H 0.0 **** 0.0
3 H 0.966 53.198 76.802 H 0.0 **** 0.0
4 H 0.446 54.836 77.269 H 0.0 **** 0.0
5 H 2.163 54.511 76.926 H 0.0 **** 0.0
@<TRIPOS>BOND
1 1 2 1
2 1 3 1
3 1 4 1
4 1 5 1
@<TRIPOS>MOLECULE
CH4
5 4
SMALL
USER_CHARGES


@<TRIPOS>ATOM
1 C 71.438 16.489 43.041 C 0.0 **** 0.0
2 H 72.332 16.19 43.587 H 0.0 **** 0.0
3 H 71.691 17.278 42.333 H 0.0 **** 0.0
4 H 70.69 16.857 43.743 H 0.0 **** 0.0
5 H 71.038 15.63 42.501 H 0.0 **** 0.0
@<TRIPOS>BOND
1 1 2 1
2 1 3 1
3 1 4 1
4 1 5 1
@<TRIPOS>MOLECULE
CH4
5 4
SMALL
USER_CHARGES


@<TRIPOS>ATOM
1 C 97.838 47.028 60.514 C 0.0 **** 0.0
2 H 97.929 47.111 61.597 H 0.0 **** 0.0
3 H 98.527 46.265 60.15 H 0.0 **** 0.0
4 H 98.081 47.986 60.055 H 0.0 **** 0.0
5 H 96.817 46.749 60.256 H 0.0 **** 0.0
@<TRIPOS>BOND
1 1 2 1
2 1 3 1
3 1 4 1
4 1 5 1
@<TRIPOS>MOLECULE
CH4
5 4
SMALL
USER_CHARGES


@<TRIPOS>ATOM
1 C 32.982 70.346 13.882 C 0.0 **** 0.0
2 H 32.836 69.266 13.9 H 0.0 **** 0.0
3 H 34.05 70.567 13.871 H 0.0 **** 0.0
4 H 32.528 70.789 14.768 H 0.0 **** 0.0
5 H 32.515 70.76 12.988 H 0.0 **** 0.0
@<TRIPOS>BOND
1 1 4 1
2 1 5 1
3 1 2 1
4 1 3 1
@<TRIPOS>MOLECULE
CH4
5 4
SMALL
USER_CHARGES


@<TRIPOS>ATOM
1 C 31.596 41.171 19.072 C 0.0 **** 0.0
2 H 32.37 41.502 18.379 H 0.0 **** 0.0
3 H 31.099 40.289 18.667 H 0.0 **** 0.0
4 H 30.866 41.969 19.209 H 0.0 **** 0.0
5 H 32.05 40.925 20.032 H 0.0 **** 0.0
@<TRIPOS>BOND
1 1 2 1
2 1 3 1
3 1 4 1
4 1 5 1
@<TRIPOS>MOLECULE
CH4
5 4
SMALL
USER_CHARGES


@<TRIPOS>ATOM
1 C 64.741 71.865 44.348 C 0.0 **** 0.0
2 H 64.969 72.709 44.998 H 0.0 **** 0.0
3 H 63.786 72.038 43.851 H 0.0 **** 0.0
4 H 64.681 70.954 44.944 H 0.0 **** 0.0
5 H 65.527 71.759 43.601 H 0.0 **** 0.0
@<TRIPOS>BOND
1 1 2 1
2 1 3 1
3 1 4 1
4 1 5 1
@<TRIPOS>MOLECULE
CH4
5 4
SMALL
USER_CHARGES


@<TRIPOS>ATOM
1 C 26.374 71.975 8.637 C 0.0 **** 0.0
2 H 26.403 72.041 7.55 H 0.0 **** 0.0
3 H 26.839 71.041 8.956 H 0.0 **** 0.0
4 H 25.338 72.0 8.975 H 0.0 **** 0.0
5 H 26.917 72.817 9.067 H 0.0 **** 0.0
@<TRIPOS>BOND
1 1 2 1
2 1 3 1
3 1 4 1
4 1 5 1
@<TRIPOS>MOLECULE
CH4
5 4
SMALL
USER_CHARGES


@<TRIPOS>ATOM
1 C 21.95 26.888 44.581 C 0.0 **** 0.0
2 H 22.141 27.892 44.96 H 0.0 **** 0.0
3 H 22.262 26.154 45.325 H 0.0 **** 0.0
4 H 22.512 26.735 43.66 H 0.0 **** 0.0
5 H 20.885 26.772 44.381 H 0.0 **** 0.0
@<TRIPOS>BOND
1 1 2 1
2 1 3 1
3 1 4 1
4 1 5 1
@<TRIPOS>MOLECULE
CH4
5 4
SMALL
USER_CHARGES


@<TRIPOS>ATOM
1 C 89.212 16.69 10.501 C 0.0 **** 0.0
2 H 89.059 17.661 10.029 H 0.0 **** 0.0
3 H 89.15 16.799 11.584 H 0.0 **** 0.0
4 H 90.195 16.306 10.229 H 0.0 **** 0.0
5 H 88.443 15.996 10.16 H 0.0 **** 0.0
@<TRIPOS>BOND
1 1 2 1
2 1 3 1
3 1 4 1
4 1 5 1
@<TRIPOS>MOLECULE
CH4
5 4
SMALL
USER_CHARGES


@<TRIPOS>ATOM
1 C 13.846 76.09 32.9 C 0.0 **** 0.0
2 H 13.928 76.078 31.813 H 0.0 **** 0.0
3 H 13.721 75.071 33.266 H 0.0 **** 0.0
4 H 12.983 76.69 33.192 H 0.0 **** 0.0
5 H 14.75 76.522 33.328 H 0.0 **** 0.0
@<TRIPOS>BOND
1 1 2 1
2 1 3 1
3 1 4 1
4 1 5 1
@<TRIPOS>MOLECULE
CH4
5 4
SMALL
USER_CHARGES


@<TRIPOS>ATOM
1 C 48.631 76.988 10.332 C 0.0 **** 0.0
2 H 48.942 77.61 9.492 H 0.0 **** 0.0
3 H 49.381 76.217 10.51 H 0.0 **** 0.0
4 H 47.675 76.519 10.1 H 0.0 **** 0.0
5 H 48.526 77.607 11.223 H 0.0 **** 0.0
@<TRIPOS>BOND
1 1 2 1
2 1 3 1
3 1 4 1
4 1 5 1
@<TRIPOS>MOLECULE
CH4
5 4
SMALL
USER_CHARGES


@<TRIPOS>ATOM
1 C 71.07 58.46 3.26 C 0.0 **** 0.0
2 H 70.961 58.397 2.178 H 0.0 **** 0.0
3 H 72.073 58.811 3.504 H 0.0 **** 0.0
4 H 70.912 57.475 3.699 H 0.0 **** 0.0
5 H 70.334 59.158 3.659 H 0.0 **** 0.0
@<TRIPOS>BOND
1 1 2 1
2 1 3 1
3 1 4 1
4 1 5 1
@<TRIPOS>MOLECULE
CH4
5 4
SMALL
USER_CHARGES


@<TRIPOS>ATOM
1 C 80.497 51.05 12.019 C 0.0 **** 0.0
2 H 80.098 51.215 11.018 H 0.0 **** 0.0
3 H 81.449 50.524 11.948 H 0.0 **** 0.0
4 H 79.793 50.451 12.596 H 0.0 **** 0.0
5 H 80.647 52.011 12.512 H 0.0 **** 0.0
@<TRIPOS>BOND
1 1 2 1
2 1 3 1
3 1 4 1
4 1 5 1
@<TRIPOS>MOLECULE
CH4
5 4
SMALL
USER_CHARGES


@<TRIPOS>ATOM
1 C 45.236 85.274 72.111 C 0.0 **** 0.0
2 H 44.471 86.051 72.102 H 0.0 **** 0.0
3 H 45.98 85.505 72.873 H 0.0 **** 0.0
4 H 45.717 85.227 71.134 H 0.0 **** 0.0
5 H 44.773 84.312 72.334 H 0.0 **** 0.0
@<TRIPOS>BOND
1 1 2 1
2 1 3 1
3 1 4 1
4 1 5 1
@<TRIPOS>MOLECULE
CH4
5 4
SMALL
USER_CHARGES


@<TRIPOS>ATOM
1 C 77.353 1.89 80.793 C 0.0 **** 0.0
2 H 78.321 2.07 81.26 H 0.0 **** 0.0
3 H 77.0 0.895 81.061 H 0.0 **** 0.0
4 H 77.454 1.961 79.71 H 0.0 **** 0.0
5 H 76.638 2.636 81.14 H 0.0 **** 0.0
@<TRIPOS>BOND
1 1 2 1
2 1 3 1
3 1 4 1
4 1 5 1
@<TRIPOS>MOLECULE
CH4
5 4
SMALL
USER_CHARGES


@<TRIPOS>ATOM
1 C 5.222 75.251 60.425 C 0.0 **** 0.0
2 H 6.081 75.512 59.808 H 0.0 **** 0.0
3 H 5.505 75.293 61.477 H 0.0 **** 0.0
4 H 4.89 74.242 60.178 H 0.0 **** 0.0
5 H 4.413 75.956 60.237 H 0.0 **** 0.0
@<TRIPOS>BOND
1 1 2 1
2 1 3 1
3 1 4 1
4 1 5 1
@<TRIPOS>MOLECULE
CH4
5 4
SMALL
USER_CHARGES


@<TRIPOS>ATOM
1 C 4.498 8.059 30.274 C 0.0 **** 0.0
2 H 4.127 7.09 29.939 H 0.0 **** 0.0
3 H 4.423 8.778 29.459 H 0.0 **** 0.0
4 H 5.54 7.963 30.58 H 0.0 **** 0.0
5 H 3.902 8.403 31.119 H 0.0 **** 0.0
@<TRIPOS>BOND
1 1 2 1
2 1 3 1
3 1 4 1
4 1 5 1
@<TRIPOS>MOLECULE
CH4
5 4
SMALL
USER_CHARGES


@<TRIPOS>ATOM
1 C 87.084 44.938 68.641 C 0.0 **** 0.0
2 H 86.953 43.896 68.935 H 0.0 **** 0.0
3 H 87.983 45.032 68.032 H 0.0 **** 0.0
4 H 87.182 45.558 69.532 H 0.0 **** 0.0
5 H 86.218 45.263 68.064 H 0.0 **** 0.0
@<TRIPOS>BOND
1 1 2 1
2 1 3 1
3 1 4 1
4 1 5 1
@<TRIPOS>MOLECULE
CH4
5 4
SMALL
USER_CHARGES


@<TRIPOS>ATOM
1 C 72.29 61.571 16.52 C 0.0 **** 0.0
2 H 72.288 62.353 15.761 H 0.0 **** 0.0
3 H 72.34 62.026 17.51 H 0.0 **** 0.0
4 H 73.156 60.924 16.373 H 0.0 **** 0.0
5 H 71.378 60.981 16.437 H 0.0 **** 0.0
@<TRIPOS>BOND
1 1 2 1
2 1 3 1
3 1 4 1
4 1 5 1
@<TRIPOS>MOLECULE
CH4
5 4
SMALL
USER_CHARGES


@<TRIPOS>ATOM
1 C 47.464 16.831 12.071 C 0.0 **** 0.0
2 H 48.171 17.08 12.861 H 0.0 **** 0.0
3 H 46.615 17.513 12.115 H 0.0 **** 0.0
4 H 47.116 15.807 12.205 H 0.0 **** 0.0
5 H 47.955 16.924 11.102 H 0.0 **** 0.0
@<TRIPOS>BOND
1 1 2 1
2 1 3 1
3 1 4 1
4 1 5 1
@<TRIPOS>MOLECULE
CH4
5 4
SMALL
USER_CHARGES


@<TRIPOS>ATOM
1 C 92.185 32.352 8.183 C 0.0 **** 0.0
2 H 92.992 33.07 8.324 H 0.0 **** 0.0
3 H 91.623 32.609 7.285 H 0.0 **** 0.0
4 H 91.521 32.377 9.048 H 0.0 **** 0.0
5 H 92.604 31.351 8.076 H 0.0 **** 0.0
@<TRIPOS>BOND
1 1 3 1
2 1 4 1
3 1 5 1
4 1 2 1
@<TRIPOS>MOLECULE
CH4
5 4
SMALL
USER_CHARGES


@<TRIPOS>ATOM
1 C 74.93 93.554 30.941 C 0.0 **** 0.0
2 H 75.716 94.274 30.712 H 0.0 **** 0.0
3 H 74.836 93.452 32.022 H 0.0 **** 0.0
4 H 75.185 92.588 30.505 H 0.0 **** 0.0
5 H 73.985 93.902 30.525 H 0.0 **** 0.0
@<TRIPOS>BOND
1 1 2 1
2 1 3 1
3 1 4 1
4 1 5 1
@<TRIPOS>MOLECULE
CH4
5 4
SMALL
USER_CHARGES


@<TRIPOS>ATOM
1 C 29.402 72.59 26.109 C 0.0 **** 0.0
2 H 29.518 72.086 25.15 H 0.0 **** 0.0
3 H 28.566 73.288 26.054 H 0.0 **** 0.0
4 H 30.316 73.135 26.346 H 0.0 **** 0.0
5 H 29.208 71.851 26.887 H 0.0 **** 0.0
@<TRIPOS>BOND
1 1 2 1
2 1 3 1
3 1 4 1
4 1 5 1
@<TRIPOS>MOLECULE
CH4
5 4
SMALL
USER_CHARGES


@<TRIPOS>ATOM
1 C 39.949 11.562 83.141 C 0.0 **** 0.0
2 H 39.972 11.558 82.051 H 0.0 **** 0.0
3 H 40.954 11.74 83.525 H 0.0 **** 0.0
4 H 39.588 10.598 83.5 H 0.0 **** 0.0
5 H 39.282 12.352 83.487 H 0.0 **** 0.0
@<TRIPOS>BOND
1 1 2 1
2 1 3 1
3 1 4 1
4 1 5 1
@<TRIPOS>MOLECULE
CH4
5 4
SMALL
USER_CHARGES


@<TRIPOS>ATOM
1 C 18.222 65.897 81.796 C 0.0 **** 0.0
2 H 18.168 66.776 82.438 H 0.0 **** 0.0
3 H 19.106 65.313 82.054 H 0.0 **** 0.0
4 H 18.285 66.211 80.754 H 0.0 **** 0.0
5 H 17.329 65.288 81.939 H 0.0 **** 0.0
@<TRIPOS>BOND
1 1 2 1
2 1 3 1
3 1 4 1
4 1 5 1
@<TRIPOS>MOLECULE
CH4
5 4
SMALL
USER_CHARGES


@<TRIPOS>ATOM
1 C 55.454 37.205 19.443 C 0.0 **** 0.0
2 H 55.554 37.18 20.529 H 0.0 **** 0.0
3 H 54.492 37.644 19.177 H 0.0 **** 0.0
4 H 55.512 36.19 19.05 H 0.0 **** 0.0
5 H 56.258 37.806 19.019 H 0.0 **** 0.0
@<TRIPOS>BOND
1 1 2 1
2 1 3 1
3 1 4 1
4 1 5 1
@<TRIPOS>MOLECULE
CH4
5 4
SMALL
USER_CHARGES


@<TRIPOS>ATOM
1 C 20.033 92.909 57.854 C 0.0 **** 0.0
2 H 21.089 93.097 57.663 H 0.0 **** 0.0
3 H 19.92 91.946 58.353 H 0.0 **** 0.0
4 H 19.49 92.896 56.91 H 0.0 **** 0.0
5 H 19.634 93.698 58.492 H 0.0 **** 0.0
@<TRIPOS>BOND
1 1 2 1
2 1 3 1
3 1 4 1
4 1 5 1
@<TRIPOS>MOLECULE
CH4
5 4
SMALL
USER_CHARGES


@<TRIPOS>ATOM
1 C 63.135 67.085 13.106 C 0.0 **** 0.0
2 H 63.224 66.908 12.034 H 0.0 **** 0.0
3 H 64.129 67.123 13.552 H 0.0 **** 0.0
4 H 62.563 66.276 13.561 H 0.0 **** 0.0
5 H 62.623 68.032 13.276 H 0.0 **** 0.0
@<TRIPOS>BOND
1 1 2 1
2 1 3 1
3 1 4 1
4 1 5 1
@<TRIPOS>MOLECULE
CH4
5 4
SMALL
USER_CHARGES


@<TRIPOS>ATOM
1 C 33.207 83.465 55.202 C 0.0 **** 0.0
2 H 33.339 84.521 55.437 H 0.0 **** 0.0
3 H 33.368 82.87 56.102 H 0.0 **** 0.0
4 H 33.926 83.171 54.438 H 0.0 **** 0.0
5 H 32.195 83.299 54.833 H 0.0 **** 0.0
@<TRIPOS>BOND
1 1 2 1
2 1 3 1
3 1 4 1
4 1 5 1
@<TRIPOS>MOLECULE
CH4
5 4
SMALL
USER_CHARGES


@<TRIPOS>ATOM
1 C 34.265 37.137 16.722 C 0.0 **** 0.0
2 H 33.9 37.29 15.707 H 0.0 **** 0.0
3 H 34.124 36.094 17.006 H 0.0 **** 0.0
4 H 33.711 37.779 17.407 H 0.0 **** 0.0
5 H 35.325 37.386 16.768 H 0.0 **** 0.0
@<TRIPOS>BOND
1 1 2 1
2 1 3 1
3 1 4 1
4 1 5 1
@<TRIPOS>MOLECULE
CH4
5 4
SMALL
USER_CHARGES


@<TRIPOS>ATOM
1 C 36.905 60.659 24.977 C 0.0 **** 0.0
2 H 37.074 61.131 24.01 H 0.0 **** 0.0
3 H 37.359 61.265 25.762 H 0.0 **** 0.0
4 H 37.353 59.666 24.98 H 0.0 **** 0.0
5 H 35.833 60.575 25.158 H 0.0 **** 0.0
@<TRIPOS>BOND
1 1 2 1
2 1 3 1
3 1 4 1
4 1 5 1
@<TRIPOS>MOLECULE
CH4
5 4
SMALL
USER_CHARGES


@<TRIPOS>ATOM
1 C 44.565 64.826 58.149 C 0.0 **** 0.0
2 H 45.169 63.919 58.168 H 0.0 **** 0.0
3 H 45.073 65.589 57.559 H 0.0 **** 0.0
4 H 44.423 65.188 59.167 H 0.0 **** 0.0
5 H 43.595 64.606 57.702 H 0.0 **** 0.0
@<TRIPOS>BOND
1 1 2 1
2 1 3 1
3 1 4 1
4 1 5 1
@<TRIPOS>MOLECULE
CH4
5 4
SMALL
USER_CHARGES


@<TRIPOS>ATOM
1 C 46.603 9.524 89.091 C 0.0 **** 0.0
2 H 46.573 10.541 89.482 H 0.0 **** 0.0
3 H 45.809 8.935 89.549 H 0.0 **** 0.0
4 H 47.569 9.075 89.323 H 0.0 **** 0.0
5 H 46.463 9.546 88.01 H 0.0 **** 0.0
@<TRIPOS>BOND
1 1 2 1
2 1 3 1
3 1 4 1
4 1 5 1
@<TRIPOS>MOLECULE
CH4
5 4
SMALL
USER_CHARGES


@<TRIPOS>ATOM
1 C 61.883 0.932 90.704 C 0.0 **** 0.0
2 H 61.054 0.781 90.012 H 0.0 **** 0.0
3 H 61.491 1.15 91.697 H 0.0 **** 0.0
4 H 62.493 1.768 90.362 H 0.0 **** 0.0
5 H 62.493 0.03 90.743 H 0.0 **** 0.0
@<TRIPOS>BOND
1 1 2 1
2 1 3 1
3 1 5 1
4 1 4 1
@<TRIPOS>MOLECULE
CH4
5 4
SMALL
USER_CHARGES


@<TRIPOS>ATOM
1 C 34.967 7.355 59.204 C 0.0 **** 0.0
2 H 34.557 6.956 60.131 H 0.0 **** 0.0
3 H 35.648 8.176 59.431 H 0.0 **** 0.0
4 H 34.155 7.719 58.575 H 0.0 **** 0.0
5 H 35.509 6.568 58.679 H 0.0 **** 0.0
@<TRIPOS>BOND
1 1 2 1
2 1 3 1
3 1 4 1
4 1 5 1
@<TRIPOS>MOLECULE
CH4
5 4
SMALL
USER_CHARGES


@<TRIPOS>ATOM
1 C 75.155 13.942 70.296 C 0.0 **** 0.0
2 H 75.445 13.671 69.281 H 0.0 **** 0.0
3 H 74.171 13.526 70.516 H 0.0 **** 0.0
4 H 75.119 15.028 70.386 H 0.0 **** 0.0
5 H 75.884 13.543 71.001 H 0.0 **** 0.0
@<TRIPOS>BOND
1 1 2 1
2 1 3 1
3 1 4 1
4 1 5 1
@<TRIPOS>MOLECULE
CH4
5 4
SMALL
USER_CHARGES


@<TRIPOS>ATOM
1 C 74.977 19.758 35.799 C 0.0 **** 0.0
2 H 74.957 18.74 35.411 H 0.0 **** 0.0
3 H 75.232 19.738 36.859 H 0.0 **** 0.0
4 H 73.996 20.215 35.67 H 0.0 **** 0.0
5 H 75.722 20.339 35.256 H 0.0 **** 0.0
@<TRIPOS>BOND
1 1 2 1
2 1 3 1
3 1 4 1
4 1 5 1
@<TRIPOS>MOLECULE
CH4
5 4
SMALL
USER_CHARGES


@<TRIPOS>ATOM
1 C 52.525 80.639 66.372 C 0.0 **** 0.0
2 H 51.874 80.443 65.52 H 0.0 **** 0.0
3 H 53.55 80.375 66.114 H 0.0 **** 0.0
4 H 52.198 80.043 67.224 H 0.0 **** 0.0
5 H 52.476 81.697 66.63 H 0.0 **** 0.0
@<TRIPOS>BOND
1 1 2 1
2 1 3 1
3 1 4 1
4 1 5 1
@<TRIPOS>MOLECULE
CH4
5 4
SMALL
USER_CHARGES


@<TRIPOS>ATOM
1 C 80.029 4.856 1.099 C 0.0 **** 0.0
2 H 81.04 4.786 1.501 H 0.0 **** 0.0
3 H 79.593 5.815 1.378 H 0.0 **** 0.0
4 H 79.42 4.048 1.505 H 0.0 **** 0.0
5 H 80.064 4.774 0.012 H 0.0 **** 0.0
@<TRIPOS>BOND
1 1 2 1
2 1 3 1
3 1 4 1
4 1 5 1
@<TRIPOS>MOLECULE
CH4
5 4
SMALL
USER_CHARGES


@<TRIPOS>ATOM
1 C 53.15 73.562 23.434 C 0.0 **** 0.0
2 H 52.526 74.109 24.14 H 0.0 **** 0.0
3 H 52.747 72.559 23.294 H 0.0 **** 0.0
4 H 54.166 73.495 23.824 H 0.0 **** 0.0
5 H 53.162 74.086 22.478 H 0.0 **** 0.0
@<TRIPOS>BOND
1 1 2 1
2 1 3 1
3 1 4 1
4 1 5 1
@<TRIPOS>MOLECULE
CH4
5 4
SMALL
USER_CHARGES


@<TRIPOS>ATOM
1 C 52.238 65.52 21.555 C 0.0 **** 0.0
2 H 52.419 64.916 20.666 H 0.0 **** 0.0
3 H 51.81 64.894 22.338 H 0.0 **** 0.0
4 H 51.545 66.325 21.312 H 0.0 **** 0.0
5 H 53.18 65.944 21.903 H 0.0 **** 0.0
@<TRIPOS>BOND
1 1 2 1
2 1 3 1
3 1 4 1
4 1 5 1
@<TRIPOS>MOLECULE
CH4
5 4
SMALL
USER_CHARGES


@<TRIPOS>ATOM
1 C 1.543 61.835 72.554 C 0.0 **** 0.0
2 H 1.645 61.381 71.569 H 0.0 **** 0.0
3 H 2.135 61.272 73.276 H 0.0 **** 0.0
4 H 0.495 61.821 72.854 H 0.0 **** 0.0
5 H 1.896 62.865 72.518 H 0.0 **** 0.0
@<TRIPOS>BOND
1 1 2 1
2 1 3 1
3 1 4 1
4 1 5 1
@<TRIPOS>MOLECULE
CH4
5 4
SMALL
USER_CHARGES


@<TRIPOS>ATOM
1 C 96.998 58.2 91.237 C 0.0 **** 0.0
2 H 97.14 57.398 91.962 H 0.0 **** 0.0
3 H 95.968 58.553 91.284 H 0.0 **** 0.0
4 H 97.208 57.825 90.235 H 0.0 **** 0.0
5 H 97.675 59.022 91.468 H 0.0 **** 0.0
@<TRIPOS>BOND
1 1 2 1
2 1 3 1
3 1 4 1
4 1 5 1
@<TRIPOS>MOLECULE
CH4
5 4
SMALL
USER_CHARGES


@<TRIPOS>ATOM
1 C 56.214 6.126 58.667 C 0.0 **** 0.0
2 H 56.293 6.495 59.689 H 0.0 **** 0.0
3 H 57.206 5.87 58.295 H 0.0 **** 0.0
4 H 55.777 6.899 58.034 H 0.0 **** 0.0
5 H 55.578 5.241 58.648 H 0.0 **** 0.0
@<TRIPOS>BOND
1 1 2 1
2 1 3 1
3 1 4 1
4 1 5 1
@<TRIPOS>MOLECULE
CH4
5 4
SMALL
USER_CHARGES


@<TRIPOS>ATOM
1 C 88.94 82.317 77.227 C 0.0 **** 0.0
2 H 88.889 81.243 77.048 H 0.0 **** 0.0
3 H 89.511 82.792 76.43 H 0.0 **** 0.0
4 H 89.427 82.502 78.184 H 0.0 **** 0.0
5 H 87.931 82.73 77.247 H 0.0 **** 0.0
@<TRIPOS>BOND
1 1 2 1
2 1 3 1
3 1 4 1
4 1 5 1
@<TRIPOS>MOLECULE
CH4
5 4
SMALL
USER_CHARGES


@<TRIPOS>ATOM
1 C 30.296 97.189 7.285 C 0.0 **** 0.0
2 H 29.848 97.682 8.148 H 0.0 **** 0.0
3 H 30.067 96.124 7.317 H 0.0 **** 0.0
4 H 31.377 97.329 7.308 H 0.0 **** 0.0
5 H 29.892 97.621 6.37 H 0.0 **** 0.0
@<TRIPOS>BOND
1 1 4 1
2 1 5 1
3 1 2 1
4 1 3 1
@<TRIPOS>MOLECULE
CH4
5 4
SMALL
USER_CHARGES


@<TRIPOS>ATOM
1 C 85.687 7.693 64.143 C 0.0 **** 0.0
2 H 86.403 7.644 64.963 H 0.0 **** 0.0
3 H 86.191 8.04 63.241 H 0.0 **** 0.0
4 H 84.886 8.387 64.402 H 0.0 **** 0.0
5 H 85.267 6.703 63.968 H 0.0 **** 0.0
@<TRIPOS>BOND
1 1 2 1
2 1 3 1
3 1 4 1
4 1 5 1
@<TRIPOS>MOLECULE
CH4
5 4
SMALL
USER_CHARGES


@<TRIPOS>ATOM
1 C 75.889 63.401 36.162 C 0.0 **** 0.0
2 H 76.171 64.156 36.897 H 0.0 **** 0.0
3 H 75.874 63.85 35.168 H 0.0 **** 0.0
4 H 74.899 63.014 36.401 H 0.0 **** 0.0
5 H 76.613 62.586 36.182 H 0.0 **** 0.0
@<TRIPOS>BOND
1 1 2 1
2 1 3 1
3 1 4 1
4 1 5 1
@<TRIPOS>MOLECULE
CH4
5 4
SMALL
USER_CHARGES


@<TRIPOS>ATOM
1 C 3.656 82.803 71.916 C 0.0 **** 0.0
2 H 3.957 82.476 70.921 H 0.0 **** 0.0
3 H 2.906 82.117 72.312 H 0.0 **** 0.0
4 H 3.235 83.806 71.857 H 0.0 **** 0.0
5 H 4.525 82.811 72.574 H 0.0 **** 0.0
@<TRIPOS>BOND
1 1 2 1
2 1 3 1
3 1 4 1
4 1 5 1
@<TRIPOS>MOLECULE
CH4
5 4
SMALL
USER_CHARGES


@<TRIPOS>ATOM
1 C 49.476 92.328 16.99 C 0.0 **** 0.0
2 H 49.969 92.927 16.225 H 0.0 **** 0.0
3 H 48.544 92.811 17.285 H 0.0 **** 0.0
4 H 50.129 92.237 17.857 H 0.0 **** 0.0
5 H 49.26 91.336 16.591 H 0.0 **** 0.0
@<TRIPOS>BOND
1 1 2 1
2 1 3 1
3 1 4 1
4 1 5 1
@<TRIPOS>MOLECULE
CH4
5 4
SMALL
USER_CHARGES


@<TRIPOS>ATOM
1 C 4.396 7.764 68.699 C 0.0 **** 0.0
2 H 4.431 8.158 67.683 H 0.0 **** 0.0
3 H 3.983 8.519 69.367 H 0.0 **** 0.0
4 H 5.404 7.503 69.022 H 0.0 **** 0.0
5 H 3.765 6.875 68.722 H 0.0 **** 0.0
@<TRIPOS>BOND
1 1 2 1
2 1 3 1
3 1 4 1
4 1 5 1
@<TRIPOS>MOLECULE
CH4
5 4
SMALL
USER_CHARGES


@<TRIPOS>ATOM
1 C 31.541 40.512 46.787 C 0.0 **** 0.0
2 H 30.98 40.809 45.901 H 0.0 **** 0.0
3 H 31.126 41.01 47.663 H 0.0 **** 0.0
4 H 32.586 40.798 46.667 H 0.0 **** 0.0
5 H 31.472 39.432 46.915 H 0.0 **** 0.0
@<TRIPOS>BOND
1 1 2 1
2 1 3 1
3 1 4 1
4 1 5 1
@<TRIPOS>MOLECULE
CH4
5 4
SMALL
USER_CHARGES


@<TRIPOS>ATOM
1 C 30.985 8.728 10.543 C 0.0 **** 0.0
2 H 31.097 8.624 9.464 H 0.0 **** 0.0
3 H 31.868 8.326 11.04 H 0.0 **** 0.0
4 H 30.102 8.178 10.871 H 0.0 **** 0.0
5 H 30.872 9.781 10.797 H 0.0 **** 0.0
@<TRIPOS>BOND
1 1 2 1
2 1 3 1
3 1 4 1
4 1 5 1
@<TRIPOS>MOLECULE
CH4
5 4
SMALL
USER_CHARGES


@<TRIPOS>ATOM
1 C 9.097 65.278 37.383 C 0.0 **** 0.0
2 H 8.007 65.299 37.384 H 0.0 **** 0.0
3 H 9.442 64.297 37.711 H 0.0 **** 0.0
4 H 9.475 66.043 38.061 H 0.0 **** 0.0
5 H 9.463 65.473 36.375 H 0.0 **** 0.0
@<TRIPOS>BOND
1 1 3 1
2 1 4 1
3 1 5 1
4 1 2 1
@<TRIPOS>MOLECULE
CH4
5 4
SMALL
USER_CHARGES


@<TRIPOS>ATOM
1 C 27.997 53.106 55.399 C 0.0 **** 0.0
2 H 27.622 52.128 55.098 H 0.0 **** 0.0
3 H 28.266 53.084 56.455 H 0.0 **** 0.0
4 H 27.225 53.858 55.236 H 0.0 **** 0.0
5 H 28.877 53.355 54.805 H 0.0 **** 0.0
@<TRIPOS>BOND
1 1 2 1
2 1 3 1
3 1 4 1
4 1 5 1
@<TRIPOS>MOLECULE
CH4
5 4
SMALL
USER_CHARGES


@<TRIPOS>ATOM
1 C 1.913 93.561 87.415 C 0.0 **** 0.0
2 H 1.594 92.81 88.137 H 0.0 **** 0.0
3 H 1.053 94.155 87.105 H 0.0 **** 0.0
4 H 2.346 93.068 86.545 H 0.0 **** 0.0
5 H 2.659 94.211 87.872 H 0.0 **** 0.0
@<TRIPOS>BOND
1 1 2 1
2 1 3 1
3 1 4 1
4 1 5 1
@<TRIPOS>MOLECULE
CH4
5 4
SMALL
USER_CHARGES


@<TRIPOS>ATOM
1 C 19.367 40.506 29.362 C 0.0 **** 0.0
2 H 19.037 40.365 28.332 H 0.0 **** 0.0
3 H 20.243 41.154 29.377 H 0.0 **** 0.0
4 H 19.621 39.54 29.797 H 0.0 **** 0.0
5 H 18.564 40.965 29.94 H 0.0 **** 0.0
@<TRIPOS>BOND
1 1 2 1
2 1 3 1
3 1 4 1
4 1 5 1
@<TRIPOS>MOLECULE
CH4
5 4
SMALL
USER_CHARGES


@<TRIPOS>ATOM
1 C 9.736 38.347 9.232 C 0.0 **** 0.0
2 H 9.42 39.321 9.607 H 0.0 **** 0.0
3 H 9.045 38.015 8.457 H 0.0 **** 0.0
4 H 9.738 37.627 10.05 H 0.0 **** 0.0
5 H 10.74 38.427 8.816 H 0.0 **** 0.0
@<TRIPOS>BOND
1 1 2 1
2 1 3 1
3 1 4 1
4 1 5 1
@<TRIPOS>MOLECULE
CH4
5 4
SMALL
USER_CHARGES


@<TRIPOS>ATOM
1 C 75.19 85.89 85.856 C 0.0 **** 0.0
2 H 75.1 85.882 86.942 H 0.0 **** 0.0
3 H 75.392 84.879 85.501 H 0.0 **** 0.0
4 H 76.009 86.548 85.565 H 0.0 **** 0.0
5 H 74.26 86.251 85.417 H 0.0 **** 0.0
@<TRIPOS>BOND
1 1 2 1
2 1 3 1
3 1 4 1
4 1 5 1
@<TRIPOS>MOLECULE
CH4
5 4
SMALL
USER_CHARGES


@<TRIPOS>ATOM
1 C 42.192 42.37 72.481 C 0.0 **** 0.0
2 H 42.49 42.635 73.495 H 0.0 **** 0.0
3 H 41.61 43.185 72.049 H 0.0 **** 0.0
4 H 41.587 41.464 72.505 H 0.0 **** 0.0
5 H 43.081 42.198 71.874 H 0.0 **** 0.0
@<TRIPOS>BOND
1 1 2 1
2 1 3 1
3 1 4 1
4 1 5 1
@<TRIPOS>MOLECULE
CH4
5 4
SMALL
USER_CHARGES


@<TRIPOS>ATOM
1 C 47.953 67.041 7.516 C 0.0 **** 0.0
2 H 47.329 67.159 8.403 H 0.0 **** 0.0
3 H 47.899 67.947 6.912 H 0.0 **** 0.0
4 H 47.596 66.193 6.932 H 0.0 **** 0.0
5 H 48.985 66.866 7.819 H 0.0 **** 0.0
@<TRIPOS>BOND
1 1 2 1
2 1 3 1
3 1 4 1
4 1 5 1
@<TRIPOS>MOLECULE
CH4
5 4
SMALL
USER_CHARGES


@<TRIPOS>ATOM
1 C 64.739 43.166 87.879 C 0.0 **** 0.0
2 H 65.462 43.61 88.563 H 0.0 **** 0.0
3 H 63.886 42.792 88.445 H 0.0 **** 0.0
4 H 65.208 42.341 87.341 H 0.0 **** 0.0
5 H 64.402 43.919 87.167 H 0.0 **** 0.0
@<TRIPOS>BOND
1 1 2 1
2 1 3 1
3 1 4 1
4 1 5 1
@<TRIPOS>MOLECULE
CH4
5 4
SMALL
USER_CHARGES


@<TRIPOS>ATOM
1 C 96.564 64.541 80.208 C 0.0 **** 0.0
2 H 95.991 64.477 81.133 H 0.0 **** 0.0
3 H 96.901 65.567 80.061 H 0.0 **** 0.0
4 H 95.935 64.241 79.37 H 0.0 **** 0.0
5 H 97.428 63.88 80.269 H 0.0 **** 0.0
@<TRIPOS>BOND
1 1 3 1
2 1 4 1
3 1 5 1
4 1 2 1
@<TRIPOS>MOLECULE
CH4
5 4
SMALL
USER_CHARGES


@<TRIPOS>ATOM
1 C 43.434 40.311 81.28 C 0.0 **** 0.0
2 H 42.404 40.459 80.956 H 0.0 **** 0.0
3 H 44.049 41.139 80.925 H 0.0 **** 0.0
4 H 43.813 39.375 80.87 H 0.0 **** 0.0
5 H 43.471 40.272 82.369 H 0.0 **** 0.0
@<TRIPOS>BOND
1 1 2 1
2 1 3 1
3 1 4 1
4 1 5 1
@<TRIPOS>MOLECULE
CH4
5 4
SMALL
USER_CHARGES


@<TRIPOS>ATOM
1 C 89.976 52.525 61.574 C 0.0 **** 0.0
2 H 90.348 53.158 62.379 H 0.0 **** 0.0
3 H 90.338 51.506 61.716 H 0.0 **** 0.0
4 H 90.332 52.907 60.617 H 0.0 **** 0.0
5 H 88.886 52.528 61.584 H 0.0 **** 0.0
@<TRIPOS>BOND
1 1 2 1
2 1 3 1
3 1 4 1
4 1 5 1
@<TRIPOS>MOLECULE
CH4
5 4
SMALL
USER_CHARGES


@<TRIPOS>ATOM
1 C 34.422 76.765 62.198 C 0.0 **** 0.0
2 H 34.668 77.3 63.115 H 0.0 **** 0.0
3 H 34.738 75.725 62.288 H 0.0 **** 0.0
4 H 34.938 77.23 61.357 H 0.0 **** 0.0
5 H 33.346 76.805 62.031 H 0.0 **** 0.0
@<TRIPOS>BOND
1 1 2 1
2 1 3 1
3 1 4 1
4 1 5 1
@<TRIPOS>MOLECULE
CH4
5 4
SMALL
USER_CHARGES


@<TRIPOS>ATOM
1 C 28.711 57.624 90.589 C 0.0 **** 0.0
2 H 28.819 58.557 90.035 H 0.0 **** 0.0
3 H 28.284 56.862 89.937 H 0.0 **** 0.0
4 H 28.053 57.783 91.443 H 0.0 **** 0.0
5 H 29.69 57.296 90.94 H 0.0 **** 0.0
@<TRIPOS>BOND
1 1 2 1
2 1 3 1
3 1 4 1
4 1 5 1
@<TRIPOS>MOLECULE
CH4
5 4
SMALL
USER_CHARGES


@<TRIPOS>ATOM
1 C 97.585 24.285 2.635 C 0.0 **** 0.0
2 H 98.056 24.764 1.776 H 0.0 **** 0.0
3 H 98.337 23.732 3.199 H 0.0 **** 0.0
4 H 96.812 23.599 2.289 H 0.0 **** 0.0
5 H 97.137 25.046 3.274 H 0.0 **** 0.0
@<TRIPOS>BOND
1 1 2 1
2 1 3 1
3 1 4 1
4 1 5 1
@<TRIPOS>MOLECULE
CH4
5 4
SMALL
USER_CHARGES


@<TRIPOS>ATOM
1 C 41.644 81.898 44.426 C 0.0 **** 0.0
2 H 41.762 81.075 45.131 H 0.0 **** 0.0
3 H 42.306 81.743 43.573 H 0.0 **** 0.0
4 H 41.898 82.837 44.917 H 0.0 **** 0.0
5 H 40.611 81.935 44.081 H 0.0 **** 0.0
@<TRIPOS>BOND
1 1 2 1
2 1 3 1
3 1 4 1
4 1 5 1
@<TRIPOS>MOLECULE
CH4
5 4
SMALL
USER_CHARGES


@<TRIPOS>ATOM
1 C 34.419 32.241 63.506 C 0.0 **** 0.0
2 H 33.412 32.348 63.909 H 0.0 **** 0.0
3 H 34.645 31.183 63.371 H 0.0 **** 0.0
4 H 35.136 32.681 64.2 H 0.0 **** 0.0
5 H 34.483 32.752 62.546 H 0.0 **** 0.0
@<TRIPOS>BOND
1 1 2 1
2 1 3 1
3 1 4 1
4 1 5 1
@<TRIPOS>MOLECULE
CH4
5 4
SMALL
USER_CHARGES


@<TRIPOS>ATOM
1 C 45.731 39.164 5.78 C 0.0 **** 0.0
2 H 45.402 39.723 4.903 H 0.0 **** 0.0
3 H 46.292 38.286 5.461 H 0.0 **** 0.0
4 H 44.861 38.85 6.356 H 0.0 **** 0.0
5 H 46.366 39.798 6.397 H 0.0 **** 0.0
@<TRIPOS>BOND
1 1 5 1
2 1 2 1
3 1 3 1
4 1 4 1
@<TRIPOS>MOLECULE
CH4
5 4
SMALL
USER_CHARGES


@<TRIPOS>ATOM
1 C 79.387 50.753 1.982 C 0.0 **** 0.0
2 H 80.089 51.563 1.784 H 0.0 **** 0.0
3 H 79.413 50.041 1.157 H 0.0 **** 0.0
4 H 78.38 51.16 2.079 H 0.0 **** 0.0
5 H 79.665 50.248 2.907 H 0.0 **** 0.0
@<TRIPOS>BOND
1 1 2 1
2 1 3 1
3 1 4 1
4 1 5 1
@<TRIPOS>MOLECULE
CH4
5 4
SMALL
USER_CHARGES


@<TRIPOS>ATOM
1 C 81.491 72.024 25.582 C 0.0 **** 0.0
2 H 81.146 72.026 26.616 H 0.0 **** 0.0
3 H 81.111 72.909 25.071 H 0.0 **** 0.0
4 H 81.126 71.129 25.079 H 0.0 **** 0.0
5 H 82.581 72.033 25.563 H 0.0 **** 0.0
@<TRIPOS>BOND
1 1 2 1
2 1 3 1
3 1 4 1
4 1 5 1
@<TRIPOS>MOLECULE
CH4
5 4
SMALL
USER_CHARGES


@<TRIPOS>ATOM
1 C 0.851 96.125 50.874 C 0.0 **** 0.0
2 H 1.339 97.084 50.705 H 0.0 **** 0.0
3 H 0.505 96.07 51.906 H 0.0 **** 0.0
4 H 1.559 95.319 50.684 H 0.0 **** 0.0
5 H 0.0 96.027 50.199 H 0.0 **** 0.0
@<TRIPOS>BOND
1 1 2 1
2 1 3 1
3 1 4 1
4 1 5 1
@<TRIPOS>MOLECULE
CH4
5 4
SMALL
USER_CHARGES


@<TRIPOS>ATOM
1 C 74.681 7.118 57.315 C 0.0 **** 0.0
2 H 75.646 7.246 57.805 H 0.0 **** 0.0
3 H 73.994 6.61 57.992 H 0.0 **** 0.0
4 H 74.809 6.522 56.411 H 0.0 **** 0.0
5 H 74.275 8.095 57.051 H 0.0 **** 0.0
@<TRIPOS>BOND
1 1 2 1
2 1 3 1
3 1 4 1
4 1 5 1
@<TRIPOS>MOLECULE
CH4
5 4
SMALL
USER_CHARGES


@<TRIPOS>ATOM
1 C 75.635 15.498 32.367 C 0.0 **** 0.0
2 H 74.733 15.902 32.828 H 0.0 **** 0.0
3 H 76.155 16.292 31.831 H 0.0 **** 0.0
4 H 75.363 14.706 31.67 H 0.0 **** 0.0
5 H 76.288 15.094 33.14 H 0.0 **** 0.0
@<TRIPOS>BOND
1 1 2 1
2 1 3 1
3 1 4 1
4 1 5 1
@<TRIPOS>MOLECULE
CH4
5 4
SMALL
USER_CHARGES


@<TRIPOS>ATOM
1 C 6.464 20.31 32.883 C 0.0 **** 0.0
2 H 7.452 20.717 33.1 H 0.0 **** 0.0
3 H 6.516 19.693 31.985 H 0.0 **** 0.0
4 H 5.761 21.127 32.723 H 0.0 **** 0.0
5 H 6.129 19.702 33.723 H 0.0 **** 0.0
@<TRIPOS>BOND
1 1 2 1
2 1 3 1
3 1 4 1
4 1 5 1
@<TRIPOS>MOLECULE
CH4
5 4
SMALL
USER_CHARGES


@<TRIPOS>ATOM
1 C 77.646 49.167 21.36 C 0.0 **** 0.0
2 H 76.996 49.965 21.0 H 0.0 **** 0.0
3 H 78.655 49.555 21.5 H 0.0 **** 0.0
4 H 77.665 48.358 20.631 H 0.0 **** 0.0
5 H 77.266 48.791 22.311 H 0.0 **** 0.0
@<TRIPOS>BOND
1 1 2 1
2 1 3 1
3 1 4 1
4 1 5 1
@<TRIPOS>MOLECULE
CH4
5 4
SMALL
USER_CHARGES


@<TRIPOS>ATOM
1 C 35.319 65.247 16.946 C 0.0 **** 0.0
2 H 34.985 64.885 15.974 H 0.0 **** 0.0
3 H 35.968 66.112 16.809 H 0.0 **** 0.0
4 H 35.868 64.457 17.458 H 0.0 **** 0.0
5 H 34.453 65.533 17.544 H 0.0 **** 0.0
@<TRIPOS>BOND
1 1 2 1
2 1 3 1
3 1 4 1
4 1 5 1
@<TRIPOS>MOLECULE
CH4
5 4
SMALL
USER_CHARGES


@<TRIPOS>ATOM
1 C 79.944 42.651 18.46 C 0.0 **** 0.0
2 H 79.865 42.722 19.544 H 0.0 **** 0.0
3 H 80.232 41.637 18.182 H 0.0 **** 0.0
4 H 80.697 43.354 18.104 H 0.0 **** 0.0
5 H 78.981 42.892 18.009 H 0.0 **** 0.0
@<TRIPOS>BOND
1 1 2 1
2 1 3 1
3 1 4 1
4 1 5 1
@<TRIPOS>MOLECULE
CH4
5 4
SMALL
USER_CHARGES


@<TRIPOS>ATOM
1 C 97.372 89.157 87.548 C 0.0 **** 0.0
2 H 97.105 89.95 86.848 H 0.0 **** 0.0
3 H 96.49 88.555 87.766 H 0.0 **** 0.0
4 H 97.748 89.599 88.47 H 0.0 **** 0.0
5 H 98.143 88.527 87.105 H 0.0 **** 0.0
@<TRIPOS>BOND
1 1 2 1
2 1 3 1
3 1 4 1
4 1 5 1
@<TRIPOS>MOLECULE
CH4
5 4
SMALL
USER_CHARGES


@<TRIPOS>ATOM
1 C 47.066 93.358 82.189 C 0.0 **** 0.0
2 H 47.149 94.299 81.645 H 0.0 **** 0.0
3 H 46.196 92.807 81.83 H 0.0 **** 0.0
4 H 46.952 93.563 83.253 H 0.0 **** 0.0
5 H 47.965 92.764 82.027 H 0.0 **** 0.0
@<TRIPOS>BOND
1 1 2 1
2 1 3 1
3 1 4 1
4 1 5 1
@<TRIPOS>MOLECULE
CH4
5 4
SMALL
USER_CHARGES


@<TRIPOS>ATOM
1 C 54.457 66.036 76.27 C 0.0 **** 0.0
2 H 54.521 66.089 77.356 H 0.0 **** 0.0
3 H 53.785 65.226 75.984 H 0.0 **** 0.0
4 H 55.449 65.848 75.857 H 0.0 **** 0.0
5 H 54.075 66.98 75.882 H 0.0 **** 0.0
@<TRIPOS>BOND
1 1 2 1
2 1 3 1
3 1 4 1
4 1 5 1
@<TRIPOS>MOLECULE
CH4
5 4
SMALL
USER_CHARGES


@<TRIPOS>ATOM
1 C 61.642 44.998 27.958 C 0.0 **** 0.0
2 H 61.899 45.412 26.983 H 0.0 **** 0.0
3 H 61.779 43.917 27.941 H 0.0 **** 0.0
4 H 60.603 45.23 28.189 H 0.0 **** 0.0
5 H 62.289 45.434 28.719 H 0.0 **** 0.0
@<TRIPOS>BOND
1 1 2 1
2 1 3 1
3 1 4 1
4 1 5 1
@<TRIPOS>MOLECULE
CH4
5 4
SMALL
USER_CHARGES


@<TRIPOS>ATOM
1 C 79.022 81.791 67.732 C 0.0 **** 0.0
2 H 79.17 82.171 66.721 H 0.0 **** 0.0
3 H 78.901 80.708 67.698 H 0.0 **** 0.0
4 H 78.129 82.243 68.163 H 0.0 **** 0.0
5 H 79.888 82.041 68.344 H 0.0 **** 0.0
@<TRIPOS>BOND
1 1 2 1
2 1 3 1
3 1 4 1
4 1 5 1
@<TRIPOS>MOLECULE
CH4
5 4
SMALL
USER_CHARGES


@<TRIPOS>ATOM
1 C 16.902 28.879 7.511 C 0.0 **** 0.0
2 H 17.177 27.993 8.082 H 0.0 **** 0.0
3 H 16.148 29.445 8.059 H 0.0 **** 0.0
4 H 16.498 28.578 6.544 H 0.0 **** 0.0
5 H 17.784 29.501 7.359 H 0.0 **** 0.0
@<TRIPOS>BOND
1 1 2 1
2 1 3 1
3 1 4 1
4 1 5 1
@<TRIPOS>MOLECULE
CH4
5 4
SMALL
USER_CHARGES


@<TRIPOS>ATOM
1 C 82.837 10.914 74.637 C 0.0 **** 0.0
2 H 83.196 11.436 73.75 H 0.0 **** 0.0
3 H 83.075 11.501 75.524 H 0.0 **** 0.0
4 H 83.321 9.94 74.705 H 0.0 **** 0.0
5 H 81.758 10.78 74.567 H 0.0 **** 0.0
@<TRIPOS>BOND
1 1 2 1
2 1 3 1
3 1 4 1
4 1 5 1
@<TRIPOS>MOLECULE
CH4
5 4
SMALL
USER_CHARGES


@<TRIPOS>ATOM
1 C 32.628 30.925 29.605 C 0.0 **** 0.0
2 H 32.667 30.055 28.95 H 0.0 **** 0.0
3 H 32.372 30.607 30.616 H 0.0 **** 0.0
4 H 31.872 31.62 29.24 H 0.0 **** 0.0
5 H 33.6 31.417 29.613 H 0.0 **** 0.0
@<TRIPOS>BOND
1 1 4 1
2 1 5 1
3 1 3 1
4 1 2 1
@<TRIPOS>MOLECULE
CH4
5 4
SMALL
USER_CHARGES


@<TRIPOS>ATOM
1 C 67.629 80.754 69.353 C 0.0 **** 0.0
2 H 67.56 80.789 68.266 H 0.0 **** 0.0
3 H 68.678 80.716 69.649 H 0.0 **** 0.0
4 H 67.115 79.865 69.721 H 0.0 **** 0.0
5 H 67.163 81.644 69.776 H 0.0 **** 0.0
@<TRIPOS>BOND
1 1 2 1
2 1 3 1
3 1 4 1
4 1 5 1
@<TRIPOS>MOLECULE
CH4
5 4
SMALL
USER_CHARGES


@<TRIPOS>ATOM
1 C 76.753 83.186 8.535 C 0.0 **** 0.0
2 H 75.742 82.897 8.25 H 0.0 **** 0.0
3 H 76.953 82.852 9.554 H 0.0 **** 0.0
4 H 76.849 84.271 8.483 H 0.0 **** 0.0
5 H 77.469 82.725 7.855 H 0.0 **** 0.0
@<TRIPOS>BOND
1 1 2 1
2 1 3 1
3 1 4 1
4 1 5 1
@<TRIPOS>MOLECULE
CH4
5 4
SMALL
USER_CHARGES


@<TRIPOS>ATOM
1 C 39.24 30.291 96.686 C 0.0 **** 0.0
2 H 40.279 30.062 96.924 H 0.0 **** 0.0
3 H 38.829 29.501 96.057 H 0.0 **** 0.0
4 H 39.19 31.242 96.155 H 0.0 **** 0.0
5 H 38.663 30.359 97.609 H 0.0 **** 0.0
@<TRIPOS>BOND
1 1 2 1
2 1 3 1
3 1 4 1
4 1 5 1
@<TRIPOS>MOLECULE
CH4
5 4
SMALL
USER_CHARGES


@<TRIPOS>ATOM
1 C 54.801 35.844 82.692 C 0.0 **** 0.0
2 H 53.827 35.859 82.204 H 0.0 **** 0.0
3 H 55.326 36.776 82.483 H 0.0 **** 0.0
4 H 55.385 35.005 82.313 H 0.0 **** 0.0
5 H 54.667 35.736 83.768 H 0.0 **** 0.0
@<TRIPOS>BOND
1 1 2 1
2 1 3 1
3 1 4 1
4 1 5 1
@<TRIPOS>MOLECULE
CH4
5 4
SMALL
USER_CHARGES


@<TRIPOS>ATOM
1 C 44.065 62.663 87.243 C 0.0 **** 0.0
2 H 44.206 62.819 86.173 H 0.0 **** 0.0
3 H 43.184 63.211 87.576 H 0.0 **** 0.0
4 H 44.943 63.022 87.78 H 0.0 **** 0.0
5 H 43.928 61.6 87.44 H 0.0 **** 0.0
@<TRIPOS>BOND
1 1 2 1
2 1 3 1
3 1 4 1
4 1 5 1
@<TRIPOS>MOLECULE
CH4
5 4
SMALL
USER_CHARGES


@<TRIPOS>ATOM
1 C 41.62 95.531 85.746 C 0.0 **** 0.0
2 H 42.011 96.079 84.89 H 0.0 **** 0.0
3 H 40.627 95.907 85.995 H 0.0 **** 0.0
4 H 42.285 95.666 86.599 H 0.0 **** 0.0
5 H 41.556 94.471 85.501 H 0.0 **** 0.0
@<TRIPOS>BOND
1 1 2 1
2 1 3 1
3 1 4 1
4 1 5 1
@<TRIPOS>MOLECULE
CH4
5 4
SMALL
USER_CHARGES


@<TRIPOS>ATOM
1 C 79.247 64.767 28.606 C 0.0 **** 0.0
2 H 79.51 63.712 28.526 H 0.0 **** 0.0
3 H 78.583 65.039 27.786 H 0.0 **** 0.0
4 H 80.152 65.372 28.558 H 0.0 **** 0.0
5 H 78.742 64.944 29.557 H 0.0 **** 0.0
@<TRIPOS>BOND
1 1 2 1
2 1 3 1
3 1 4 1
4 1 5 1
@<TRIPOS>MOLECULE
CH4
5 4
SMALL
USER_CHARGES


@<TRIPOS>ATOM
1 C 76.601 59.669 89.684 C 0.0 **** 0.0
2 H 76.892 59.158 88.766 H 0.0 **** 0.0
3 H 77.398 60.348 89.989 H 0.0 **** 0.0
4 H 76.43 58.933 90.47 H 0.0 **** 0.0
5 H 75.686 60.235 89.51 H 0.0 **** 0.0
@<TRIPOS>BOND
1 1 2 1
2 1 3 1
3 1 4 1
4 1 5 1
@<TRIPOS>MOLECULE
CH4
5 4
SMALL
USER_CHARGES


@<TRIPOS>ATOM
1 C 86.293 75.66 43.374 C 0.0 **** 0.0
2 H 85.403 75.567 43.997 H 0.0 **** 0.0
3 H 87.164 75.83 44.008 H 0.0 **** 0.0
4 H 86.172 76.499 42.69 H 0.0 **** 0.0
5 H 86.433 74.742 42.802 H 0.0 **** 0.0
@<TRIPOS>BOND
1 1 2 1
2 1 3 1
3 1 4 1
4 1 5 1
@<TRIPOS>MOLECULE
CH4
5 4
SMALL
USER_CHARGES


@<TRIPOS>ATOM
1 C 18.283 87.438 69.631 C 0.0 **** 0.0
2 H 18.269 87.414 68.541 H 0.0 **** 0.0
3 H 19.308 87.57 69.978 H 0.0 **** 0.0
4 H 17.885 86.501 70.02 H 0.0 **** 0.0
5 H 17.67 88.268 69.983 H 0.0 **** 0.0
@<TRIPOS>BOND
1 1 2 1
2 1 3 1
3 1 4 1
4 1 5 1
@<TRIPOS>MOLECULE
CH4
5 4
SMALL
USER_CHARGES


@<TRIPOS>ATOM
1 C 51.145 23.625 74.003 C 0.0 **** 0.0
2 H 50.798 23.056 73.141 H 0.0 **** 0.0
3 H 52.231 23.721 73.961 H 0.0 **** 0.0
4 H 50.861 23.107 74.919 H 0.0 **** 0.0
5 H 50.692 24.616 73.99 H 0.0 **** 0.0
@<TRIPOS>BOND
1 1 2 1
2 1 3 1
3 1 4 1
4 1 5 1
@<TRIPOS>MOLECULE
CH4
5 4
SMALL
USER_CHARGES


@<TRIPOS>ATOM
1 C 70.445 88.768 39.575 C 0.0 **** 0.0
2 H 69.754 89.526 39.945 H 0.0 **** 0.0
3 H 71.235 88.609 40.309 H 0.0 **** 0.0
4 H 70.883 89.104 38.636 H 0.0 **** 0.0
5 H 69.906 87.835 39.412 H 0.0 **** 0.0
@<TRIPOS>BOND
1 1 2 1
2 1 3 1
3 1 4 1
4 1 5 1
@<TRIPOS>MOLECULE
CH4
5 4
SMALL
USER_CHARGES


@<TRIPOS>ATOM
1 C 7.829 65.391 67.448 C 0.0 **** 0.0
2 H 7.764 64.901 66.477 H 0.0 **** 0.0
3 H 8.031 66.453 67.307 H 0.0 **** 0.0
4 H 8.636 64.942 68.027 H 0.0 **** 0.0
5 H 6.887 65.267 67.981 H 0.0 **** 0.0
@<TRIPOS>BOND
1 1 2 1
2 1 3 1
3 1 4 1
4 1 5 1
@<TRIPOS>MOLECULE
CH4
5 4
SMALL
USER_CHARGES


@<TRIPOS>ATOM
1 C 20.001 18.549 59.261 C 0.0 **** 0.0
2 H 19.504 19.168 58.514 H 0.0 **** 0.0
3 H 19.879 17.497 58.999 H 0.0 **** 0.0
4 H 19.558 18.734 60.239 H 0.0 **** 0.0
5 H 21.062 18.795 59.289 H 0.0 **** 0.0
@<TRIPOS>BOND
1 1 2 1
2 1 3 1
3 1 4 1
4 1 5 1
@<TRIPOS>MOLECULE
CH4
5 4
SMALL
USER_CHARGES


@<TRIPOS>ATOM
1 C 57.05 3.747 77.813 C 0.0 **** 0.0
2 H 57.046 4.402 76.942 H 0.0 **** 0.0
3 H 58.058 3.698 78.226 H 0.0 **** 0.0
4 H 56.728 2.749 77.518 H 0.0 **** 0.0
5 H 56.367 4.142 78.566 H 0.0 **** 0.0
@<TRIPOS>BOND
1 1 2 1
2 1 3 1
3 1 4 1
4 1 5 1
@<TRIPOS>MOLECULE
CH4
5 4
SMALL
USER_CHARGES


@<TRIPOS>ATOM
1 C 89.151 57.713 89.64 C 0.0 **** 0.0
2 H 89.567 58.566 90.176 H 0.0 **** 0.0
3 H 88.799 56.971 90.357 H 0.0 **** 0.0
4 H 89.92 57.271 89.007 H 0.0 **** 0.0
5 H 88.317 58.045 89.021 H 0.0 **** 0.0
@<TRIPOS>BOND
1 1 2 1
2 1 3 1
3 1 4 1
4 1 5 1
@<TRIPOS>MOLECULE
CH4
5 4
SMALL
USER_CHARGES


@<TRIPOS>ATOM
1 C 65.824 35.067 33.219 C 0.0 **** 0.0
2 H 65.235 35.732 32.587 H 0.0 **** 0.0
3 H 65.16 34.369 33.73 H 0.0 **** 0.0
4 H 66.369 35.657 33.956 H 0.0 **** 0.0
5 H 66.531 34.512 32.603 H 0.0 **** 0.0
@<TRIPOS>BOND
1 1 3 1
2 1 4 1
3 1 5 1
4 1 2 1
@<TRIPOS>MOLECULE
CH4
5 4
SMALL
USER_CHARGES


@<TRIPOS>ATOM
1 C 78.974 0.975 93.938 C 0.0 **** 0.0
2 H 79.398 1.769 94.553 H 0.0 **** 0.0
3 H 77.955 1.238 93.657 H 0.0 **** 0.0
4 H 78.967 0.043 94.504 H 0.0 **** 0.0
5 H 79.579 0.849 93.04 H 0.0 **** 0.0
@<TRIPOS>BOND
1 1 2 1
2 1 3 1
3 1 4 1
4 1 5 1
@<TRIPOS>MOLECULE
CH4
5 4
SMALL
USER_CHARGES


@<TRIPOS>ATOM
1 C 76.582 68.794 17.599 C 0.0 **** 0.0
2 H 76.798 69.227 18.576 H 0.0 **** 0.0
3 H 75.8 68.041 17.701 H 0.0 **** 0.0
4 H 77.483 68.33 17.2 H 0.0 **** 0.0
5 H 76.246 69.578 16.921 H 0.0 **** 0.0
@<TRIPOS>BOND
1 1 2 1
2 1 3 1
3 1 4 1
4 1 5 1
@<TRIPOS>MOLECULE
CH4
5 4
SMALL
USER_CHARGES


@<TRIPOS>ATOM
1 C 66.857 30.227 7.88 C 0.0 **** 0.0
2 H 67.653 30.072 8.609 H 0.0 **** 0.0
3 H 67.281 30.629 6.96 H 0.0 **** 0.0
4 H 66.128 30.93 8.283 H 0.0 **** 0.0
5 H 66.368 29.276 7.67 H 0.0 **** 0.0
@<TRIPOS>BOND
1 1 2 1
2 1 3 1
3 1 4 1
4 1 5 1
@<TRIPOS>MOLECULE
CH4
5 4
SMALL
USER_CHARGES


@<TRIPOS>ATOM
1 C 58.177 97.698 20.718 C 0.0 **** 0.0
2 H 57.6 97.648 21.642 H 0.0 **** 0.0
3 H 57.497 97.75 19.868 H 0.0 **** 0.0
4 H 58.801 96.809 20.632 H 0.0 **** 0.0
5 H 58.809 98.586 20.733 H 0.0 **** 0.0
@<TRIPOS>BOND
1 1 2 1
2 1 3 1
3 1 4 1
4 1 5 1
@<TRIPOS>MOLECULE
CH4
5 4
SMALL
USER_CHARGES


@<TRIPOS>ATOM
1 C 15.948 73.746 33.361 C 0.0 **** 0.0
2 H 15.539 73.681 34.37 H 0.0 **** 0.0
3 H 16.764 73.031 33.254 H 0.0 **** 0.0
4 H 16.321 74.754 33.184 H 0.0 **** 0.0
5 H 15.166 73.516 32.637 H 0.0 **** 0.0
@<TRIPOS>BOND
1 1 2 1
2 1 3 1
3 1 4 1
4 1 5 1
@<TRIPOS>MOLECULE
CH4
5 4
SMALL
USER_CHARGES


@<TRIPOS>ATOM
1 C 62.981 85.834 37.856 C 0.0 **** 0.0
2 H 63.686 85.086 38.218 H 0.0 **** 0.0
3 H 63.476 86.479 37.13 H 0.0 **** 0.0
4 H 62.627 86.435 38.694 H 0.0 **** 0.0
5 H 62.134 85.337 37.383 H 0.0 **** 0.0
@<TRIPOS>BOND
1 1 2 1
2 1 3 1
3 1 4 1
4 1 5 1
@<TRIPOS>MOLECULE
CH4
5 4
SMALL
USER_CHARGES


@<TRIPOS>ATOM
1 C 18.042 44.139 56.994 C 0.0 **** 0.0
2 H 18.228 44.319 55.935 H 0.0 **** 0.0
3 H 17.09 44.588 57.277 H 0.0 **** 0.0
4 H 18.843 44.584 57.584 H 0.0 **** 0.0
5 H 18.007 43.065 57.179 H 0.0 **** 0.0
@<TRIPOS>BOND
1 1 2 1
2 1 3 1
3 1 4 1
4 1 5 1
@<TRIPOS>MOLECULE
CH4
5 4
SMALL
USER_CHARGES


@<TRIPOS>ATOM
1 C 52.285 40.7 22.762 C 0.0 **** 0.0
2 H 52.149 40.494 23.824 H 0.0 **** 0.0
3 H 52.993 41.52 22.64 H 0.0 **** 0.0
4 H 51.328 40.977 22.32 H 0.0 **** 0.0
5 H 52.671 39.81 22.266 H 0.0 **** 0.0
@<TRIPOS>BOND
1 1 2 1
2 1 3 1
3 1 4 1
4 1 5 1
@<TRIPOS>MOLECULE
CH4
5 4
SMALL
USER_CHARGES


@<TRIPOS>ATOM
1 C 84.219 67.347 64.82 C 0.0 **** 0.0
2 H 83.508 68.141 64.593 H 0.0 **** 0.0
3 H 83.741 66.378 64.668 H 0.0 **** 0.0
4 H 84.543 67.434 65.857 H 0.0 **** 0.0
5 H 85.083 67.433 64.16 H 0.0 **** 0.0
@<TRIPOS>BOND
1 1 2 1
2 1 3 1
3 1 4 1
4 1 5 1
@<TRIPOS>MOLECULE
CH4
5 4
SMALL
USER_CHARGES


@<TRIPOS>ATOM
1 C 82.121 34.539 10.38 C 0.0 **** 0.0
2 H 82.083 33.614 10.956 H 0.0 **** 0.0
3 H 83.053 34.578 9.816 H 0.0 **** 0.0
4 H 82.069 35.391 11.058 H 0.0 **** 0.0
5 H 81.277 34.572 9.69 H 0.0 **** 0.0
@<TRIPOS>BOND
1 1 2 1
2 1 3 1
3 1 4 1
4 1 5 1
@<TRIPOS>MOLECULE
CH4
5 4
SMALL
USER_CHARGES


@<TRIPOS>ATOM
1 C 23.526 12.565 83.402 C 0.0 **** 0.0
2 H 23.971 12.401 84.383 H 0.0 **** 0.0
3 H 22.669 11.903 83.277 H 0.0 **** 0.0
4 H 24.265 12.353 82.629 H 0.0 **** 0.0
5 H 23.201 13.602 83.319 H 0.0 **** 0.0
@<TRIPOS>BOND
1 1 2 1
2 1 3 1
3 1 4 1
4 1 5 1
@<TRIPOS>MOLECULE
CH4
5 4
SMALL
USER_CHARGES


@<TRIPOS>ATOM
1 C 97.746 9.424 87.517 C 0.0 **** 0.0
2 H 97.024 9.285 86.712 H 0.0 **** 0.0
3 H 98.026 8.452 87.925 H 0.0 **** 0.0
4 H 97.3 10.033 88.303 H 0.0 **** 0.0
5 H 98.633 9.924 87.128 H 0.0 **** 0.0
@<TRIPOS>BOND
1 1 2 1
2 1 3 1
3 1 4 1
4 1 5 1
@<TRIPOS>MOLECULE
CH4
5 4
SMALL
USER_CHARGES


@<TRIPOS>ATOM
1 C 25.502 76.814 46.707 C 0.0 **** 0.0
2 H 25.691 76.721 47.776 H 0.0 **** 0.0
3 H 24.939 77.728 46.516 H 0.0 **** 0.0
4 H 24.928 75.954 46.364 H 0.0 **** 0.0
5 H 26.451 76.854 46.173 H 0.0 **** 0.0
@<TRIPOS>BOND
1 1 3 1
2 1 2 1
3 1 4 1
4 1 5 1
@<TRIPOS>MOLECULE
CH4
5 4
SMALL
USER_CHARGES


@<TRIPOS>ATOM
1 C 95.127 35.157 38.85 C 0.0 **** 0.0
2 H 94.671 34.906 37.893 H 0.0 **** 0.0
3 H 95.397 34.241 39.375 H 0.0 **** 0.0
4 H 94.419 35.726 39.452 H 0.0 **** 0.0
5 H 96.022 35.756 38.68 H 0.0 **** 0.0
@<TRIPOS>BOND
1 1 2 1
2 1 3 1
3 1 4 1
4 1 5 1
@<TRIPOS>MOLECULE
CH4
5 4
SMALL
USER_CHARGES


@<TRIPOS>ATOM
1 C 18.752 91.056 48.13 C 0.0 **** 0.0
2 H 19.012 91.09 47.072 H 0.0 **** 0.0
3 H 19.36 90.3 48.628 H 0.0 **** 0.0
4 H 17.697 90.803 48.237 H 0.0 **** 0.0
5 H 18.94 92.03 48.582 H 0.0 **** 0.0
@<TRIPOS>BOND
1 1 2 1
2 1 3 1
3 1 4 1
4 1 5 1
@<TRIPOS>MOLECULE
CH4
5 4
SMALL
USER_CHARGES


@<TRIPOS>ATOM
1 C 55.066 59.298 88.147 C 0.0 **** 0.0
2 H 54.194 59.126 88.777 H 0.0 **** 0.0
3 H 55.07 60.334 87.807 H 0.0 **** 0.0
4 H 55.029 58.632 87.284 H 0.0 **** 0.0
5 H 55.973 59.099 88.719 H 0.0 **** 0.0
@<TRIPOS>BOND
1 1 2 1
2 1 3 1
3 1 4 1
4 1 5 1
@<TRIPOS>MOLECULE
CH4
5 4
SMALL
USER_CHARGES


@<TRIPOS>ATOM
1 C 89.137 5.677 20.06 C 0.0 **** 0.0
2 H 88.748 5.921 21.048 H 0.0 **** 0.0
3 H 88.313 5.614 19.35 H 0.0 **** 0.0
4 H 89.657 4.719 20.101 H 0.0 **** 0.0
5 H 89.833 6.454 19.742 H 0.0 **** 0.0
@<TRIPOS>BOND
1 1 2 1
2 1 3 1
3 1 4 1
4 1 5 1
@<TRIPOS>MOLECULE
CH4
5 4
SMALL
USER_CHARGES


@<TRIPOS>ATOM
1 C 90.316 38.559 13.414 C 0.0 **** 0.0
2 H 90.396 38.169 14.429 H 0.0 **** 0.0
3 H 91.048 39.355 13.272 H 0.0 **** 0.0
4 H 89.313 38.955 13.255 H 0.0 **** 0.0
5 H 90.507 37.757 12.701 H 0.0 **** 0.0
@<TRIPOS>BOND
1 1 2 1
2 1 3 1
3 1 4 1
4 1 5 1
@<TRIPOS>MOLECULE
CH4
5 4
SMALL
USER_CHARGES


@<TRIPOS>ATOM
1 C 90.994 22.92 16.082 C 0.0 **** 0.0
2 H 90.985 22.879 14.993 H 0.0 **** 0.0
3 H 90.751 23.931 16.409 H 0.0 **** 0.0
4 H 91.984 22.647 16.447 H 0.0 **** 0.0
5 H 90.256 22.222 16.478 H 0.0 **** 0.0
@<TRIPOS>BOND
1 1 2 1
2 1 3 1
3 1 4 1
4 1 5 1
@<TRIPOS>MOLECULE
CH4
5 4
SMALL
USER_CHARGES


@<TRIPOS>ATOM
1 C 60.37 56.424 51.69 C 0.0 **** 0.0
2 H 60.354 56.806 50.669 H 0.0 **** 0.0
3 H 59.952 57.173 52.364 H 0.0 **** 0.0
4 H 61.398 56.207 51.98 H 0.0 **** 0.0
5 H 59.776 55.512 51.746 H 0.0 **** 0.0
@<TRIPOS>BOND
1 1 2 1
2 1 3 1
3 1 4 1
4 1 5 1
@<TRIPOS>MOLECULE
CH4
5 4
SMALL
USER_CHARGES


@<TRIPOS>ATOM
1 C 56.027 2.359 1.634 C 0.0 **** 0.0
2 H 57.054 2.149 1.933 H 0.0 **** 0.0
3 H 55.475 2.755 2.487 H 0.0 **** 0.0
4 H 55.553 1.439 1.29 H 0.0 **** 0.0
5 H 56.026 3.092 0.828 H 0.0 **** 0.0
@<TRIPOS>BOND
1 1 2 1
2 1 3 1
3 1 4 1
4 1 5 1
@<TRIPOS>MOLECULE
CH4
5 4
SMALL
USER_CHARGES


@<TRIPOS>ATOM
1 C 96.417 95.276 5.795 C 0.0 **** 0.0
2 H 96.202 95.484 6.843 H 0.0 **** 0.0
3 H 97.439 95.579 5.567 H 0.0 **** 0.0
4 H 95.723 95.832 5.164 H 0.0 **** 0.0
5 H 96.303 94.208 5.606 H 0.0 **** 0.0
@<TRIPOS>BOND
1 1 2 1
2 1 3 1
3 1 4 1
4 1 5 1
@<TRIPOS>MOLECULE
CH4
5 4
SMALL
USER_CHARGES


@<TRIPOS>ATOM
1 C 23.198 28.68 38.282 C 0.0 **** 0.0
2 H 22.628 28.191 37.492 H 0.0 **** 0.0
3 H 22.881 28.294 39.251 H 0.0 **** 0.0
4 H 23.022 29.755 38.244 H 0.0 **** 0.0
5 H 24.26 28.481 38.141 H 0.0 **** 0.0
@<TRIPOS>BOND
1 1 2 1
2 1 3 1
3 1 4 1
4 1 5 1
@<TRIPOS>MOLECULE
CH4
5 4
SMALL
USER_CHARGES


@<TRIPOS>ATOM
1 C 81.611 87.018 11.42 C 0.0 **** 0.0
2 H 82.695 87.047 11.531 H 0.0 **** 0.0
3 H 81.184 86.382 12.195 H 0.0 **** 0.0
4 H 81.358 86.616 10.439 H 0.0 **** 0.0
5 H 81.21 88.027 11.514 H 0.0 **** 0.0
@<TRIPOS>BOND
1 1 2 1
2 1 3 1
3 1 4 1
4 1 5 1
@<TRIPOS>MOLECULE
CH4
5 4
SMALL
USER_CHARGES


@<TRIPOS>ATOM
1 C 69.753 34.429 7.707 C 0.0 **** 0.0
2 H 69.425 34.383 6.668 H 0.0 **** 0.0
3 H 69.814 35.471 8.022 H 0.0 **** 0.0
4 H 70.734 33.964 7.798 H 0.0 **** 0.0
5 H 69.039 33.899 8.337 H 0.0 **** 0.0
@<TRIPOS>BOND
1 1 2 1
2 1 3 1
3 1 4 1
4 1 5 1
@<TRIPOS>MOLECULE
CH4
5 4
SMALL
USER_CHARGES


@<TRIPOS>ATOM
1 C 88.417 56.88 25.618 C 0.0 **** 0.0
2 H 88.939 57.45 24.849 H 0.0 **** 0.0
3 H 87.53 56.416 25.185 H 0.0 **** 0.0
4 H 88.12 57.549 26.426 H 0.0 **** 0.0
5 H 89.078 56.107 26.009 H 0.0 **** 0.0
@<TRIPOS>BOND
1 1 2 1
2 1 3 1
3 1 4 1
4 1 5 1
@<TRIPOS>MOLECULE
CH4
5 4
SMALL
USER_CHARGES


@<TRIPOS>ATOM
1 C 81.09 30.84 75.672 C 0.0 **** 0.0
2 H 81.729 30.166 75.101 H 0.0 **** 0.0
3 H 81.622 31.774 75.857 H 0.0 **** 0.0
4 H 80.83 30.375 76.622 H 0.0 **** 0.0
5 H 80.182 31.045 75.106 H 0.0 **** 0.0
@<TRIPOS>BOND
1 1 2 1
2 1 3 1
3 1 4 1
4 1 5 1
@<TRIPOS>MOLECULE
CH4
5 4
SMALL
USER_CHARGES


@<TRIPOS>ATOM
1 C 52.629 68.599 14.752 C 0.0 **** 0.0
2 H 52.009 68.663 15.647 H 0.0 **** 0.0
3 H 53.666 68.81 15.013 H 0.0 **** 0.0
4 H 52.283 69.328 14.019 H 0.0 **** 0.0
5 H 52.556 67.597 14.331 H 0.0 **** 0.0
@<TRIPOS>BOND
1 1 2 1
2 1 3 1
3 1 4 1
4 1 5 1
@<TRIPOS>MOLECULE
CH4
5 4
SMALL
USER_CHARGES


@<TRIPOS>ATOM
1 C 83.168 78.021 24.644 C 0.0 **** 0.0
2 H 83.153 77.911 25.729 H 0.0 **** 0.0
3 H 83.427 77.066 24.186 H 0.0 **** 0.0
4 H 83.907 78.771 24.365 H 0.0 **** 0.0
5 H 82.183 78.335 24.298 H 0.0 **** 0.0
@<TRIPOS>BOND
1 1 2 1
2 1 3 1
3 1 4 1
4 1 5 1
@<TRIPOS>MOLECULE
CH4
5 4
SMALL
USER_CHARGES


@<TRIPOS>ATOM
1 C 47.534 68.685 2.885 C 0.0 **** 0.0
2 H 47.801 68.524 1.84 H 0.0 **** 0.0
3 H 46.886 67.876 3.223 H 0.0 **** 0.0
4 H 47.011 69.636 2.983 H 0.0 **** 0.0
5 H 48.439 68.703 3.491 H 0.0 **** 0.0
@<TRIPOS>BOND
1 1 2 1
2 1 3 1
3 1 4 1
4 1 5 1
@<TRIPOS>MOLECULE
CH4
5 4
SMALL
USER_CHARGES


@<TRIPOS>ATOM
1 C 41.324 37.279 30.708 C 0.0 **** 0.0
2 H 41.549 37.238 29.643 H 0.0 **** 0.0
3 H 40.74 36.403 30.99 H 0.0 **** 0.0
4 H 40.753 38.182 30.924 H 0.0 **** 0.0
5 H 42.255 37.294 31.276 H 0.0 **** 0.0
@<TRIPOS>BOND
1 1 2 1
2 1 3 1
3 1 4 1
4 1 5 1
@<TRIPOS>MOLECULE
CH4
5 4
SMALL
USER_CHARGES


@<TRIPOS>ATOM
1 C 98.046 11.461 53.067 C 0.0 **** 0.0
2 H 98.146 11.526 51.983 H 0.0 **** 0.0
3 H 98.897 10.918 53.478 H 0.0 **** 0.0
4 H 97.125 10.935 53.315 H 0.0 **** 0.0
5 H 98.018 12.465 53.489 H 0.0 **** 0.0
@<TRIPOS>BOND
1 1 2 1
2 1 3 1
3 1 4 1
4 1 5 1
@<TRIPOS>MOLECULE
CH4
5 4
SMALL
USER_CHARGES


@<TRIPOS>ATOM
1 C 56.914 32.823 63.084 C 0.0 **** 0.0
2 H 56.307 32.004 63.47 H 0.0 **** 0.0
3 H 56.84 32.849 61.997 H 0.0 **** 0.0
4 H 57.953 32.674 63.376 H 0.0 **** 0.0
5 H 56.553 33.766 63.495 H 0.0 **** 0.0
@<TRIPOS>BOND
1 1 2 1
2 1 3 1
3 1 4 1
4 1 5 1
@<TRIPOS>MOLECULE
CH4
5 4
SMALL
USER_CHARGES


@<TRIPOS>ATOM
1 C 70.249 45.949 86.709 C 0.0 **** 0.0
2 H 69.513 46.367 86.023 H 0.0 **** 0.0
3 H 71.104 45.579 86.143 H 0.0 **** 0.0
4 H 69.799 45.127 87.267 H 0.0 **** 0.0
5 H 70.578 46.722 87.404 H 0.0 **** 0.0
@<TRIPOS>BOND
1 1 2 1
2 1 3 1
3 1 4 1
4 1 5 1
@<TRIPOS>MOLECULE
CH4
5 4
SMALL
USER_CHARGES


@<TRIPOS>ATOM
1 C 50.861 58.125 54.329 C 0.0 **** 0.0
2 H 50.726 58.06 55.408 H 0.0 **** 0.0
3 H 51.807 58.62 54.11 H 0.0 **** 0.0
4 H 50.042 58.698 53.894 H 0.0 **** 0.0
5 H 50.868 57.122 53.903 H 0.0 **** 0.0
@<TRIPOS>BOND
1 1 2 1
2 1 3 1
3 1 4 1
4 1 5 1
@<TRIPOS>MOLECULE
CH4
5 4
SMALL
USER_CHARGES


@<TRIPOS>ATOM
1 C 13.325 2.358 24.845 C 0.0 **** 0.0
2 H 13.033 3.37 25.124 H 0.0 **** 0.0
3 H 14.33 2.154 25.216 H 0.0 **** 0.0
4 H 13.312 2.262 23.76 H 0.0 **** 0.0
5 H 12.625 1.645 25.282 H 0.0 **** 0.0
@<TRIPOS>BOND
1 1 2 1
2 1 3 1
3 1 4 1
4 1 5 1
@<TRIPOS>MOLECULE
CH4
5 4
SMALL
USER_CHARGES


@<TRIPOS>ATOM
1 C 70.318 73.44 9.97 C 0.0 **** 0.0
2 H 69.275 73.548 10.267 H 0.0 **** 0.0
3 H 70.507 72.407 9.678 H 0.0 **** 0.0
4 H 70.963 73.704 10.809 H 0.0 **** 0.0
5 H 70.527 74.101 9.129 H 0.0 **** 0.0
@<TRIPOS>BOND
1 1 2 1
2 1 3 1
3 1 4 1
4 1 5 1
@<TRIPOS>MOLECULE
CH4
5 4
SMALL
USER_CHARGES


@<TRIPOS>ATOM
1 C 59.929 55.819 19.5 C 0.0 **** 0.0
2 H 59.853 54.99 18.796 H 0.0 **** 0.0
3 H 59.169 56.565 19.266 H 0.0 **** 0.0
4 H 60.918 56.271 19.424 H 0.0 **** 0.0
5 H 59.775 55.449 20.514 H 0.0 **** 0.0
@<TRIPOS>BOND
1 1 2 1
2 1 3 1
3 1 4 1
4 1 5 1
@<TRIPOS>MOLECULE
CH4
5 4
SMALL
USER_CHARGES


@<TRIPOS>ATOM
1 C 28.273 69.106 26.539 C 0.0 **** 0.0
2 H 28.526 68.314 27.244 H 0.0 **** 0.0
3 H 29.16 69.706 26.334 H 0.0 **** 0.0
4 H 27.496 69.739 26.967 H 0.0 **** 0.0
5 H 27.911 68.663 25.611 H 0.0 **** 0.0
@<TRIPOS>BOND
1 1 2 1
2 1 3 1
3 1 4 1
4 1 5 1
@<TRIPOS>MOLECULE
CH4
5 4
SMALL
USER_CHARGES


@<TRIPOS>ATOM
1 C 91.968 41.726 35.418 C 0.0 **** 0.0
2 H 92.595 41.978 34.562 H 0.0 **** 0.0
3 H 91.551 40.728 35.281 H 0.0 **** 0.0
4 H 91.158 42.451 35.5 H 0.0 **** 0.0
5 H 92.568 41.748 36.327 H 0.0 **** 0.0
@<TRIPOS>BOND
1 1 2 1
2 1 3 1
3 1 4 1
4 1 5 1
@<TRIPOS>MOLECULE
CH4
5 4
SMALL
USER_CHARGES


@<TRIPOS>ATOM
1 C 77.111 2.326 0.802 C 0.0 **** 0.0
2 H 76.738 1.462 0.252 H 0.0 **** 0.0
3 H 76.311 2.738 1.418 H 0.0 **** 0.0
4 H 77.454 3.084 0.098 H 0.0 **** 0.0
5 H 77.941 2.02 1.439 H 0.0 **** 0.0
@<TRIPOS>BOND
1 1 5 1
2 1 2 1
3 1 3 1
4 1 4 1
@<TRIPOS>MOLECULE
CH4
5 4
SMALL
USER_CHARGES


@<TRIPOS>ATOM
1 C 38.599 4.298 63.25 C 0.0 **** 0.0
2 H 38.148 3.318 63.408 H 0.0 **** 0.0
3 H 38.531 4.562 62.194 H 0.0 **** 0.0
4 H 39.646 4.27 63.552 H 0.0 **** 0.0
5 H 38.069 5.042 63.845 H 0.0 **** 0.0
@<TRIPOS>BOND
1 1 2 1
2 1 3 1
3 1 4 1
4 1 5 1
@<TRIPOS>MOLECULE
CH4
5 4
SMALL
USER_CHARGES


@<TRIPOS>ATOM
1 C 39.485 32.082 84.379 C 0.0 **** 0.0
2 H 38.838 31.598 83.647 H 0.0 **** 0.0
3 H 39.402 31.565 85.335 H 0.0 **** 0.0
4 H 39.18 33.122 84.5 H 0.0 **** 0.0
5 H 40.517 32.044 84.033 H 0.0 **** 0.0
@<TRIPOS>BOND
1 1 2 1
2 1 3 1
3 1 4 1
4 1 5 1
@<TRIPOS>MOLECULE
CH4
5 4
SMALL
USER_CHARGES


@<TRIPOS>ATOM
1 C 71.168 38.084 89.497 C 0.0 **** 0.0
2 H 71.946 37.32 89.522 H 0.0 **** 0.0
3 H 71.245 38.709 90.387 H 0.0 **** 0.0
4 H 70.19 37.605 89.472 H 0.0 **** 0.0
5 H 71.294 38.701 88.608 H 0.0 **** 0.0
@<TRIPOS>BOND
1 1 2 1
2 1 3 1
3 1 4 1
4 1 5 1
@<TRIPOS>MOLECULE
CH4
5 4
SMALL
USER_CHARGES


@<TRIPOS>ATOM
1 C 2.129 87.011 66.457 C 0.0 **** 0.0
2 H 2.296 86.298 65.65 H 0.0 **** 0.0
3 H 1.139 86.851 66.884 H 0.0 **** 0.0
4 H 2.196 88.026 66.065 H 0.0 **** 0.0
5 H 2.886 86.869 67.229 H 0.0 **** 0.0
@<TRIPOS>BOND
1 1 2 1
2 1 3 1
3 1 4 1
4 1 5 1
@<TRIPOS>MOLECULE
CH4
5 4
SMALL
USER_CHARGES


@<TRIPOS>ATOM
1 C 98.142 72.363 11.342 C 0.0 **** 0.0
2 H 97.453 72.813 12.056 H 0.0 **** 0.0
3 H 99.0 73.021 11.201 H 0.0 **** 0.0
4 H 97.635 72.217 10.389 H 0.0 **** 0.0
5 H 98.482 71.4 11.724 H 0.0 **** 0.0
@<TRIPOS>BOND
1 1 2 1
2 1 3 1
3 1 4 1
4 1 5 1
@<TRIPOS>MOLECULE
CH4
5 4
SMALL
USER_CHARGES


@<TRIPOS>ATOM
1 C 47.406 43.41 11.428 C 0.0 **** 0.0
2 H 48.333 43.515 11.992 H 0.0 **** 0.0
3 H 46.782 44.289 11.59 H 0.0 **** 0.0
4 H 46.876 42.519 11.764 H 0.0 **** 0.0
5 H 47.635 43.318 10.366 H 0.0 **** 0.0
@<TRIPOS>BOND
1 1 2 1
2 1 3 1
3 1 4 1
4 1 5 1
@<TRIPOS>MOLECULE
CH4
5 4
SMALL
USER_CHARGES


@<TRIPOS>ATOM
1 C 69.024 18.996 88.74 C 0.0 **** 0.0
2 H 68.725 18.767 89.763 H 0.0 **** 0.0
3 H 68.228 18.702 88.055 H 0.0 **** 0.0
4 H 69.934 18.449 88.497 H 0.0 **** 0.0
5 H 69.207 20.067 88.647 H 0.0 **** 0.0
@<TRIPOS>BOND
1 1 2 1
2 1 3 1
3 1 4 1
4 1 5 1
@<TRIPOS>MOLECULE
CH4
5 4
SMALL
USER_CHARGES


@<TRIPOS>ATOM
1 C 76.365 96.305 9.831 C 0.0 **** 0.0
2 H 77.386 95.969 9.646 H 0.0 **** 0.0
3 H 75.888 95.638 10.548 H 0.0 **** 0.0
4 H 75.805 96.295 8.896 H 0.0 **** 0.0
5 H 76.383 97.318 10.232 H 0.0 **** 0.0
@<TRIPOS>BOND
1 1 2 1
2 1 3 1
3 1 4 1
4 1 5 1
@<TRIPOS>MOLECULE
CH4
5 4
SMALL
USER_CHARGES


@<TRIPOS>ATOM
1 C 37.568 31.442 20.964 C 0.0 **** 0.0
2 H 36.836 32.245 20.877 H 0.0 **** 0.0
3 H 38.287 31.517 20.147 H 0.0 **** 0.0
4 H 37.059 30.48 20.913 H 0.0 **** 0.0
5 H 38.09 31.528 21.917 H 0.0 **** 0.0
@<TRIPOS>BOND
1 1 5 1
2 1 2 1
3 1 3 1
4 1 4 1
@<TRIPOS>MOLECULE
CH4
5 4
SMALL
USER_CHARGES


@<TRIPOS>ATOM
1 C 98.4 29.892 63.528 C 0.0 **** 0.0
2 H 97.392 29.915 63.943 H 0.0 **** 0.0
3 H 98.353 30.057 62.452 H 0.0 **** 0.0
4 H 98.853 28.922 63.729 H 0.0 **** 0.0
5 H 99.0 30.676 63.991 H 0.0 **** 0.0
@<TRIPOS>BOND
1 1 2 1
2 1 3 1
3 1 4 1
4 1 5 1
@<TRIPOS>MOLECULE
CH4
5 4
SMALL
USER_CHARGES


@<TRIPOS>ATOM
1 C 83.207 46.78 26.986 C 0.0 **** 0.0
2 H 83.18 47.296 27.946 H 0.0 **** 0.0
3 H 82.189 46.556 26.666 H 0.0 **** 0.0
4 H 83.768 45.851 27.088 H 0.0 **** 0.0
5 H 83.689 47.417 26.245 H 0.0 **** 0.0
@<TRIPOS>BOND
1 1 2 1
2 1 3 1
3 1 4 1
4 1 5 1
@<TRIPOS>MOLECULE
CH4
5 4
SMALL
USER_CHARGES


@<TRIPOS>ATOM
1 C 25.121 87.438 13.048 C 0.0 **** 0.0
2 H 24.764 86.411 13.132 H 0.0 **** 0.0
3 H 26.172 87.435 12.76 H 0.0 **** 0.0
4 H 25.008 87.941 14.008 H 0.0 **** 0.0
5 H 24.538 87.963 12.291 H 0.0 **** 0.0
@<TRIPOS>BOND
1 1 2 1
2 1 3 1
3 1 4 1
4 1 5 1
@<TRIPOS>MOLECULE
CH4
5 4
SMALL
USER_CHARGES


@<TRIPOS>ATOM
1 C 68.129 1.895 43.135 C 0.0 **** 0.0
2 H 68.331 1.523 44.139 H 0.0 **** 0.0
3 H 67.13 2.33 43.102 H 0.0 **** 0.0
4 H 68.191 1.072 42.424 H 0.0 **** 0.0
5 H 68.865 2.656 42.875 H 0.0 **** 0.0
@<TRIPOS>BOND
1 1 2 1
2 1 3 1
3 1 4 1
4 1 5 1
@<TRIPOS>MOLECULE
CH4
5 4
SMALL
USER_CHARGES


@<TRIPOS>ATOM
1 C 18.588 60.946 1.56 C 0.0 **** 0.0
2 H 19.673 60.878 1.482 H 0.0 **** 0.0
3 H 18.318 61.87 2.071 H 0.0 **** 0.0
4 H 18.211 60.094 2.126 H 0.0 **** 0.0
5 H 18.151 60.941 0.562 H 0.0 **** 0.0
@<TRIPOS>BOND
1 1 2 1
2 1 3 1
3 1 4 1
4 1 5 1
@<TRIPOS>MOLECULE
CH4
5 4
SMALL
USER_CHARGES


@<TRIPOS>ATOM
1 C 75.298 76.759 80.659 C 0.0 **** 0.0
2 H 74.26 77.031 80.469 H 0.0 **** 0.0
3 H 75.35 76.127 81.546 H 0.0 **** 0.0
4 H 75.886 77.662 80.82 H 0.0 **** 0.0
5 H 75.694 76.215 79.802 H 0.0 **** 0.0
@<TRIPOS>BOND
1 1 2 1
2 1 3 1
3 1 4 1
4 1 5 1
@<TRIPOS>MOLECULE
CH4
5 4
SMALL
USER_CHARGES


@<TRIPOS>ATOM
1 C 39.859 45.465 70.643 C 0.0 **** 0.0
2 H 40.816 44.944 70.601 H 0.0 **** 0.0
3 H 39.125 44.836 71.148 H 0.0 **** 0.0
4 H 39.518 45.68 69.631 H 0.0 **** 0.0
5 H 39.978 46.399 71.193 H 0.0 **** 0.0
@<TRIPOS>BOND
1 1 2 1
2 1 3 1
3 1 4 1
4 1 5 1
@<TRIPOS>MOLECULE
CH4
5 4
SMALL
USER_CHARGES


@<TRIPOS>ATOM
1 C 54.597 34.171 38.832 C 0.0 **** 0.0
2 H 53.816 34.403 38.109 H 0.0 **** 0.0
3 H 55.305 33.469 38.39 H 0.0 **** 0.0
4 H 54.149 33.725 39.72 H 0.0 **** 0.0
5 H 55.119 35.087 39.11 H 0.0 **** 0.0
@<TRIPOS>BOND
1 1 2 1
2 1 3 1
3 1 4 1
4 1 5 1
@<TRIPOS>MOLECULE
CH4
5 4
SMALL
USER_CHARGES


@<TRIPOS>ATOM
1 C 6.057 38.509 23.878 C 0.0 **** 0.0
2 H 5.716 39.044 22.992 H 0.0 **** 0.0
3 H 5.394 37.665 24.071 H 0.0 **** 0.0
4 H 6.047 39.182 24.736 H 0.0 **** 0.0
5 H 7.071 38.144 23.714 H 0.0 **** 0.0
@<TRIPOS>BOND
1 1 2 1
2 1 3 1
3 1 4 1
4 1 5 1
@<TRIPOS>MOLECULE
CH4
5 4
SMALL
USER_CHARGES


@<TRIPOS>ATOM
1 C 30.494 73.768 20.241 C 0.0 **** 0.0
2 H 30.514 73.257 19.278 H 0.0 **** 0.0
3 H 29.667 74.479 20.258 H 0.0 **** 0.0
4 H 31.434 74.3 20.39 H 0.0 **** 0.0
5 H 30.361 73.036 21.038 H 0.0 **** 0.0
@<TRIPOS>BOND
1 1 2 1
2 1 3 1
3 1 4 1
4 1 5 1
@<TRIPOS>MOLECULE
CH4
5 4
SMALL
USER_CHARGES


@<TRIPOS>ATOM
1 C 51.154 59.269 73.167 C 0.0 **** 0.0
2 H 51.606 58.962 72.223 H 0.0 **** 0.0
3 H 51.921 59.698 73.813 H 0.0 **** 0.0
4 H 50.71 58.403 73.656 H 0.0 **** 0.0
5 H 50.382 60.014 72.974 H 0.0 **** 0.0
@<TRIPOS>BOND
1 1 2 1
2 1 3 1
3 1 4 1
4 1 5 1
@<TRIPOS>MOLECULE
CH4
5 4
SMALL
USER_CHARGES


@<TRIPOS>ATOM
1 C 65.137 19.609 28.6 C 0.0 **** 0.0
2 H 65.034 18.594 28.985 H 0.0 **** 0.0
3 H 64.201 20.149 28.748 H 0.0 **** 0.0
4 H 65.371 19.571 27.536 H 0.0 **** 0.0
5 H 65.94 20.119 29.131 H 0.0 **** 0.0
@<TRIPOS>BOND
1 1 2 1
2 1 3 1
3 1 4 1
4 1 5 1
@<TRIPOS>MOLECULE
CH4
5 4
SMALL
USER_CHARGES


@<TRIPOS>ATOM
1 C 67.755 77.655 38.275 C 0.0 **** 0.0
2 H 67.842 77.643 39.362 H 0.0 **** 0.0
3 H 68.742 77.527 37.831 H 0.0 **** 0.0
4 H 67.332 78.608 37.955 H 0.0 **** 0.0
5 H 67.103 76.843 37.954 H 0.0 **** 0.0
@<TRIPOS>BOND
1 1 2 1
2 1 3 1
3 1 4 1
4 1 5 1
@<TRIPOS>MOLECULE
CH4
5 4
SMALL
USER_CHARGES


@<TRIPOS>ATOM
1 C 89.289 7.143 3.472 C 0.0 **** 0.0
2 H 89.4 7.255 2.394 H 0.0 **** 0.0
3 H 88.829 8.041 3.885 H 0.0 **** 0.0
4 H 90.269 6.995 3.925 H 0.0 **** 0.0
5 H 88.657 6.28 3.685 H 0.0 **** 0.0
@<TRIPOS>BOND
1 1 2 1
2 1 3 1
3 1 4 1
4 1 5 1
@<TRIPOS>MOLECULE
CH4
5 4
SMALL
USER_CHARGES


@<TRIPOS>ATOM
1 C 5.145 80.986 12.363 C 0.0 **** 0.0
2 H 5.647 80.326 11.655 H 0.0 **** 0.0
3 H 4.204 81.33 11.934 H 0.0 **** 0.0
4 H 5.783 81.844 12.574 H 0.0 **** 0.0
5 H 4.947 80.444 13.288 H 0.0 **** 0.0
@<TRIPOS>BOND
1 1 2 1
2 1 3 1
3 1 4 1
4 1 5 1
@<TRIPOS>MOLECULE
CH4
5 4
SMALL
USER_CHARGES


@<TRIPOS>ATOM
1 C 82.53 10.842 61.15 C 0.0 **** 0.0
2 H 82.392 11.034 62.214 H 0.0 **** 0.0
3 H 82.541 11.788 60.609 H 0.0 **** 0.0
4 H 81.712 10.222 60.784 H 0.0 **** 0.0
5 H 83.477 10.323 60.995 H 0.0 **** 0.0
@<TRIPOS>BOND
1 1 2 1
2 1 3 1
3 1 4 1
4 1 5 1
@<TRIPOS>MOLECULE
CH4
5 4
SMALL
USER_CHARGES


@<TRIPOS>ATOM
1 C 65.989 29.587 76.086 C 0.0 **** 0.0
2 H 65.008 29.112 76.113 H 0.0 **** 0.0
3 H 65.867 30.667 75.99 H 0.0 **** 0.0
4 H 66.552 29.208 75.233 H 0.0 **** 0.0
5 H 66.527 29.362 77.007 H 0.0 **** 0.0
@<TRIPOS>BOND
1 1 4 1
2 1 5 1
3 1 2 1
4 1 3 1
@<TRIPOS>MOLECULE
CH4
5 4
SMALL
USER_CHARGES


@<TRIPOS>ATOM
1 C 24.285 36.492 11.024 C 0.0 **** 0.0
2 H 24.324 35.522 11.52 H 0.0 **** 0.0
3 H 24.036 36.352 9.972 H 0.0 **** 0.0
4 H 25.255 36.981 11.107 H 0.0 **** 0.0
5 H 23.524 37.111 11.499 H 0.0 **** 0.0
@<TRIPOS>BOND
1 1 2 1
2 1 3 1
3 1 4 1
4 1 5 1
@<TRIPOS>MOLECULE
CH4
5 4
SMALL
USER_CHARGES


@<TRIPOS>ATOM
1 C 7.19 3.931 19.452 C 0.0 **** 0.0
2 H 8.168 3.461 19.55 H 0.0 **** 0.0
3 H 7.028 4.222 18.414 H 0.0 **** 0.0
4 H 7.147 4.815 20.088 H 0.0 **** 0.0
5 H 6.416 3.226 19.757 H 0.0 **** 0.0
@<TRIPOS>BOND
1 1 2 1
2 1 3 1
3 1 4 1
4 1 5 1
@<TRIPOS>MOLECULE
CH4
5 4
SMALL
USER_CHARGES


@<TRIPOS>ATOM
1 C 10.705 88.455 68.331 C 0.0 **** 0.0
2 H 10.705 88.488 67.242 H 0.0 **** 0.0
3 H 11.032 87.469 68.664 H 0.0 **** 0.0
4 H 9.698 88.648 68.7 H 0.0 **** 0.0
5 H 11.386 89.214 68.718 H 0.0 **** 0.0
@<TRIPOS>BOND
1 1 2 1
2 1 3 1
3 1 4 1
4 1 5 1
@<TRIPOS>MOLECULE
CH4
5 4
SMALL
USER_CHARGES


@<TRIPOS>ATOM
1 C 47.221 92.07 79.27 C 0.0 **** 0.0
2 H 47.357 92.941 79.911 H 0.0 **** 0.0
3 H 47.777 91.226 79.68 H 0.0 **** 0.0
4 H 47.589 92.295 78.269 H 0.0 **** 0.0
5 H 46.162 91.817 79.22 H 0.0 **** 0.0
@<TRIPOS>BOND
1 1 2 1
2 1 3 1
3 1 4 1
4 1 5 1
@<TRIPOS>MOLECULE
CH4
5 4
SMALL
USER_CHARGES


@<TRIPOS>ATOM
1 C 81.462 42.989 6.186 C 0.0 **** 0.0
2 H 82.432 42.81 5.721 H 0.0 **** 0.0
3 H 81.555 42.887 7.268 H 0.0 **** 0.0
4 H 80.741 42.262 5.813 H 0.0 **** 0.0
5 H 81.123 43.996 5.943 H 0.0 **** 0.0
@<TRIPOS>BOND
1 1 2 1
2 1 3 1
3 1 4 1
4 1 5 1
@<TRIPOS>MOLECULE
CH4
5 4
SMALL
USER_CHARGES


@<TRIPOS>ATOM
1 C 34.253 64.15 72.303 C 0.0 **** 0.0
2 H 33.192 64.302 72.106 H 0.0 **** 0.0
3 H 34.372 63.488 73.161 H 0.0 **** 0.0
4 H 34.724 65.11 72.516 H 0.0 **** 0.0
5 H 34.724 63.701 71.428 H 0.0 **** 0.0
@<TRIPOS>BOND
1 1 2 1
2 1 3 1
3 1 4 1
4 1 5 1
@<TRIPOS>MOLECULE
CH4
5 4
SMALL
USER_CHARGES


@<TRIPOS>ATOM
1 C 23.029 1.743 70.649 C 0.0 **** 0.0
2 H 23.131 2.663 70.073 H 0.0 **** 0.0
3 H 22.469 1.011 70.068 H 0.0 **** 0.0
4 H 22.497 1.954 71.577 H 0.0 **** 0.0
5 H 24.018 1.347 70.879 H 0.0 **** 0.0
@<TRIPOS>BOND
1 1 2 1
2 1 3 1
3 1 4 1
4 1 5 1
@<TRIPOS>MOLECULE
CH4
5 4
SMALL
USER_CHARGES


@<TRIPOS>ATOM
1 C 33.166 31.501 49.175 C 0.0 **** 0.0
2 H 33.928 32.24 48.928 H 0.0 **** 0.0
3 H 33.175 31.316 50.25 H 0.0 **** 0.0
4 H 33.376 30.572 48.645 H 0.0 **** 0.0
5 H 32.186 31.875 48.878 H 0.0 **** 0.0
@<TRIPOS>BOND
1 1 2 1
2 1 3 1
3 1 4 1
4 1 5 1
@<TRIPOS>MOLECULE
CH4
5 4
SMALL
USER_CHARGES


@<TRIPOS>ATOM
1 C 87.194 34.058 84.366 C 0.0 **** 0.0
2 H 87.395 33.642 85.353 H 0.0 **** 0.0
3 H 86.46 34.86 84.453 H 0.0 **** 0.0
4 H 86.803 33.276 83.715 H 0.0 **** 0.0
5 H 88.117 34.455 83.944 H 0.0 **** 0.0
@<TRIPOS>BOND
1 1 2 1
2 1 3 1
3 1 4 1
4 1 5 1
@<TRIPOS>MOLECULE
CH4
5 4
SMALL
USER_CHARGES


@<TRIPOS>ATOM
1 C 55.603 87.167 19.007 C 0.0 **** 0.0
2 H 55.807 87.022 17.946 H 0.0 **** 0.0
3 H 55.299 86.219 19.451 H 0.0 **** 0.0
4 H 54.804 87.898 19.126 H 0.0 **** 0.0
5 H 56.504 87.528 19.503 H 0.0 **** 0.0
@<TRIPOS>BOND
1 1 2 1
2 1 3 1
3 1 4 1
4 1 5 1
@<TRIPOS>MOLECULE
CH4
5 4
SMALL
USER_CHARGES


@<TRIPOS>ATOM
1 C 58.37 15.469 69.24 C 0.0 **** 0.0
2 H 58.184 15.162 70.269 H 0.0 **** 0.0
3 H 57.429 15.486 68.691 H 0.0 **** 0.0
4 H 59.053 14.762 68.768 H 0.0 **** 0.0
5 H 58.814 16.464 69.232 H 0.0 **** 0.0
@<TRIPOS>BOND
1 1 2 1
2 1 3 1
3 1 4 1
4 1 5 1
@<TRIPOS>MOLECULE
CH4
5 4
SMALL
USER_CHARGES


@<TRIPOS>ATOM
1 C 35.419 35.234 93.712 C 0.0 **** 0.0
2 H 35.298 35.076 94.784 H 0.0 **** 0.0
3 H 34.672 34.651 93.173 H 0.0 **** 0.0
4 H 36.417 34.918 93.409 H 0.0 **** 0.0
5 H 35.288 36.292 93.485 H 0.0 **** 0.0
@<TRIPOS>BOND
1 1 2 1
2 1 3 1
3 1 4 1
4 1 5 1
@<TRIPOS>MOLECULE
CH4
5 4
SMALL
USER_CHARGES


@<TRIPOS>ATOM
1 C 33.184 34.727 30.479 C 0.0 **** 0.0
2 H 33.631 34.448 29.525 H 0.0 **** 0.0
3 H 33.625 34.127 31.275 H 0.0 **** 0.0
4 H 32.109 34.549 30.443 H 0.0 **** 0.0
5 H 33.371 35.783 30.674 H 0.0 **** 0.0
@<TRIPOS>BOND
1 1 2 1
2 1 3 1
3 1 4 1
4 1 5 1
@<TRIPOS>MOLECULE
CH4
5 4
SMALL
USER_CHARGES


@<TRIPOS>ATOM
1 C 86.929 75.548 83.228 C 0.0 **** 0.0
2 H 86.907 75.625 82.141 H 0.0 **** 0.0
3 H 87.591 76.314 83.633 H 0.0 **** 0.0
4 H 87.296 74.563 83.515 H 0.0 **** 0.0
5 H 85.923 75.691 83.623 H 0.0 **** 0.0
@<TRIPOS>BOND
1 1 2 1
2 1 3 1
3 1 4 1
4 1 5 1
@<TRIPOS>MOLECULE
CH4
5 4
SMALL
USER_CHARGES


@<TRIPOS>ATOM
1 C 84.237 48.955 7.598 C 0.0 **** 0.0
2 H 83.527 49.576 7.051 H 0.0 **** 0.0
3 H 83.849 47.939 7.672 H 0.0 **** 0.0
4 H 84.381 49.363 8.598 H 0.0 **** 0.0
5 H 85.191 48.943 7.07 H 0.0 **** 0.0
@<TRIPOS>BOND
1 1 2 1
2 1 3 1
3 1 4 1
4 1 5 1
@<TRIPOS>MOLECULE
CH4
5 4
SMALL
USER_CHARGES


@<TRIPOS>ATOM
1 C 43.534 71.28 19.481 C 0.0 **** 0.0
2 H 42.756 70.669 19.024 H 0.0 **** 0.0
3 H 44.465 70.715 19.517 H 0.0 **** 0.0
4 H 43.234 71.552 20.493 H 0.0 **** 0.0
5 H 43.679 72.184 18.89 H 0.0 **** 0.0
@<TRIPOS>BOND
1 1 5 1
2 1 2 1
3 1 3 1
4 1 4 1
@<TRIPOS>MOLECULE
CH4
5 4
SMALL
USER_CHARGES


@<TRIPOS>ATOM
1 C 57.531 23.02 32.206 C 0.0 **** 0.0
2 H 57.525 23.506 31.23 H 0.0 **** 0.0
3 H 58.339 22.288 32.241 H 0.0 **** 0.0
4 H 56.578 22.518 32.367 H 0.0 **** 0.0
5 H 57.684 23.769 32.983 H 0.0 **** 0.0
@<TRIPOS>BOND
1 1 3 1
2 1 4 1
3 1 5 1
4 1 2 1
@<TRIPOS>MOLECULE
CH4
5 4
SMALL
USER_CHARGES


@<TRIPOS>ATOM
1 C 72.179 45.875 11.279 C 0.0 **** 0.0
2 H 72.152 44.994 11.92 H 0.0 **** 0.0
3 H 71.237 46.417 11.366 H 0.0 **** 0.0
4 H 72.328 45.567 10.244 H 0.0 **** 0.0
5 H 73.001 46.522 11.587 H 0.0 **** 0.0
@<TRIPOS>BOND
1 1 2 1
2 1 3 1
3 1 4 1
4 1 5 1
@<TRIPOS>MOLECULE
CH4
5 4
SMALL
USER_CHARGES


@<TRIPOS>ATOM
1 C 0.695 97.983 85.957 C 0.0 **** 0.0
2 H 1.481 98.056 86.709 H 0.0 **** 0.0
3 H 0.002 97.187 86.232 H 0.0 **** 0.0
4 H 1.141 97.758 84.988 H 0.0 **** 0.0
5 H 0.158 98.93 85.899 H 0.0 **** 0.0
@<TRIPOS>BOND
1 1 2 1
2 1 3 1
3 1 4 1
4 1 5 1
@<TRIPOS>MOLECULE
CH4
5 4
SMALL
USER_CHARGES


@<TRIPOS>ATOM
1 C 74.005 86.067 56.546 C 0.0 **** 0.0
2 H 74.2 86.317 57.589 H 0.0 **** 0.0
3 H 73.09 85.479 56.479 H 0.0 **** 0.0
4 H 74.84 85.489 56.15 H 0.0 **** 0.0
5 H 73.892 86.984 55.968 H 0.0 **** 0.0
@<TRIPOS>BOND
1 1 2 1
2 1 3 1
3 1 4 1
4 1 5 1
@<TRIPOS>MOLECULE
CH4
5 4
SMALL
USER_CHARGES


@<TRIPOS>ATOM
1 C 21.614 23.023 10.129 C 0.0 **** 0.0
2 H 21.742 23.203 11.197 H 0.0 **** 0.0
3 H 22.569 22.724 9.695 H 0.0 **** 0.0
4 H 21.264 23.935 9.646 H 0.0 **** 0.0
5 H 20.883 22.229 9.98 H 0.0 **** 0.0
@<TRIPOS>BOND
1 1 2 1
2 1 3 1
3 1 4 1
4 1 5 1
@<TRIPOS>MOLECULE
CH4
5 4
SMALL
USER_CHARGES


@<TRIPOS>ATOM
1 C 53.347 12.389 77.685 C 0.0 **** 0.0
2 H 53.339 12.363 78.775 H 0.0 **** 0.0
3 H 52.47 12.931 77.329 H 0.0 **** 0.0
4 H 53.328 11.371 77.297 H 0.0 **** 0.0
5 H 54.25 12.892 77.341 H 0.0 **** 0.0
@<TRIPOS>BOND
1 1 2 1
2 1 3 1
3 1 4 1
4 1 5 1
@<TRIPOS>MOLECULE
CH4
5 4
SMALL
USER_CHARGES


@<TRIPOS>ATOM
1 C 0.662 36.027 10.187 C 0.0 **** 0.0
2 H 0.561 36.189 9.114 H 0.0 **** 0.0
3 H 0.169 35.095 10.462 H 0.0 **** 0.0
4 H 0.201 36.856 10.724 H 0.0 **** 0.0
5 H 1.719 35.97 10.447 H 0.0 **** 0.0
@<TRIPOS>BOND
1 1 2 1
2 1 3 1
3 1 4 1
4 1 5 1
@<TRIPOS>MOLECULE
CH4
5 4
SMALL
USER_CHARGES


@<TRIPOS>ATOM
1 C 44.386 89.944 40.462 C 0.0 **** 0.0
2 H 44.269 89.874 41.543 H 0.0 **** 0.0
3 H 43.916 90.86 40.103 H 0.0 **** 0.0
4 H 43.913 89.083 39.989 H 0.0 **** 0.0
5 H 45.447 89.958 40.212 H 0.0 **** 0.0
@<TRIPOS>BOND
1 1 2 1
2 1 3 1
3 1 4 1
4 1 5 1
@<TRIPOS>MOLECULE
CH4
5 4
SMALL
USER_CHARGES


@<TRIPOS>ATOM
1 C 41.887 51.464 61.948 C 0.0 **** 0.0
2 H 41.012 51.854 61.427 H 0.0 **** 0.0
3 H 41.565 50.807 62.756 H 0.0 **** 0.0
4 H 42.464 52.292 62.36 H 0.0 **** 0.0
5 H 42.506 50.903 61.247 H 0.0 **** 0.0
@<TRIPOS>BOND
1 1 2 1
2 1 3 1
3 1 4 1
4 1 5 1
@<TRIPOS>MOLECULE
CH4
5 4
SMALL
USER_CHARGES


@<TRIPOS>ATOM
1 C 77.821 54.412 74.215 C 0.0 **** 0.0
2 H 78.267 53.793 73.437 H 0.0 **** 0.0
3 H 76.801 54.079 74.404 H 0.0 **** 0.0
4 H 77.81 55.452 73.889 H 0.0 **** 0.0
5 H 78.408 54.324 75.129 H 0.0 **** 0.0
@<TRIPOS>BOND
1 1 2 1
2 1 3 1
3 1 4 1
4 1 5 1
@<TRIPOS>MOLECULE
CH4
5 4
SMALL
USER_CHARGES


@<TRIPOS>ATOM
1 C 17.102 84.697 83.4 C 0.0 **** 0.0
2 H 16.273 84.023 83.617 H 0.0 **** 0.0
3 H 17.284 84.715 82.325 H 0.0 **** 0.0
4 H 17.997 84.349 83.915 H 0.0 **** 0.0
5 H 16.853 85.701 83.743 H 0.0 **** 0.0
@<TRIPOS>BOND
1 1 2 1
2 1 3 1
3 1 4 1
4 1 5 1
@<TRIPOS>MOLECULE
CH4
5 4
SMALL
USER_CHARGES


@<TRIPOS>ATOM
1 C 20.059 30.411 74.469 C 0.0 **** 0.0
2 H 19.192 30.991 74.786 H 0.0 **** 0.0
3 H 20.285 29.656 75.222 H 0.0 **** 0.0
4 H 20.916 31.075 74.351 H 0.0 **** 0.0
5 H 19.843 29.924 73.518 H 0.0 **** 0.0
@<TRIPOS>BOND
1 1 2 1
2 1 3 1
3 1 4 1
4 1 5 1
@<TRIPOS>MOLECULE
CH4
5 4
SMALL
USER_CHARGES


@<TRIPOS>ATOM
1 C 52.115 23.978 22.566 C 0.0 **** 0.0
2 H 52.133 23.475 23.533 H 0.0 **** 0.0
3 H 51.115 23.905 22.138 H 0.0 **** 0.0
4 H 52.832 23.503 21.896 H 0.0 **** 0.0
5 H 52.379 25.027 22.697 H 0.0 **** 0.0
@<TRIPOS>BOND
1 1 2 1
2 1 3 1
3 1 4 1
4 1 5 1
@<TRIPOS>MOLECULE
CH4
5 4
SMALL
USER_CHARGES


@<TRIPOS>ATOM
1 C 11.706 95.675 7.793 C 0.0 **** 0.0
2 H 11.799 95.539 8.87 H 0.0 **** 0.0
3 H 12.014 94.762 7.283 H 0.0 **** 0.0
4 H 12.343 96.501 7.475 H 0.0 **** 0.0
5 H 10.669 95.899 7.544 H 0.0 **** 0.0
@<TRIPOS>BOND
1 1 2 1
2 1 3 1
3 1 4 1
4 1 5 1
@<TRIPOS>MOLECULE
CH4
5 4
SMALL
USER_CHARGES


@<TRIPOS>ATOM
1 C 76.442 35.154 31.326 C 0.0 **** 0.0
2 H 76.897 34.661 32.185 H 0.0 **** 0.0
3 H 75.398 35.378 31.547 H 0.0 **** 0.0
4 H 76.496 34.495 30.459 H 0.0 **** 0.0
5 H 76.976 36.08 31.113 H 0.0 **** 0.0
@<TRIPOS>BOND
1 1 2 1
2 1 3 1
3 1 4 1
4 1 5 1
@<TRIPOS>MOLECULE
CH4
5 4
SMALL
USER_CHARGES


@<TRIPOS>ATOM
1 C 87.179 97.241 20.736 C 0.0 **** 0.0
2 H 87.093 97.928 21.578 H 0.0 **** 0.0
3 H 86.621 97.636 19.887 H 0.0 **** 0.0
4 H 86.774 96.269 21.018 H 0.0 **** 0.0
5 H 88.229 97.133 20.462 H 0.0 **** 0.0
@<TRIPOS>BOND
1 1 2 1
2 1 3 1
3 1 4 1
4 1 5 1
@<TRIPOS>MOLECULE
CH4
5 4
SMALL
USER_CHARGES


@<TRIPOS>ATOM
1 C 67.443 47.704 58.725 C 0.0 **** 0.0
2 H 67.347 47.547 57.651 H 0.0 **** 0.0
3 H 66.479 48.007 59.135 H 0.0 **** 0.0
4 H 68.18 48.485 58.914 H 0.0 **** 0.0
5 H 67.765 46.778 59.201 H 0.0 **** 0.0
@<TRIPOS>BOND
1 1 2 1
2 1 3 1
3 1 4 1
4 1 5 1
@<TRIPOS>MOLECULE
CH4
5 4
SMALL
USER_CHARGES


@<TRIPOS>ATOM
1 C 54.954 32.999 34.413 C 0.0 **** 0.0
2 H 54.339 33.215 35.287 H 0.0 **** 0.0
3 H 54.87 31.941 34.163 H 0.0 **** 0.0
4 H 55.994 33.239 34.633 H 0.0 **** 0.0
5 H 54.612 33.6 33.571 H 0.0 **** 0.0
@<TRIPOS>BOND
1 1 2 1
2 1 3 1
3 1 4 1
4 1 5 1
@<TRIPOS>MOLECULE
CH4
5 4
SMALL
USER_CHARGES


@<TRIPOS>ATOM
1 C 72.816 41.985 19.984 C 0.0 **** 0.0
2 H 72.823 42.896 20.582 H 0.0 **** 0.0
3 H 72.816 42.245 18.925 H 0.0 **** 0.0
4 H 71.923 41.405 20.216 H 0.0 **** 0.0
5 H 73.703 41.394 20.213 H 0.0 **** 0.0
@<TRIPOS>BOND
1 1 2 1
2 1 3 1
3 1 4 1
4 1 5 1
@<TRIPOS>MOLECULE
CH4
5 4
SMALL
USER_CHARGES


@<TRIPOS>ATOM
1 C 71.782 58.84 13.938 C 0.0 **** 0.0
2 H 71.834 58.873 15.027 H 0.0 **** 0.0
3 H 71.47 57.845 13.62 H 0.0 **** 0.0
4 H 72.764 59.064 13.521 H 0.0 **** 0.0
5 H 71.061 59.578 13.587 H 0.0 **** 0.0
@<TRIPOS>BOND
1 1 2 1
2 1 3 1
3 1 4 1
4 1 5 1
@<TRIPOS>MOLECULE
CH4
5 4
SMALL
USER_CHARGES


@<TRIPOS>ATOM
1 C 54.062 31.499 0.776 C 0.0 **** 0.0
2 H 53.363 31.784 -0.011 H 0.0 **** 0.0
3 H 54.652 30.644 0.446 H 0.0 **** 0.0
4 H 53.506 31.231 1.675 H 0.0 **** 0.0
5 H 54.724 32.337 0.994 H 0.0 **** 0.0
@<TRIPOS>BOND
1 1 2 1
2 1 3 1
3 1 5 1
4 1 4 1
@<TRIPOS>MOLECULE
CH4
5 4
SMALL
USER_CHARGES


@<TRIPOS>ATOM
1 C 40.837 22.901 18.468 C 0.0 **** 0.0
2 H 39.911 22.762 17.91 H 0.0 **** 0.0
3 H 40.744 23.773 19.115 H 0.0 **** 0.0
4 H 41.661 23.053 17.771 H 0.0 **** 0.0
5 H 41.033 22.017 19.074 H 0.0 **** 0.0
@<TRIPOS>BOND
1 1 2 1
2 1 3 1
3 1 4 1
4 1 5 1
@<TRIPOS>MOLECULE
CH4
5 4
SMALL
USER_CHARGES


@<TRIPOS>ATOM
1 C 39.841 70.73 15.13 C 0.0 **** 0.0
2 H 40.6 70.224 14.532 H 0.0 **** 0.0
3 H 39.137 69.995 15.521 H 0.0 **** 0.0
4 H 39.308 71.448 14.507 H 0.0 **** 0.0
5 H 40.32 71.251 15.958 H 0.0 **** 0.0
@<TRIPOS>BOND
1 1 2 1
2 1 3 1
3 1 4 1
4 1 5 1
@<TRIPOS>MOLECULE
CH4
5 4
SMALL
USER_CHARGES


@<TRIPOS>ATOM
1 C 40.88 22.986 10.916 C 0.0 **** 0.0
2 H 41.535 22.227 10.488 H 0.0 **** 0.0
3 H 41.408 23.94 10.955 H 0.0 **** 0.0
4 H 40.589 22.689 11.923 H 0.0 **** 0.0
5 H 39.99 23.089 10.295 H 0.0 **** 0.0
@<TRIPOS>BOND
1 1 2 1
2 1 3 1
3 1 4 1
4 1 5 1
@<TRIPOS>MOLECULE
CH4
5 4
SMALL
USER_CHARGES


@<TRIPOS>ATOM
1 C 88.421 42.71 66.116 C 0.0 **** 0.0
2 H 88.237 43.02 67.145 H 0.0 **** 0.0
3 H 88.569 41.63 66.083 H 0.0 **** 0.0
4 H 89.312 43.211 65.74 H 0.0 **** 0.0
5 H 87.565 42.978 65.497 H 0.0 **** 0.0
@<TRIPOS>BOND
1 1 2 1
2 1 3 1
3 1 4 1
4 1 5 1
@<TRIPOS>MOLECULE
CH4
5 4
SMALL
USER_CHARGES


@<TRIPOS>ATOM
1 C 5.816 96.713 27.976 C 0.0 **** 0.0
2 H 5.741 97.052 29.009 H 0.0 **** 0.0
3 H 6.843 96.829 27.629 H 0.0 **** 0.0
4 H 5.151 97.307 27.35 H 0.0 **** 0.0
5 H 5.529 95.663 27.917 H 0.0 **** 0.0
@<TRIPOS>BOND
1 1 2 1
2 1 3 1
3 1 4 1
4 1 5 1
@<TRIPOS>MOLECULE
CH4
5 4
SMALL
USER_CHARGES


@<TRIPOS>ATOM
1 C 67.544 73.885 48.683 C 0.0 **** 0.0
2 H 67.211 74.703 48.045 H 0.0 **** 0.0
3 H 68.289 74.254 49.388 H 0.0 **** 0.0
4 H 67.983 73.1 48.067 H 0.0 **** 0.0
5 H 66.692 73.482 49.231 H 0.0 **** 0.0
@<TRIPOS>BOND
1 1 2 1
2 1 3 1
3 1 4 1
4 1 5 1
@<TRIPOS>MOLECULE
CH4
5 4
SMALL
USER_CHARGES


@<TRIPOS>ATOM
1 C 18.207 72.551 14.635 C 0.0 **** 0.0
2 H 17.379 72.093 14.094 H 0.0 **** 0.0
3 H 19.117 71.976 14.46 H 0.0 **** 0.0
4 H 17.982 72.56 15.702 H 0.0 **** 0.0
5 H 18.35 73.573 14.285 H 0.0 **** 0.0
@<TRIPOS>BOND
1 1 2 1
2 1 3 1
3 1 4 1
4 1 5 1
@<TRIPOS>MOLECULE
CH4
5 4
SMALL
USER_CHARGES


@<TRIPOS>ATOM
1 C 61.101 87.826 35.813 C 0.0 **** 0.0
2 H 61.778 88.536 36.287 H 0.0 **** 0.0
3 H 60.169 88.329 35.556 H 0.0 **** 0.0
4 H 60.895 87.006 36.501 H 0.0 **** 0.0
5 H 61.564 87.433 34.907 H 0.0 **** 0.0
@<TRIPOS>BOND
1 1 2 1
2 1 3 1
3 1 4 1
4 1 5 1
@<TRIPOS>MOLECULE
CH4
5 4
SMALL
USER_CHARGES


@<TRIPOS>ATOM
1 C 15.168 27.893 13.576 C 0.0 **** 0.0
2 H 15.063 28.8 12.981 H 0.0 **** 0.0
3 H 15.783 28.102 14.452 H 0.0 **** 0.0
4 H 15.643 27.117 12.975 H 0.0 **** 0.0
5 H 14.183 27.552 13.896 H 0.0 **** 0.0
@<TRIPOS>BOND
1 1 2 1
2 1 3 1
3 1 4 1
4 1 5 1
@<TRIPOS>MOLECULE
CH4
5 4
SMALL
USER_CHARGES


@<TRIPOS>ATOM
1 C 48.961 97.719 96.723 C 0.0 **** 0.0
2 H 48.899 97.695 97.811 H 0.0 **** 0.0
3 H 48.903 98.751 96.379 H 0.0 **** 0.0
4 H 48.135 97.147 96.3 H 0.0 **** 0.0
5 H 49.907 97.281 96.404 H 0.0 **** 0.0
@<TRIPOS>BOND
1 1 2 1
2 1 3 1
3 1 4 1
4 1 5 1
@<TRIPOS>MOLECULE
CH4
5 4
SMALL
USER_CHARGES


@<TRIPOS>ATOM
1 C 26.418 46.608 33.639 C 0.0 **** 0.0
2 H 25.552 47.269 33.645 H 0.0 **** 0.0
3 H 26.303 45.851 34.415 H 0.0 **** 0.0
4 H 27.32 47.19 33.83 H 0.0 **** 0.0
5 H 26.498 46.123 32.667 H 0.0 **** 0.0
@<TRIPOS>BOND
1 1 2 1
2 1 3 1
3 1 4 1
4 1 5 1
@<TRIPOS>MOLECULE
CH4
5 4
SMALL
USER_CHARGES


@<TRIPOS>ATOM
1 C 28.997 77.057 30.457 C 0.0 **** 0.0
2 H 28.595 77.556 31.339 H 0.0 **** 0.0
3 H 29.077 77.774 29.639 H 0.0 **** 0.0
4 H 28.332 76.244 30.165 H 0.0 **** 0.0
5 H 29.984 76.655 30.686 H 0.0 **** 0.0
@<TRIPOS>BOND
1 1 2 1
2 1 3 1
3 1 4 1
4 1 5 1
@<TRIPOS>MOLECULE
CH4
5 4
SMALL
USER_CHARGES


@<TRIPOS>ATOM
1 C 95.408 20.266 42.284 C 0.0 **** 0.0
2 H 96.323 20.657 41.839 H 0.0 **** 0.0
3 H 94.605 20.296 41.548 H 0.0 **** 0.0
4 H 95.135 20.874 43.146 H 0.0 **** 0.0
5 H 95.571 19.236 42.603 H 0.0 **** 0.0
@<TRIPOS>BOND
1 1 2 1
2 1 3 1
3 1 4 1
4 1 5 1
@<TRIPOS>MOLECULE
CH4
5 4
SMALL
USER_CHARGES


@<TRIPOS>ATOM
1 C 44.182 22.934 11.576 C 0.0 **** 0.0
2 H 43.909 22.957 10.521 H 0.0 **** 0.0
3 H 44.484 21.924 11.851 H 0.0 **** 0.0
4 H 43.325 23.235 12.179 H 0.0 **** 0.0
5 H 45.009 23.622 11.751 H 0.0 **** 0.0
@<TRIPOS>BOND
1 1 2 1
2 1 3 1
3 1 4 1
4 1 5 1
@<TRIPOS>MOLECULE
CH4
5 4
SMALL
USER_CHARGES


@<TRIPOS>ATOM
1 C 15.727 16.194 57.289 C 0.0 **** 0.0
2 H 15.666 16.149 56.201 H 0.0 **** 0.0
3 H 15.223 17.094 57.643 H 0.0 **** 0.0
4 H 16.773 16.219 57.593 H 0.0 **** 0.0
5 H 15.245 15.315 57.716 H 0.0 **** 0.0
@<TRIPOS>BOND
1 1 2 1
2 1 3 1
3 1 4 1
4 1 5 1
@<TRIPOS>MOLECULE
CH4
5 4
SMALL
USER_CHARGES


@<TRIPOS>ATOM
1 C 32.385 42.075 41.421 C 0.0 **** 0.0
2 H 32.526 41.869 40.36 H 0.0 **** 0.0
3 H 33.069 42.866 41.731 H 0.0 **** 0.0
4 H 32.589 41.172 41.997 H 0.0 **** 0.0
5 H 31.358 42.393 41.596 H 0.0 **** 0.0
@<TRIPOS>BOND
1 1 2 1
2 1 3 1
3 1 4 1
4 1 5 1
@<TRIPOS>MOLECULE
CH4
5 4
SMALL
USER_CHARGES


@<TRIPOS>ATOM
1 C 9.151 62.112 74.651 C 0.0 **** 0.0
2 H 9.238 61.034 74.786 H 0.0 **** 0.0
3 H 9.096 62.597 75.626 H 0.0 **** 0.0
4 H 8.248 62.334 74.082 H 0.0 **** 0.0
5 H 10.022 62.481 74.109 H 0.0 **** 0.0
@<TRIPOS>BOND
1 1 2 1
2 1 3 1
3 1 4 1
4 1 5 1
@<TRIPOS>MOLECULE
CH4
5 4
SMALL
USER_CHARGES


@<TRIPOS>ATOM
1 C 33.741 94.056 61.14 C 0.0 **** 0.0
2 H 33.357 93.829 62.135 H 0.0 **** 0.0
3 H 34.384 93.242 60.804 H 0.0 **** 0.0
4 H 34.314 94.982 61.174 H 0.0 **** 0.0
5 H 32.907 94.17 60.447 H 0.0 **** 0.0
@<TRIPOS>BOND
1 1 2 1
2 1 3 1
3 1 4 1
4 1 5 1
@<TRIPOS>MOLECULE
CH4
5 4
SMALL
USER_CHARGES


@<TRIPOS>ATOM
1 C 26.767 57.178 43.265 C 0.0 **** 0.0
2 H 27.105 56.799 42.3 H 0.0 **** 0.0
3 H 26.033 56.491 43.688 H 0.0 **** 0.0
4 H 26.311 58.159 43.13 H 0.0 **** 0.0
5 H 27.618 57.263 43.94 H 0.0 **** 0.0
@<TRIPOS>BOND
1 1 2 1
2 1 3 1
3 1 4 1
4 1 5 1
@<TRIPOS>MOLECULE
CH4
5 4
SMALL
USER_CHARGES


@<TRIPOS>ATOM
1 C 7.586 19.734 19.821 C 0.0 **** 0.0
2 H 6.989 20.438 19.241 H 0.0 **** 0.0
3 H 6.939 18.954 20.222 H 0.0 **** 0.0
4 H 8.072 20.261 20.642 H 0.0 **** 0.0
5 H 8.343 19.285 19.178 H 0.0 **** 0.0
@<TRIPOS>BOND
1 1 2 1
2 1 3 1
3 1 4 1
4 1 5 1
@<TRIPOS>MOLECULE
CH4
5 4
SMALL
USER_CHARGES


@<TRIPOS>ATOM
1 C 94.289 44.126 8.554 C 0.0 **** 0.0
2 H 94.906 44.614 7.8 H 0.0 **** 0.0
3 H 93.6 43.435 8.067 H 0.0 **** 0.0
4 H 93.721 44.879 9.101 H 0.0 **** 0.0
5 H 94.927 43.577 9.246 H 0.0 **** 0.0
@<TRIPOS>BOND
1 1 2 1
2 1 3 1
3 1 4 1
4 1 5 1
@<TRIPOS>MOLECULE
CH4
5 4
SMALL
USER_CHARGES


@<TRIPOS>ATOM
1 C 94.893 79.502 38.132 C 0.0 **** 0.0
2 H 94.881 79.591 39.218 H 0.0 **** 0.0
3 H 94.181 78.736 37.823 H 0.0 **** 0.0
4 H 95.894 79.223 37.802 H 0.0 **** 0.0
5 H 94.616 80.457 37.686 H 0.0 **** 0.0
@<TRIPOS>BOND
1 1 2 1
2 1 3 1
3 1 4 1
4 1 5 1
@<TRIPOS>MOLECULE
CH4
5 4
SMALL
USER_CHARGES


@<TRIPOS>ATOM
1 C 74.177 70.343 50.379 C 0.0 **** 0.0
2 H 74.206 70.676 51.417 H 0.0 **** 0.0
3 H 73.275 70.726 49.901 H 0.0 **** 0.0
4 H 74.171 69.254 50.347 H 0.0 **** 0.0
5 H 75.054 70.718 49.852 H 0.0 **** 0.0
@<TRIPOS>BOND
1 1 2 1
2 1 3 1
3 1 4 1
4 1 5 1
@<TRIPOS>MOLECULE
CH4
5 4
SMALL
USER_CHARGES


@<TRIPOS>ATOM
1 C 21.319 39.471 87.169 C 0.0 **** 0.0
2 H 20.338 39.186 87.547 H 0.0 **** 0.0
3 H 21.222 40.352 86.534 H 0.0 **** 0.0
4 H 21.737 38.649 86.588 H 0.0 **** 0.0
5 H 21.98 39.697 88.006 H 0.0 **** 0.0
@<TRIPOS>BOND
1 1 2 1
2 1 3 1
3 1 4 1
4 1 5 1
@<TRIPOS>MOLECULE
CH4
5 4
SMALL
USER_CHARGES


@<TRIPOS>ATOM
1 C 83.642 8.376 21.638 C 0.0 **** 0.0
2 H 84.552 8.094 22.168 H 0.0 **** 0.0
3 H 83.553 9.463 21.623 H 0.0 **** 0.0
4 H 82.778 7.947 22.147 H 0.0 **** 0.0
5 H 83.685 8.0 20.616 H 0.0 **** 0.0
@<TRIPOS>BOND
1 1 2 1
2 1 3 1
3 1 4 1
4 1 5 1
@<TRIPOS>MOLECULE
CH4
5 4
SMALL
USER_CHARGES


@<TRIPOS>ATOM
1 C 94.961 20.442 1.911 C 0.0 **** 0.0
2 H 94.595 19.459 2.205 H 0.0 **** 0.0
3 H 95.936 20.617 2.365 H 0.0 **** 0.0
4 H 94.26 21.206 2.248 H 0.0 **** 0.0
5 H 95.052 20.486 0.825 H 0.0 **** 0.0
@<TRIPOS>BOND
1 1 2 1
2 1 3 1
3 1 4 1
4 1 5 1
@<TRIPOS>MOLECULE
CH4
5 4
SMALL
USER_CHARGES


@<TRIPOS>ATOM
1 C 28.614 14.39 26.292 C 0.0 **** 0.0
2 H 29.051 14.943 27.123 H 0.0 **** 0.0
3 H 27.936 13.629 26.679 H 0.0 **** 0.0
4 H 29.406 13.913 25.716 H 0.0 **** 0.0
5 H 28.061 15.076 25.65 H 0.0 **** 0.0
@<TRIPOS>BOND
1 1 2 1
2 1 3 1
3 1 4 1
4 1 5 1
@<TRIPOS>MOLECULE
CH4
5 4
SMALL
USER_CHARGES


@<TRIPOS>ATOM
1 C 44.93 0.944 56.369 C 0.0 **** 0.0
2 H 44.343 0.864 55.453 H 0.0 **** 0.0
3 H 45.442 -0.0 56.555 H 0.0 **** 0.0
4 H 44.268 1.17 57.205 H 0.0 **** 0.0
5 H 45.664 1.742 56.261 H 0.0 **** 0.0
@<TRIPOS>BOND
1 1 2 1
2 1 3 1
3 1 4 1
4 1 5 1
@<TRIPOS>MOLECULE
CH4
5 4
SMALL
USER_CHARGES


@<TRIPOS>ATOM
1 C 11.361 11.048 53.66 C 0.0 **** 0.0
2 H 12.132 11.589 53.111 H 0.0 **** 0.0
3 H 10.75 10.477 52.96 H 0.0 **** 0.0
4 H 10.732 11.757 54.197 H 0.0 **** 0.0
5 H 11.831 10.368 54.371 H 0.0 **** 0.0
@<TRIPOS>BOND
1 1 2 1
2 1 3 1
3 1 4 1
4 1 5 1
@<TRIPOS>MOLECULE
CH4
5 4
SMALL
USER_CHARGES


@<TRIPOS>ATOM
1 C 85.224 8.307 29.159 C 0.0 **** 0.0
2 H 85.081 8.792 30.124 H 0.0 **** 0.0
3 H 84.527 8.728 28.434 H 0.0 **** 0.0
4 H 85.041 7.237 29.26 H 0.0 **** 0.0
5 H 86.246 8.47 28.817 H 0.0 **** 0.0
@<TRIPOS>BOND
1 1 2 1
2 1 3 1
3 1 4 1
4 1 5 1
@<TRIPOS>MOLECULE
CH4
5 4
SMALL
USER_CHARGES


@<TRIPOS>ATOM
1 C 20.022 5.256 26.046 C 0.0 **** 0.0
2 H 19.801 5.471 27.091 H 0.0 **** 0.0
3 H 19.553 6.011 25.413 H 0.0 **** 0.0
4 H 19.631 4.272 25.787 H 0.0 **** 0.0
5 H 21.101 5.272 25.892 H 0.0 **** 0.0
@<TRIPOS>BOND
1 1 2 1
2 1 3 1
3 1 4 1
4 1 5 1
@<TRIPOS>MOLECULE
CH4
5 4
SMALL
USER_CHARGES


@<TRIPOS>ATOM
1 C 3.516 25.65 32.345 C 0.0 **** 0.0
2 H 3.862 25.65 31.312 H 0.0 **** 0.0
3 H 3.725 24.68 32.798 H 0.0 **** 0.0
4 H 2.442 25.838 32.368 H 0.0 **** 0.0
5 H 4.034 26.43 32.902 H 0.0 **** 0.0
@<TRIPOS>BOND
1 1 2 1
2 1 3 1
3 1 4 1
4 1 5 1
@<TRIPOS>MOLECULE
CH4
5 4
SMALL
USER_CHARGES


@<TRIPOS>ATOM
1 C 61.636 92.156 38.297 C 0.0 **** 0.0
2 H 62.282 91.5 38.88 H 0.0 **** 0.0
3 H 61.541 93.117 38.804 H 0.0 **** 0.0
4 H 60.652 91.7 38.195 H 0.0 **** 0.0
5 H 62.07 92.308 37.308 H 0.0 **** 0.0
@<TRIPOS>BOND
1 1 2 1
2 1 3 1
3 1 4 1
4 1 5 1
@<TRIPOS>MOLECULE
CH4
5 4
SMALL
USER_CHARGES


@<TRIPOS>ATOM
1 C 7.262 3.887 44.577 C 0.0 **** 0.0
2 H 6.393 3.93 43.921 H 0.0 **** 0.0
3 H 7.972 4.663 44.29 H 0.0 **** 0.0
4 H 7.736 2.91 44.487 H 0.0 **** 0.0
5 H 6.948 4.045 45.608 H 0.0 **** 0.0
@<TRIPOS>BOND
1 1 2 1
2 1 3 1
3 1 4 1
4 1 5 1
@<TRIPOS>MOLECULE
CH4
5 4
SMALL
USER_CHARGES


@<TRIPOS>ATOM
1 C 53.723 65.59 2.481 C 0.0 **** 0.0
2 H 52.983 65.111 1.841 H 0.0 **** 0.0
3 H 53.771 65.065 3.436 H 0.0 **** 0.0
4 H 53.439 66.628 2.651 H 0.0 **** 0.0
5 H 54.699 65.555 1.997 H 0.0 **** 0.0
@<TRIPOS>BOND
1 1 2 1
2 1 5 1
3 1 4 1
4 1 3 1
@<TRIPOS>MOLECULE
CH4
5 4
SMALL
USER_CHARGES


@<TRIPOS>ATOM
1 C 58.338 52.18 91.7 C 0.0 **** 0.0
2 H 58.769 51.953 90.725 H 0.0 **** 0.0
3 H 57.285 52.436 91.582 H 0.0 **** 0.0
4 H 58.869 53.022 92.145 H 0.0 **** 0.0
5 H 58.43 51.309 92.349 H 0.0 **** 0.0
@<TRIPOS>BOND
1 1 2 1
2 1 3 1
3 1 4 1
4 1 5 1
@<TRIPOS>MOLECULE
CH4
5 4
SMALL
USER_CHARGES


@<TRIPOS>ATOM
1 C 5.135 50.305 85.419 C 0.0 **** 0.0
2 H 5.38 51.038 84.651 H 0.0 **** 0.0
3 H 4.387 50.722 86.093 H 0.0 **** 0.0
4 H 6.034 50.055 85.983 H 0.0 **** 0.0
5 H 4.74 49.404 84.949 H 0.0 **** 0.0
@<TRIPOS>BOND
1 1 2 1
2 1 3 1
3 1 4 1
4 1 5 1
@<TRIPOS>MOLECULE
CH4
5 4
SMALL
USER_CHARGES


@<TRIPOS>ATOM
1 C 16.114 8.315 85.882 C 0.0 **** 0.0
2 H 15.851 7.3 85.583 H 0.0 **** 0.0
3 H 16.849 8.277 86.687 H 0.0 **** 0.0
4 H 15.222 8.835 86.228 H 0.0 **** 0.0
5 H 16.537 8.846 85.029 H 0.0 **** 0.0
@<TRIPOS>BOND
1 1 2 1
2 1 3 1
3 1 4 1
4 1 5 1
@<TRIPOS>MOLECULE
CH4
5 4
SMALL
USER_CHARGES


@<TRIPOS>ATOM
1 C 15.876 52.901 25.534 C 0.0 **** 0.0
2 H 15.987 53.264 24.513 H 0.0 **** 0.0
3 H 14.868 52.511 25.674 H 0.0 **** 0.0
4 H 16.049 53.721 26.232 H 0.0 **** 0.0
5 H 16.602 52.108 25.718 H 0.0 **** 0.0
@<TRIPOS>BOND
1 1 2 1
2 1 3 1
3 1 4 1
4 1 5 1
@<TRIPOS>MOLECULE
CH4
5 4
SMALL
USER_CHARGES


@<TRIPOS>ATOM
1 C 35.968 33.016 42.771 C 0.0 **** 0.0
2 H 35.128 32.484 43.217 H 0.0 **** 0.0
3 H 35.889 32.973 41.684 H 0.0 **** 0.0
4 H 36.902 32.55 43.086 H 0.0 **** 0.0
5 H 35.954 34.056 43.096 H 0.0 **** 0.0
@<TRIPOS>BOND
1 1 2 1
2 1 3 1
3 1 4 1
4 1 5 1
@<TRIPOS>MOLECULE
CH4
5 4
SMALL
USER_CHARGES


@<TRIPOS>ATOM
1 C 58.298 76.817 96.737 C 0.0 **** 0.0
2 H 59.251 77.232 96.411 H 0.0 **** 0.0
3 H 57.561 76.933 95.942 H 0.0 **** 0.0
4 H 57.958 77.344 97.628 H 0.0 **** 0.0
5 H 58.422 75.759 96.966 H 0.0 **** 0.0
@<TRIPOS>BOND
1 1 2 1
2 1 3 1
3 1 4 1
4 1 5 1
@<TRIPOS>MOLECULE
CH4
5 4
SMALL
USER_CHARGES


@<TRIPOS>ATOM
1 C 17.371 43.257 18.574 C 0.0 **** 0.0
2 H 17.648 43.182 17.523 H 0.0 **** 0.0
3 H 18.22 42.973 19.196 H 0.0 **** 0.0
4 H 16.533 42.59 18.777 H 0.0 **** 0.0
5 H 17.081 44.283 18.801 H 0.0 **** 0.0
@<TRIPOS>BOND
1 1 2 1
2 1 3 1
3 1 4 1
4 1 5 1
@<TRIPOS>MOLECULE
CH4
5 4
SMALL
USER_CHARGES


@<TRIPOS>ATOM
1 C 12.311 22.842 17.507 C 0.0 **** 0.0
2 H 12.229 22.749 16.424 H 0.0 **** 0.0
3 H 12.586 21.878 17.935 H 0.0 **** 0.0
4 H 11.353 23.162 17.917 H 0.0 **** 0.0
5 H 13.075 23.58 17.75 H 0.0 **** 0.0
@<TRIPOS>BOND
1 1 2 1
2 1 3 1
3 1 4 1
4 1 5 1
@<TRIPOS>MOLECULE
CH4
5 4
SMALL
USER_CHARGES


@<TRIPOS>ATOM
1 C 12.102 88.217 75.86 C 0.0 **** 0.0
2 H 11.391 88.311 75.039 H 0.0 **** 0.0
3 H 12.387 87.171 75.975 H 0.0 **** 0.0
4 H 11.642 88.572 76.782 H 0.0 **** 0.0
5 H 12.988 88.814 75.642 H 0.0 **** 0.0
@<TRIPOS>BOND
1 1 2 1
2 1 3 1
3 1 4 1
4 1 5 1
@<TRIPOS>MOLECULE
CH4
5 4
SMALL
USER_CHARGES


@<TRIPOS>ATOM
1 C 50.085 16.933 57.566 C 0.0 **** 0.0
2 H 49.641 16.016 57.954 H 0.0 **** 0.0
3 H 49.325 17.512 57.043 H 0.0 **** 0.0
4 H 50.89 16.682 56.875 H 0.0 **** 0.0
5 H 50.486 17.519 58.393 H 0.0 **** 0.0
@<TRIPOS>BOND
1 1 2 1
2 1 3 1
3 1 4 1
4 1 5 1
@<TRIPOS>MOLECULE
CH4
5 4
SMALL
USER_CHARGES


@<TRIPOS>ATOM
1 C 83.727 13.578 24.439 C 0.0 **** 0.0
2 H 84.077 13.527 23.408 H 0.0 **** 0.0
3 H 82.695 13.93 24.455 H 0.0 **** 0.0
4 H 84.355 14.268 25.003 H 0.0 **** 0.0
5 H 83.78 12.587 24.89 H 0.0 **** 0.0
@<TRIPOS>BOND
1 1 2 1
2 1 3 1
3 1 4 1
4 1 5 1
@<TRIPOS>MOLECULE
CH4
5 4
SMALL
USER_CHARGES


@<TRIPOS>ATOM
1 C 31.009 95.999 57.117 C 0.0 **** 0.0
2 H 31.264 96.933 57.617 H 0.0 **** 0.0
3 H 30.584 95.303 57.841 H 0.0 **** 0.0
4 H 31.907 95.564 56.678 H 0.0 **** 0.0
5 H 30.279 96.195 56.331 H 0.0 **** 0.0
@<TRIPOS>BOND
1 1 3 1
2 1 4 1
3 1 5 1
4 1 2 1
@<TRIPOS>MOLECULE
CH4
5 4
SMALL
USER_CHARGES


@<TRIPOS>ATOM
1 C 42.505 74.751 5.821 C 0.0 **** 0.0
2 H 42.612 75.134 4.806 H 0.0 **** 0.0
3 H 43.056 73.814 5.914 H 0.0 **** 0.0
4 H 41.451 74.576 6.034 H 0.0 **** 0.0
5 H 42.903 75.479 6.527 H 0.0 **** 0.0
@<TRIPOS>BOND
1 1 2 1
2 1 3 1
3 1 4 1
4 1 5 1
@<TRIPOS>MOLECULE
CH4
5 4
SMALL
USER_CHARGES


@<TRIPOS>ATOM
1 C 93.665 35.496 42.565 C 0.0 **** 0.0
2 H 93.918 36.285 43.273 H 0.0 **** 0.0
3 H 94.58 35.036 42.191 H 0.0 **** 0.0
4 H 93.105 35.921 41.732 H 0.0 **** 0.0
5 H 93.056 34.742 43.065 H 0.0 **** 0.0
@<TRIPOS>BOND
1 1 2 1
2 1 3 1
3 1 4 1
4 1 5 1
@<TRIPOS>MOLECULE
CH4
5 4
SMALL
USER_CHARGES


@<TRIPOS>ATOM
1 C 53.573 29.419 58.802 C 0.0 **** 0.0
2 H 53.637 30.068 57.929 H 0.0 **** 0.0
3 H 53.437 30.027 59.697 H 0.0 **** 0.0
4 H 54.492 28.839 58.892 H 0.0 **** 0.0
5 H 52.726 28.743 58.69 H 0.0 **** 0.0
@<TRIPOS>BOND
1 1 2 1
2 1 3 1
3 1 4 1
4 1 5 1
@<TRIPOS>MOLECULE
CH4
5 4
SMALL
USER_CHARGES


@<TRIPOS>ATOM
1 C 21.029 93.319 38.587 C 0.0 **** 0.0
2 H 20.475 94.172 38.195 H 0.0 **** 0.0
3 H 20.392 92.434 38.57 H 0.0 **** 0.0
4 H 21.337 93.526 39.612 H 0.0 **** 0.0
5 H 21.91 93.145 37.971 H 0.0 **** 0.0
@<TRIPOS>BOND
1 1 2 1
2 1 3 1
3 1 4 1
4 1 5 1
@<TRIPOS>MOLECULE
CH4
5 4
SMALL
USER_CHARGES


@<TRIPOS>ATOM
1 C 80.923 21.135 49.101 C 0.0 **** 0.0
2 H 81.935 20.915 48.762 H 0.0 **** 0.0
3 H 80.317 21.456 48.253 H 0.0 **** 0.0
4 H 80.954 21.928 49.847 H 0.0 **** 0.0
5 H 80.485 20.239 49.541 H 0.0 **** 0.0
@<TRIPOS>BOND
1 1 2 1
2 1 3 1
3 1 4 1
4 1 5 1
@<TRIPOS>MOLECULE
CH4
5 4
SMALL
USER_CHARGES


@<TRIPOS>ATOM
1 C 33.663 2.539 22.27 C 0.0 **** 0.0
2 H 32.595 2.34 22.354 H 0.0 **** 0.0
3 H 33.849 3.16 21.394 H 0.0 **** 0.0
4 H 34.201 1.596 22.168 H 0.0 **** 0.0
5 H 34.007 3.059 23.164 H 0.0 **** 0.0
@<TRIPOS>BOND
1 1 2 1
2 1 3 1
3 1 4 1
4 1 5 1
@<TRIPOS>MOLECULE
CH4
5 4
SMALL
USER_CHARGES


@<TRIPOS>ATOM
1 C 68.886 15.386 97.188 C 0.0 **** 0.0
2 H 69.292 15.476 96.181 H 0.0 **** 0.0
3 H 69.667 15.036 97.864 H 0.0 **** 0.0
4 H 68.062 14.673 97.185 H 0.0 **** 0.0
5 H 68.524 16.358 97.523 H 0.0 **** 0.0
@<TRIPOS>BOND
1 1 2 1
2 1 3 1
3 1 4 1
4 1 5 1
@<TRIPOS>MOLECULE
CH4
5 4
SMALL
USER_CHARGES


@<TRIPOS>ATOM
1 C 37.948 31.86 79.556 C 0.0 **** 0.0
2 H 38.92 31.368 79.515 H 0.0 **** 0.0
3 H 37.756 32.199 80.575 H 0.0 **** 0.0
4 H 37.172 31.156 79.254 H 0.0 **** 0.0
5 H 37.945 32.716 78.882 H 0.0 **** 0.0
@<TRIPOS>BOND
1 1 2 1
2 1 3 1
3 1 4 1
4 1 5 1
@<TRIPOS>MOLECULE
CH4
5 4
SMALL
USER_CHARGES


@<TRIPOS>ATOM
1 C 2.878 67.208 57.364 C 0.0 **** 0.0
2 H 2.829 67.236 56.275 H 0.0 **** 0.0
3 H 3.382 68.104 57.728 H 0.0 **** 0.0
4 H 3.434 66.325 57.68 H 0.0 **** 0.0
5 H 1.868 67.167 57.772 H 0.0 **** 0.0
@<TRIPOS>BOND
1 1 2 1
2 1 3 1
3 1 4 1
4 1 5 1
@<TRIPOS>MOLECULE
CH4
5 4
SMALL
USER_CHARGES


@<TRIPOS>ATOM
1 C 5.263 78.406 85.154 C 0.0 **** 0.0
2 H 5.731 77.619 85.746 H 0.0 **** 0.0
3 H 4.964 78.003 84.186 H 0.0 **** 0.0
4 H 5.973 79.219 85.005 H 0.0 **** 0.0
5 H 4.385 78.782 85.679 H 0.0 **** 0.0
@<TRIPOS>BOND
1 1 2 1
2 1 3 1
3 1 4 1
4 1 5 1
@<TRIPOS>MOLECULE
CH4
5 4
SMALL
USER_CHARGES


@<TRIPOS>ATOM
1 C 94.646 56.477 97.713 C 0.0 **** 0.0
2 H 94.895 55.589 97.133 H 0.0 **** 0.0
3 H 93.838 57.018 97.22 H 0.0 **** 0.0
4 H 95.523 57.121 97.786 H 0.0 **** 0.0
5 H 94.329 56.181 98.713 H 0.0 **** 0.0
@<TRIPOS>BOND
1 1 2 1
2 1 3 1
3 1 4 1
4 1 5 1
@<TRIPOS>MOLECULE
CH4
5 4
SMALL
USER_CHARGES


@<TRIPOS>ATOM
1 C 87.046 7.808 9.692 C 0.0 **** 0.0
2 H 86.257 7.205 10.141 H 0.0 **** 0.0
3 H 87.333 7.375 8.734 H 0.0 **** 0.0
4 H 87.91 7.828 10.356 H 0.0 **** 0.0
5 H 86.683 8.824 9.538 H 0.0 **** 0.0
@<TRIPOS>BOND
1 1 2 1
2 1 3 1
3 1 4 1
4 1 5 1
@<TRIPOS>MOLECULE
CH4
5 4
SMALL
USER_CHARGES


@<TRIPOS>ATOM
1 C 4.326 27.142 22.533 C 0.0 **** 0.0
2 H 3.612 26.502 23.052 H 0.0 **** 0.0
3 H 4.791 27.821 23.247 H 0.0 **** 0.0
4 H 3.807 27.718 21.767 H 0.0 **** 0.0
5 H 5.093 26.524 22.065 H 0.0 **** 0.0
@<TRIPOS>BOND
1 1 2 1
2 1 3 1
3 1 4 1
4 1 5 1
@<TRIPOS>MOLECULE
CH4
5 4
SMALL
USER_CHARGES


@<TRIPOS>ATOM
1 C 30.748 14.136 0.987 C 0.0 **** 0.0
2 H 31.115 13.571 0.13 H 0.0 **** 0.0
3 H 30.279 13.454 1.697 H 0.0 **** 0.0
4 H 30.018 14.872 0.652 H 0.0 **** 0.0
5 H 31.583 14.646 1.469 H 0.0 **** 0.0
@<TRIPOS>BOND
1 1 2 1
2 1 3 1
3 1 4 1
4 1 5 1
@<TRIPOS>MOLECULE
CH4
5 4
SMALL
USER_CHARGES


@<TRIPOS>ATOM
1 C 8.641 68.694 3.144 C 0.0 **** 0.0
2 H 8.375 68.852 4.189 H 0.0 **** 0.0
3 H 7.874 68.087 2.662 H 0.0 **** 0.0
4 H 9.601 68.182 3.086 H 0.0 **** 0.0
5 H 8.712 69.657 2.638 H 0.0 **** 0.0
@<TRIPOS>BOND
1 1 2 1
2 1 3 1
3 1 4 1
4 1 5 1
@<TRIPOS>MOLECULE
CH4
5 4
SMALL
USER_CHARGES


@<TRIPOS>ATOM
1 C 57.119 80.339 65.247 C 0.0 **** 0.0
2 H 56.947 80.465 64.179 H 0.0 **** 0.0
3 H 57.367 81.303 65.691 H 0.0 **** 0.0
4 H 57.945 79.644 65.402 H 0.0 **** 0.0
5 H 56.218 79.943 65.717 H 0.0 **** 0.0
@<TRIPOS>BOND
1 1 2 1
2 1 3 1
3 1 4 1
4 1 5 1
@<TRIPOS>MOLECULE
CH4
5 4
SMALL
USER_CHARGES


@<TRIPOS>ATOM
1 C 57.548 21.18 23.712 C 0.0 **** 0.0
2 H 57.849 20.991 24.742 H 0.0 **** 0.0
3 H 57.013 22.128 23.658 H 0.0 **** 0.0
4 H 56.898 20.375 23.37 H 0.0 **** 0.0
5 H 58.434 21.226 23.078 H 0.0 **** 0.0
@<TRIPOS>BOND
1 1 3 1
2 1 4 1
3 1 5 1
4 1 2 1
@<TRIPOS>MOLECULE
CH4
5 4
SMALL
USER_CHARGES


@<TRIPOS>ATOM
1 C 76.445 6.378 44.066 C 0.0 **** 0.0
2 H 76.674 6.044 43.054 H 0.0 **** 0.0
3 H 75.553 5.863 44.424 H 0.0 **** 0.0
4 H 76.268 7.453 44.062 H 0.0 **** 0.0
5 H 77.285 6.15 44.722 H 0.0 **** 0.0
@<TRIPOS>BOND
1 1 2 1
2 1 3 1
3 1 4 1
4 1 5 1
@<TRIPOS>MOLECULE
CH4
5 4
SMALL
USER_CHARGES


@<TRIPOS>ATOM
1 C 85.888 30.365 78.254 C 0.0 **** 0.0
2 H 84.98 30.801 78.671 H 0.0 **** 0.0
3 H 86.005 30.691 77.22 H 0.0 **** 0.0
4 H 85.816 29.278 78.287 H 0.0 **** 0.0
5 H 86.748 30.69 78.838 H 0.0 **** 0.0
@<TRIPOS>BOND
1 1 2 1
2 1 3 1
3 1 4 1
4 1 5 1
@<TRIPOS>MOLECULE
CH4
5 4
SMALL
USER_CHARGES


@<TRIPOS>ATOM
1 C 86.228 35.027 16.16 C 0.0 **** 0.0
2 H 85.252 35.113 16.638 H 0.0 **** 0.0
3 H 86.985 35.488 16.795 H 0.0 **** 0.0
4 H 86.205 35.532 15.195 H 0.0 **** 0.0
5 H 86.468 33.974 16.013 H 0.0 **** 0.0
@<TRIPOS>BOND
1 1 2 1
2 1 3 1
3 1 4 1
4 1 5 1
@<TRIPOS>MOLECULE
CH4
5 4
SMALL
USER_CHARGES


@<TRIPOS>ATOM
1 C 27.728 53.837 15.075 C 0.0 **** 0.0
2 H 27.708 53.909 16.163 H 0.0 **** 0.0
3 H 27.955 52.812 14.783 H 0.0 **** 0.0
4 H 28.494 54.506 14.681 H 0.0 **** 0.0
5 H 26.755 54.123 14.675 H 0.0 **** 0.0
@<TRIPOS>BOND
1 1 2 1
2 1 3 1
3 1 4 1
4 1 5 1
@<TRIPOS>MOLECULE
CH4
5 4
SMALL
USER_CHARGES


@<TRIPOS>ATOM
1 C 96.499 33.427 55.358 C 0.0 **** 0.0
2 H 96.031 32.784 56.103 H 0.0 **** 0.0
3 H 95.736 34.032 54.869 H 0.0 **** 0.0
4 H 97.008 32.812 54.616 H 0.0 **** 0.0
5 H 97.223 34.081 55.847 H 0.0 **** 0.0
@<TRIPOS>BOND
1 1 2 1
2 1 3 1
3 1 4 1
4 1 5 1
@<TRIPOS>MOLECULE
CH4
5 4
SMALL
USER_CHARGES


@<TRIPOS>ATOM
1 C 45.647 40.827 70.014 C 0.0 **** 0.0
2 H 44.8 41.451 70.299 H 0.0 **** 0.0
3 H 45.503 39.819 70.402 H 0.0 **** 0.0
4 H 46.564 41.249 70.426 H 0.0 **** 0.0
5 H 45.721 40.791 68.927 H 0.0 **** 0.0
@<TRIPOS>BOND
1 1 2 1
2 1 3 1
3 1 4 1
4 1 5 1
@<TRIPOS>MOLECULE
CH4
5 4
SMALL
USER_CHARGES


@<TRIPOS>ATOM
1 C 42.974 46.197 46.955 C 0.0 **** 0.0
2 H 44.034 45.969 47.062 H 0.0 **** 0.0
3 H 42.858 47.177 46.492 H 0.0 **** 0.0
4 H 42.503 46.202 47.938 H 0.0 **** 0.0
5 H 42.501 45.44 46.329 H 0.0 **** 0.0
@<TRIPOS>BOND
1 1 2 1
2 1 3 1
3 1 4 1
4 1 5 1
@<TRIPOS>MOLECULE
CH4
5 4
SMALL
USER_CHARGES


@<TRIPOS>ATOM
1 C 13.293 40.969 46.688 C 0.0 **** 0.0
2 H 14.315 40.594 46.75 H 0.0 **** 0.0
3 H 13.222 41.697 45.88 H 0.0 **** 0.0
4 H 13.024 41.444 47.632 H 0.0 **** 0.0
5 H 12.613 40.14 46.492 H 0.0 **** 0.0
@<TRIPOS>BOND
1 1 2 1
2 1 3 1
3 1 4 1
4 1 5 1
@<TRIPOS>MOLECULE
CH4
5 4
SMALL
USER_CHARGES


@<TRIPOS>ATOM
1 C 13.63 9.85 49.216 C 0.0 **** 0.0
2 H 12.718 9.952 48.627 H 0.0 **** 0.0
3 H 13.732 10.709 49.879 H 0.0 **** 0.0
4 H 14.49 9.802 48.548 H 0.0 **** 0.0
5 H 13.579 8.937 49.809 H 0.0 **** 0.0
@<TRIPOS>BOND
1 1 2 1
2 1 3 1
3 1 4 1
4 1 5 1
@<TRIPOS>MOLECULE
CH4
5 4
SMALL
USER_CHARGES


@<TRIPOS>ATOM
1 C 65.009 52.681 24.445 C 0.0 **** 0.0
2 H 64.285 53.47 24.647 H 0.0 **** 0.0
3 H 65.957 52.926 24.924 H 0.0 **** 0.0
4 H 65.157 52.59 23.369 H 0.0 **** 0.0
5 H 64.635 51.736 24.841 H 0.0 **** 0.0
@<TRIPOS>BOND
1 1 2 1
2 1 3 1
3 1 4 1
4 1 5 1
@<TRIPOS>MOLECULE
CH4
5 4
SMALL
USER_CHARGES


@<TRIPOS>ATOM
1 C 74.192 54.711 31.286 C 0.0 **** 0.0
2 H 74.625 54.858 32.276 H 0.0 **** 0.0
3 H 74.019 53.648 31.119 H 0.0 **** 0.0
4 H 74.879 55.091 30.53 H 0.0 **** 0.0
5 H 73.246 55.248 31.22 H 0.0 **** 0.0
@<TRIPOS>BOND
1 1 2 1
2 1 3 1
3 1 4 1
4 1 5 1
@<TRIPOS>MOLECULE
CH4
5 4
SMALL
USER_CHARGES


@<TRIPOS>ATOM
1 C 10.276 72.899 66.942 C 0.0 **** 0.0
2 H 10.499 73.12 67.986 H 0.0 **** 0.0
3 H 10.888 72.06 66.61 H 0.0 **** 0.0
4 H 10.498 73.774 66.331 H 0.0 **** 0.0
5 H 9.222 72.644 66.841 H 0.0 **** 0.0
@<TRIPOS>BOND
1 1 2 1
2 1 3 1
3 1 4 1
4 1 5 1
@<TRIPOS>MOLECULE
CH4
5 4
SMALL
USER_CHARGES


@<TRIPOS>ATOM
1 C 43.96 58.651 96.827 C 0.0 **** 0.0
2 H 44.077 58.831 95.758 H 0.0 **** 0.0
3 H 43.911 59.605 97.352 H 0.0 **** 0.0
4 H 44.812 58.078 97.193 H 0.0 **** 0.0
5 H 43.042 58.091 97.003 H 0.0 **** 0.0
@<TRIPOS>BOND
1 1 2 1
2 1 3 1
3 1 4 1
4 1 5 1
@<TRIPOS>MOLECULE
CH4
5 4
SMALL
USER_CHARGES


@<TRIPOS>ATOM
1 C 55.97 52.908 93.786 C 0.0 **** 0.0
2 H 55.502 52.483 92.898 H 0.0 **** 0.0
3 H 56.747 52.232 94.145 H 0.0 **** 0.0
4 H 55.218 53.044 94.563 H 0.0 **** 0.0
5 H 56.414 53.872 93.536 H 0.0 **** 0.0
@<TRIPOS>BOND
1 1 2 1
2 1 3 1
3 1 4 1
4 1 5 1
@<TRIPOS>MOLECULE
CH4
5 4
SMALL
USER_CHARGES


@<TRIPOS>ATOM
1 C 24.85 11.751 57.839 C 0.0 **** 0.0
2 H 24.552 11.882 56.799 H 0.0 **** 0.0
3 H 25.597 12.501 58.1 H 0.0 **** 0.0
4 H 25.273 10.755 57.973 H 0.0 **** 0.0
5 H 23.979 11.866 58.484 H 0.0 **** 0.0
@<TRIPOS>BOND
1 1 2 1
2 1 3 1
3 1 4 1
4 1 5 1
@<TRIPOS>MOLECULE
CH4
5 4
SMALL
USER_CHARGES


@<TRIPOS>ATOM
1 C 58.201 36.884 74.852 C 0.0 **** 0.0
2 H 58.457 37.449 73.955 H 0.0 **** 0.0
3 H 57.123 36.726 74.886 H 0.0 **** 0.0
4 H 58.515 37.442 75.734 H 0.0 **** 0.0
5 H 58.709 35.92 74.831 H 0.0 **** 0.0
@<TRIPOS>BOND
1 1 2 1
2 1 3 1
3 1 4 1
4 1 5 1
@<TRIPOS>MOLECULE
CH4
5 4
SMALL
USER_CHARGES


@<TRIPOS>ATOM
1 C 5.259 44.623 64.616 C 0.0 **** 0.0
2 H 4.178 44.592 64.485 H 0.0 **** 0.0
3 H 5.618 43.637 64.911 H 0.0 **** 0.0
4 H 5.509 45.348 65.391 H 0.0 **** 0.0
5 H 5.731 44.916 63.678 H 0.0 **** 0.0
@<TRIPOS>BOND
1 1 2 1
2 1 3 1
3 1 4 1
4 1 5 1
@<TRIPOS>MOLECULE
CH4
5 4
SMALL
USER_CHARGES


@<TRIPOS>ATOM
1 C 71.904 70.789 76.287 C 0.0 **** 0.0
2 H 72.426 70.537 75.363 H 0.0 **** 0.0
3 H 72.473 71.544 76.83 H 0.0 **** 0.0
4 H 71.806 69.895 76.903 H 0.0 **** 0.0
5 H 70.914 71.178 76.05 H 0.0 **** 0.0
@<TRIPOS>BOND
1 1 2 1
2 1 3 1
3 1 4 1
4 1 5 1
@<TRIPOS>MOLECULE
CH4
5 4
SMALL
USER_CHARGES


@<TRIPOS>ATOM
1 C 87.361 42.848 6.18 C 0.0 **** 0.0
2 H 88.297 42.825 6.737 H 0.0 **** 0.0
3 H 87.33 42.008 5.486 H 0.0 **** 0.0
4 H 87.292 43.783 5.623 H 0.0 **** 0.0
5 H 86.524 42.777 6.875 H 0.0 **** 0.0
@<TRIPOS>BOND
1 1 2 1
2 1 3 1
3 1 4 1
4 1 5 1
@<TRIPOS>MOLECULE
CH4
5 4
SMALL
USER_CHARGES


@<TRIPOS>ATOM
1 C 23.232 8.56 24.518 C 0.0 **** 0.0
2 H 23.289 8.002 25.453 H 0.0 **** 0.0
3 H 23.797 8.035 23.748 H 0.0 **** 0.0
4 H 23.654 9.555 24.663 H 0.0 **** 0.0
5 H 22.191 8.648 24.21 H 0.0 **** 0.0
@<TRIPOS>BOND
1 1 2 1
2 1 3 1
3 1 4 1
4 1 5 1
@<TRIPOS>MOLECULE
CH4
5 4
SMALL
USER_CHARGES


@<TRIPOS>ATOM
1 C 50.274 52.9 43.963 C 0.0 **** 0.0
2 H 50.571 53.403 43.043 H 0.0 **** 0.0
3 H 50.409 53.576 44.807 H 0.0 **** 0.0
4 H 50.891 52.012 44.106 H 0.0 **** 0.0
5 H 49.227 52.607 43.895 H 0.0 **** 0.0
@<TRIPOS>BOND
1 1 2 1
2 1 3 1
3 1 4 1
4 1 5 1
@<TRIPOS>MOLECULE
CH4
5 4
SMALL
USER_CHARGES


@<TRIPOS>ATOM
1 C 47.751 18.72 86.898 C 0.0 **** 0.0
2 H 47.64 18.77 87.981 H 0.0 **** 0.0
3 H 46.792 18.462 86.447 H 0.0 **** 0.0
4 H 48.489 17.96 86.643 H 0.0 **** 0.0
5 H 48.081 19.688 86.522 H 0.0 **** 0.0
@<TRIPOS>BOND
1 1 2 1
2 1 3 1
3 1 4 1
4 1 5 1
@<TRIPOS>MOLECULE
CH4
5 4
SMALL
USER_CHARGES


@<TRIPOS>ATOM
1 C 13.183 55.252 7.323 C 0.0 **** 0.0
2 H 13.231 54.251 7.752 H 0.0 **** 0.0
3 H 12.159 55.466 7.015 H 0.0 **** 0.0
4 H 13.842 55.308 6.457 H 0.0 **** 0.0
5 H 13.499 55.982 8.068 H 0.0 **** 0.0
@<TRIPOS>BOND
1 1 2 1
2 1 3 1
3 1 4 1
4 1 5 1
@<TRIPOS>MOLECULE
CH4
5 4
SMALL
USER_CHARGES


@<TRIPOS>ATOM
1 C 42.258 38.493 16.152 C 0.0 **** 0.0
2 H 42.375 37.724 15.389 H 0.0 **** 0.0
3 H 41.231 38.491 16.516 H 0.0 **** 0.0
4 H 42.49 39.468 15.723 H 0.0 **** 0.0
5 H 42.938 38.289 16.979 H 0.0 **** 0.0
@<TRIPOS>BOND
1 1 2 1
2 1 3 1
3 1 4 1
4 1 5 1
@<TRIPOS>MOLECULE
CH4
5 4
SMALL
USER_CHARGES


@<TRIPOS>ATOM
1 C 64.388 50.719 83.524 C 0.0 **** 0.0
2 H 64.477 50.689 84.609 H 0.0 **** 0.0
3 H 64.865 49.837 83.095 H 0.0 **** 0.0
4 H 64.874 51.617 83.144 H 0.0 **** 0.0
5 H 63.333 50.732 83.247 H 0.0 **** 0.0
@<TRIPOS>BOND
1 1 2 1
2 1 3 1
3 1 4 1
4 1 5 1
@<TRIPOS>MOLECULE
CH4
5 4
SMALL
USER_CHARGES


@<TRIPOS>ATOM
1 C 28.711 26.05 88.734 C 0.0 **** 0.0
2 H 29.394 26.648 89.338 H 0.0 **** 0.0
3 H 28.897 26.243 87.677 H 0.0 **** 0.0
4 H 27.683 26.316 88.977 H 0.0 **** 0.0
5 H 28.873 24.992 88.945 H 0.0 **** 0.0
@<TRIPOS>BOND
1 1 2 1
2 1 3 1
3 1 4 1
4 1 5 1
@<TRIPOS>MOLECULE
CH4
5 4
SMALL
USER_CHARGES


@<TRIPOS>ATOM
1 C 94.778 71.24 44.094 C 0.0 **** 0.0
2 H 93.731 70.965 44.216 H 0.0 **** 0.0
3 H 95.028 71.255 43.033 H 0.0 **** 0.0
4 H 95.408 70.512 44.606 H 0.0 **** 0.0
5 H 94.946 72.229 44.52 H 0.0 **** 0.0
@<TRIPOS>BOND
1 1 2 1
2 1 3 1
3 1 4 1
4 1 5 1
@<TRIPOS>MOLECULE
CH4
5 4
SMALL
USER_CHARGES


@<TRIPOS>ATOM
1 C 37.498 17.662 81.651 C 0.0 **** 0.0
2 H 37.273 18.199 82.572 H 0.0 **** 0.0
3 H 36.712 17.852 80.919 H 0.0 **** 0.0
4 H 37.552 16.593 81.857 H 0.0 **** 0.0
5 H 38.454 18.005 81.255 H 0.0 **** 0.0
@<TRIPOS>BOND
1 1 2 1
2 1 3 1
3 1 4 1
4 1 5 1
@<TRIPOS>MOLECULE
CH4
5 4
SMALL
USER_CHARGES


@<TRIPOS>ATOM
1 C 24.408 51.598 1.226 C 0.0 **** 0.0
2 H 23.878 51.664 2.176 H 0.0 **** 0.0
3 H 25.127 50.779 1.268 H 0.0 **** 0.0
4 H 24.934 52.534 1.038 H 0.0 **** 0.0
5 H 23.694 51.414 0.424 H 0.0 **** 0.0
@<TRIPOS>BOND
1 1 3 1
2 1 4 1
3 1 5 1
4 1 2 1
@<TRIPOS>MOLECULE
CH4
5 4
SMALL
USER_CHARGES


@<TRIPOS>ATOM
1 C 33.242 54.992 29.618 C 0.0 **** 0.0
2 H 32.557 54.686 30.408 H 0.0 **** 0.0
3 H 33.875 55.802 29.982 H 0.0 **** 0.0
4 H 32.672 55.336 28.755 H 0.0 **** 0.0
5 H 33.865 54.146 29.329 H 0.0 **** 0.0
@<TRIPOS>BOND
1 1 2 1
2 1 3 1
3 1 4 1
4 1 5 1
@<TRIPOS>MOLECULE
CH4
5 4
SMALL
USER_CHARGES


@<TRIPOS>ATOM
1 C 1.483 72.134 94.879 C 0.0 **** 0.0
2 H 1.544 71.571 95.81 H 0.0 **** 0.0
3 H 2.431 72.057 94.345 H 0.0 **** 0.0
4 H 1.274 73.181 95.101 H 0.0 **** 0.0
5 H 0.683 71.727 94.26 H 0.0 **** 0.0
@<TRIPOS>BOND
1 1 2 1
2 1 3 1
3 1 4 1
4 1 5 1
@<TRIPOS>MOLECULE
CH4
5 4
SMALL
USER_CHARGES


@<TRIPOS>ATOM
1 C 82.707 25.768 34.364 C 0.0 **** 0.0
2 H 83.286 25.114 33.712 H 0.0 **** 0.0
3 H 82.628 25.317 35.353 H 0.0 **** 0.0
4 H 81.71 25.907 33.947 H 0.0 **** 0.0
5 H 83.205 26.734 34.444 H 0.0 **** 0.0
@<TRIPOS>BOND
1 1 2 1
2 1 3 1
3 1 4 1
4 1 5 1
@<TRIPOS>MOLECULE
CH4
5 4
SMALL
USER_CHARGES


@<TRIPOS>ATOM
1 C 13.529 13.259 40.644 C 0.0 **** 0.0
2 H 13.084 12.957 41.592 H 0.0 **** 0.0
3 H 12.866 13.964 40.141 H 0.0 **** 0.0
4 H 13.671 12.382 40.014 H 0.0 **** 0.0
5 H 14.492 13.734 40.829 H 0.0 **** 0.0
@<TRIPOS>BOND
1 1 3 1
2 1 4 1
3 1 5 1
4 1 2 1
@<TRIPOS>MOLECULE
CH4
5 4
SMALL
USER_CHARGES


@<TRIPOS>ATOM
1 C 8.048 23.614 35.003 C 0.0 **** 0.0
2 H 7.92 22.728 35.625 H 0.0 **** 0.0
3 H 9.101 23.897 34.984 H 0.0 **** 0.0
4 H 7.458 24.434 35.413 H 0.0 **** 0.0
5 H 7.711 23.397 33.989 H 0.0 **** 0.0
@<TRIPOS>BOND
1 1 2 1
2 1 3 1
3 1 4 1
4 1 5 1
@<TRIPOS>MOLECULE
CH4
5 4
SMALL
USER_CHARGES


@<TRIPOS>ATOM
1 C 22.186 12.597 80.582 C 0.0 **** 0.0
2 H 21.348 12.442 81.262 H 0.0 **** 0.0
3 H 22.933 13.227 81.065 H 0.0 **** 0.0
4 H 21.831 13.084 79.674 H 0.0 **** 0.0
5 H 22.63 11.634 80.328 H 0.0 **** 0.0
@<TRIPOS>BOND
1 1 2 1
2 1 3 1
3 1 4 1
4 1 5 1
@<TRIPOS>MOLECULE
CH4
5 4
SMALL
USER_CHARGES


@<TRIPOS>ATOM
1 C 56.541 56.867 53.373 C 0.0 **** 0.0
2 H 55.758 57.5 52.953 H 0.0 **** 0.0
3 H 56.541 56.961 54.459 H 0.0 **** 0.0
4 H 57.509 57.178 52.98 H 0.0 **** 0.0
5 H 56.354 55.829 53.097 H 0.0 **** 0.0
@<TRIPOS>BOND
1 1 2 1
2 1 3 1
3 1 4 1
4 1 5 1
@<TRIPOS>MOLECULE
CH4
5 4
SMALL
USER_CHARGES


@<TRIPOS>ATOM
1 C 73.898 8.977 25.956 C 0.0 **** 0.0
2 H 74.182 8.732 24.933 H 0.0 **** 0.0
3 H 73.668 8.06 26.499 H 0.0 **** 0.0
4 H 73.02 9.623 25.944 H 0.0 **** 0.0
5 H 74.722 9.493 26.448 H 0.0 **** 0.0
@<TRIPOS>BOND
1 1 2 1
2 1 3 1
3 1 4 1
4 1 5 1
@<TRIPOS>MOLECULE
CH4
5 4
SMALL
USER_CHARGES


@<TRIPOS>ATOM
1 C 64.401 11.996 7.555 C 0.0 **** 0.0
2 H 63.4 12.036 7.127 H 0.0 **** 0.0
3 H 65.104 12.487 6.881 H 0.0 **** 0.0
4 H 64.696 10.955 7.692 H 0.0 **** 0.0
5 H 64.405 12.504 8.519 H 0.0 **** 0.0
@<TRIPOS>BOND
1 1 2 1
2 1 3 1
3 1 4 1
4 1 5 1
@<TRIPOS>MOLECULE
CH4
5 4
SMALL
USER_CHARGES


@<TRIPOS>ATOM
1 C 75.86 80.499 73.731 C 0.0 **** 0.0
2 H 76.352 80.945 72.867 H 0.0 **** 0.0
3 H 75.093 79.803 73.393 H 0.0 **** 0.0
4 H 75.4 81.284 74.332 H 0.0 **** 0.0
5 H 76.596 79.965 74.332 H 0.0 **** 0.0
@<TRIPOS>BOND
1 1 2 1
2 1 3 1
3 1 4 1
4 1 5 1
@<TRIPOS>MOLECULE
CH4
5 4
SMALL
USER_CHARGES


@<TRIPOS>ATOM
1 C 5.207 32.569 29.188 C 0.0 **** 0.0
2 H 6.196 32.233 29.499 H 0.0 **** 0.0
3 H 4.458 31.851 29.523 H 0.0 **** 0.0
4 H 5.176 32.647 28.101 H 0.0 **** 0.0
5 H 5.0 33.544 29.628 H 0.0 **** 0.0
@<TRIPOS>BOND
1 1 2 1
2 1 3 1
3 1 4 1
4 1 5 1
@<TRIPOS>MOLECULE
CH4
5 4
SMALL
USER_CHARGES


@<TRIPOS>ATOM
1 C 25.886 36.0 89.293 C 0.0 **** 0.0
2 H 25.554 34.967 89.191 H 0.0 **** 0.0
3 H 25.79 36.311 90.333 H 0.0 **** 0.0
4 H 25.271 36.643 88.663 H 0.0 **** 0.0
5 H 26.929 36.078 88.984 H 0.0 **** 0.0
@<TRIPOS>BOND
1 1 2 1
2 1 3 1
3 1 4 1
4 1 5 1
@<TRIPOS>MOLECULE
CH4
5 4
SMALL
USER_CHARGES


@<TRIPOS>ATOM
1 C 57.355 38.855 32.777 C 0.0 **** 0.0
2 H 57.032 37.815 32.832 H 0.0 **** 0.0
3 H 56.601 39.443 32.254 H 0.0 **** 0.0
4 H 58.3 38.913 32.238 H 0.0 **** 0.0
5 H 57.487 39.247 33.786 H 0.0 **** 0.0
@<TRIPOS>BOND
1 1 2 1
2 1 3 1
3 1 4 1
4 1 5 1
@<TRIPOS>MOLECULE
CH4
5 4
SMALL
USER_CHARGES


@<TRIPOS>ATOM
1 C 21.47 63.818 14.896 C 0.0 **** 0.0
2 H 21.583 63.984 13.825 H 0.0 **** 0.0
3 H 20.424 63.608 15.122 H 0.0 **** 0.0
4 H 21.788 64.708 15.438 H 0.0 **** 0.0
5 H 22.085 62.97 15.198 H 0.0 **** 0.0
@<TRIPOS>BOND
1 1 2 1
2 1 3 1
3 1 4 1
4 1 5 1
@<TRIPOS>MOLECULE
CH4
5 4
SMALL
USER_CHARGES


@<TRIPOS>ATOM
1 C 0.822 20.243 86.499 C 0.0 **** 0.0
2 H 0.425 20.885 87.286 H 0.0 **** 0.0
3 H 1.519 19.526 86.933 H 0.0 **** 0.0
4 H 1.34 20.853 85.76 H 0.0 **** 0.0
5 H 0.002 19.709 86.019 H 0.0 **** 0.0
@<TRIPOS>BOND
1 1 2 1
2 1 3 1
3 1 4 1
4 1 5 1
@<TRIPOS>MOLECULE
CH4
5 4
SMALL
USER_CHARGES


@<TRIPOS>ATOM
1 C 18.976 37.11 75.635 C 0.0 **** 0.0
2 H 18.975 37.103 76.725 H 0.0 **** 0.0
3 H 18.449 37.995 75.277 H 0.0 **** 0.0
4 H 18.476 36.214 75.266 H 0.0 **** 0.0
5 H 20.004 37.128 75.273 H 0.0 **** 0.0
@<TRIPOS>BOND
1 1 2 1
2 1 3 1
3 1 4 1
4 1 5 1
@<TRIPOS>MOLECULE
CH4
5 4
SMALL
USER_CHARGES


@<TRIPOS>ATOM
1 C 93.149 8.906 38.53 C 0.0 **** 0.0
2 H 92.365 8.297 38.982 H 0.0 **** 0.0
3 H 92.699 9.764 38.029 H 0.0 **** 0.0
4 H 93.7 8.309 37.805 H 0.0 **** 0.0
5 H 93.83 9.255 39.307 H 0.0 **** 0.0
@<TRIPOS>BOND
1 1 2 1
2 1 3 1
3 1 4 1
4 1 5 1
@<TRIPOS>MOLECULE
CH4
5 4
SMALL
USER_CHARGES


@<TRIPOS>ATOM
1 C 54.763 38.36 74.948 C 0.0 **** 0.0
2 H 54.944 38.534 73.887 H 0.0 **** 0.0
3 H 54.098 39.132 75.335 H 0.0 **** 0.0
4 H 55.71 38.391 75.487 H 0.0 **** 0.0
5 H 54.301 37.381 75.081 H 0.0 **** 0.0
@<TRIPOS>BOND
1 1 2 1
2 1 3 1
3 1 4 1
4 1 5 1
@<TRIPOS>MOLECULE
CH4
5 4
SMALL
USER_CHARGES


@<TRIPOS>ATOM
1 C 44.025 32.574 39.152 C 0.0 **** 0.0
2 H 43.892 32.513 38.072 H 0.0 **** 0.0
3 H 43.64 33.528 39.512 H 0.0 **** 0.0
4 H 45.085 32.495 39.392 H 0.0 **** 0.0
5 H 43.483 31.758 39.631 H 0.0 **** 0.0
@<TRIPOS>BOND
1 1 2 1
2 1 3 1
3 1 4 1
4 1 5 1
@<TRIPOS>MOLECULE
CH4
5 4
SMALL
USER_CHARGES


@<TRIPOS>ATOM
1 C 66.487 18.514 92.696 C 0.0 **** 0.0
2 H 66.534 18.566 93.784 H 0.0 **** 0.0
3 H 67.393 18.043 92.315 H 0.0 **** 0.0
4 H 66.402 19.522 92.288 H 0.0 **** 0.0
5 H 65.618 17.927 92.397 H 0.0 **** 0.0
@<TRIPOS>BOND
1 1 2 1
2 1 3 1
3 1 4 1
4 1 5 1
@<TRIPOS>MOLECULE
CH4
5 4
SMALL
USER_CHARGES


@<TRIPOS>ATOM
1 C 40.077 10.396 39.413 C 0.0 **** 0.0
2 H 40.19 10.264 40.489 H 0.0 **** 0.0
3 H 40.593 11.305 39.103 H 0.0 **** 0.0
4 H 39.018 10.477 39.166 H 0.0 **** 0.0
5 H 40.506 9.539 38.894 H 0.0 **** 0.0
@<TRIPOS>BOND
1 1 5 1
2 1 2 1
3 1 3 1
4 1 4 1
@<TRIPOS>MOLECULE
CH4
5 4
SMALL
USER_CHARGES


@<TRIPOS>ATOM
1 C 80.961 75.11 11.205 C 0.0 **** 0.0
2 H 80.533 76.018 11.629 H 0.0 **** 0.0
3 H 81.823 74.803 11.799 H 0.0 **** 0.0
4 H 81.277 75.302 10.179 H 0.0 **** 0.0
5 H 80.213 74.317 11.212 H 0.0 **** 0.0
@<TRIPOS>BOND
1 1 2 1
2 1 3 1
3 1 4 1
4 1 5 1
@<TRIPOS>MOLECULE
CH4
5 4
SMALL
USER_CHARGES


@<TRIPOS>ATOM
1 C 12.36 66.593 16.675 C 0.0 **** 0.0
2 H 12.513 66.627 17.754 H 0.0 **** 0.0
3 H 12.94 67.386 16.201 H 0.0 **** 0.0
4 H 11.302 66.735 16.454 H 0.0 **** 0.0
5 H 12.685 65.626 16.292 H 0.0 **** 0.0
@<TRIPOS>BOND
1 1 2 1
2 1 3 1
3 1 4 1
4 1 5 1
@<TRIPOS>MOLECULE
CH4
5 4
SMALL
USER_CHARGES


@<TRIPOS>ATOM
1 C 12.563 79.916 30.424 C 0.0 **** 0.0
2 H 12.956 79.372 31.283 H 0.0 **** 0.0
3 H 12.638 79.292 29.533 H 0.0 **** 0.0
4 H 13.141 80.829 30.277 H 0.0 **** 0.0
5 H 11.519 80.172 30.602 H 0.0 **** 0.0
@<TRIPOS>BOND
1 1 2 1
2 1 3 1
3 1 4 1
4 1 5 1
@<TRIPOS>MOLECULE
CH4
5 4
SMALL
USER_CHARGES


@<TRIPOS>ATOM
1 C 62.433 78.046 17.384 C 0.0 **** 0.0
2 H 63.257 77.652 16.789 H 0.0 **** 0.0
3 H 62.164 79.038 17.02 H 0.0 **** 0.0
4 H 62.738 78.112 18.429 H 0.0 **** 0.0
5 H 61.573 77.382 17.299 H 0.0 **** 0.0
@<TRIPOS>BOND
1 1 2 1
2 1 3 1
3 1 4 1
4 1 5 1
@<TRIPOS>MOLECULE
CH4
5 4
SMALL
USER_CHARGES


@<TRIPOS>ATOM
1 C 62.118 52.629 64.88 C 0.0 **** 0.0
2 H 61.982 53.705 64.985 H 0.0 **** 0.0
3 H 62.351 52.195 65.853 H 0.0 **** 0.0
4 H 62.938 52.433 64.189 H 0.0 **** 0.0
5 H 61.202 52.183 64.493 H 0.0 **** 0.0
@<TRIPOS>BOND
1 1 2 1
2 1 3 1
3 1 4 1
4 1 5 1
@<TRIPOS>MOLECULE
CH4
5 4
SMALL
USER_CHARGES


@<TRIPOS>ATOM
1 C 15.837 63.661 0.675 C 0.0 **** 0.0
2 H 16.257 64.41 0.003 H 0.0 **** 0.0
3 H 14.751 63.756 0.692 H 0.0 **** 0.0
4 H 16.232 63.812 1.68 H 0.0 **** 0.0
5 H 16.109 62.665 0.324 H 0.0 **** 0.0
@<TRIPOS>BOND
1 1 2 1
2 1 3 1
3 1 4 1
4 1 5 1
@<TRIPOS>MOLECULE
CH4
5 4
SMALL
USER_CHARGES


@<TRIPOS>ATOM
1 C 37.5 66.216 74.396 C 0.0 **** 0.0
2 H 37.54 66.193 73.307 H 0.0 **** 0.0
3 H 38.051 67.083 74.761 H 0.0 **** 0.0
4 H 37.947 65.306 74.795 H 0.0 **** 0.0
5 H 36.461 66.282 74.72 H 0.0 **** 0.0
@<TRIPOS>BOND
1 1 2 1
2 1 3 1
3 1 4 1
4 1 5 1
@<TRIPOS>MOLECULE
CH4
5 4
SMALL
USER_CHARGES


@<TRIPOS>ATOM
1 C 47.112 76.481 83.606 C 0.0 **** 0.0
2 H 46.664 76.747 84.564 H 0.0 **** 0.0
3 H 46.382 76.631 82.81 H 0.0 **** 0.0
4 H 47.418 75.435 83.627 H 0.0 **** 0.0
5 H 47.983 77.111 83.425 H 0.0 **** 0.0
@<TRIPOS>BOND
1 1 2 1
2 1 3 1
3 1 4 1
4 1 5 1
@<TRIPOS>MOLECULE
CH4
5 4
SMALL
USER_CHARGES


@<TRIPOS>ATOM
1 C 52.749 75.787 96.064 C 0.0 **** 0.0
2 H 53.528 76.369 96.557 H 0.0 **** 0.0
3 H 51.988 76.461 95.669 H 0.0 **** 0.0
4 H 52.294 75.107 96.784 H 0.0 **** 0.0
5 H 53.186 75.212 95.248 H 0.0 **** 0.0
@<TRIPOS>BOND
1 1 2 1
2 1 3 1
3 1 4 1
4 1 5 1
@<TRIPOS>MOLECULE
CH4
5 4
SMALL
USER_CHARGES


@<TRIPOS>ATOM
1 C 3.749 35.236 94.091 C 0.0 **** 0.0
2 H 2.983 34.465 94.164 H 0.0 **** 0.0
3 H 3.491 35.931 93.291 H 0.0 **** 0.0
4 H 4.711 34.773 93.874 H 0.0 **** 0.0
5 H 3.811 35.777 95.036 H 0.0 **** 0.0
@<TRIPOS>BOND
1 1 2 1
2 1 3 1
3 1 4 1
4 1 5 1
@<TRIPOS>MOLECULE
CH4
5 4
SMALL
USER_CHARGES


@<TRIPOS>ATOM
1 C 11.455 24.46 96.016 C 0.0 **** 0.0
2 H 12.124 25.22 95.613 H 0.0 **** 0.0
3 H 10.513 24.479 95.468 H 0.0 **** 0.0
4 H 11.268 24.664 97.07 H 0.0 **** 0.0
5 H 11.917 23.478 95.912 H 0.0 **** 0.0
@<TRIPOS>BOND
1 1 2 1
2 1 3 1
3 1 4 1
4 1 5 1
@<TRIPOS>MOLECULE
CH4
5 4
SMALL
USER_CHARGES


@<TRIPOS>ATOM
1 C 49.535 36.979 46.643 C 0.0 **** 0.0
2 H 48.826 36.433 47.265 H 0.0 **** 0.0
3 H 50.546 36.816 47.017 H 0.0 **** 0.0
4 H 49.302 38.044 46.677 H 0.0 **** 0.0
5 H 49.465 36.625 45.615 H 0.0 **** 0.0
@<TRIPOS>BOND
1 1 2 1
2 1 3 1
3 1 4 1
4 1 5 1
@<TRIPOS>MOLECULE
CH4
5 4
SMALL
USER_CHARGES


@<TRIPOS>ATOM
1 C 3.229 44.594 60.004 C 0.0 **** 0.0
2 H 3.976 44.216 60.702 H 0.0 **** 0.0
3 H 2.597 45.324 60.509 H 0.0 **** 0.0
4 H 2.615 43.767 59.647 H 0.0 **** 0.0
5 H 3.729 45.067 59.159 H 0.0 **** 0.0
@<TRIPOS>BOND
1 1 2 1
2 1 3 1
3 1 4 1
4 1 5 1
@<TRIPOS>MOLECULE
CH4
5 4
SMALL
USER_CHARGES


@<TRIPOS>ATOM
1 C 60.078 50.958 2.22 C 0.0 **** 0.0
2 H 60.728 51.406 2.971 H 0.0 **** 0.0
3 H 60.117 49.872 2.307 H 0.0 **** 0.0
4 H 60.412 51.255 1.226 H 0.0 **** 0.0
5 H 59.054 51.299 2.376 H 0.0 **** 0.0
@<TRIPOS>BOND
1 1 2 1
2 1 3 1
3 1 4 1
4 1 5 1
@<TRIPOS>MOLECULE
CH4
5 4
SMALL
USER_CHARGES


@<TRIPOS>ATOM
1 C 42.909 28.107 62.098 C 0.0 **** 0.0
2 H 42.722 28.223 63.165 H 0.0 **** 0.0
3 H 42.582 27.117 61.777 H 0.0 **** 0.0
4 H 43.976 28.219 61.902 H 0.0 **** 0.0
5 H 42.357 28.869 61.547 H 0.0 **** 0.0
@<TRIPOS>BOND
1 1 2 1
2 1 3 1
3 1 4 1
4 1 5 1
@<TRIPOS>MOLECULE
CH4
5 4
SMALL
USER_CHARGES


@<TRIPOS>ATOM
1 C 36.446 69.133 11.75 C 0.0 **** 0.0
2 H 37.253 69.006 11.028 H 0.0 **** 0.0
3 H 36.151 68.159 12.141 H 0.0 **** 0.0
4 H 35.592 69.602 11.261 H 0.0 **** 0.0
5 H 36.788 69.766 12.569 H 0.0 **** 0.0
@<TRIPOS>BOND
1 1 2 1
2 1 3 1
3 1 4 1
4 1 5 1
@<TRIPOS>MOLECULE
CH4
5 4
SMALL
USER_CHARGES


@<TRIPOS>ATOM
1 C 69.496 92.888 73.015 C 0.0 **** 0.0
2 H 69.873 93.089 72.012 H 0.0 **** 0.0
3 H 70.208 92.26 73.551 H 0.0 **** 0.0
4 H 68.537 92.375 72.947 H 0.0 **** 0.0
5 H 69.368 93.83 73.55 H 0.0 **** 0.0
@<TRIPOS>BOND
1 1 4 1
2 1 5 1
3 1 2 1
4 1 3 1
@<TRIPOS>MOLECULE
CH4
5 4
SMALL
USER_CHARGES


@<TRIPOS>ATOM
1 C 2.424 37.399 69.25 C 0.0 **** 0.0
2 H 2.62 36.711 68.428 H 0.0 **** 0.0
3 H 1.588 37.027 69.843 H 0.0 **** 0.0
4 H 2.177 38.383 68.85 H 0.0 **** 0.0
5 H 3.311 37.474 69.879 H 0.0 **** 0.0
@<TRIPOS>BOND
1 1 2 1
2 1 3 1
3 1 4 1
4 1 5 1
@<TRIPOS>MOLECULE
CH4
5 4
SMALL
USER_CHARGES


@<TRIPOS>ATOM
1 C 79.854 2.772 63.883 C 0.0 **** 0.0
2 H 79.859 2.766 64.973 H 0.0 **** 0.0
3 H 79.168 2.007 63.519 H 0.0 **** 0.0
4 H 80.859 2.565 63.515 H 0.0 **** 0.0
5 H 79.531 3.75 63.527 H 0.0 **** 0.0
@<TRIPOS>BOND
1 1 2 1
2 1 3 1
3 1 4 1
4 1 5 1
@<TRIPOS>MOLECULE
CH4
5 4
SMALL
USER_CHARGES


@<TRIPOS>ATOM
1 C 11.967 10.013 2.873 C 0.0 **** 0.0
2 H 12.239 10.286 1.853 H 0.0 **** 0.0
3 H 10.986 9.537 2.871 H 0.0 **** 0.0
4 H 11.936 10.909 3.493 H 0.0 **** 0.0
5 H 12.706 9.319 3.273 H 0.0 **** 0.0
@<TRIPOS>BOND
1 1 2 1
2 1 3 1
3 1 4 1
4 1 5 1
@<TRIPOS>MOLECULE
CH4
5 4
SMALL
USER_CHARGES


@<TRIPOS>ATOM
1 C 22.173 65.476 80.056 C 0.0 **** 0.0
2 H 21.175 65.642 80.461 H 0.0 **** 0.0
3 H 22.799 66.344 80.265 H 0.0 **** 0.0
4 H 22.108 65.326 78.978 H 0.0 **** 0.0
5 H 22.611 64.592 80.52 H 0.0 **** 0.0
@<TRIPOS>BOND
1 1 2 1
2 1 3 1
3 1 4 1
4 1 5 1
@<TRIPOS>MOLECULE
CH4
5 4
SMALL
USER_CHARGES


@<TRIPOS>ATOM
1 C 94.163 60.974 87.429 C 0.0 **** 0.0
2 H 94.375 61.822 86.778 H 0.0 **** 0.0
3 H 94.57 61.168 88.422 H 0.0 **** 0.0
4 H 94.622 60.076 87.017 H 0.0 **** 0.0
5 H 93.085 60.832 87.5 H 0.0 **** 0.0
@<TRIPOS>BOND
1 1 2 1
2 1 3 1
3 1 4 1
4 1 5 1
@<TRIPOS>MOLECULE
CH4
5 4
SMALL
USER_CHARGES


@<TRIPOS>ATOM
1 C 85.252 26.063 73.894 C 0.0 **** 0.0
2 H 84.865 26.219 72.887 H 0.0 **** 0.0
3 H 84.427 25.831 74.568 H 0.0 **** 0.0
4 H 85.755 26.968 74.234 H 0.0 **** 0.0
5 H 85.96 25.235 73.886 H 0.0 **** 0.0
@<TRIPOS>BOND
1 1 2 1
2 1 3 1
3 1 4 1
4 1 5 1
@<TRIPOS>MOLECULE
CH4
5 4
SMALL
USER_CHARGES


@<TRIPOS>ATOM
1 C 71.57 63.638 7.865 C 0.0 **** 0.0
2 H 70.688 63.852 7.262 H 0.0 **** 0.0
3 H 72.454 64.049 7.376 H 0.0 **** 0.0
4 H 71.683 62.559 7.973 H 0.0 **** 0.0
5 H 71.456 64.091 8.85 H 0.0 **** 0.0
@<TRIPOS>BOND
1 1 2 1
2 1 3 1
3 1 4 1
4 1 5 1
@<TRIPOS>MOLECULE
CH4
5 4
SMALL
USER_CHARGES


@<TRIPOS>ATOM
1 C 36.86 81.965 69.075 C 0.0 **** 0.0
2 H 37.534 82.348 68.308 H 0.0 **** 0.0
3 H 35.996 81.501 68.599 H 0.0 **** 0.0
4 H 36.528 82.787 69.709 H 0.0 **** 0.0
5 H 37.382 81.226 69.682 H 0.0 **** 0.0
@<TRIPOS>BOND
1 1 2 1
2 1 3 1
3 1 4 1
4 1 5 1
@<TRIPOS>MOLECULE
CH4
5 4
SMALL
USER_CHARGES


@<TRIPOS>ATOM
1 C 8.119 50.753 96.388 C 0.0 **** 0.0
2 H 8.026 51.563 95.664 H 0.0 **** 0.0
3 H 9.138 50.365 96.368 H 0.0 **** 0.0
4 H 7.422 49.955 96.132 H 0.0 **** 0.0
5 H 7.892 51.129 97.385 H 0.0 **** 0.0
@<TRIPOS>BOND
1 1 2 1
2 1 3 1
3 1 4 1
4 1 5 1
@<TRIPOS>MOLECULE
CH4
5 4
SMALL
USER_CHARGES


@<TRIPOS>ATOM
1 C 26.739 43.018 42.792 C 0.0 **** 0.0
2 H 27.141 43.22 43.785 H 0.0 **** 0.0
3 H 27.276 43.616 42.055 H 0.0 **** 0.0
4 H 25.681 43.277 42.769 H 0.0 **** 0.0
5 H 26.86 41.96 42.56 H 0.0 **** 0.0
@<TRIPOS>BOND
1 1 2 1
2 1 3 1
3 1 4 1
4 1 5 1
@<TRIPOS>MOLECULE
CH4
5 4
SMALL
USER_CHARGES


@<TRIPOS>ATOM
1 C 33.833 65.875 89.682 C 0.0 **** 0.0
2 H 33.618 65.694 90.735 H 0.0 **** 0.0
3 H 33.985 66.942 89.521 H 0.0 **** 0.0
4 H 32.995 65.531 89.076 H 0.0 **** 0.0
5 H 34.734 65.332 89.397 H 0.0 **** 0.0
@<TRIPOS>BOND
1 1 2 1
2 1 3 1
3 1 4 1
4 1 5 1
@<TRIPOS>MOLECULE
CH4
5 4
SMALL
USER_CHARGES


@<TRIPOS>ATOM
1 C 74.259 65.856 69.087 C 0.0 **** 0.0
2 H 74.832 65.371 68.296 H 0.0 **** 0.0
3 H 74.047 66.886 68.803 H 0.0 **** 0.0
4 H 74.837 65.845 70.012 H 0.0 **** 0.0
5 H 73.322 65.32 69.237 H 0.0 **** 0.0
@<TRIPOS>BOND
1 1 2 1
2 1 3 1
3 1 4 1
4 1 5 1
@<TRIPOS>MOLECULE
CH4
5 4
SMALL
USER_CHARGES


@<TRIPOS>ATOM
1 C 83.356 44.536 20.909 C 0.0 **** 0.0
2 H 84.063 44.804 21.694 H 0.0 **** 0.0
3 H 83.847 44.605 19.938 H 0.0 **** 0.0
4 H 82.506 45.219 20.936 H 0.0 **** 0.0
5 H 83.007 43.516 21.068 H 0.0 **** 0.0
@<TRIPOS>BOND
1 1 2 1
2 1 3 1
3 1 4 1
4 1 5 1
@<TRIPOS>MOLECULE
CH4
5 4
SMALL
USER_CHARGES


@<TRIPOS>ATOM
1 C 67.082 1.292 38.19 C 0.0 **** 0.0
2 H 67.116 1.957 37.328 H 0.0 **** 0.0
3 H 67.977 0.67 38.204 H 0.0 **** 0.0
4 H 66.199 0.656 38.124 H 0.0 **** 0.0
5 H 67.036 1.884 39.104 H 0.0 **** 0.0
@<TRIPOS>BOND
1 1 2 1
2 1 3 1
3 1 4 1
4 1 5 1
@<TRIPOS>MOLECULE
CH4
5 4
SMALL
USER_CHARGES


@<TRIPOS>ATOM
1 C 9.852 21.41 63.898 C 0.0 **** 0.0
2 H 8.884 21.326 63.405 H 0.0 **** 0.0
3 H 10.376 22.29 63.523 H 0.0 **** 0.0
4 H 10.444 20.519 63.691 H 0.0 **** 0.0
5 H 9.705 21.506 64.974 H 0.0 **** 0.0
@<TRIPOS>BOND
1 1 2 1
2 1 3 1
3 1 4 1
4 1 5 1
@<TRIPOS>MOLECULE
CH4
5 4
SMALL
USER_CHARGES


@<TRIPOS>ATOM
1 C 94.139 68.653 21.843 C 0.0 **** 0.0
2 H 95.01 68.628 21.188 H 0.0 **** 0.0
3 H 93.335 69.206 21.357 H 0.0 **** 0.0
4 H 94.403 69.143 22.78 H 0.0 **** 0.0
5 H 93.808 67.634 22.046 H 0.0 **** 0.0
@<TRIPOS>BOND
1 1 2 1
2 1 3 1
3 1 4 1
4 1 5 1
@<TRIPOS>MOLECULE
CH4
5 4
SMALL
USER_CHARGES


@<TRIPOS>ATOM
1 C 92.686 25.171 64.799 C 0.0 **** 0.0
2 H 92.013 24.507 65.342 H 0.0 **** 0.0
3 H 92.134 26.048 64.459 H 0.0 **** 0.0
4 H 93.099 24.644 63.939 H 0.0 **** 0.0
5 H 93.497 25.484 65.457 H 0.0 **** 0.0
@<TRIPOS>BOND
1 1 2 1
2 1 3 1
3 1 4 1
4 1 5 1
@<TRIPOS>MOLECULE
CH4
5 4
SMALL
USER_CHARGES


@<TRIPOS>ATOM
1 C 36.092 51.847 83.783 C 0.0 **** 0.0
2 H 37.083 51.92 84.229 H 0.0 **** 0.0
3 H 36.076 51.027 83.065 H 0.0 **** 0.0
4 H 35.853 52.781 83.274 H 0.0 **** 0.0
5 H 35.354 51.66 84.564 H 0.0 **** 0.0
@<TRIPOS>BOND
1 1 2 1
2 1 3 1
3 1 4 1
4 1 5 1
@<TRIPOS>MOLECULE
CH4
5 4
SMALL
USER_CHARGES


@<TRIPOS>ATOM
1 C 4.552 95.653 86.231 C 0.0 **** 0.0
2 H 3.897 94.822 85.972 H 0.0 **** 0.0
3 H 4.945 96.104 85.319 H 0.0 **** 0.0
4 H 5.378 95.288 86.841 H 0.0 **** 0.0
5 H 3.989 96.399 86.792 H 0.0 **** 0.0
@<TRIPOS>BOND
1 1 2 1
2 1 3 1
3 1 4 1
4 1 5 1
@<TRIPOS>MOLECULE
CH4
5 4
SMALL
USER_CHARGES


@<TRIPOS>ATOM
1 C 8.335 81.218 70.126 C 0.0 **** 0.0
2 H 8.379 81.319 69.042 H 0.0 **** 0.0
3 H 7.379 80.778 70.411 H 0.0 **** 0.0
4 H 8.434 82.201 70.586 H 0.0 **** 0.0
5 H 9.147 80.575 70.465 H 0.0 **** 0.0
@<TRIPOS>BOND
1 1 2 1
2 1 3 1
3 1 4 1
4 1 5 1
@<TRIPOS>MOLECULE
CH4
5 4
SMALL
USER_CHARGES


@<TRIPOS>ATOM
1 C 64.534 45.905 6.421 C 0.0 **** 0.0
2 H 65.258 45.508 5.709 H 0.0 **** 0.0
3 H 64.241 46.91 6.12 H 0.0 **** 0.0
4 H 64.982 45.939 7.414 H 0.0 **** 0.0
5 H 63.655 45.26 6.442 H 0.0 **** 0.0
@<TRIPOS>BOND
1 1 2 1
2 1 3 1
3 1 4 1
4 1 5 1
@<TRIPOS>MOLECULE
CH4
5 4
SMALL
USER_CHARGES


@<TRIPOS>ATOM
1 C 87.722 24.411 93.088 C 0.0 **** 0.0
2 H 87.787 24.296 92.006 H 0.0 **** 0.0
3 H 87.414 23.465 93.535 H 0.0 **** 0.0
4 H 86.99 25.182 93.328 H 0.0 **** 0.0
5 H 88.696 24.699 93.482 H 0.0 **** 0.0
@<TRIPOS>BOND
1 1 2 1
2 1 3 1
3 1 4 1
4 1 5 1
@<TRIPOS>MOLECULE
CH4
5 4
SMALL
USER_CHARGES


@<TRIPOS>ATOM
1 C 7.473 36.409 36.146 C 0.0 **** 0.0
2 H 7.092 37.429 36.097 H 0.0 **** 0.0
3 H 7.148 35.944 37.077 H 0.0 **** 0.0
4 H 8.563 36.426 36.11 H 0.0 **** 0.0
5 H 7.091 35.838 35.3 H 0.0 **** 0.0
@<TRIPOS>BOND
1 1 2 1
2 1 3 1
3 1 4 1
4 1 5 1
@<TRIPOS>MOLECULE
CH4
5 4
SMALL
USER_CHARGES


@<TRIPOS>ATOM
1 C 78.995 55.452 9.42 C 0.0 **** 0.0
2 H 78.35 54.937 10.132 H 0.0 **** 0.0
3 H 78.67 56.487 9.319 H 0.0 **** 0.0
4 H 78.935 54.955 8.451 H 0.0 **** 0.0
5 H 80.024 55.426 9.778 H 0.0 **** 0.0
@<TRIPOS>BOND
1 1 2 1
2 1 3 1
3 1 4 1
4 1 5 1
@<TRIPOS>MOLECULE
CH4
5 4
SMALL
USER_CHARGES


@<TRIPOS>ATOM
1 C 55.3 5.019 54.499 C 0.0 **** 0.0
2 H 55.25 4.945 55.585 H 0.0 **** 0.0
3 H 54.509 4.414 54.057 H 0.0 **** 0.0
4 H 56.27 4.658 54.156 H 0.0 **** 0.0
5 H 55.173 6.059 54.2 H 0.0 **** 0.0
@<TRIPOS>BOND
1 1 2 1
2 1 3 1
3 1 4 1
4 1 5 1
@<TRIPOS>MOLECULE
CH4
5 4
SMALL
USER_CHARGES


@<TRIPOS>ATOM
1 C 93.184 83.72 98.001 C 0.0 **** 0.0
2 H 93.088 83.301 99.003 H 0.0 **** 0.0
3 H 92.201 84.021 97.638 H 0.0 **** 0.0
4 H 93.605 82.969 97.332 H 0.0 **** 0.0
5 H 93.842 84.588 98.032 H 0.0 **** 0.0
@<TRIPOS>BOND
1 1 2 1
2 1 3 1
3 1 4 1
4 1 5 1
@<TRIPOS>MOLECULE
CH4
5 4
SMALL
USER_CHARGES


@<TRIPOS>ATOM
1 C 7.556 31.389 6.405 C 0.0 **** 0.0
2 H 7.542 31.581 7.478 H 0.0 **** 0.0
3 H 7.28 32.298 5.87 H 0.0 **** 0.0
4 H 6.845 30.598 6.169 H 0.0 **** 0.0
5 H 8.557 31.08 6.105 H 0.0 **** 0.0
@<TRIPOS>BOND
1 1 2 1
2 1 3 1
3 1 4 1
4 1 5 1
@<TRIPOS>MOLECULE
CH4
5 4
SMALL
USER_CHARGES


@<TRIPOS>ATOM
1 C 76.486 28.05 69.759 C 0.0 **** 0.0
2 H 76.123 28.601 68.891 H 0.0 **** 0.0
3 H 75.694 27.403 70.136 H 0.0 **** 0.0
4 H 76.783 28.753 70.537 H 0.0 **** 0.0
5 H 77.345 27.444 69.47 H 0.0 **** 0.0
@<TRIPOS>BOND
1 1 2 1
2 1 3 1
3 1 4 1
4 1 5 1
@<TRIPOS>MOLECULE
CH4
5 4
SMALL
USER_CHARGES


@<TRIPOS>ATOM
1 C 59.661 16.517 87.78 C 0.0 **** 0.0
2 H 60.133 17.284 88.394 H 0.0 **** 0.0
3 H 60.391 16.114 87.078 H 0.0 **** 0.0
4 H 58.828 16.954 87.229 H 0.0 **** 0.0
5 H 59.293 15.715 88.421 H 0.0 **** 0.0
@<TRIPOS>BOND
1 1 2 1
2 1 3 1
3 1 4 1
4 1 5 1
@<TRIPOS>MOLECULE
CH4
5 4
SMALL
USER_CHARGES


@<TRIPOS>ATOM
1 C 90.996 91.576 34.631 C 0.0 **** 0.0
2 H 91.352 91.59 35.662 H 0.0 **** 0.0
3 H 89.947 91.282 34.613 H 0.0 **** 0.0
4 H 91.584 90.861 34.054 H 0.0 **** 0.0
5 H 91.104 92.57 34.196 H 0.0 **** 0.0
@<TRIPOS>BOND
1 1 2 1
2 1 3 1
3 1 5 1
4 1 4 1
@<TRIPOS>MOLECULE
CH4
5 4
SMALL
USER_CHARGES


@<TRIPOS>ATOM
1 C 47.128 85.843 67.122 C 0.0 **** 0.0
2 H 47.067 85.82 68.21 H 0.0 **** 0.0
3 H 46.426 85.121 66.703 H 0.0 **** 0.0
4 H 48.141 85.589 66.809 H 0.0 **** 0.0
5 H 46.877 86.842 66.765 H 0.0 **** 0.0
@<TRIPOS>BOND
1 1 2 1
2 1 3 1
3 1 4 1
4 1 5 1
@<TRIPOS>MOLECULE
CH4
5 4
SMALL
USER_CHARGES


@<TRIPOS>ATOM
1 C 66.393 74.276 75.29 C 0.0 **** 0.0
2 H 67.105 73.451 75.28 H 0.0 **** 0.0
3 H 65.508 73.998 74.717 H 0.0 **** 0.0
4 H 66.853 75.157 74.843 H 0.0 **** 0.0
5 H 66.107 74.497 76.318 H 0.0 **** 0.0
@<TRIPOS>BOND
1 1 2 1
2 1 3 1
3 1 4 1
4 1 5 1
@<TRIPOS>MOLECULE
CH4
5 4
SMALL
USER_CHARGES


@<TRIPOS>ATOM
1 C 76.409 72.922 89.846 C 0.0 **** 0.0
2 H 76.69 72.927 90.899 H 0.0 **** 0.0
3 H 75.992 71.949 89.586 H 0.0 **** 0.0
4 H 77.291 73.114 89.234 H 0.0 **** 0.0
5 H 75.665 73.697 89.665 H 0.0 **** 0.0
@<TRIPOS>BOND
1 1 2 1
2 1 3 1
3 1 4 1
4 1 5 1
@<TRIPOS>MOLECULE
CH4
5 4
SMALL
USER_CHARGES


@<TRIPOS>ATOM
1 C 4.484 53.288 90.807 C 0.0 **** 0.0
2 H 4.708 52.436 91.449 H 0.0 **** 0.0
3 H 4.895 53.111 89.813 H 0.0 **** 0.0
4 H 4.93 54.188 91.23 H 0.0 **** 0.0
5 H 3.404 53.416 90.737 H 0.0 **** 0.0
@<TRIPOS>BOND
1 1 2 1
2 1 3 1
3 1 4 1
4 1 5 1
@<TRIPOS>MOLECULE
CH4
5 4
SMALL
USER_CHARGES


@<TRIPOS>ATOM
1 C 91.913 31.947 92.917 C 0.0 **** 0.0
2 H 92.083 31.247 93.735 H 0.0 **** 0.0
3 H 92.699 31.831 92.17 H 0.0 **** 0.0
4 H 91.926 32.967 93.303 H 0.0 **** 0.0
5 H 90.944 31.743 92.46 H 0.0 **** 0.0
@<TRIPOS>BOND
1 1 2 1
2 1 3 1
3 1 4 1
4 1 5 1
@<TRIPOS>MOLECULE
CH4
5 4
SMALL
USER_CHARGES


@<TRIPOS>ATOM
1 C 29.244 93.739 53.934 C 0.0 **** 0.0
2 H 29.746 93.173 54.719 H 0.0 **** 0.0
3 H 29.555 93.362 52.96 H 0.0 **** 0.0
4 H 29.511 94.793 54.019 H 0.0 **** 0.0
5 H 28.165 93.628 54.04 H 0.0 **** 0.0
@<TRIPOS>BOND
1 1 2 1
2 1 3 1
3 1 4 1
4 1 5 1
@<TRIPOS>MOLECULE
CH4
5 4
SMALL
USER_CHARGES


@<TRIPOS>ATOM
1 C 34.809 78.523 16.959 C 0.0 **** 0.0
2 H 33.966 78.375 16.284 H 0.0 **** 0.0
3 H 34.493 79.13 17.808 H 0.0 **** 0.0
4 H 35.614 79.031 16.428 H 0.0 **** 0.0
5 H 35.162 77.555 17.316 H 0.0 **** 0.0
@<TRIPOS>BOND
1 1 2 1
2 1 3 1
3 1 4 1
4 1 5 1
@<TRIPOS>MOLECULE
CH4
5 4
SMALL
USER_CHARGES


@<TRIPOS>ATOM
1 C 28.03 27.89 49.374 C 0.0 **** 0.0
2 H 28.753 27.436 48.697 H 0.0 **** 0.0
3 H 27.093 27.334 49.33 H 0.0 **** 0.0
4 H 27.854 28.924 49.077 H 0.0 **** 0.0
5 H 28.42 27.865 50.391 H 0.0 **** 0.0
@<TRIPOS>BOND
1 1 2 1
2 1 3 1
3 1 4 1
4 1 5 1
@<TRIPOS>MOLECULE
CH4
5 4
SMALL
USER_CHARGES


@<TRIPOS>ATOM
1 C 80.753 72.283 91.167 C 0.0 **** 0.0
2 H 80.953 72.449 92.226 H 0.0 **** 0.0
3 H 80.536 73.237 90.685 H 0.0 **** 0.0
4 H 79.896 71.618 91.06 H 0.0 **** 0.0
5 H 81.627 71.829 90.7 H 0.0 **** 0.0
@<TRIPOS>BOND
1 1 2 1
2 1 3 1
3 1 4 1
4 1 5 1
@<TRIPOS>MOLECULE
CH4
5 4
SMALL
USER_CHARGES


@<TRIPOS>ATOM
1 C 66.088 2.077 29.734 C 0.0 **** 0.0
2 H 66.283 2.355 28.698 H 0.0 **** 0.0
3 H 66.986 1.635 30.167 H 0.0 **** 0.0
4 H 65.274 1.354 29.769 H 0.0 **** 0.0
5 H 65.81 2.965 30.302 H 0.0 **** 0.0
@<TRIPOS>BOND
1 1 2 1
2 1 3 1
3 1 4 1
4 1 5 1
@<TRIPOS>MOLECULE
CH4
5 4
SMALL
USER_CHARGES


@<TRIPOS>ATOM
1 C 94.15 1.133 97.183 C 0.0 **** 0.0
2 H 95.214 1.372 97.172 H 0.0 **** 0.0
3 H 93.76 1.17 96.165 H 0.0 **** 0.0
4 H 93.622 1.857 97.802 H 0.0 **** 0.0
5 H 94.007 0.132 97.59 H 0.0 **** 0.0
@<TRIPOS>BOND
1 1 2 1
2 1 3 1
3 1 4 1
4 1 5 1
@<TRIPOS>MOLECULE
CH4
5 4
SMALL
USER_CHARGES


@<TRIPOS>ATOM
1 C 22.445 83.892 78.931 C 0.0 **** 0.0
2 H 22.506 83.587 79.975 H 0.0 **** 0.0
3 H 22.127 83.045 78.322 H 0.0 **** 0.0
4 H 23.424 84.234 78.595 H 0.0 **** 0.0
5 H 21.723 84.703 78.831 H 0.0 **** 0.0
@<TRIPOS>BOND
1 1 2 1
2 1 3 1
3 1 4 1
4 1 5 1
@<TRIPOS>MOLECULE
CH4
5 4
SMALL
USER_CHARGES


@<TRIPOS>ATOM
1 C 3.351 78.959 36.221 C 0.0 **** 0.0
2 H 2.882 79.682 35.555 H 0.0 **** 0.0
3 H 3.404 77.989 35.725 H 0.0 **** 0.0
4 H 2.761 78.87 37.133 H 0.0 **** 0.0
5 H 4.358 79.295 36.47 H 0.0 **** 0.0
@<TRIPOS>BOND
1 1 2 1
2 1 3 1
3 1 4 1
4 1 5 1
@<TRIPOS>MOLECULE
CH4
5 4
SMALL
USER_CHARGES


@<TRIPOS>ATOM
1 C 89.207 63.711 3.878 C 0.0 **** 0.0
2 H 89.069 64.079 4.895 H 0.0 **** 0.0
3 H 88.278 63.831 3.319 H 0.0 **** 0.0
4 H 89.479 62.656 3.908 H 0.0 **** 0.0
5 H 90.0 64.277 3.391 H 0.0 **** 0.0
@<TRIPOS>BOND
1 1 2 1
2 1 3 1
3 1 4 1
4 1 5 1
@<TRIPOS>MOLECULE
CH4
5 4
SMALL
USER_CHARGES


@<TRIPOS>ATOM
1 C 42.236 20.041 56.276 C 0.0 **** 0.0
2 H 41.182 20.155 56.531 H 0.0 **** 0.0
3 H 42.334 19.884 55.202 H 0.0 **** 0.0
4 H 42.648 19.184 56.809 H 0.0 **** 0.0
5 H 42.777 20.942 56.563 H 0.0 **** 0.0
@<TRIPOS>BOND
1 1 2 1
2 1 3 1
3 1 4 1
4 1 5 1
@<TRIPOS>MOLECULE
CH4
5 4
SMALL
USER_CHARGES


@<TRIPOS>ATOM
1 C 30.627 43.759 7.997 C 0.0 **** 0.0
2 H 30.766 44.255 8.957 H 0.0 **** 0.0
3 H 31.546 43.831 7.415 H 0.0 **** 0.0
4 H 29.814 44.24 7.454 H 0.0 **** 0.0
5 H 30.384 42.709 8.163 H 0.0 **** 0.0
@<TRIPOS>BOND
1 1 2 1
2 1 3 1
3 1 4 1
4 1 5 1
@<TRIPOS>MOLECULE
CH4
5 4
SMALL
USER_CHARGES


@<TRIPOS>ATOM
1 C 61.994 85.448 24.588 C 0.0 **** 0.0
2 H 62.292 86.446 24.912 H 0.0 **** 0.0
3 H 62.882 84.835 24.435 H 0.0 **** 0.0
4 H 61.437 85.522 23.654 H 0.0 **** 0.0
5 H 61.364 84.992 25.352 H 0.0 **** 0.0
@<TRIPOS>BOND
1 1 2 1
2 1 3 1
3 1 4 1
4 1 5 1
@<TRIPOS>MOLECULE
CH4
5 4
SMALL
USER_CHARGES


@<TRIPOS>ATOM
1 C 3.288 97.741 15.094 C 0.0 **** 0.0
2 H 2.413 97.652 14.45 H 0.0 **** 0.0
3 H 3.84 96.8 15.088 H 0.0 **** 0.0
4 H 2.97 97.969 16.111 H 0.0 **** 0.0
5 H 3.93 98.541 14.725 H 0.0 **** 0.0
@<TRIPOS>BOND
1 1 2 1
2 1 3 1
3 1 4 1
4 1 5 1
@<TRIPOS>MOLECULE
CH4
5 4
SMALL
USER_CHARGES


@<TRIPOS>ATOM
1 C 1.325 85.437 5.435 C 0.0 **** 0.0
2 H 1.12 84.818 4.562 H 0.0 **** 0.0
3 H 0.666 86.305 5.428 H 0.0 **** 0.0
4 H 2.363 85.768 5.41 H 0.0 **** 0.0
5 H 1.151 84.855 6.341 H 0.0 **** 0.0
@<TRIPOS>BOND
1 1 2 1
2 1 3 1
3 1 4 1
4 1 5 1
@<TRIPOS>MOLECULE
CH4
5 4
SMALL
USER_CHARGES


@<TRIPOS>ATOM
1 C 28.53 68.23 84.1 C 0.0 **** 0.0
2 H 28.695 68.087 85.168 H 0.0 **** 0.0
3 H 29.468 68.083 83.564 H 0.0 **** 0.0
4 H 28.164 69.241 83.923 H 0.0 **** 0.0
5 H 27.792 67.509 83.747 H 0.0 **** 0.0
@<TRIPOS>BOND
1 1 4 1
2 1 2 1
3 1 3 1
4 1 5 1
@<TRIPOS>MOLECULE
CH4
5 4
SMALL
USER_CHARGES


@<TRIPOS>ATOM
1 C 71.182 92.281 13.647 C 0.0 **** 0.0
2 H 71.236 92.148 14.727 H 0.0 **** 0.0
3 H 72.18 92.476 13.255 H 0.0 **** 0.0
4 H 70.529 93.123 13.416 H 0.0 **** 0.0
5 H 70.783 91.375 13.19 H 0.0 **** 0.0
@<TRIPOS>BOND
1 1 2 1
2 1 3 1
3 1 4 1
4 1 5 1
@<TRIPOS>MOLECULE
CH4
5 4
SMALL
USER_CHARGES


@<TRIPOS>ATOM
1 C 72.164 44.249 14.597 C 0.0 **** 0.0
2 H 72.868 45.024 14.295 H 0.0 **** 0.0
3 H 71.167 44.504 14.238 H 0.0 **** 0.0
4 H 72.151 44.174 15.684 H 0.0 **** 0.0
5 H 72.471 43.294 14.17 H 0.0 **** 0.0
@<TRIPOS>BOND
1 1 2 1
2 1 3 1
3 1 4 1
4 1 5 1
@<TRIPOS>MOLECULE
CH4
5 4
SMALL
USER_CHARGES


@<TRIPOS>ATOM
1 C 21.767 91.126 63.31 C 0.0 **** 0.0
2 H 21.251 90.823 64.221 H 0.0 **** 0.0
3 H 22.568 90.419 63.093 H 0.0 **** 0.0
4 H 22.188 92.122 63.445 H 0.0 **** 0.0
5 H 21.06 91.14 62.48 H 0.0 **** 0.0
@<TRIPOS>BOND
1 1 2 1
2 1 3 1
3 1 4 1
4 1 5 1
@<TRIPOS>MOLECULE
CH4
5 4
SMALL
USER_CHARGES


@<TRIPOS>ATOM
1 C 24.967 44.708 50.231 C 0.0 **** 0.0
2 H 25.122 45.319 49.342 H 0.0 **** 0.0
3 H 24.609 43.722 49.936 H 0.0 **** 0.0
4 H 24.229 45.186 50.876 H 0.0 **** 0.0
5 H 25.909 44.607 50.771 H 0.0 **** 0.0
@<TRIPOS>BOND
1 1 2 1
2 1 3 1
3 1 4 1
4 1 5 1
@<TRIPOS>MOLECULE
CH4
5 4
SMALL
USER_CHARGES


@<TRIPOS>ATOM
1 C 71.287 82.062 32.999 C 0.0 **** 0.0
2 H 70.895 81.97 31.986 H 0.0 **** 0.0
3 H 70.634 81.529 33.69 H 0.0 **** 0.0
4 H 71.33 83.115 33.277 H 0.0 **** 0.0
5 H 72.289 81.634 33.04 H 0.0 **** 0.0
@<TRIPOS>BOND
1 1 2 1
2 1 3 1
3 1 4 1
4 1 5 1
@<TRIPOS>MOLECULE
CH4
5 4
SMALL
USER_CHARGES


@<TRIPOS>ATOM
1 C 54.568 21.958 18.195 C 0.0 **** 0.0
2 H 54.748 22.821 17.554 H 0.0 **** 0.0
3 H 54.11 22.287 19.128 H 0.0 **** 0.0
4 H 55.514 21.461 18.409 H 0.0 **** 0.0
5 H 53.899 21.262 17.687 H 0.0 **** 0.0
@<TRIPOS>BOND
1 1 2 1
2 1 3 1
3 1 4 1
4 1 5 1
@<TRIPOS>MOLECULE
CH4
5 4
SMALL
USER_CHARGES


@<TRIPOS>ATOM
1 C 23.655 14.478 57.61 C 0.0 **** 0.0
2 H 23.719 14.429 58.697 H 0.0 **** 0.0
3 H 24.658 14.55 57.19 H 0.0 **** 0.0
4 H 23.074 15.353 57.32 H 0.0 **** 0.0
5 H 23.167 13.578 57.235 H 0.0 **** 0.0
@<TRIPOS>BOND
1 1 2 1
2 1 3 1
3 1 4 1
4 1 5 1
@<TRIPOS>MOLECULE
CH4
5 4
SMALL
USER_CHARGES


@<TRIPOS>ATOM
1 C 15.468 31.583 54.989 C 0.0 **** 0.0
2 H 14.472 31.142 54.953 H 0.0 **** 0.0
3 H 15.384 32.67 54.992 H 0.0 **** 0.0
4 H 16.039 31.265 54.117 H 0.0 **** 0.0
5 H 15.978 31.255 55.896 H 0.0 **** 0.0
@<TRIPOS>BOND
1 1 2 1
2 1 3 1
3 1 4 1
4 1 5 1
@<TRIPOS>MOLECULE
CH4
5 4
SMALL
USER_CHARGES


@<TRIPOS>ATOM
1 C 0.972 26.807 13.267 C 0.0 **** 0.0
2 H 1.234 26.758 14.324 H 0.0 **** 0.0
3 H 1.727 26.282 12.681 H 0.0 **** 0.0
4 H 0.927 27.849 12.952 H 0.0 **** 0.0
5 H 0.0 26.338 13.112 H 0.0 **** 0.0
@<TRIPOS>BOND
1 1 3 1
2 1 4 1
3 1 5 1
4 1 2 1
@<TRIPOS>MOLECULE
CH4
5 4
SMALL
USER_CHARGES


@<TRIPOS>ATOM
1 C 87.757 38.1 15.702 C 0.0 **** 0.0
2 H 88.507 38.865 15.504 H 0.0 **** 0.0
3 H 86.791 38.575 15.877 H 0.0 **** 0.0
4 H 88.046 37.527 16.583 H 0.0 **** 0.0
5 H 87.684 37.433 14.843 H 0.0 **** 0.0
@<TRIPOS>BOND
1 1 2 1
2 1 3 1
3 1 4 1
4 1 5 1
@<TRIPOS>MOLECULE
CH4
5 4
SMALL
USER_CHARGES


@<TRIPOS>ATOM
1 C 36.754 89.342 22.807 C 0.0 **** 0.0
2 H 36.746 89.272 23.895 H 0.0 **** 0.0
3 H 36.007 88.663 22.395 H 0.0 **** 0.0
4 H 37.74 89.069 22.433 H 0.0 **** 0.0
5 H 36.521 90.364 22.508 H 0.0 **** 0.0
@<TRIPOS>BOND
1 1 2 1
2 1 3 1
3 1 4 1
4 1 5 1
@<TRIPOS>MOLECULE
CH4
5 4
SMALL
USER_CHARGES


@<TRIPOS>ATOM
1 C 20.152 1.609 1.009 C 0.0 **** 0.0
2 H 20.759 1.023 0.318 H 0.0 **** 0.0
3 H 20.804 2.167 1.681 H 0.0 **** 0.0
4 H 19.516 0.941 1.589 H 0.0 **** 0.0
5 H 19.531 2.305 0.445 H 0.0 **** 0.0
@<TRIPOS>BOND
1 1 2 1
2 1 4 1
3 1 5 1
4 1 3 1
@<TRIPOS>MOLECULE
CH4
5 4
SMALL
USER_CHARGES


@<TRIPOS>ATOM
1 C 18.317 82.974 1.658 C 0.0 **** 0.0
2 H 18.596 82.939 0.605 H 0.0 **** 0.0
3 H 18.332 84.008 2.004 H 0.0 **** 0.0
4 H 19.025 82.385 2.241 H 0.0 **** 0.0
5 H 17.315 82.564 1.781 H 0.0 **** 0.0
@<TRIPOS>BOND
1 1 2 1
2 1 3 1
3 1 5 1
4 1 4 1
@<TRIPOS>MOLECULE
CH4
5 4
SMALL
USER_CHARGES


@<TRIPOS>ATOM
1 C 20.18 83.927 64.173 C 0.0 **** 0.0
2 H 20.314 84.832 63.58 H 0.0 **** 0.0
3 H 19.128 83.819 64.438 H 0.0 **** 0.0
4 H 20.778 83.997 65.081 H 0.0 **** 0.0
5 H 20.499 83.062 63.593 H 0.0 **** 0.0
@<TRIPOS>BOND
1 1 2 1
2 1 3 1
3 1 4 1
4 1 5 1
@<TRIPOS>MOLECULE
CH4
5 4
SMALL
USER_CHARGES


@<TRIPOS>ATOM
1 C 4.242 48.841 77.842 C 0.0 **** 0.0
2 H 4.287 49.816 77.357 H 0.0 **** 0.0
3 H 3.319 48.765 78.417 H 0.0 **** 0.0
4 H 5.097 48.727 78.509 H 0.0 **** 0.0
5 H 4.265 48.057 77.085 H 0.0 **** 0.0
@<TRIPOS>BOND
1 1 2 1
2 1 3 1
3 1 4 1
4 1 5 1
@<TRIPOS>MOLECULE
CH4
5 4
SMALL
USER_CHARGES


@<TRIPOS>ATOM
1 C 67.928 37.815 38.118 C 0.0 **** 0.0
2 H 67.216 37.268 38.737 H 0.0 **** 0.0
3 H 68.227 38.73 38.631 H 0.0 **** 0.0
4 H 67.463 38.068 37.166 H 0.0 **** 0.0
5 H 68.807 37.195 37.941 H 0.0 **** 0.0
@<TRIPOS>BOND
1 1 2 1
2 1 3 1
3 1 4 1
4 1 5 1
@<TRIPOS>MOLECULE
CH4
5 4
SMALL
USER_CHARGES


@<TRIPOS>ATOM
1 C 18.416 64.773 88.262 C 0.0 **** 0.0
2 H 18.64 64.606 87.209 H 0.0 **** 0.0
3 H 19.288 65.204 88.755 H 0.0 **** 0.0
4 H 18.163 63.824 88.735 H 0.0 **** 0.0
5 H 17.574 65.459 88.35 H 0.0 **** 0.0
@<TRIPOS>BOND
1 1 5 1
2 1 2 1
3 1 3 1
4 1 4 1
@<TRIPOS>MOLECULE
CH4
5 4
SMALL
USER_CHARGES


@<TRIPOS>ATOM
1 C 27.078 53.943 27.407 C 0.0 **** 0.0
2 H 26.658 53.334 28.208 H 0.0 **** 0.0
3 H 26.269 54.373 26.816 H 0.0 **** 0.0
4 H 27.704 53.32 26.768 H 0.0 **** 0.0
5 H 27.68 54.743 27.838 H 0.0 **** 0.0
@<TRIPOS>BOND
1 1 2 1
2 1 3 1
3 1 4 1
4 1 5 1
@<TRIPOS>MOLECULE
CH4
5 4
SMALL
USER_CHARGES


@<TRIPOS>ATOM
1 C 17.599 14.037 30.967 C 0.0 **** 0.0
2 H 17.831 13.843 29.92 H 0.0 **** 0.0
3 H 17.211 13.128 31.427 H 0.0 **** 0.0
4 H 16.849 14.826 31.032 H 0.0 **** 0.0
5 H 18.503 14.352 31.487 H 0.0 **** 0.0
@<TRIPOS>BOND
1 1 2 1
2 1 3 1
3 1 4 1
4 1 5 1
@<TRIPOS>MOLECULE
CH4
5 4
SMALL
USER_CHARGES


@<TRIPOS>ATOM
1 C 84.724 32.627 42.308 C 0.0 **** 0.0
2 H 84.219 32.658 43.273 H 0.0 **** 0.0
3 H 84.292 31.835 41.697 H 0.0 **** 0.0
4 H 85.786 32.432 42.46 H 0.0 **** 0.0
5 H 84.6 33.585 41.803 H 0.0 **** 0.0
@<TRIPOS>BOND
1 1 2 1
2 1 3 1
3 1 4 1
4 1 5 1
@<TRIPOS>MOLECULE
CH4
5 4
SMALL
USER_CHARGES


@<TRIPOS>ATOM
1 C 33.937 62.14 62.456 C 0.0 **** 0.0
2 H 33.08 62.658 62.024 H 0.0 **** 0.0
3 H 33.982 61.123 62.064 H 0.0 **** 0.0
4 H 33.833 62.108 63.54 H 0.0 **** 0.0
5 H 34.852 62.671 62.194 H 0.0 **** 0.0
@<TRIPOS>BOND
1 1 2 1
2 1 3 1
3 1 4 1
4 1 5 1
@<TRIPOS>MOLECULE
CH4
5 4
SMALL
USER_CHARGES


@<TRIPOS>ATOM
1 C 68.004 65.182 32.43 C 0.0 **** 0.0
2 H 67.591 64.21 32.161 H 0.0 **** 0.0
3 H 69.084 65.17 32.285 H 0.0 **** 0.0
4 H 67.78 65.395 33.476 H 0.0 **** 0.0
5 H 67.56 65.952 31.8 H 0.0 **** 0.0
@<TRIPOS>BOND
1 1 2 1
2 1 3 1
3 1 4 1
4 1 5 1
@<TRIPOS>MOLECULE
CH4
5 4
SMALL
USER_CHARGES


@<TRIPOS>ATOM
1 C 51.533 25.083 26.158 C 0.0 **** 0.0
2 H 52.23 24.257 26.301 H 0.0 **** 0.0
3 H 52.0 26.012 26.484 H 0.0 **** 0.0
4 H 50.632 24.903 26.745 H 0.0 **** 0.0
5 H 51.27 25.158 25.103 H 0.0 **** 0.0
@<TRIPOS>BOND
1 1 2 1
2 1 3 1
3 1 4 1
4 1 5 1
@<TRIPOS>MOLECULE
CH4
5 4
SMALL
USER_CHARGES


@<TRIPOS>ATOM
1 C 33.613 13.363 77.015 C 0.0 **** 0.0
2 H 34.018 13.222 76.013 H 0.0 **** 0.0
3 H 34.399 13.733 77.675 H 0.0 **** 0.0
4 H 33.24 12.411 77.393 H 0.0 **** 0.0
5 H 32.798 14.085 76.98 H 0.0 **** 0.0
@<TRIPOS>BOND
1 1 2 1
2 1 3 1
3 1 4 1
4 1 5 1
@<TRIPOS>MOLECULE
CH4
5 4
SMALL
USER_CHARGES


@<TRIPOS>ATOM
1 C 32.661 63.351 84.837 C 0.0 **** 0.0
2 H 32.327 63.781 83.893 H 0.0 **** 0.0
3 H 32.387 62.297 84.873 H 0.0 **** 0.0
4 H 32.187 63.879 85.665 H 0.0 **** 0.0
5 H 33.744 63.448 84.917 H 0.0 **** 0.0
@<TRIPOS>BOND
1 1 2 1
2 1 3 1
3 1 4 1
4 1 5 1
@<TRIPOS>MOLECULE
CH4
5 4
SMALL
USER_CHARGES


@<TRIPOS>ATOM
1 C 97.695 21.908 73.761 C 0.0 **** 0.0
2 H 98.692 22.21 73.44 H 0.0 **** 0.0
3 H 97.7 21.722 74.835 H 0.0 **** 0.0
4 H 97.405 20.999 73.235 H 0.0 **** 0.0
5 H 96.985 22.702 73.533 H 0.0 **** 0.0
@<TRIPOS>BOND
1 1 2 1
2 1 3 1
3 1 4 1
4 1 5 1
@<TRIPOS>MOLECULE
CH4
5 4
SMALL
USER_CHARGES


@<TRIPOS>ATOM
1 C 82.33 93.267 76.292 C 0.0 **** 0.0
2 H 82.591 93.617 75.293 H 0.0 **** 0.0
3 H 82.601 94.028 77.025 H 0.0 **** 0.0
4 H 82.871 92.346 76.507 H 0.0 **** 0.0
5 H 81.258 93.079 76.342 H 0.0 **** 0.0
@<TRIPOS>BOND
1 1 2 1
2 1 3 1
3 1 4 1
4 1 5 1
@<TRIPOS>MOLECULE
CH4
5 4
SMALL
USER_CHARGES


@<TRIPOS>ATOM
1 C 51.933 57.938 88.388 C 0.0 **** 0.0
2 H 51.88 57.926 89.476 H 0.0 **** 0.0
3 H 52.818 57.393 88.061 H 0.0 **** 0.0
4 H 51.991 58.969 88.039 H 0.0 **** 0.0
5 H 51.041 57.465 87.976 H 0.0 **** 0.0
@<TRIPOS>BOND
1 1 2 1
2 1 3 1
3 1 4 1
4 1 5 1
@<TRIPOS>MOLECULE
CH4
5 4
SMALL
USER_CHARGES


@<TRIPOS>ATOM
1 C 90.752 87.465 90.394 C 0.0 **** 0.0
2 H 91.116 87.593 91.413 H 0.0 **** 0.0
3 H 91.458 87.917 89.697 H 0.0 **** 0.0
4 H 89.78 87.948 90.292 H 0.0 **** 0.0
5 H 90.654 86.401 90.174 H 0.0 **** 0.0
@<TRIPOS>BOND
1 1 2 1
2 1 3 1
3 1 4 1
4 1 5 1
@<TRIPOS>MOLECULE
CH4
5 4
SMALL
USER_CHARGES


@<TRIPOS>ATOM
1 C 58.83 3.886 91.821 C 0.0 **** 0.0
2 H 58.651 4.011 92.889 H 0.0 **** 0.0
3 H 59.551 3.083 91.665 H 0.0 **** 0.0
4 H 59.225 4.814 91.408 H 0.0 **** 0.0
5 H 57.894 3.636 91.322 H 0.0 **** 0.0
@<TRIPOS>BOND
1 1 2 1
2 1 3 1
3 1 4 1
4 1 5 1
@<TRIPOS>MOLECULE
CH4
5 4
SMALL
USER_CHARGES


@<TRIPOS>ATOM
1 C 87.956 86.118 86.753 C 0.0 **** 0.0
2 H 89.002 85.884 86.556 H 0.0 **** 0.0
3 H 87.319 85.444 86.179 H 0.0 **** 0.0
4 H 87.753 87.148 86.459 H 0.0 **** 0.0
5 H 87.75 85.996 87.816 H 0.0 **** 0.0
@<TRIPOS>BOND
1 1 2 1
2 1 3 1
3 1 4 1
4 1 5 1
@<TRIPOS>MOLECULE
CH4
5 4
SMALL
USER_CHARGES


@<TRIPOS>ATOM
1 C 72.059 62.88 54.221 C 0.0 **** 0.0
2 H 71.492 63.749 54.555 H 0.0 **** 0.0
3 H 73.09 62.965 54.566 H 0.0 **** 0.0
4 H 72.042 62.832 53.132 H 0.0 **** 0.0
5 H 71.611 61.975 54.632 H 0.0 **** 0.0
@<TRIPOS>BOND
1 1 2 1
2 1 3 1
3 1 4 1
4 1 5 1
@<TRIPOS>MOLECULE
CH4
5 4
SMALL
USER_CHARGES


@<TRIPOS>ATOM
1 C 6.604 64.223 82.637 C 0.0 **** 0.0
2 H 6.942 63.929 83.631 H 0.0 **** 0.0
3 H 6.912 63.471 81.911 H 0.0 **** 0.0
4 H 7.045 65.185 82.374 H 0.0 **** 0.0
5 H 5.517 64.309 82.634 H 0.0 **** 0.0
@<TRIPOS>BOND
1 1 2 1
2 1 3 1
3 1 4 1
4 1 5 1
@<TRIPOS>MOLECULE
CH4
5 4
SMALL
USER_CHARGES


@<TRIPOS>ATOM
1 C 97.7 58.759 64.96 C 0.0 **** 0.0
2 H 97.367 57.743 64.752 H 0.0 **** 0.0
3 H 98.272 59.135 64.111 H 0.0 **** 0.0
4 H 98.327 58.761 65.851 H 0.0 **** 0.0
5 H 96.832 59.399 65.124 H 0.0 **** 0.0
@<TRIPOS>BOND
1 1 4 1
2 1 5 1
3 1 2 1
4 1 3 1
@<TRIPOS>MOLECULE
CH4
5 4
SMALL
USER_CHARGES


@<TRIPOS>ATOM
1 C 38.25 44.742 26.489 C 0.0 **** 0.0
2 H 37.486 44.18 25.953 H 0.0 **** 0.0
3 H 39.208 44.227 26.401 H 0.0 **** 0.0
4 H 37.974 44.819 27.54 H 0.0 **** 0.0
5 H 38.334 45.741 26.06 H 0.0 **** 0.0
@<TRIPOS>BOND
1 1 2 1
2 1 3 1
3 1 4 1
4 1 5 1
@<TRIPOS>MOLECULE
CH4
5 4
SMALL
USER_CHARGES


@<TRIPOS>ATOM
1 C 19.622 36.866 40.003 C 0.0 **** 0.0
2 H 19.428 37.87 39.625 H 0.0 **** 0.0
3 H 20.639 36.571 39.746 H 0.0 **** 0.0
4 H 18.916 36.167 39.555 H 0.0 **** 0.0
5 H 19.503 36.857 41.087 H 0.0 **** 0.0
@<TRIPOS>BOND
1 1 2 1
2 1 3 1
3 1 4 1
4 1 5 1
@<TRIPOS>MOLECULE
CH4
5 4
SMALL
USER_CHARGES


@<TRIPOS>ATOM
1 C 12.433 65.024 66.438 C 0.0 **** 0.0
2 H 12.931 64.366 67.151 H 0.0 **** 0.0
3 H 11.636 65.57 66.943 H 0.0 **** 0.0
4 H 12.01 64.428 65.629 H 0.0 **** 0.0
5 H 13.155 65.731 66.03 H 0.0 **** 0.0
@<TRIPOS>BOND
1 1 2 1
2 1 3 1
3 1 4 1
4 1 5 1
@<TRIPOS>MOLECULE
CH4
5 4
SMALL
USER_CHARGES


@<TRIPOS>ATOM
1 C 62.918 33.462 28.226 C 0.0 **** 0.0
2 H 62.177 33.421 29.024 H 0.0 **** 0.0
3 H 63.77 34.06 28.553 H 0.0 **** 0.0
4 H 62.474 33.916 27.34 H 0.0 **** 0.0
5 H 63.252 32.452 27.988 H 0.0 **** 0.0
@<TRIPOS>BOND
1 1 2 1
2 1 3 1
3 1 4 1
4 1 5 1
@<TRIPOS>MOLECULE
CH4
5 4
SMALL
USER_CHARGES


@<TRIPOS>ATOM
1 C 23.748 31.934 50.79 C 0.0 **** 0.0
2 H 22.825 31.574 51.244 H 0.0 **** 0.0
3 H 23.743 33.024 50.773 H 0.0 **** 0.0
4 H 23.823 31.555 49.77 H 0.0 **** 0.0
5 H 24.6 31.583 51.371 H 0.0 **** 0.0
@<TRIPOS>BOND
1 1 2 1
2 1 3 1
3 1 4 1
4 1 5 1
@<TRIPOS>MOLECULE
CH4
5 4
SMALL
USER_CHARGES


@<TRIPOS>ATOM
1 C 72.36 61.417 50.452 C 0.0 **** 0.0
2 H 71.839 60.914 51.266 H 0.0 **** 0.0
3 H 72.412 62.486 50.659 H 0.0 **** 0.0
4 H 71.82 61.253 49.519 H 0.0 **** 0.0
5 H 73.369 61.013 50.363 H 0.0 **** 0.0
@<TRIPOS>BOND
1 1 2 1
2 1 3 1
3 1 4 1
4 1 5 1
@<TRIPOS>MOLECULE
CH4
5 4
SMALL
USER_CHARGES


@<TRIPOS>ATOM
1 C 4.156 36.586 63.434 C 0.0 **** 0.0
2 H 3.88 36.486 64.483 H 0.0 **** 0.0
3 H 5.193 36.277 63.3 H 0.0 **** 0.0
4 H 4.044 37.626 63.126 H 0.0 **** 0.0
5 H 3.507 35.955 62.826 H 0.0 **** 0.0
@<TRIPOS>BOND
1 1 2 1
2 1 3 1
3 1 4 1
4 1 5 1
@<TRIPOS>MOLECULE
CH4
5 4
SMALL
USER_CHARGES


@<TRIPOS>ATOM
1 C 27.273 39.901 73.167 C 0.0 **** 0.0
2 H 26.793 39.947 74.144 H 0.0 **** 0.0
3 H 27.232 38.879 72.79 H 0.0 **** 0.0
4 H 28.313 40.214 73.259 H 0.0 **** 0.0
5 H 26.753 40.565 72.476 H 0.0 **** 0.0
@<TRIPOS>BOND
1 1 2 1
2 1 3 1
3 1 4 1
4 1 5 1
@<TRIPOS>MOLECULE
CH4
5 4
SMALL
USER_CHARGES


@<TRIPOS>ATOM
1 C 72.54 0.928 90.614 C 0.0 **** 0.0
2 H 73.304 0.995 89.839 H 0.0 **** 0.0
3 H 72.656 -0.01 91.158 H 0.0 **** 0.0
4 H 71.553 0.961 90.154 H 0.0 **** 0.0
5 H 72.649 1.765 91.304 H 0.0 **** 0.0
@<TRIPOS>BOND
1 1 2 1
2 1 3 1
3 1 4 1
4 1 5 1
@<TRIPOS>MOLECULE
CH4
5 4
SMALL
USER_CHARGES


@<TRIPOS>ATOM
1 C 29.981 21.151 51.318 C 0.0 **** 0.0
2 H 31.016 21.175 51.662 H 0.0 **** 0.0
3 H 29.877 21.786 50.438 H 0.0 **** 0.0
4 H 29.327 21.516 52.11 H 0.0 **** 0.0
5 H 29.707 20.128 51.063 H 0.0 **** 0.0
@<TRIPOS>BOND
1 1 2 1
2 1 3 1
3 1 4 1
4 1 5 1
@<TRIPOS>MOLECULE
CH4
5 4
SMALL
USER_CHARGES


@<TRIPOS>ATOM
1 C 58.366 23.642 45.553 C 0.0 **** 0.0
2 H 58.771 24.039 44.622 H 0.0 **** 0.0
3 H 59.118 23.019 46.038 H 0.0 **** 0.0
4 H 57.482 23.042 45.337 H 0.0 **** 0.0
5 H 58.095 24.466 46.212 H 0.0 **** 0.0
@<TRIPOS>BOND
1 1 2 1
2 1 3 1
3 1 4 1
4 1 5 1
@<TRIPOS>MOLECULE
CH4
5 4
SMALL
USER_CHARGES


@<TRIPOS>ATOM
1 C 67.034 81.725 22.305 C 0.0 **** 0.0
2 H 67.035 81.726 23.395 H 0.0 **** 0.0
3 H 67.834 81.079 21.941 H 0.0 **** 0.0
4 H 67.193 82.74 21.941 H 0.0 **** 0.0
5 H 66.075 81.355 21.943 H 0.0 **** 0.0
@<TRIPOS>BOND
1 1 2 1
2 1 3 1
3 1 4 1
4 1 5 1
@<TRIPOS>MOLECULE
CH4
5 4
SMALL
USER_CHARGES


@<TRIPOS>ATOM
1 C 26.814 1.34 84.573 C 0.0 **** 0.0
2 H 27.093 1.067 83.555 H 0.0 **** 0.0
3 H 27.652 1.146 85.243 H 0.0 **** 0.0
4 H 25.954 0.749 84.885 H 0.0 **** 0.0
5 H 26.559 2.399 84.607 H 0.0 **** 0.0
@<TRIPOS>BOND
1 1 2 1
2 1 3 1
3 1 4 1
4 1 5 1
@<TRIPOS>MOLECULE
CH4
5 4
SMALL
USER_CHARGES


@<TRIPOS>ATOM
1 C 25.756 47.755 52.93 C 0.0 **** 0.0
2 H 25.259 48.426 53.629 H 0.0 **** 0.0
3 H 25.866 48.252 51.965 H 0.0 **** 0.0
4 H 25.16 46.851 52.808 H 0.0 **** 0.0
5 H 26.741 47.491 53.317 H 0.0 **** 0.0
@<TRIPOS>BOND
1 1 2 1
2 1 3 1
3 1 4 1
4 1 5 1
@<TRIPOS>MOLECULE
CH4
5 4
SMALL
USER_CHARGES


@<TRIPOS>ATOM
1 C 67.802 36.57 23.46 C 0.0 **** 0.0
2 H 68.737 36.297 23.95 H 0.0 **** 0.0
3 H 67.061 35.789 23.631 H 0.0 **** 0.0
4 H 67.973 36.683 22.39 H 0.0 **** 0.0
5 H 67.439 37.512 23.871 H 0.0 **** 0.0
@<TRIPOS>BOND
1 1 2 1
2 1 3 1
3 1 4 1
4 1 5 1
@<TRIPOS>MOLECULE
CH4
5 4
SMALL
USER_CHARGES


@<TRIPOS>ATOM
1 C 35.012 51.983 58.24 C 0.0 **** 0.0
2 H 34.324 52.65 58.759 H 0.0 **** 0.0
3 H 35.078 52.273 57.191 H 0.0 **** 0.0
4 H 34.648 50.958 58.312 H 0.0 **** 0.0
5 H 35.998 52.05 58.699 H 0.0 **** 0.0
@<TRIPOS>BOND
1 1 2 1
2 1 3 1
3 1 4 1
4 1 5 1
@<TRIPOS>MOLECULE
CH4
5 4
SMALL
USER_CHARGES


@<TRIPOS>ATOM
1 C 77.365 93.935 20.413 C 0.0 **** 0.0
2 H 76.688 94.208 19.603 H 0.0 **** 0.0
3 H 77.699 92.907 20.276 H 0.0 **** 0.0
4 H 76.845 94.025 21.367 H 0.0 **** 0.0
5 H 78.227 94.602 20.405 H 0.0 **** 0.0
@<TRIPOS>BOND
1 1 3 1
2 1 4 1
3 1 5 1
4 1 2 1
@<TRIPOS>MOLECULE
CH4
5 4
SMALL
USER_CHARGES


@<TRIPOS>ATOM
1 C 49.559 90.161 12.399 C 0.0 **** 0.0
2 H 49.234 89.796 13.373 H 0.0 **** 0.0
3 H 49.973 89.334 11.821 H 0.0 **** 0.0
4 H 50.321 90.929 12.534 H 0.0 **** 0.0
5 H 48.706 90.584 11.867 H 0.0 **** 0.0
@<TRIPOS>BOND
1 1 2 1
2 1 3 1
3 1 4 1
4 1 5 1
@<TRIPOS>MOLECULE
CH4
5 4
SMALL
USER_CHARGES


@<TRIPOS>ATOM
1 C 34.206 3.359 53.424 C 0.0 **** 0.0
2 H 34.061 3.486 52.351 H 0.0 **** 0.0
3 H 33.261 3.53 53.941 H 0.0 **** 0.0
4 H 34.948 4.074 53.778 H 0.0 **** 0.0
5 H 34.552 2.345 53.626 H 0.0 **** 0.0
@<TRIPOS>BOND
1 1 2 1
2 1 3 1
3 1 4 1
4 1 5 1
@<TRIPOS>MOLECULE
CH4
5 4
SMALL
USER_CHARGES


@<TRIPOS>ATOM
1 C 17.173 39.091 55.384 C 0.0 **** 0.0
2 H 17.541 39.533 56.31 H 0.0 **** 0.0
3 H 17.994 38.593 54.868 H 0.0 **** 0.0
4 H 16.764 39.874 54.745 H 0.0 **** 0.0
5 H 16.393 38.365 55.613 H 0.0 **** 0.0
@<TRIPOS>BOND
1 1 2 1
2 1 3 1
3 1 4 1
4 1 5 1
@<TRIPOS>MOLECULE
CH4
5 4
SMALL
USER_CHARGES


@<TRIPOS>ATOM
1 C 32.767 53.085 22.032 C 0.0 **** 0.0
2 H 33.107 52.993 21.0 H 0.0 **** 0.0
3 H 33.16 52.255 22.619 H 0.0 **** 0.0
4 H 31.677 53.065 22.057 H 0.0 **** 0.0
5 H 33.123 54.027 22.449 H 0.0 **** 0.0
@<TRIPOS>BOND
1 1 2 1
2 1 3 1
3 1 4 1
4 1 5 1
@<TRIPOS>MOLECULE
CH4
5 4
SMALL
USER_CHARGES


@<TRIPOS>ATOM
1 C 87.078 28.472 49.815 C 0.0 **** 0.0
2 H 87.014 28.544 48.729 H 0.0 **** 0.0
3 H 86.076 28.357 50.231 H 0.0 **** 0.0
4 H 87.535 29.379 50.213 H 0.0 **** 0.0
5 H 87.686 27.61 50.087 H 0.0 **** 0.0
@<TRIPOS>BOND
1 1 2 1
2 1 3 1
3 1 4 1
4 1 5 1
@<TRIPOS>MOLECULE
CH4
5 4
SMALL
USER_CHARGES


@<TRIPOS>ATOM
1 C 43.439 61.312 57.415 C 0.0 **** 0.0
2 H 43.845 60.307 57.301 H 0.0 **** 0.0
3 H 42.518 61.268 57.997 H 0.0 **** 0.0
4 H 43.229 61.732 56.432 H 0.0 **** 0.0
5 H 44.166 61.94 57.931 H 0.0 **** 0.0
@<TRIPOS>BOND
1 1 2 1
2 1 3 1
3 1 4 1
4 1 5 1
@<TRIPOS>MOLECULE
CH4
5 4
SMALL
USER_CHARGES


@<TRIPOS>ATOM
1 C 27.15 19.102 9.06 C 0.0 **** 0.0
2 H 27.39 18.515 9.946 H 0.0 **** 0.0
3 H 27.775 19.995 9.036 H 0.0 **** 0.0
4 H 26.1 19.394 9.091 H 0.0 **** 0.0
5 H 27.335 18.505 8.168 H 0.0 **** 0.0
@<TRIPOS>BOND
1 1 2 1
2 1 3 1
3 1 4 1
4 1 5 1
@<TRIPOS>MOLECULE
CH4
5 4
SMALL
USER_CHARGES


@<TRIPOS>ATOM
1 C 19.148 7.636 42.428 C 0.0 **** 0.0
2 H 20.077 7.928 42.918 H 0.0 **** 0.0
3 H 18.377 7.47 43.181 H 0.0 **** 0.0
4 H 19.309 6.717 41.863 H 0.0 **** 0.0
5 H 18.83 8.428 41.751 H 0.0 **** 0.0
@<TRIPOS>BOND
1 1 2 1
2 1 3 1
3 1 4 1
4 1 5 1
@<TRIPOS>MOLECULE
CH4
5 4
SMALL
USER_CHARGES


@<TRIPOS>ATOM
1 C 29.815 56.669 16.799 C 0.0 **** 0.0
2 H 29.823 56.435 15.735 H 0.0 **** 0.0
3 H 29.43 57.678 16.946 H 0.0 **** 0.0
4 H 30.83 56.607 17.192 H 0.0 **** 0.0
5 H 29.178 55.957 17.323 H 0.0 **** 0.0
@<TRIPOS>BOND
1 1 2 1
2 1 3 1
3 1 4 1
4 1 5 1
@<TRIPOS>MOLECULE
CH4
5 4
SMALL
USER_CHARGES


@<TRIPOS>ATOM
1 C 35.452 40.141 18.997 C 0.0 **** 0.0
2 H 34.403 40.215 19.286 H 0.0 **** 0.0
3 H 35.732 41.023 18.42 H 0.0 **** 0.0
4 H 35.6 39.247 18.391 H 0.0 **** 0.0
5 H 36.071 40.081 19.892 H 0.0 **** 0.0
@<TRIPOS>BOND
1 1 2 1
2 1 3 1
3 1 4 1
4 1 5 1
@<TRIPOS>MOLECULE
CH4
5 4
SMALL
USER_CHARGES


@<TRIPOS>ATOM
1 C 72.485 52.635 15.664 C 0.0 **** 0.0
2 H 72.652 51.563 15.768 H 0.0 **** 0.0
3 H 71.722 52.954 16.374 H 0.0 **** 0.0
4 H 72.153 52.854 14.649 H 0.0 **** 0.0
5 H 73.415 53.167 15.866 H 0.0 **** 0.0
@<TRIPOS>BOND
1 1 2 1
2 1 3 1
3 1 4 1
4 1 5 1
@<TRIPOS>MOLECULE
CH4
5 4
SMALL
USER_CHARGES


@<TRIPOS>ATOM
1 C 9.064 22.045 14.418 C 0.0 **** 0.0
2 H 8.325 21.74 15.159 H 0.0 **** 0.0
3 H 9.502 22.999 14.713 H 0.0 **** 0.0
4 H 8.582 22.152 13.446 H 0.0 **** 0.0
5 H 9.847 21.29 14.354 H 0.0 **** 0.0
@<TRIPOS>BOND
1 1 2 1
2 1 3 1
3 1 4 1
4 1 5 1
@<TRIPOS>MOLECULE
CH4
5 4
SMALL
USER_CHARGES


@<TRIPOS>ATOM
1 C 89.78 47.858 24.068 C 0.0 **** 0.0
2 H 89.031 48.32 24.712 H 0.0 **** 0.0
3 H 89.474 47.956 23.027 H 0.0 **** 0.0
4 H 89.875 46.802 24.322 H 0.0 **** 0.0
5 H 90.739 48.354 24.214 H 0.0 **** 0.0
@<TRIPOS>BOND
1 1 2 1
2 1 3 1
3 1 4 1
4 1 5 1
@<TRIPOS>MOLECULE
CH4
5 4
SMALL
USER_CHARGES


@<TRIPOS>ATOM
1 C 74.927 13.64 36.088 C 0.0 **** 0.0
2 H 74.77 14.542 36.678 H 0.0 **** 0.0
3 H 75.994 13.501 35.913 H 0.0 **** 0.0
4 H 74.411 13.736 35.133 H 0.0 **** 0.0
5 H 74.532 12.779 36.628 H 0.0 **** 0.0
@<TRIPOS>BOND
1 1 2 1
2 1 3 1
3 1 4 1
4 1 5 1
@<TRIPOS>MOLECULE
CH4
5 4
SMALL
USER_CHARGES


@<TRIPOS>ATOM
1 C 48.201 28.576 94.836 C 0.0 **** 0.0
2 H 48.67 27.821 95.467 H 0.0 **** 0.0
3 H 47.601 28.087 94.069 H 0.0 **** 0.0
4 H 48.973 29.183 94.362 H 0.0 **** 0.0
5 H 47.562 29.214 95.446 H 0.0 **** 0.0
@<TRIPOS>BOND
1 1 2 1
2 1 3 1
3 1 4 1
4 1 5 1
@<TRIPOS>MOLECULE
CH4
5 4
SMALL
USER_CHARGES


@<TRIPOS>ATOM
1 C 45.32 38.309 41.76 C 0.0 **** 0.0
2 H 45.149 39.034 40.965 H 0.0 **** 0.0
3 H 45.709 37.385 41.331 H 0.0 **** 0.0
4 H 44.38 38.104 42.273 H 0.0 **** 0.0
5 H 46.041 38.712 42.47 H 0.0 **** 0.0
@<TRIPOS>BOND
1 1 2 1
2 1 3 1
3 1 4 1
4 1 5 1
@<TRIPOS>MOLECULE
CH4
5 4
SMALL
USER_CHARGES


@<TRIPOS>ATOM
1 C 20.389 51.71 43.118 C 0.0 **** 0.0
2 H 20.527 51.872 44.187 H 0.0 **** 0.0
3 H 21.227 52.144 42.573 H 0.0 **** 0.0
4 H 19.461 52.184 42.796 H 0.0 **** 0.0
5 H 20.338 50.64 42.916 H 0.0 **** 0.0
@<TRIPOS>BOND
1 1 2 1
2 1 3 1
3 1 4 1
4 1 5 1
@<TRIPOS>MOLECULE
CH4
5 4
SMALL
USER_CHARGES


@<TRIPOS>ATOM
1 C 70.789 93.569 61.429 C 0.0 **** 0.0
2 H 71.171 93.93 60.474 H 0.0 **** 0.0
3 H 70.439 94.413 62.023 H 0.0 **** 0.0
4 H 71.584 93.051 61.965 H 0.0 **** 0.0
5 H 69.962 92.881 61.252 H 0.0 **** 0.0
@<TRIPOS>BOND
1 1 2 1
2 1 3 1
3 1 4 1
4 1 5 1
@<TRIPOS>MOLECULE
CH4
5 4
SMALL
USER_CHARGES


@<TRIPOS>ATOM
1 C 88.52 5.781 13.753 C 0.0 **** 0.0
2 H 89.028 5.996 12.814 H 0.0 **** 0.0
3 H 89.086 6.212 14.579 H 0.0 **** 0.0
4 H 88.446 4.702 13.887 H 0.0 **** 0.0
5 H 87.52 6.215 13.732 H 0.0 **** 0.0
@<TRIPOS>BOND
1 1 2 1
2 1 3 1
3 1 4 1
4 1 5 1
@<TRIPOS>MOLECULE
CH4
5 4
SMALL
USER_CHARGES


@<TRIPOS>ATOM
1 C 69.946 84.942 69.841 C 0.0 **** 0.0
2 H 70.613 85.108 68.995 H 0.0 **** 0.0
3 H 70.537 84.726 70.731 H 0.0 **** 0.0
4 H 69.291 84.098 69.625 H 0.0 **** 0.0
5 H 69.346 85.835 70.01 H 0.0 **** 0.0
@<TRIPOS>BOND
1 1 2 1
2 1 3 1
3 1 4 1
4 1 5 1
@<TRIPOS>MOLECULE
CH4
5 4
SMALL
USER_CHARGES


@<TRIPOS>ATOM
1 C 16.404 70.804 61.923 C 0.0 **** 0.0
2 H 16.446 70.806 63.012 H 0.0 **** 0.0
3 H 16.987 71.641 61.536 H 0.0 **** 0.0
4 H 15.368 70.902 61.599 H 0.0 **** 0.0
5 H 16.817 69.869 61.545 H 0.0 **** 0.0
@<TRIPOS>BOND
1 1 2 1
2 1 3 1
3 1 4 1
4 1 5 1
@<TRIPOS>MOLECULE
CH4
5 4
SMALL
USER_CHARGES


@<TRIPOS>ATOM
1 C 62.273 95.288 1.863 C 0.0 **** 0.0
2 H 62.118 95.457 0.798 H 0.0 **** 0.0
3 H 61.987 94.266 2.114 H 0.0 **** 0.0
4 H 61.662 95.987 2.435 H 0.0 **** 0.0
5 H 63.324 95.442 2.106 H 0.0 **** 0.0
@<TRIPOS>BOND
1 1 2 1
2 1 3 1
3 1 4 1
4 1 5 1
@<TRIPOS>MOLECULE
CH4
5 4
SMALL
USER_CHARGES


@<TRIPOS>ATOM
1 C 48.043 64.82 51.514 C 0.0 **** 0.0
2 H 47.338 65.51 51.05 H 0.0 **** 0.0
3 H 48.095 63.904 50.925 H 0.0 **** 0.0
4 H 47.71 64.586 52.524 H 0.0 **** 0.0
5 H 49.03 65.282 51.554 H 0.0 **** 0.0
@<TRIPOS>BOND
1 1 2 1
2 1 3 1
3 1 4 1
4 1 5 1
@<TRIPOS>MOLECULE
CH4
5 4
SMALL
USER_CHARGES


@<TRIPOS>ATOM
1 C 74.228 44.234 1.263 C 0.0 **** 0.0
2 H 73.581 43.964 2.098 H 0.0 **** 0.0
3 H 73.672 44.142 0.33 H 0.0 **** 0.0
4 H 75.089 43.567 1.241 H 0.0 **** 0.0
5 H 74.567 45.263 1.384 H 0.0 **** 0.0
@<TRIPOS>BOND
1 1 2 1
2 1 3 1
3 1 4 1
4 1 5 1
@<TRIPOS>MOLECULE
CH4
5 4
SMALL
USER_CHARGES


@<TRIPOS>ATOM
1 C 73.744 9.436 9.643 C 0.0 **** 0.0
2 H 72.9 9.761 9.035 H 0.0 **** 0.0
3 H 73.376 8.936 10.539 H 0.0 **** 0.0
4 H 74.341 10.302 9.929 H 0.0 **** 0.0
5 H 74.36 8.745 9.068 H 0.0 **** 0.0
@<TRIPOS>BOND
1 1 2 1
2 1 3 1
3 1 4 1
4 1 5 1
@<TRIPOS>MOLECULE
CH4
5 4
SMALL
USER_CHARGES


@<TRIPOS>ATOM
1 C 71.18 49.95 40.905 C 0.0 **** 0.0
2 H 71.21 50.205 39.846 H 0.0 **** 0.0
3 H 72.191 49.746 41.259 H 0.0 **** 0.0
4 H 70.559 49.065 41.048 H 0.0 **** 0.0
5 H 70.759 50.784 41.467 H 0.0 **** 0.0
@<TRIPOS>BOND
1 1 2 1
2 1 3 1
3 1 4 1
4 1 5 1
@<TRIPOS>MOLECULE
CH4
5 4
SMALL
USER_CHARGES


@<TRIPOS>ATOM
1 C 6.061 25.035 68.084 C 0.0 **** 0.0
2 H 6.07 24.35 67.237 H 0.0 **** 0.0
3 H 5.952 26.058 67.723 H 0.0 **** 0.0
4 H 6.996 24.942 68.636 H 0.0 **** 0.0
5 H 5.226 24.79 68.74 H 0.0 **** 0.0
@<TRIPOS>BOND
1 1 2 1
2 1 3 1
3 1 4 1
4 1 5 1
@<TRIPOS>MOLECULE
CH4
5 4
SMALL
USER_CHARGES


@<TRIPOS>ATOM
1 C 32.113 46.977 13.003 C 0.0 **** 0.0
2 H 31.721 47.283 12.034 H 0.0 **** 0.0
3 H 32.312 45.905 12.992 H 0.0 **** 0.0
4 H 31.382 47.203 13.779 H 0.0 **** 0.0
5 H 33.038 47.516 13.207 H 0.0 **** 0.0
@<TRIPOS>BOND
1 1 2 1
2 1 3 1
3 1 4 1
4 1 5 1
@<TRIPOS>MOLECULE
CH4
5 4
SMALL
USER_CHARGES


@<TRIPOS>ATOM
1 C 89.39 18.439 23.094 C 0.0 **** 0.0
2 H 89.813 18.153 24.056 H 0.0 **** 0.0
3 H 90.194 18.703 22.407 H 0.0 **** 0.0
4 H 88.73 19.296 23.227 H 0.0 **** 0.0
5 H 88.822 17.603 22.685 H 0.0 **** 0.0
@<TRIPOS>BOND
1 1 2 1
2 1 3 1
3 1 4 1
4 1 5 1
@<TRIPOS>MOLECULE
CH4
5 4
SMALL
USER_CHARGES


@<TRIPOS>ATOM
1 C 70.563 19.719 42.588 C 0.0 **** 0.0
2 H 70.011 19.122 41.862 H 0.0 **** 0.0
3 H 70.172 20.737 42.593 H 0.0 **** 0.0
4 H 71.618 19.735 42.317 H 0.0 **** 0.0
5 H 70.449 19.28 43.579 H 0.0 **** 0.0
@<TRIPOS>BOND
1 1 2 1
2 1 3 1
3 1 4 1
4 1 5 1
@<TRIPOS>MOLECULE
CH4
5 4
SMALL
USER_CHARGES


@<TRIPOS>ATOM
1 C 27.704 50.045 67.548 C 0.0 **** 0.0
2 H 26.658 50.346 67.622 H 0.0 **** 0.0
3 H 28.314 50.912 67.295 H 0.0 **** 0.0
4 H 27.809 49.287 66.773 H 0.0 **** 0.0
5 H 28.031 49.636 68.504 H 0.0 **** 0.0
@<TRIPOS>BOND
1 1 2 1
2 1 3 1
3 1 4 1
4 1 5 1
@<TRIPOS>MOLECULE
CH4
5 4
SMALL
USER_CHARGES


@<TRIPOS>ATOM
1 C 55.626 27.666 96.712 C 0.0 **** 0.0
2 H 54.888 28.46 96.601 H 0.0 **** 0.0
3 H 56.619 28.061 96.498 H 0.0 **** 0.0
4 H 55.398 26.859 96.015 H 0.0 **** 0.0
5 H 55.598 27.284 97.732 H 0.0 **** 0.0
@<TRIPOS>BOND
1 1 2 1
2 1 3 1
3 1 4 1
4 1 5 1
@<TRIPOS>MOLECULE
CH4
5 4
SMALL
USER_CHARGES


@<TRIPOS>ATOM
1 C 27.989 86.223 71.862 C 0.0 **** 0.0
2 H 27.878 86.131 70.781 H 0.0 **** 0.0
3 H 27.012 86.394 72.313 H 0.0 **** 0.0
4 H 28.647 87.061 72.089 H 0.0 **** 0.0
5 H 28.418 85.304 72.262 H 0.0 **** 0.0
@<TRIPOS>BOND
1 1 3 1
2 1 4 1
3 1 5 1
4 1 2 1
@<TRIPOS>MOLECULE
CH4
5 4
SMALL
USER_CHARGES


@<TRIPOS>ATOM
1 C 12.781 72.63 84.947 C 0.0 **** 0.0
2 H 13.049 71.904 85.714 H 0.0 **** 0.0
3 H 12.592 73.597 85.414 H 0.0 **** 0.0
4 H 11.883 72.295 84.428 H 0.0 **** 0.0
5 H 13.6 72.724 84.234 H 0.0 **** 0.0
@<TRIPOS>BOND
1 1 2 1
2 1 3 1
3 1 4 1
4 1 5 1
@<TRIPOS>MOLECULE
CH4
5 4
SMALL
USER_CHARGES


@<TRIPOS>ATOM
1 C 33.501 97.62 27.174 C 0.0 **** 0.0
2 H 33.539 96.796 27.886 H 0.0 **** 0.0
3 H 32.573 98.176 27.31 H 0.0 **** 0.0
4 H 33.544 97.225 26.159 H 0.0 **** 0.0
5 H 34.35 98.283 27.341 H 0.0 **** 0.0
@<TRIPOS>BOND
1 1 2 1
2 1 3 1
3 1 4 1
4 1 5 1
@<TRIPOS>MOLECULE
CH4
5 4
SMALL
USER_CHARGES


@<TRIPOS>ATOM
1 C 66.045 30.464 83.757 C 0.0 **** 0.0
2 H 65.389 30.448 84.627 H 0.0 **** 0.0
3 H 66.261 31.497 83.484 H 0.0 **** 0.0
4 H 65.555 29.962 82.923 H 0.0 **** 0.0
5 H 66.976 29.949 83.995 H 0.0 **** 0.0
@<TRIPOS>BOND
1 1 2 1
2 1 3 1
3 1 4 1
4 1 5 1
@<TRIPOS>MOLECULE
CH4
5 4
SMALL
USER_CHARGES


@<TRIPOS>ATOM
1 C 61.001 72.853 78.56 C 0.0 **** 0.0
2 H 62.061 72.819 78.307 H 0.0 **** 0.0
3 H 60.663 71.855 78.839 H 0.0 **** 0.0
4 H 60.433 73.201 77.697 H 0.0 **** 0.0
5 H 60.849 73.536 79.395 H 0.0 **** 0.0
@<TRIPOS>BOND
1 1 2 1
2 1 3 1
3 1 4 1
4 1 5 1
@<TRIPOS>MOLECULE
CH4
5 4
SMALL
USER_CHARGES


@<TRIPOS>ATOM
1 C 91.603 98.194 25.938 C 0.0 **** 0.0
2 H 90.766 98.535 25.329 H 0.0 **** 0.0
3 H 91.889 97.187 25.633 H 0.0 **** 0.0
4 H 91.309 98.187 26.988 H 0.0 **** 0.0
5 H 92.449 98.869 25.802 H 0.0 **** 0.0
@<TRIPOS>BOND
1 1 2 1
2 1 3 1
3 1 4 1
4 1 5 1
@<TRIPOS>MOLECULE
CH4
5 4
SMALL
USER_CHARGES


@<TRIPOS>ATOM
1 C 85.147 41.985 16.206 C 0.0 **** 0.0
2 H 85.178 42.621 15.321 H 0.0 **** 0.0
3 H 84.322 41.279 16.116 H 0.0 **** 0.0
4 H 85.002 42.603 17.092 H 0.0 **** 0.0
5 H 86.086 41.439 16.293 H 0.0 **** 0.0
@<TRIPOS>BOND
1 1 2 1
2 1 3 1
3 1 4 1
4 1 5 1
@<TRIPOS>MOLECULE
CH4
5 4
SMALL
USER_CHARGES


@<TRIPOS>ATOM
1 C 60.982 23.154 76.684 C 0.0 **** 0.0
2 H 60.508 23.897 77.325 H 0.0 **** 0.0
3 H 60.218 22.622 76.117 H 0.0 **** 0.0
4 H 61.538 22.446 77.299 H 0.0 **** 0.0
5 H 61.665 23.652 75.996 H 0.0 **** 0.0
@<TRIPOS>BOND
1 1 2 1
2 1 3 1
3 1 4 1
4 1 5 1
@<TRIPOS>MOLECULE
CH4
5 4
SMALL
USER_CHARGES


@<TRIPOS>ATOM
1 C 3.22 54.538 84.012 C 0.0 **** 0.0
2 H 2.715 54.483 83.048 H 0.0 **** 0.0
3 H 2.807 55.364 84.592 H 0.0 **** 0.0
4 H 4.286 54.702 83.855 H 0.0 **** 0.0
5 H 3.072 53.604 84.554 H 0.0 **** 0.0
@<TRIPOS>BOND
1 1 2 1
2 1 3 1
3 1 4 1
4 1 5 1
@<TRIPOS>MOLECULE
CH4
5 4
SMALL
USER_CHARGES


@<TRIPOS>ATOM
1 C 86.409 76.769 0.863 C 0.0 **** 0.0
2 H 87.021 77.034 0.001 H 0.0 **** 0.0
3 H 85.423 77.224 0.762 H 0.0 **** 0.0
4 H 86.886 77.134 1.773 H 0.0 **** 0.0
5 H 86.306 75.686 0.916 H 0.0 **** 0.0
@<TRIPOS>BOND
1 1 2 1
2 1 3 1
3 1 4 1
4 1 5 1
@<TRIPOS>MOLECULE
CH4
5 4
SMALL
USER_CHARGES


@<TRIPOS>ATOM
1 C 54.499 33.738 95.944 C 0.0 **** 0.0
2 H 55.23 34.078 96.676 H 0.0 **** 0.0
3 H 54.127 34.592 95.378 H 0.0 **** 0.0
4 H 53.669 33.253 96.458 H 0.0 **** 0.0
5 H 54.969 33.027 95.264 H 0.0 **** 0.0
@<TRIPOS>BOND
1 1 2 1
2 1 3 1
3 1 4 1
4 1 5 1
@<TRIPOS>MOLECULE
CH4
5 4
SMALL
USER_CHARGES


@<TRIPOS>ATOM
1 C 74.874 50.489 10.034 C 0.0 **** 0.0
2 H 75.04 50.686 8.975 H 0.0 **** 0.0
3 H 75.391 49.572 10.318 H 0.0 **** 0.0
4 H 73.806 50.377 10.22 H 0.0 **** 0.0
5 H 75.26 51.322 10.623 H 0.0 **** 0.0
@<TRIPOS>BOND
1 1 2 1
2 1 3 1
3 1 4 1
4 1 5 1
@<TRIPOS>MOLECULE
CH4
5 4
SMALL
USER_CHARGES


@<TRIPOS>ATOM
1 C 49.735 47.675 6.536 C 0.0 **** 0.0
2 H 49.049 47.032 7.087 H 0.0 **** 0.0
3 H 50.591 47.917 7.165 H 0.0 **** 0.0
4 H 49.221 48.594 6.251 H 0.0 **** 0.0
5 H 50.077 47.157 5.64 H 0.0 **** 0.0
@<TRIPOS>BOND
1 1 2 1
2 1 3 1
3 1 4 1
4 1 5 1
@<TRIPOS>MOLECULE
CH4
5 4
SMALL
USER_CHARGES


@<TRIPOS>ATOM
1 C 76.023 43.902 37.722 C 0.0 **** 0.0
2 H 75.09 44.108 37.198 H 0.0 **** 0.0
3 H 75.911 42.998 38.321 H 0.0 **** 0.0
4 H 76.267 44.742 38.372 H 0.0 **** 0.0
5 H 76.823 43.76 36.995 H 0.0 **** 0.0
@<TRIPOS>BOND
1 1 2 1
2 1 3 1
3 1 4 1
4 1 5 1
@<TRIPOS>MOLECULE
CH4
5 4
SMALL
USER_CHARGES


@<TRIPOS>ATOM
1 C 63.684 53.775 50.092 C 0.0 **** 0.0
2 H 63.676 53.217 51.028 H 0.0 **** 0.0
3 H 64.52 53.44 49.477 H 0.0 **** 0.0
4 H 63.793 54.839 50.304 H 0.0 **** 0.0
5 H 62.749 53.604 49.559 H 0.0 **** 0.0
@<TRIPOS>BOND
1 1 2 1
2 1 3 1
3 1 4 1
4 1 5 1
@<TRIPOS>MOLECULE
CH4
5 4
SMALL
USER_CHARGES


@<TRIPOS>ATOM
1 C 80.88 7.042 78.138 C 0.0 **** 0.0
2 H 80.838 6.933 77.054 H 0.0 **** 0.0
3 H 79.887 6.877 78.557 H 0.0 **** 0.0
4 H 81.218 8.048 78.389 H 0.0 **** 0.0
5 H 81.575 6.312 78.55 H 0.0 **** 0.0
@<TRIPOS>BOND
1 1 2 1
2 1 3 1
3 1 4 1
4 1 5 1
@<TRIPOS>MOLECULE
CH4
5 4
SMALL
USER_CHARGES


@<TRIPOS>ATOM
1 C 72.763 3.354 88.648 C 0.0 **** 0.0
2 H 72.826 2.488 87.99 H 0.0 **** 0.0
3 H 72.301 3.061 89.591 H 0.0 **** 0.0
4 H 72.16 4.128 88.173 H 0.0 **** 0.0
5 H 73.765 3.74 88.838 H 0.0 **** 0.0
@<TRIPOS>BOND
1 1 2 1
2 1 3 1
3 1 4 1
4 1 5 1
@<TRIPOS>MOLECULE
CH4
5 4
SMALL
USER_CHARGES


@<TRIPOS>ATOM
1 C 97.897 74.953 92.048 C 0.0 **** 0.0
2 H 96.849 75.136 91.81 H 0.0 **** 0.0
3 H 98.261 75.737 92.712 H 0.0 **** 0.0
4 H 98.483 74.953 91.129 H 0.0 **** 0.0
5 H 97.993 73.985 92.54 H 0.0 **** 0.0
@<TRIPOS>BOND
1 1 5 1
2 1 2 1
3 1 3 1
4 1 4 1
@<TRIPOS>MOLECULE
CH4
5 4
SMALL
USER_CHARGES


@<TRIPOS>ATOM
1 C 24.913 39.467 22.208 C 0.0 **** 0.0
2 H 25.181 39.232 21.178 H 0.0 **** 0.0
3 H 23.914 39.902 22.232 H 0.0 **** 0.0
4 H 25.63 40.18 22.616 H 0.0 **** 0.0
5 H 24.928 38.555 22.804 H 0.0 **** 0.0
@<TRIPOS>BOND
1 1 2 1
2 1 3 1
3 1 4 1
4 1 5 1
@<TRIPOS>MOLECULE
CH4
5 4
SMALL
USER_CHARGES


@<TRIPOS>ATOM
1 C 69.736 66.86 5.866 C 0.0 **** 0.0
2 H 69.898 66.903 4.789 H 0.0 **** 0.0
3 H 70.685 67.01 6.381 H 0.0 **** 0.0
4 H 69.327 65.886 6.134 H 0.0 **** 0.0
5 H 69.036 67.642 6.16 H 0.0 **** 0.0
@<TRIPOS>BOND
1 1 2 1
2 1 3 1
3 1 4 1
4 1 5 1
@<TRIPOS>MOLECULE
CH4
5 4
SMALL
USER_CHARGES


@<TRIPOS>ATOM
1 C 79.678 53.841 48.038 C 0.0 **** 0.0
2 H 80.226 53.348 48.841 H 0.0 **** 0.0
3 H 78.609 53.677 48.174 H 0.0 **** 0.0
4 H 79.991 53.428 47.079 H 0.0 **** 0.0
5 H 79.888 54.911 48.059 H 0.0 **** 0.0
@<TRIPOS>BOND
1 1 2 1
2 1 3 1
3 1 4 1
4 1 5 1
@<TRIPOS>MOLECULE
CH4
5 4
SMALL
USER_CHARGES


@<TRIPOS>ATOM
1 C 17.353 32.041 28.249 C 0.0 **** 0.0
2 H 17.407 31.967 29.335 H 0.0 **** 0.0
3 H 16.46 31.526 27.893 H 0.0 **** 0.0
4 H 18.238 31.581 27.809 H 0.0 **** 0.0
5 H 17.307 33.091 27.959 H 0.0 **** 0.0
@<TRIPOS>BOND
1 1 2 1
2 1 3 1
3 1 4 1
4 1 5 1
@<TRIPOS>MOLECULE
CH4
5 4
SMALL
USER_CHARGES


@<TRIPOS>ATOM
1 C 19.346 3.749 14.833 C 0.0 **** 0.0
2 H 19.422 3.698 15.919 H 0.0 **** 0.0
3 H 20.34 3.88 14.405 H 0.0 **** 0.0
4 H 18.715 4.593 14.552 H 0.0 **** 0.0
5 H 18.906 2.826 14.457 H 0.0 **** 0.0
@<TRIPOS>BOND
1 1 2 1
2 1 3 1
3 1 4 1
4 1 5 1
@<TRIPOS>MOLECULE
CH4
5 4
SMALL
USER_CHARGES


@<TRIPOS>ATOM
1 C 1.241 97.074 20.227 C 0.0 **** 0.0
2 H 2.158 97.272 20.781 H 0.0 **** 0.0
3 H 0.79 96.15 20.588 H 0.0 **** 0.0
4 H 1.472 96.976 19.166 H 0.0 **** 0.0
5 H 0.544 97.9 20.372 H 0.0 **** 0.0
@<TRIPOS>BOND
1 1 2 1
2 1 3 1
3 1 4 1
4 1 5 1
@<TRIPOS>MOLECULE
CH4
5 4
SMALL
USER_CHARGES


@<TRIPOS>ATOM
1 C 3.99 43.283 15.172 C 0.0 **** 0.0
2 H 3.122 43.027 15.778 H 0.0 **** 0.0
3 H 4.897 43.161 15.765 H 0.0 **** 0.0
4 H 3.909 44.318 14.84 H 0.0 **** 0.0
5 H 4.033 42.626 14.303 H 0.0 **** 0.0
@<TRIPOS>BOND
1 1 2 1
2 1 3 1
3 1 4 1
4 1 5 1
@<TRIPOS>MOLECULE
CH4
5 4
SMALL
USER_CHARGES


@<TRIPOS>ATOM
1 C 33.312 16.734 77.532 C 0.0 **** 0.0
2 H 33.258 16.418 78.574 H 0.0 **** 0.0
3 H 34.102 16.179 77.025 H 0.0 **** 0.0
4 H 33.531 17.801 77.488 H 0.0 **** 0.0
5 H 32.358 16.538 77.043 H 0.0 **** 0.0
@<TRIPOS>BOND
1 1 2 1
2 1 3 1
3 1 4 1
4 1 5 1
@<TRIPOS>MOLECULE
CH4
5 4
SMALL
USER_CHARGES


@<TRIPOS>ATOM
1 C 66.899 90.984 16.571 C 0.0 **** 0.0
2 H 66.914 91.365 15.55 H 0.0 **** 0.0
3 H 67.767 91.362 17.112 H 0.0 **** 0.0
4 H 66.929 89.895 16.552 H 0.0 **** 0.0
5 H 65.988 91.314 17.069 H 0.0 **** 0.0
@<TRIPOS>BOND
1 1 2 1
2 1 3 1
3 1 4 1
4 1 5 1
@<TRIPOS>MOLECULE
CH4
5 4
SMALL
USER_CHARGES


@<TRIPOS>ATOM
1 C 70.178 22.57 9.334 C 0.0 **** 0.0
2 H 70.963 22.358 8.608 H 0.0 **** 0.0
3 H 69.206 22.514 8.843 H 0.0 **** 0.0
4 H 70.322 23.57 9.743 H 0.0 **** 0.0
5 H 70.221 21.838 10.14 H 0.0 **** 0.0
@<TRIPOS>BOND
1 1 2 1
2 1 3 1
3 1 4 1
4 1 5 1
@<TRIPOS>MOLECULE
CH4
5 4
SMALL
USER_CHARGES


@<TRIPOS>ATOM
1 C 74.156 0.739 31.727 C 0.0 **** 0.0
2 H 74.489 1.731 32.032 H 0.0 **** 0.0
3 H 74.514 0.0 32.445 H 0.0 **** 0.0
4 H 74.556 0.509 30.739 H 0.0 **** 0.0
5 H 73.067 0.715 31.693 H 0.0 **** 0.0
@<TRIPOS>BOND
1 1 2 1
2 1 3 1
3 1 4 1
4 1 5 1
@<TRIPOS>MOLECULE
CH4
5 4
SMALL
USER_CHARGES


@<TRIPOS>ATOM
1 C 35.927 61.508 49.007 C 0.0 **** 0.0
2 H 36.2 62.45 49.482 H 0.0 **** 0.0
3 H 35.344 60.906 49.704 H 0.0 **** 0.0
4 H 36.832 60.967 48.728 H 0.0 **** 0.0
5 H 35.334 61.709 48.115 H 0.0 **** 0.0
@<TRIPOS>BOND
1 1 2 1
2 1 3 1
3 1 4 1
4 1 5 1
@<TRIPOS>MOLECULE
CH4
5 4
SMALL
USER_CHARGES


@<TRIPOS>ATOM
1 C 64.921 5.303 91.308 C 0.0 **** 0.0
2 H 65.01 4.748 92.242 H 0.0 **** 0.0
3 H 65.773 5.075 90.667 H 0.0 **** 0.0
4 H 64.902 6.372 91.521 H 0.0 **** 0.0
5 H 63.999 5.018 90.802 H 0.0 **** 0.0
@<TRIPOS>BOND
1 1 2 1
2 1 3 1
3 1 4 1
4 1 5 1
@<TRIPOS>MOLECULE
CH4
5 4
SMALL
USER_CHARGES


@<TRIPOS>ATOM
1 C 16.338 96.959 67.282 C 0.0 **** 0.0
2 H 16.669 96.671 68.28 H 0.0 **** 0.0
3 H 15.326 97.36 67.337 H 0.0 **** 0.0
4 H 16.349 96.085 66.631 H 0.0 **** 0.0
5 H 17.01 97.718 66.882 H 0.0 **** 0.0
@<TRIPOS>BOND
1 1 2 1
2 1 3 1
3 1 4 1
4 1 5 1
@<TRIPOS>MOLECULE
CH4
5 4
SMALL
USER_CHARGES


@<TRIPOS>ATOM
1 C 68.247 39.61 86.584 C 0.0 **** 0.0
2 H 68.503 39.181 87.552 H 0.0 **** 0.0
3 H 69.089 40.196 86.213 H 0.0 **** 0.0
4 H 67.375 40.255 86.691 H 0.0 **** 0.0
5 H 68.023 38.809 85.879 H 0.0 **** 0.0
@<TRIPOS>BOND
1 1 2 1
2 1 3 1
3 1 4 1
4 1 5 1
@<TRIPOS>MOLECULE
CH4
5 4
SMALL
USER_CHARGES


@<TRIPOS>ATOM
1 C 73.63 79.268 50.447 C 0.0 **** 0.0
2 H 72.925 78.959 51.219 H 0.0 **** 0.0
3 H 73.58 80.349 50.32 H 0.0 **** 0.0
4 H 73.376 78.778 49.507 H 0.0 **** 0.0
5 H 74.64 78.983 50.744 H 0.0 **** 0.0
@<TRIPOS>BOND
1 1 2 1
2 1 3 1
3 1 4 1
4 1 5 1
@<TRIPOS>MOLECULE
CH4
5 4
SMALL
USER_CHARGES


@<TRIPOS>ATOM
1 C 8.174 13.486 39.991 C 0.0 **** 0.0
2 H 8.365 13.06 39.006 H 0.0 **** 0.0
3 H 7.622 12.767 40.596 H 0.0 **** 0.0
4 H 7.587 14.398 39.884 H 0.0 **** 0.0
5 H 9.122 13.719 40.476 H 0.0 **** 0.0
@<TRIPOS>BOND
1 1 4 1
2 1 5 1
3 1 2 1
4 1 3 1
@<TRIPOS>MOLECULE
CH4
5 4
SMALL
USER_CHARGES


@<TRIPOS>ATOM
1 C 49.846 71.304 62.891 C 0.0 **** 0.0
2 H 50.859 71.64 63.114 H 0.0 **** 0.0
3 H 49.882 70.305 62.455 H 0.0 **** 0.0
4 H 49.382 71.992 62.185 H 0.0 **** 0.0
5 H 49.262 71.278 63.811 H 0.0 **** 0.0
@<TRIPOS>BOND
1 1 2 1
2 1 3 1
3 1 4 1
4 1 5 1
@<TRIPOS>MOLECULE
CH4
5 4
SMALL
USER_CHARGES


@<TRIPOS>ATOM
1 C 34.502 78.402 84.363 C 0.0 **** 0.0
2 H 34.154 79.298 84.878 H 0.0 **** 0.0
3 H 33.716 78.034 83.703 H 0.0 **** 0.0
4 H 34.751 77.635 85.096 H 0.0 **** 0.0
5 H 35.387 78.643 83.774 H 0.0 **** 0.0
@<TRIPOS>BOND
1 1 2 1
2 1 3 1
3 1 4 1
4 1 5 1
@<TRIPOS>MOLECULE
CH4
5 4
SMALL
USER_CHARGES


@<TRIPOS>ATOM
1 C 80.389 16.086 75.995 C 0.0 **** 0.0
2 H 80.575 17.128 76.253 H 0.0 **** 0.0
3 H 79.843 16.038 75.053 H 0.0 **** 0.0
4 H 79.8 15.616 76.782 H 0.0 **** 0.0
5 H 81.34 15.563 75.891 H 0.0 **** 0.0
@<TRIPOS>BOND
1 1 2 1
2 1 3 1
3 1 4 1
4 1 5 1
@<TRIPOS>MOLECULE
CH4
5 4
SMALL
USER_CHARGES


@<TRIPOS>ATOM
1 C 72.449 55.035 84.724 C 0.0 **** 0.0
2 H 72.529 54.408 83.836 H 0.0 **** 0.0
3 H 71.878 54.51 85.489 H 0.0 **** 0.0
4 H 71.943 55.965 84.466 H 0.0 **** 0.0
5 H 73.447 55.257 85.102 H 0.0 **** 0.0
@<TRIPOS>BOND
1 1 2 1
2 1 3 1
3 1 4 1
4 1 5 1
@<TRIPOS>MOLECULE
CH4
5 4
SMALL
USER_CHARGES


@<TRIPOS>ATOM
1 C 13.841 35.822 15.193 C 0.0 **** 0.0
2 H 13.028 36.531 15.033 H 0.0 **** 0.0
3 H 14.755 36.366 15.431 H 0.0 **** 0.0
4 H 13.992 35.234 14.287 H 0.0 **** 0.0
5 H 13.586 35.158 16.019 H 0.0 **** 0.0
@<TRIPOS>BOND
1 1 2 1
2 1 3 1
3 1 4 1
4 1 5 1
@<TRIPOS>MOLECULE
CH4
5 4
SMALL
USER_CHARGES


@<TRIPOS>ATOM
1 C 15.509 78.184 17.715 C 0.0 **** 0.0
2 H 15.828 78.089 18.753 H 0.0 **** 0.0
3 H 14.434 78.363 17.68 H 0.0 **** 0.0
4 H 15.742 77.264 17.178 H 0.0 **** 0.0
5 H 16.032 79.019 17.249 H 0.0 **** 0.0
@<TRIPOS>BOND
1 1 2 1
2 1 3 1
3 1 4 1
4 1 5 1
@<TRIPOS>MOLECULE
CH4
5 4
SMALL
USER_CHARGES


@<TRIPOS>ATOM
1 C 73.205 51.001 37.065 C 0.0 **** 0.0
2 H 73.248 50.903 35.981 H 0.0 **** 0.0
3 H 72.163 51.025 37.386 H 0.0 **** 0.0
4 H 73.699 51.925 37.366 H 0.0 **** 0.0
5 H 73.709 50.152 37.528 H 0.0 **** 0.0
@<TRIPOS>BOND
1 1 2 1
2 1 3 1
3 1 4 1
4 1 5 1
@<TRIPOS>MOLECULE
CH4
5 4
SMALL
USER_CHARGES


@<TRIPOS>ATOM
1 C 38.509 85.218 22.309 C 0.0 **** 0.0
2 H 38.863 84.19 22.233 H 0.0 **** 0.0
3 H 37.685 85.37 21.611 H 0.0 **** 0.0
4 H 39.322 85.901 22.065 H 0.0 **** 0.0
5 H 38.165 85.409 23.325 H 0.0 **** 0.0
@<TRIPOS>BOND
1 1 2 1
2 1 3 1
3 1 4 1
4 1 5 1
@<TRIPOS>MOLECULE
CH4
5 4
SMALL
USER_CHARGES


@<TRIPOS>ATOM
1 C 7.029 33.95 53.978 C 0.0 **** 0.0
2 H 7.067 33.289 54.844 H 0.0 **** 0.0
3 H 7.843 33.701 53.296 H 0.0 **** 0.0
4 H 7.133 34.984 54.306 H 0.0 **** 0.0
5 H 6.075 33.824 53.467 H 0.0 **** 0.0
@<TRIPOS>BOND
1 1 2 1
2 1 3 1
3 1 4 1
4 1 5 1
@<TRIPOS>MOLECULE
CH4
5 4
SMALL
USER_CHARGES


@<TRIPOS>ATOM
1 C 54.37 49.502 5.758 C 0.0 **** 0.0
2 H 54.367 49.503 4.668 H 0.0 **** 0.0
3 H 54.777 50.446 6.12 H 0.0 **** 0.0
4 H 54.985 48.678 6.119 H 0.0 **** 0.0
5 H 53.35 49.381 6.123 H 0.0 **** 0.0
@<TRIPOS>BOND
1 1 2 1
2 1 3 1
3 1 4 1
4 1 5 1
@<TRIPOS>MOLECULE
CH4
5 4
SMALL
USER_CHARGES


@<TRIPOS>ATOM
1 C 53.779 37.53 28.265 C 0.0 **** 0.0
2 H 54.848 37.408 28.091 H 0.0 **** 0.0
3 H 53.271 36.584 28.077 H 0.0 **** 0.0
4 H 53.386 38.293 27.593 H 0.0 **** 0.0
5 H 53.612 37.834 29.298 H 0.0 **** 0.0
@<TRIPOS>BOND
1 1 2 1
2 1 3 1
3 1 4 1
4 1 5 1
@<TRIPOS>MOLECULE
CH4
5 4
SMALL
USER_CHARGES


@<TRIPOS>ATOM
1 C 20.892 3.073 79.101 C 0.0 **** 0.0
2 H 21.765 2.741 79.663 H 0.0 **** 0.0
3 H 20.141 3.458 79.792 H 0.0 **** 0.0
4 H 20.478 2.232 78.545 H 0.0 **** 0.0
5 H 21.185 3.86 78.406 H 0.0 **** 0.0
@<TRIPOS>BOND
1 1 2 1
2 1 3 1
3 1 4 1
4 1 5 1
@<TRIPOS>MOLECULE
CH4
5 4
SMALL
USER_CHARGES


@<TRIPOS>ATOM
1 C 83.439 77.074 74.961 C 0.0 **** 0.0
2 H 82.94 76.105 74.95 H 0.0 **** 0.0
3 H 82.858 77.789 74.378 H 0.0 **** 0.0
4 H 84.434 76.975 74.528 H 0.0 **** 0.0
5 H 83.524 77.427 75.989 H 0.0 **** 0.0
@<TRIPOS>BOND
1 1 2 1
2 1 3 1
3 1 4 1
4 1 5 1
@<TRIPOS>MOLECULE
CH4
5 4
SMALL
USER_CHARGES


@<TRIPOS>ATOM
1 C 6.632 13.876 93.38 C 0.0 **** 0.0
2 H 6.598 13.884 92.29 H 0.0 **** 0.0
3 H 5.955 13.11 93.758 H 0.0 **** 0.0
4 H 6.326 14.851 93.759 H 0.0 **** 0.0
5 H 7.647 13.659 93.71 H 0.0 **** 0.0
@<TRIPOS>BOND
1 1 2 1
2 1 3 1
3 1 4 1
4 1 5 1
@<TRIPOS>MOLECULE
CH4
5 4
SMALL
USER_CHARGES


@<TRIPOS>ATOM
1 C 20.88 68.568 77.941 C 0.0 **** 0.0
2 H 20.231 68.388 77.084 H 0.0 **** 0.0
3 H 21.239 69.597 77.915 H 0.0 **** 0.0
4 H 21.73 67.886 77.902 H 0.0 **** 0.0
5 H 20.322 68.4 78.862 H 0.0 **** 0.0
@<TRIPOS>BOND
1 1 2 1
2 1 3 1
3 1 4 1
4 1 5 1
@<TRIPOS>MOLECULE
CH4
5 4
SMALL
USER_CHARGES


@<TRIPOS>ATOM
1 C 54.051 33.977 42.746 C 0.0 **** 0.0
2 H 53.176 34.623 42.803 H 0.0 **** 0.0
3 H 54.136 33.397 43.665 H 0.0 **** 0.0
4 H 54.945 34.587 42.617 H 0.0 **** 0.0
5 H 53.948 33.3 41.897 H 0.0 **** 0.0
@<TRIPOS>BOND
1 1 2 1
2 1 3 1
3 1 4 1
4 1 5 1
@<TRIPOS>MOLECULE
CH4
5 4
SMALL
USER_CHARGES


@<TRIPOS>ATOM
1 C 59.013 14.244 30.009 C 0.0 **** 0.0
2 H 58.807 13.547 30.822 H 0.0 **** 0.0
3 H 59.908 13.926 29.475 H 0.0 **** 0.0
4 H 59.169 15.242 30.418 H 0.0 **** 0.0
5 H 58.166 14.261 29.322 H 0.0 **** 0.0
@<TRIPOS>BOND
1 1 3 1
2 1 4 1
3 1 5 1
4 1 2 1
@<TRIPOS>MOLECULE
CH4
5 4
SMALL
USER_CHARGES


@<TRIPOS>ATOM
1 C 50.833 31.268 48.939 C 0.0 **** 0.0
2 H 50.028 31.911 48.585 H 0.0 **** 0.0
3 H 50.498 30.717 49.818 H 0.0 **** 0.0
4 H 51.697 31.879 49.201 H 0.0 **** 0.0
5 H 51.109 30.566 48.153 H 0.0 **** 0.0
@<TRIPOS>BOND
1 1 2 1
2 1 3 1
3 1 4 1
4 1 5 1
@<TRIPOS>MOLECULE
CH4
5 4
SMALL
USER_CHARGES


@<TRIPOS>ATOM
1 C 8.72 42.881 11.329 C 0.0 **** 0.0
2 H 7.804 43.467 11.239 H 0.0 **** 0.0
3 H 9.464 43.454 11.882 H 0.0 **** 0.0
4 H 9.102 42.652 10.334 H 0.0 **** 0.0
5 H 8.507 41.953 11.86 H 0.0 **** 0.0
@<TRIPOS>BOND
1 1 2 1
2 1 3 1
3 1 4 1
4 1 5 1
@<TRIPOS>MOLECULE
CH4
5 4
SMALL
USER_CHARGES


@<TRIPOS>ATOM
1 C 16.255 84.004 14.58 C 0.0 **** 0.0
2 H 16.82 84.506 15.366 H 0.0 **** 0.0
3 H 16.517 84.436 13.614 H 0.0 **** 0.0
4 H 15.188 84.133 14.76 H 0.0 **** 0.0
5 H 16.498 82.941 14.582 H 0.0 **** 0.0
@<TRIPOS>BOND
1 1 2 1
2 1 3 1
3 1 4 1
4 1 5 1
@<TRIPOS>MOLECULE
CH4
5 4
SMALL
USER_CHARGES


@<TRIPOS>ATOM
1 C 17.54 64.875 4.816 C 0.0 **** 0.0
2 H 17.654 64.96 3.735 H 0.0 **** 0.0
3 H 16.506 64.624 5.053 H 0.0 **** 0.0
4 H 17.801 65.824 5.284 H 0.0 **** 0.0
5 H 18.199 64.092 5.19 H 0.0 **** 0.0
@<TRIPOS>BOND
1 1 2 1
2 1 3 1
3 1 4 1
4 1 5 1
@<TRIPOS>MOLECULE
CH4
5 4
SMALL
USER_CHARGES


@<TRIPOS>ATOM
1 C 78.22 45.942 66.353 C 0.0 **** 0.0
2 H 78.891 46.078 65.505 H 0.0 **** 0.0
3 H 78.778 46.062 67.281 H 0.0 **** 0.0
4 H 77.786 44.942 66.315 H 0.0 **** 0.0
5 H 77.423 46.685 66.308 H 0.0 **** 0.0
@<TRIPOS>BOND
1 1 2 1
2 1 3 1
3 1 4 1
4 1 5 1
@<TRIPOS>MOLECULE
CH4
5 4
SMALL
USER_CHARGES


@<TRIPOS>ATOM
1 C 48.669 81.235 10.258 C 0.0 **** 0.0
2 H 48.95 82.126 10.82 H 0.0 **** 0.0
3 H 47.828 81.469 9.604 H 0.0 **** 0.0
4 H 48.383 80.443 10.95 H 0.0 **** 0.0
5 H 49.516 80.904 9.657 H 0.0 **** 0.0
@<TRIPOS>BOND
1 1 2 1
2 1 3 1
3 1 4 1
4 1 5 1
@<TRIPOS>MOLECULE
CH4
5 4
SMALL
USER_CHARGES


@<TRIPOS>ATOM
1 C 62.867 47.38 57.345 C 0.0 **** 0.0
2 H 62.611 47.095 56.325 H 0.0 **** 0.0
3 H 63.685 46.754 57.703 H 0.0 **** 0.0
4 H 61.998 47.246 57.99 H 0.0 **** 0.0
5 H 63.174 48.426 57.364 H 0.0 **** 0.0
@<TRIPOS>BOND
1 1 2 1
2 1 3 1
3 1 4 1
4 1 5 1
@<TRIPOS>MOLECULE
CH4
5 4
SMALL
USER_CHARGES


@<TRIPOS>ATOM
1 C 35.993 98.021 49.032 C 0.0 **** 0.0
2 H 36.06 97.606 50.038 H 0.0 **** 0.0
3 H 34.955 98.271 48.811 H 0.0 **** 0.0
4 H 36.351 97.286 48.311 H 0.0 **** 0.0
5 H 36.605 98.92 48.969 H 0.0 **** 0.0
@<TRIPOS>BOND
1 1 5 1
2 1 2 1
3 1 4 1
4 1 3 1
@<TRIPOS>MOLECULE
CH4
5 4
SMALL
USER_CHARGES


@<TRIPOS>ATOM
1 C 70.592 32.227 87.28 C 0.0 **** 0.0
2 H 70.755 31.553 86.438 H 0.0 **** 0.0
3 H 71.258 31.953 88.098 H 0.0 **** 0.0
4 H 69.557 32.149 87.612 H 0.0 **** 0.0
5 H 70.798 33.251 86.97 H 0.0 **** 0.0
@<TRIPOS>BOND
1 1 2 1
2 1 3 1
3 1 4 1
4 1 5 1
@<TRIPOS>MOLECULE
CH4
5 4
SMALL
USER_CHARGES


@<TRIPOS>ATOM
1 C 42.799 73.907 71.328 C 0.0 **** 0.0
2 H 42.871 74.254 72.359 H 0.0 **** 0.0
3 H 41.963 73.213 71.236 H 0.0 **** 0.0
4 H 43.724 73.401 71.051 H 0.0 **** 0.0
5 H 42.638 74.759 70.668 H 0.0 **** 0.0
@<TRIPOS>BOND
1 1 2 1
2 1 3 1
3 1 4 1
4 1 5 1
@<TRIPOS>MOLECULE
CH4
5 4
SMALL
USER_CHARGES


@<TRIPOS>ATOM
1 C 15.486 46.908 37.548 C 0.0 **** 0.0
2 H 15.054 46.984 38.546 H 0.0 **** 0.0
3 H 16.573 46.964 37.618 H 0.0 **** 0.0
4 H 15.119 47.727 36.93 H 0.0 **** 0.0
5 H 15.199 45.957 37.1 H 0.0 **** 0.0
@<TRIPOS>BOND
1 1 2 1
2 1 3 1
3 1 4 1
4 1 5 1
@<TRIPOS>MOLECULE
CH4
5 4
SMALL
USER_CHARGES


@<TRIPOS>ATOM
1 C 74.517 22.498 78.396 C 0.0 **** 0.0
2 H 75.164 23.0 79.115 H 0.0 **** 0.0
3 H 75.125 21.895 77.721 H 0.0 **** 0.0
4 H 73.966 23.243 77.822 H 0.0 **** 0.0
5 H 73.815 21.855 78.926 H 0.0 **** 0.0
@<TRIPOS>BOND
1 1 2 1
2 1 3 1
3 1 4 1
4 1 5 1
@<TRIPOS>MOLECULE
CH4
5 4
SMALL
USER_CHARGES


@<TRIPOS>ATOM
1 C 59.682 59.756 50.405 C 0.0 **** 0.0
2 H 59.567 59.181 49.486 H 0.0 **** 0.0
3 H 59.998 59.092 51.21 H 0.0 **** 0.0
4 H 58.73 60.218 50.666 H 0.0 **** 0.0
5 H 60.434 60.531 50.257 H 0.0 **** 0.0
@<TRIPOS>BOND
1 1 2 1
2 1 3 1
3 1 4 1
4 1 5 1
@<TRIPOS>MOLECULE
CH4
5 4
SMALL
USER_CHARGES


@<TRIPOS>ATOM
1 C 51.902 87.949 91.961 C 0.0 **** 0.0
2 H 52.25 87.577 92.925 H 0.0 **** 0.0
3 H 52.759 88.149 91.318 H 0.0 **** 0.0
4 H 51.337 88.87 92.11 H 0.0 **** 0.0
5 H 51.261 87.202 91.493 H 0.0 **** 0.0
@<TRIPOS>BOND
1 1 2 1
2 1 3 1
3 1 4 1
4 1 5 1
@<TRIPOS>MOLECULE
CH4
5 4
SMALL
USER_CHARGES


@<TRIPOS>ATOM
1 C 83.318 17.918 21.893 C 0.0 **** 0.0
2 H 84.011 18.344 21.168 H 0.0 **** 0.0
3 H 83.862 17.645 22.798 H 0.0 **** 0.0
4 H 82.848 17.031 21.469 H 0.0 **** 0.0
5 H 82.551 18.654 22.138 H 0.0 **** 0.0
@<TRIPOS>BOND
1 1 2 1
2 1 3 1
3 1 4 1
4 1 5 1
@<TRIPOS>MOLECULE
CH4
5 4
SMALL
USER_CHARGES


@<TRIPOS>ATOM
1 C 26.035 92.112 91.384 C 0.0 **** 0.0
2 H 26.064 92.631 90.426 H 0.0 **** 0.0
3 H 25.399 91.231 91.301 H 0.0 **** 0.0
4 H 25.634 92.78 92.146 H 0.0 **** 0.0
5 H 27.044 91.807 91.663 H 0.0 **** 0.0
@<TRIPOS>BOND
1 1 2 1
2 1 3 1
3 1 4 1
4 1 5 1
@<TRIPOS>MOLECULE
CH4
5 4
SMALL
USER_CHARGES


@<TRIPOS>ATOM
1 C 78.235 43.692 0.966 C 0.0 **** 0.0
2 H 77.592 42.852 0.706 H 0.0 **** 0.0
3 H 79.277 43.373 0.943 H 0.0 **** 0.0
4 H 77.984 44.045 1.967 H 0.0 **** 0.0
5 H 78.086 44.499 0.248 H 0.0 **** 0.0
@<TRIPOS>BOND
1 1 2 1
2 1 3 1
3 1 4 1
4 1 5 1
@<TRIPOS>MOLECULE
CH4
5 4
SMALL
USER_CHARGES


@<TRIPOS>ATOM
1 C 60.199 62.853 60.273 C 0.0 **** 0.0
2 H 60.989 62.105 60.203 H 0.0 **** 0.0
3 H 59.629 62.867 59.344 H 0.0 **** 0.0
4 H 60.643 63.834 60.443 H 0.0 **** 0.0
5 H 59.537 62.605 61.103 H 0.0 **** 0.0
@<TRIPOS>BOND
1 1 2 1
2 1 3 1
3 1 4 1
4 1 5 1
@<TRIPOS>MOLECULE
CH4
5 4
SMALL
USER_CHARGES


@<TRIPOS>ATOM
1 C 60.671 82.33 41.036 C 0.0 **** 0.0
2 H 60.848 82.726 42.036 H 0.0 **** 0.0
3 H 59.598 82.281 40.85 H 0.0 **** 0.0
4 H 61.099 81.33 40.96 H 0.0 **** 0.0
5 H 61.139 82.982 40.299 H 0.0 **** 0.0
@<TRIPOS>BOND
1 1 2 1
2 1 3 1
3 1 4 1
4 1 5 1
@<TRIPOS>MOLECULE
CH4
5 4
SMALL
USER_CHARGES


@<TRIPOS>ATOM
1 C 92.671 73.543 46.343 C 0.0 **** 0.0
2 H 91.805 73.961 46.855 H 0.0 **** 0.0
3 H 93.029 72.669 46.889 H 0.0 **** 0.0
4 H 93.462 74.291 46.296 H 0.0 **** 0.0
5 H 92.388 73.249 45.332 H 0.0 **** 0.0
@<TRIPOS>BOND
1 1 2 1
2 1 3 1
3 1 4 1
4 1 5 1
@<TRIPOS>MOLECULE
CH4
5 4
SMALL
USER_CHARGES


@<TRIPOS>ATOM
1 C 31.787 38.664 73.396 C 0.0 **** 0.0
2 H 31.753 38.331 74.433 H 0.0 **** 0.0
3 H 32.522 38.073 72.848 H 0.0 **** 0.0
4 H 32.069 39.717 73.363 H 0.0 **** 0.0
5 H 30.805 38.537 72.941 H 0.0 **** 0.0
@<TRIPOS>BOND
1 1 2 1
2 1 3 1
3 1 4 1
4 1 5 1
@<TRIPOS>MOLECULE
CH4
5 4
SMALL
USER_CHARGES


@<TRIPOS>ATOM
1 C 38.734 80.619 3.876 C 0.0 **** 0.0
2 H 39.615 81.052 3.403 H 0.0 **** 0.0
3 H 39.044 79.871 4.606 H 0.0 **** 0.0
4 H 38.109 80.149 3.117 H 0.0 **** 0.0
5 H 38.168 81.404 4.378 H 0.0 **** 0.0
@<TRIPOS>BOND
1 1 2 1
2 1 3 1
3 1 4 1
4 1 5 1
@<TRIPOS>MOLECULE
CH4
5 4
SMALL
USER_CHARGES


@<TRIPOS>ATOM
1 C 81.553 10.889 11.211 C 0.0 **** 0.0
2 H 81.833 11.621 11.968 H 0.0 **** 0.0
3 H 82.452 10.421 10.808 H 0.0 **** 0.0
4 H 81.01 11.387 10.407 H 0.0 **** 0.0
5 H 80.917 10.127 11.661 H 0.0 **** 0.0
@<TRIPOS>BOND
1 1 2 1
2 1 3 1
3 1 4 1
4 1 5 1
@<TRIPOS>MOLECULE
CH4
5 4
SMALL
USER_CHARGES


@<TRIPOS>ATOM
1 C 30.516 7.553 76.986 C 0.0 **** 0.0
2 H 30.206 7.909 77.968 H 0.0 **** 0.0
3 H 31.478 7.046 77.071 H 0.0 **** 0.0
4 H 30.611 8.399 76.305 H 0.0 **** 0.0
5 H 29.771 6.857 76.6 H 0.0 **** 0.0
@<TRIPOS>BOND
1 1 2 1
2 1 3 1
3 1 4 1
4 1 5 1
@<TRIPOS>MOLECULE
CH4
5 4
SMALL
USER_CHARGES


@<TRIPOS>ATOM
1 C 12.371 19.922 38.858 C 0.0 **** 0.0
2 H 13.447 19.97 39.025 H 0.0 **** 0.0
3 H 12.047 20.817 38.325 H 0.0 **** 0.0
4 H 11.857 19.864 39.817 H 0.0 **** 0.0
5 H 12.135 19.039 38.264 H 0.0 **** 0.0
@<TRIPOS>BOND
1 1 2 1
2 1 3 1
3 1 4 1
4 1 5 1
@<TRIPOS>MOLECULE
CH4
5 4
SMALL
USER_CHARGES


@<TRIPOS>ATOM
1 C 93.047 28.57 91.795 C 0.0 **** 0.0
2 H 92.998 28.632 90.707 H 0.0 **** 0.0
3 H 93.024 27.524 92.1 H 0.0 **** 0.0
4 H 92.194 29.094 92.227 H 0.0 **** 0.0
5 H 93.971 29.03 92.144 H 0.0 **** 0.0
@<TRIPOS>BOND
1 1 2 1
2 1 3 1
3 1 4 1
4 1 5 1
@<TRIPOS>MOLECULE
CH4
5 4
SMALL
USER_CHARGES


@<TRIPOS>ATOM
1 C 92.99 52.03 68.704 C 0.0 **** 0.0
2 H 92.577 52.429 69.63 H 0.0 **** 0.0
3 H 93.972 51.597 68.901 H 0.0 **** 0.0
4 H 93.087 52.833 67.973 H 0.0 **** 0.0
5 H 92.326 51.26 68.312 H 0.0 **** 0.0
@<TRIPOS>BOND
1 1 2 1
2 1 3 1
3 1 4 1
4 1 5 1
@<TRIPOS>MOLECULE
CH4
5 4
SMALL
USER_CHARGES


@<TRIPOS>ATOM
1 C 95.687 70.853 90.858 C 0.0 **** 0.0
2 H 94.957 70.616 91.632 H 0.0 **** 0.0
3 H 95.735 70.033 90.142 H 0.0 **** 0.0
4 H 96.666 70.997 91.315 H 0.0 **** 0.0
5 H 95.388 71.767 90.345 H 0.0 **** 0.0
@<TRIPOS>BOND
1 1 2 1
2 1 3 1
3 1 4 1
4 1 5 1
@<TRIPOS>MOLECULE
CH4
5 4
SMALL
USER_CHARGES


@<TRIPOS>ATOM
1 C 24.275 74.884 95.98 C 0.0 **** 0.0
2 H 24.398 74.861 94.897 H 0.0 **** 0.0
3 H 25.158 75.333 96.435 H 0.0 **** 0.0
4 H 24.15 73.868 96.352 H 0.0 **** 0.0
5 H 23.395 75.475 96.233 H 0.0 **** 0.0
@<TRIPOS>BOND
1 1 2 1
2 1 3 1
3 1 4 1
4 1 5 1
@<TRIPOS>MOLECULE
CH4
5 4
SMALL
USER_CHARGES


@<TRIPOS>ATOM
1 C 11.067 3.111 67.406 C 0.0 **** 0.0
2 H 10.134 2.777 67.858 H 0.0 **** 0.0
3 H 11.298 2.484 66.545 H 0.0 **** 0.0
4 H 11.872 3.035 68.137 H 0.0 **** 0.0
5 H 10.965 4.147 67.084 H 0.0 **** 0.0
@<TRIPOS>BOND
1 1 2 1
2 1 3 1
3 1 4 1
4 1 5 1
@<TRIPOS>MOLECULE
CH4
5 4
SMALL
USER_CHARGES


@<TRIPOS>ATOM
1 C 14.287 79.582 36.916 C 0.0 **** 0.0
2 H 14.503 79.582 37.984 H 0.0 **** 0.0
3 H 14.928 80.309 36.415 H 0.0 **** 0.0
4 H 13.242 79.849 36.757 H 0.0 **** 0.0
5 H 14.475 78.589 36.507 H 0.0 **** 0.0
@<TRIPOS>BOND
1 1 2 1
2 1 3 1
3 1 4 1
4 1 5 1
@<TRIPOS>MOLECULE
CH4
5 4
SMALL
USER_CHARGES


@<TRIPOS>ATOM
1 C 32.113 25.666 65.35 C 0.0 **** 0.0
2 H 32.538 24.879 65.974 H 0.0 **** 0.0
3 H 31.033 25.698 65.494 H 0.0 **** 0.0
4 H 32.335 25.459 64.303 H 0.0 **** 0.0
5 H 32.546 26.625 65.631 H 0.0 **** 0.0
@<TRIPOS>BOND
1 1 2 1
2 1 3 1
3 1 4 1
4 1 5 1
@<TRIPOS>MOLECULE
CH4
5 4
SMALL
USER_CHARGES


@<TRIPOS>ATOM
1 C 35.033 69.365 97.926 C 0.0 **** 0.0
2 H 34.702 69.656 96.929 H 0.0 **** 0.0
3 H 35.858 68.657 97.842 H 0.0 **** 0.0
4 H 34.206 68.898 98.461 H 0.0 **** 0.0
5 H 35.366 70.248 98.471 H 0.0 **** 0.0
@<TRIPOS>BOND
1 1 2 1
2 1 3 1
3 1 4 1
4 1 5 1
@<TRIPOS>MOLECULE
CH4
5 4
SMALL
USER_CHARGES


@<TRIPOS>ATOM
1 C 82.087 81.535 14.836 C 0.0 **** 0.0
2 H 81.564 81.962 13.98 H 0.0 **** 0.0
3 H 82.659 82.316 15.337 H 0.0 **** 0.0
4 H 82.763 80.751 14.494 H 0.0 **** 0.0
5 H 81.361 81.112 15.531 H 0.0 **** 0.0
@<TRIPOS>BOND
1 1 2 1
2 1 3 1
3 1 4 1
4 1 5 1
@<TRIPOS>MOLECULE
CH4
5 4
SMALL
USER_CHARGES


@<TRIPOS>ATOM
1 C 73.809 43.712 59.771 C 0.0 **** 0.0
2 H 74.325 44.558 60.226 H 0.0 **** 0.0
3 H 74.089 42.795 60.289 H 0.0 **** 0.0
4 H 74.09 43.638 58.721 H 0.0 **** 0.0
5 H 72.732 43.86 59.849 H 0.0 **** 0.0
@<TRIPOS>BOND
1 1 2 1
2 1 3 1
3 1 4 1
4 1 5 1
@<TRIPOS>MOLECULE
CH4
5 4
SMALL
USER_CHARGES


@<TRIPOS>ATOM
1 C 26.871 89.931 3.915 C 0.0 **** 0.0
2 H 27.409 89.361 3.157 H 0.0 **** 0.0
3 H 26.895 90.99 3.658 H 0.0 **** 0.0
4 H 27.343 89.78 4.886 H 0.0 **** 0.0
5 H 25.836 89.591 3.957 H 0.0 **** 0.0
@<TRIPOS>BOND
1 1 2 1
2 1 3 1
3 1 4 1
4 1 5 1
@<TRIPOS>MOLECULE
CH4
5 4
SMALL
USER_CHARGES


@<TRIPOS>ATOM
1 C 61.514 53.978 9.436 C 0.0 **** 0.0
2 H 61.484 52.908 9.231 H 0.0 **** 0.0
3 H 60.772 54.486 8.819 H 0.0 **** 0.0
4 H 62.506 54.365 9.204 H 0.0 **** 0.0
5 H 61.292 54.152 10.489 H 0.0 **** 0.0
@<TRIPOS>BOND
1 1 2 1
2 1 3 1
3 1 4 1
4 1 5 1
@<TRIPOS>MOLECULE
CH4
5 4
SMALL
USER_CHARGES


@<TRIPOS>ATOM
1 C 28.174 32.583 89.838 C 0.0 **** 0.0
2 H 28.921 32.079 90.452 H 0.0 **** 0.0
3 H 27.637 31.845 89.242 H 0.0 **** 0.0
4 H 28.669 33.295 89.177 H 0.0 **** 0.0
5 H 27.472 33.111 90.482 H 0.0 **** 0.0
@<TRIPOS>BOND
1 1 2 1
2 1 3 1
3 1 4 1
4 1 5 1
@<TRIPOS>MOLECULE
CH4
5 4
SMALL
USER_CHARGES


@<TRIPOS>ATOM
1 C 25.438 5.889 32.894 C 0.0 **** 0.0
2 H 25.461 5.026 32.228 H 0.0 **** 0.0
3 H 26.292 5.848 33.57 H 0.0 **** 0.0
4 H 24.514 5.877 33.472 H 0.0 **** 0.0
5 H 25.485 6.804 32.303 H 0.0 **** 0.0
@<TRIPOS>BOND
1 1 2 1
2 1 3 1
3 1 4 1
4 1 5 1
@<TRIPOS>MOLECULE
CH4
5 4
SMALL
USER_CHARGES


@<TRIPOS>ATOM
1 C 31.629 52.895 36.322 C 0.0 **** 0.0
2 H 31.245 53.269 37.271 H 0.0 **** 0.0
3 H 32.368 53.594 35.928 H 0.0 **** 0.0
4 H 30.808 52.796 35.612 H 0.0 **** 0.0
5 H 32.095 51.922 36.476 H 0.0 **** 0.0
@<TRIPOS>BOND
1 1 2 1
2 1 3 1
3 1 4 1
4 1 5 1
@<TRIPOS>MOLECULE
CH4
5 4
SMALL
USER_CHARGES


@<TRIPOS>ATOM
1 C 92.889 54.011 14.908 C 0.0 **** 0.0
2 H 92.832 54.152 13.829 H 0.0 **** 0.0
3 H 92.492 54.894 15.411 H 0.0 **** 0.0
4 H 93.929 53.863 15.201 H 0.0 **** 0.0
5 H 92.304 53.137 15.192 H 0.0 **** 0.0
@<TRIPOS>BOND
1 1 2 1
2 1 3 1
3 1 4 1
4 1 5 1
@<TRIPOS>MOLECULE
CH4
5 4
SMALL
USER_CHARGES


@<TRIPOS>ATOM
1 C 19.151 53.472 78.257 C 0.0 **** 0.0
2 H 19.269 52.51 77.759 H 0.0 **** 0.0
3 H 20.118 53.809 78.631 H 0.0 **** 0.0
4 H 18.456 53.367 79.09 H 0.0 **** 0.0
5 H 18.761 54.203 77.548 H 0.0 **** 0.0
@<TRIPOS>BOND
1 1 2 1
2 1 3 1
3 1 4 1
4 1 5 1
@<TRIPOS>MOLECULE
CH4
5 4
SMALL
USER_CHARGES


@<TRIPOS>ATOM
1 C 94.883 75.261 28.477 C 0.0 **** 0.0
2 H 95.363 75.437 27.515 H 0.0 **** 0.0
3 H 93.855 74.936 28.317 H 0.0 **** 0.0
4 H 94.887 76.182 29.059 H 0.0 **** 0.0
5 H 95.429 74.487 29.018 H 0.0 **** 0.0
@<TRIPOS>BOND
1 1 2 1
2 1 3 1
3 1 4 1
4 1 5 1
@<TRIPOS>MOLECULE
CH4
5 4
SMALL
USER_CHARGES


@<TRIPOS>ATOM
1 C 50.785 64.945 40.948 C 0.0 **** 0.0
2 H 49.788 65.374 40.852 H 0.0 **** 0.0
3 H 50.734 64.044 41.56 H 0.0 **** 0.0
4 H 51.447 65.669 41.422 H 0.0 **** 0.0
5 H 51.169 64.692 39.96 H 0.0 **** 0.0
@<TRIPOS>BOND
1 1 2 1
2 1 3 1
3 1 4 1
4 1 5 1
@<TRIPOS>MOLECULE
CH4
5 4
SMALL
USER_CHARGES


@<TRIPOS>ATOM
1 C 40.288 80.156 87.566 C 0.0 **** 0.0
2 H 40.049 81.138 87.974 H 0.0 **** 0.0
3 H 40.992 79.649 88.227 H 0.0 **** 0.0
4 H 40.734 80.271 86.579 H 0.0 **** 0.0
5 H 39.375 79.565 87.486 H 0.0 **** 0.0
@<TRIPOS>BOND
1 1 2 1
2 1 3 1
3 1 4 1
4 1 5 1
@<TRIPOS>MOLECULE
CH4
5 4
SMALL
USER_CHARGES


@<TRIPOS>ATOM
1 C 17.023 6.814 45.877 C 0.0 **** 0.0
2 H 17.039 6.792 46.967 H 0.0 **** 0.0
3 H 16.027 6.545 45.524 H 0.0 **** 0.0
4 H 17.751 6.102 45.489 H 0.0 **** 0.0
5 H 17.273 7.816 45.53 H 0.0 **** 0.0
@<TRIPOS>BOND
1 1 2 1
2 1 3 1
3 1 4 1
4 1 5 1
@<TRIPOS>MOLECULE
CH4
5 4
SMALL
USER_CHARGES


@<TRIPOS>ATOM
1 C 69.447 92.817 96.277 C 0.0 **** 0.0
2 H 69.889 92.262 95.45 H 0.0 **** 0.0
3 H 70.206 93.001 97.037 H 0.0 **** 0.0
4 H 68.632 92.237 96.709 H 0.0 **** 0.0
5 H 69.061 93.769 95.911 H 0.0 **** 0.0
@<TRIPOS>BOND
1 1 2 1
2 1 3 1
3 1 4 1
4 1 5 1
@<TRIPOS>MOLECULE
CH4
5 4
SMALL
USER_CHARGES


@<TRIPOS>ATOM
1 C 60.782 61.579 81.077 C 0.0 **** 0.0
2 H 60.54 60.675 80.518 H 0.0 **** 0.0
3 H 61.553 61.355 81.814 H 0.0 **** 0.0
4 H 59.888 61.941 81.585 H 0.0 **** 0.0
5 H 61.145 62.344 80.391 H 0.0 **** 0.0
@<TRIPOS>BOND
1 1 2 1
2 1 3 1
3 1 4 1
4 1 5 1
@<TRIPOS>MOLECULE
CH4
5 4
SMALL
USER_CHARGES


@<TRIPOS>ATOM
1 C 55.117 6.102 85.768 C 0.0 **** 0.0
2 H 55.682 6.979 86.085 H 0.0 **** 0.0
3 H 54.095 6.395 85.53 H 0.0 **** 0.0
4 H 55.106 5.367 86.573 H 0.0 **** 0.0
5 H 55.586 5.667 84.886 H 0.0 **** 0.0
@<TRIPOS>BOND
1 1 2 1
2 1 3 1
3 1 4 1
4 1 5 1
@<TRIPOS>MOLECULE
CH4
5 4
SMALL
USER_CHARGES


@<TRIPOS>ATOM
1 C 59.466 10.08 20.583 C 0.0 **** 0.0
2 H 59.527 9.849 21.647 H 0.0 **** 0.0
3 H 59.653 9.176 20.004 H 0.0 **** 0.0
4 H 60.212 10.834 20.333 H 0.0 **** 0.0
5 H 58.472 10.462 20.351 H 0.0 **** 0.0
@<TRIPOS>BOND
1 1 2 1
2 1 3 1
3 1 5 1
4 1 4 1
@<TRIPOS>MOLECULE
CH4
5 4
SMALL
USER_CHARGES


@<TRIPOS>ATOM
1 C 32.958 84.766 68.854 C 0.0 **** 0.0
2 H 33.972 84.859 69.242 H 0.0 **** 0.0
3 H 32.968 84.143 67.959 H 0.0 **** 0.0
4 H 32.573 85.754 68.604 H 0.0 **** 0.0
5 H 32.321 84.307 69.61 H 0.0 **** 0.0
@<TRIPOS>BOND
1 1 2 1
2 1 3 1
3 1 4 1
4 1 5 1
@<TRIPOS>MOLECULE
CH4
5 4
SMALL
USER_CHARGES


@<TRIPOS>ATOM
1 C 21.523 4.611 36.243 C 0.0 **** 0.0
2 H 22.344 4.982 35.63 H 0.0 **** 0.0
3 H 21.03 3.787 35.728 H 0.0 **** 0.0
4 H 20.807 5.414 36.415 H 0.0 **** 0.0
5 H 21.913 4.262 37.199 H 0.0 **** 0.0
@<TRIPOS>BOND
1 1 2 1
2 1 3 1
3 1 4 1
4 1 5 1
@<TRIPOS>MOLECULE
CH4
5 4
SMALL
USER_CHARGES


@<TRIPOS>ATOM
1 C 4.629 87.956 13.711 C 0.0 **** 0.0
2 H 4.397 87.573 14.705 H 0.0 **** 0.0
3 H 3.883 87.597 13.001 H 0.0 **** 0.0
4 H 5.616 87.607 13.409 H 0.0 **** 0.0
5 H 4.618 89.045 13.73 H 0.0 **** 0.0
@<TRIPOS>BOND
1 1 2 1
2 1 3 1
3 1 4 1
4 1 5 1
@<TRIPOS>MOLECULE
CH4
5 4
SMALL
USER_CHARGES


@<TRIPOS>ATOM
1 C 30.756 71.322 59.933 C 0.0 **** 0.0
2 H 30.833 70.387 60.488 H 0.0 **** 0.0
3 H 30.652 71.106 58.87 H 0.0 **** 0.0
4 H 31.655 71.916 60.097 H 0.0 **** 0.0
5 H 29.885 71.878 60.279 H 0.0 **** 0.0
@<TRIPOS>BOND
1 1 2 1
2 1 3 1
3 1 4 1
4 1 5 1
@<TRIPOS>MOLECULE
CH4
5 4
SMALL
USER_CHARGES


@<TRIPOS>ATOM
1 C 30.466 78.288 80.834 C 0.0 **** 0.0
2 H 30.602 78.814 79.89 H 0.0 **** 0.0
3 H 29.914 77.364 80.659 H 0.0 **** 0.0
4 H 29.908 78.92 81.525 H 0.0 **** 0.0
5 H 31.44 78.053 81.263 H 0.0 **** 0.0
@<TRIPOS>BOND
1 1 2 1
2 1 3 1
3 1 4 1
4 1 5 1
@<TRIPOS>MOLECULE
CH4
5 4
SMALL
USER_CHARGES


@<TRIPOS>ATOM
1 C 82.177 54.575 75.661 C 0.0 **** 0.0
2 H 82.553 53.772 75.027 H 0.0 **** 0.0
3 H 82.436 55.538 75.219 H 0.0 **** 0.0
4 H 82.625 54.497 76.651 H 0.0 **** 0.0
5 H 81.093 54.494 75.745 H 0.0 **** 0.0
@<TRIPOS>BOND
1 1 2 1
2 1 3 1
3 1 4 1
4 1 5 1
@<TRIPOS>MOLECULE
CH4
5 4
SMALL
USER_CHARGES


@<TRIPOS>ATOM
1 C 80.001 91.58 61.126 C 0.0 **** 0.0
2 H 79.007 91.253 61.432 H 0.0 **** 0.0
3 H 80.02 92.668 61.055 H 0.0 **** 0.0
4 H 80.242 91.148 60.155 H 0.0 **** 0.0
5 H 80.734 91.251 61.862 H 0.0 **** 0.0
@<TRIPOS>BOND
1 1 2 1
2 1 3 1
3 1 4 1
4 1 5 1
@<TRIPOS>MOLECULE
CH4
5 4
SMALL
USER_CHARGES


@<TRIPOS>ATOM
1 C 76.423 19.963 17.3 C 0.0 **** 0.0
2 H 77.172 19.173 17.251 H 0.0 **** 0.0
3 H 76.155 20.272 16.289 H 0.0 **** 0.0
4 H 76.829 20.815 17.845 H 0.0 **** 0.0
5 H 75.537 19.592 17.814 H 0.0 **** 0.0
@<TRIPOS>BOND
1 1 2 1
2 1 3 1
3 1 4 1
4 1 5 1
@<TRIPOS>MOLECULE
CH4
5 4
SMALL
USER_CHARGES


@<TRIPOS>ATOM
1 C 96.484 38.299 12.897 C 0.0 **** 0.0
2 H 95.48 38.717 12.83 H 0.0 **** 0.0
3 H 96.848 38.066 11.896 H 0.0 **** 0.0
4 H 96.459 37.388 13.495 H 0.0 **** 0.0
5 H 97.148 39.024 13.367 H 0.0 **** 0.0
@<TRIPOS>BOND
1 1 2 1
2 1 3 1
3 1 4 1
4 1 5 1
@<TRIPOS>MOLECULE
CH4
5 4
SMALL
USER_CHARGES


@<TRIPOS>ATOM
1 C 11.73 90.935 53.519 C 0.0 **** 0.0
2 H 12.043 91.591 54.331 H 0.0 **** 0.0
3 H 11.817 89.896 53.838 H 0.0 **** 0.0
4 H 12.365 91.104 52.65 H 0.0 **** 0.0
5 H 10.693 91.15 53.258 H 0.0 **** 0.0
@<TRIPOS>BOND
1 1 2 1
2 1 3 1
3 1 4 1
4 1 5 1
@<TRIPOS>MOLECULE
CH4
5 4
SMALL
USER_CHARGES


@<TRIPOS>ATOM
1 C 48.763 86.705 91.695 C 0.0 **** 0.0
2 H 47.801 86.334 92.051 H 0.0 **** 0.0
3 H 49.253 87.266 92.492 H 0.0 **** 0.0
4 H 48.605 87.356 90.835 H 0.0 **** 0.0
5 H 49.391 85.863 91.404 H 0.0 **** 0.0
@<TRIPOS>BOND
1 1 2 1
2 1 3 1
3 1 4 1
4 1 5 1
@<TRIPOS>MOLECULE
CH4
5 4
SMALL
USER_CHARGES


@<TRIPOS>ATOM
1 C 82.822 80.04 0.79 C 0.0 **** 0.0
2 H 82.443 79.392 0.0 H 0.0 **** 0.0
3 H 83.196 80.966 0.352 H 0.0 **** 0.0
4 H 83.631 79.534 1.317 H 0.0 **** 0.0
5 H 82.018 80.268 1.49 H 0.0 **** 0.0
@<TRIPOS>BOND
1 1 2 1
2 1 3 1
3 1 4 1
4 1 5 1
@<TRIPOS>MOLECULE
CH4
5 4
SMALL
USER_CHARGES


@<TRIPOS>ATOM
1 C 4.157 33.967 72.004 C 0.0 **** 0.0
2 H 3.646 34.893 72.268 H 0.0 **** 0.0
3 H 3.43 33.243 71.638 H 0.0 **** 0.0
4 H 4.659 33.566 72.884 H 0.0 **** 0.0
5 H 4.894 34.168 71.226 H 0.0 **** 0.0
@<TRIPOS>BOND
1 1 2 1
2 1 3 1
3 1 4 1
4 1 5 1
@<TRIPOS>MOLECULE
CH4
5 4
SMALL
USER_CHARGES


@<TRIPOS>ATOM
1 C 44.149 28.843 26.034 C 0.0 **** 0.0
2 H 43.374 29.0 25.284 H 0.0 **** 0.0
3 H 44.28 27.774 26.202 H 0.0 **** 0.0
4 H 43.855 29.325 26.966 H 0.0 **** 0.0
5 H 45.087 29.273 25.682 H 0.0 **** 0.0
@<TRIPOS>BOND
1 1 2 1
2 1 3 1
3 1 4 1
4 1 5 1
@<TRIPOS>MOLECULE
CH4
5 4
SMALL
USER_CHARGES


@<TRIPOS>ATOM
1 C 33.254 62.695 58.807 C 0.0 **** 0.0
2 H 34.01 62.624 59.589 H 0.0 **** 0.0
3 H 32.837 61.706 58.614 H 0.0 **** 0.0
4 H 33.708 63.083 57.896 H 0.0 **** 0.0
5 H 32.459 63.367 59.132 H 0.0 **** 0.0
@<TRIPOS>BOND
1 1 2 1
2 1 3 1
3 1 4 1
4 1 5 1
@<TRIPOS>MOLECULE
CH4
5 4
SMALL
USER_CHARGES


@<TRIPOS>ATOM
1 C 34.544 48.564 82.351 C 0.0 **** 0.0
2 H 34.193 48.636 83.381 H 0.0 **** 0.0
3 H 34.043 47.733 81.854 H 0.0 **** 0.0
4 H 35.621 48.396 82.345 H 0.0 **** 0.0
5 H 34.318 49.492 81.825 H 0.0 **** 0.0
@<TRIPOS>BOND
1 1 2 1
2 1 3 1
3 1 4 1
4 1 5 1
@<TRIPOS>MOLECULE
CH4
5 4
SMALL
USER_CHARGES


@<TRIPOS>ATOM
1 C 11.056 76.837 89.643 C 0.0 **** 0.0
2 H 11.264 75.782 89.824 H 0.0 **** 0.0
3 H 10.017 77.05 89.894 H 0.0 **** 0.0
4 H 11.23 77.066 88.592 H 0.0 **** 0.0
5 H 11.713 77.448 90.262 H 0.0 **** 0.0
@<TRIPOS>BOND
1 1 3 1
2 1 4 1
3 1 5 1
4 1 2 1
@<TRIPOS>MOLECULE
CH4
5 4
SMALL
USER_CHARGES


@<TRIPOS>ATOM
1 C 4.556 31.25 87.247 C 0.0 **** 0.0
2 H 5.141 30.379 86.95 H 0.0 **** 0.0
3 H 4.595 31.362 88.33 H 0.0 **** 0.0
4 H 3.521 31.116 86.932 H 0.0 **** 0.0
5 H 4.967 32.141 86.774 H 0.0 **** 0.0
@<TRIPOS>BOND
1 1 2 1
2 1 3 1
3 1 4 1
4 1 5 1
@<TRIPOS>MOLECULE
CH4
5 4
SMALL
USER_CHARGES


@<TRIPOS>ATOM
1 C 11.09 13.451 46.099 C 0.0 **** 0.0
2 H 10.654 13.898 46.992 H 0.0 **** 0.0
3 H 10.834 12.391 46.062 H 0.0 **** 0.0
4 H 12.173 13.562 46.129 H 0.0 **** 0.0
5 H 10.697 13.951 45.214 H 0.0 **** 0.0
@<TRIPOS>BOND
1 1 2 1
2 1 3 1
3 1 4 1
4 1 5 1
@<TRIPOS>MOLECULE
CH4
5 4
SMALL
USER_CHARGES


@<TRIPOS>ATOM
1 C 85.45 46.242 29.261 C 0.0 **** 0.0
2 H 84.419 46.025 29.542 H 0.0 **** 0.0
3 H 85.563 47.313 29.096 H 0.0 **** 0.0
4 H 85.697 45.704 28.345 H 0.0 **** 0.0
5 H 86.118 45.924 30.061 H 0.0 **** 0.0
@<TRIPOS>BOND
1 1 2 1
2 1 3 1
3 1 4 1
4 1 5 1
@<TRIPOS>MOLECULE
CH4
5 4
SMALL
USER_CHARGES


@<TRIPOS>ATOM
1 C 84.448 78.886 32.982 C 0.0 **** 0.0
2 H 85.059 78.327 33.691 H 0.0 **** 0.0
3 H 83.399 78.619 33.117 H 0.0 **** 0.0
4 H 84.757 78.642 31.966 H 0.0 **** 0.0
5 H 84.577 79.954 33.155 H 0.0 **** 0.0
@<TRIPOS>BOND
1 1 2 1
2 1 3 1
3 1 4 1
4 1 5 1
@<TRIPOS>MOLECULE
CH4
5 4
SMALL
USER_CHARGES


@<TRIPOS>ATOM
1 C 66.785 69.854 58.781 C 0.0 **** 0.0
2 H 66.697 69.171 59.626 H 0.0 **** 0.0
3 H 67.829 70.142 58.655 H 0.0 **** 0.0
4 H 66.182 70.742 58.968 H 0.0 **** 0.0
5 H 66.433 69.359 57.876 H 0.0 **** 0.0
@<TRIPOS>BOND
1 1 2 1
2 1 3 1
3 1 4 1
4 1 5 1
@<TRIPOS>MOLECULE
CH4
5 4
SMALL
USER_CHARGES


@<TRIPOS>ATOM
1 C 18.443 14.903 36.403 C 0.0 **** 0.0
2 H 19.398 15.381 36.184 H 0.0 **** 0.0
3 H 18.548 13.822 36.305 H 0.0 **** 0.0
4 H 17.688 15.261 35.703 H 0.0 **** 0.0
5 H 18.139 15.148 37.421 H 0.0 **** 0.0
@<TRIPOS>BOND
1 1 2 1
2 1 3 1
3 1 4 1
4 1 5 1
@<TRIPOS>MOLECULE
CH4
5 4
SMALL
USER_CHARGES


@<TRIPOS>ATOM
1 C 88.1 65.476 73.302 C 0.0 **** 0.0
2 H 87.397 66.302 73.197 H 0.0 **** 0.0
3 H 87.644 64.561 72.922 H 0.0 **** 0.0
4 H 88.353 65.346 74.354 H 0.0 **** 0.0
5 H 89.004 65.694 72.734 H 0.0 **** 0.0
@<TRIPOS>BOND
1 1 2 1
2 1 3 1
3 1 4 1
4 1 5 1
@<TRIPOS>MOLECULE
CH4
5 4
SMALL
USER_CHARGES


@<TRIPOS>ATOM
1 C 15.716 90.472 52.732 C 0.0 **** 0.0
2 H 15.687 90.564 51.646 H 0.0 **** 0.0
3 H 15.48 89.446 53.016 H 0.0 **** 0.0
4 H 14.985 91.149 53.173 H 0.0 **** 0.0
5 H 16.713 90.728 53.091 H 0.0 **** 0.0
@<TRIPOS>BOND
1 1 2 1
2 1 3 1
3 1 4 1
4 1 5 1
@<TRIPOS>MOLECULE
CH4
5 4
SMALL
USER_CHARGES


@<TRIPOS>ATOM
1 C 19.952 8.044 46.072 C 0.0 **** 0.0
2 H 19.551 8.211 45.072 H 0.0 **** 0.0
3 H 20.941 7.591 45.995 H 0.0 **** 0.0
4 H 19.289 7.377 46.622 H 0.0 **** 0.0
5 H 20.028 8.996 46.597 H 0.0 **** 0.0
@<TRIPOS>BOND
1 1 2 1
2 1 3 1
3 1 4 1
4 1 5 1
@<TRIPOS>MOLECULE
CH4
5 4
SMALL
USER_CHARGES


@<TRIPOS>ATOM
1 C 27.947 35.904 33.631 C 0.0 **** 0.0
2 H 27.261 35.772 34.468 H 0.0 **** 0.0
3 H 28.617 36.738 33.84 H 0.0 **** 0.0
4 H 27.378 36.111 32.725 H 0.0 **** 0.0
5 H 28.531 34.994 33.494 H 0.0 **** 0.0
@<TRIPOS>BOND
1 1 2 1
2 1 3 1
3 1 4 1
4 1 5 1
@<TRIPOS>MOLECULE
CH4
5 4
SMALL
USER_CHARGES


@<TRIPOS>ATOM
1 C 40.268 36.876 73.038 C 0.0 **** 0.0
2 H 40.888 37.666 72.615 H 0.0 **** 0.0
3 H 39.573 37.306 73.759 H 0.0 **** 0.0
4 H 40.904 36.144 73.537 H 0.0 **** 0.0
5 H 39.709 36.387 72.24 H 0.0 **** 0.0
@<TRIPOS>BOND
1 1 2 1
2 1 3 1
3 1 4 1
4 1 5 1
@<TRIPOS>MOLECULE
CH4
5 4
SMALL
USER_CHARGES


@<TRIPOS>ATOM
1 C 67.734 89.577 49.957 C 0.0 **** 0.0
2 H 68.357 90.051 50.714 H 0.0 **** 0.0
3 H 68.053 89.904 48.967 H 0.0 **** 0.0
4 H 66.693 89.858 50.115 H 0.0 **** 0.0
5 H 67.832 88.494 50.031 H 0.0 **** 0.0
@<TRIPOS>BOND
1 1 2 1
2 1 3 1
3 1 4 1
4 1 5 1
@<TRIPOS>MOLECULE
CH4
5 4
SMALL
USER_CHARGES


@<TRIPOS>ATOM
1 C 1.42 58.063 78.176 C 0.0 **** 0.0
2 H 1.595 57.851 79.231 H 0.0 **** 0.0
3 H 0.377 58.348 78.032 H 0.0 **** 0.0
4 H 1.639 57.174 77.586 H 0.0 **** 0.0
5 H 2.067 58.88 77.857 H 0.0 **** 0.0
@<TRIPOS>BOND
1 1 2 1
2 1 3 1
3 1 4 1
4 1 5 1
@<TRIPOS>MOLECULE
CH4
5 4
SMALL
USER_CHARGES


@<TRIPOS>ATOM
1 C 93.278 12.561 95.382 C 0.0 **** 0.0
2 H 92.984 12.412 96.421 H 0.0 **** 0.0
3 H 93.188 11.62 94.841 H 0.0 **** 0.0
4 H 94.312 12.906 95.344 H 0.0 **** 0.0
5 H 92.629 13.308 94.925 H 0.0 **** 0.0
@<TRIPOS>BOND
1 1 2 1
2 1 3 1
3 1 4 1
4 1 5 1
@<TRIPOS>MOLECULE
CH4
5 4
SMALL
USER_CHARGES


@<TRIPOS>ATOM
1 C 3.951 85.165 92.051 C 0.0 **** 0.0
2 H 4.27 84.274 92.592 H 0.0 **** 0.0
3 H 4.176 86.051 92.645 H 0.0 **** 0.0
4 H 2.878 85.113 91.866 H 0.0 **** 0.0
5 H 4.481 85.221 91.1 H 0.0 **** 0.0
@<TRIPOS>BOND
1 1 2 1
2 1 3 1
3 1 4 1
4 1 5 1
@<TRIPOS>MOLECULE
CH4
5 4
SMALL
USER_CHARGES


@<TRIPOS>ATOM
1 C 94.554 2.325 46.881 C 0.0 **** 0.0
2 H 94.807 1.889 47.847 H 0.0 **** 0.0
3 H 95.393 2.2 46.196 H 0.0 **** 0.0
4 H 94.342 3.386 47.006 H 0.0 **** 0.0
5 H 93.675 1.823 46.475 H 0.0 **** 0.0
@<TRIPOS>BOND
1 1 5 1
2 1 2 1
3 1 3 1
4 1 4 1
@<TRIPOS>MOLECULE
CH4
5 4
SMALL
USER_CHARGES


@<TRIPOS>ATOM
1 C 85.741 74.58 54.416 C 0.0 **** 0.0
2 H 85.646 73.773 55.142 H 0.0 **** 0.0
3 H 84.818 74.664 53.843 H 0.0 **** 0.0
4 H 86.57 74.365 53.741 H 0.0 **** 0.0
5 H 85.932 75.518 54.938 H 0.0 **** 0.0
@<TRIPOS>BOND
1 1 3 1
2 1 4 1
3 1 5 1
4 1 2 1
@<TRIPOS>MOLECULE
CH4
5 4
SMALL
USER_CHARGES


@<TRIPOS>ATOM
1 C 78.267 63.676 68.757 C 0.0 **** 0.0
2 H 77.662 63.055 69.417 H 0.0 **** 0.0
3 H 78.574 63.093 67.889 H 0.0 **** 0.0
4 H 79.15 64.023 69.293 H 0.0 **** 0.0
5 H 77.68 64.535 68.43 H 0.0 **** 0.0
@<TRIPOS>BOND
1 1 2 1
2 1 3 1
3 1 4 1
4 1 5 1
@<TRIPOS>MOLECULE
CH4
5 4
SMALL
USER_CHARGES


@<TRIPOS>ATOM
1 C 96.962 87.891 65.172 C 0.0 **** 0.0
2 H 97.806 87.207 65.257 H 0.0 **** 0.0
3 H 96.14 87.392 64.659 H 0.0 **** 0.0
4 H 97.264 88.771 64.604 H 0.0 **** 0.0
5 H 96.639 88.195 66.167 H 0.0 **** 0.0
@<TRIPOS>BOND
1 1 2 1
2 1 3 1
3 1 4 1
4 1 5 1
@<TRIPOS>MOLECULE
CH4
5 4
SMALL
USER_CHARGES


@<TRIPOS>ATOM
1 C 9.015 29.755 39.555 C 0.0 **** 0.0
2 H 9.139 29.612 38.481 H 0.0 **** 0.0
3 H 8.675 28.823 40.008 H 0.0 **** 0.0
4 H 8.277 30.537 39.734 H 0.0 **** 0.0
5 H 9.968 30.047 39.994 H 0.0 **** 0.0
@<TRIPOS>BOND
1 1 2 1
2 1 3 1
3 1 4 1
4 1 5 1
@<TRIPOS>MOLECULE
CH4
5 4
SMALL
USER_CHARGES


@<TRIPOS>ATOM
1 C 80.698 3.061 17.634 C 0.0 **** 0.0
2 H 81.17 4.04 17.549 H 0.0 **** 0.0
3 H 79.822 3.135 18.279 H 0.0 **** 0.0
4 H 81.407 2.353 18.064 H 0.0 **** 0.0
5 H 80.394 2.717 16.646 H 0.0 **** 0.0
@<TRIPOS>BOND
1 1 2 1
2 1 3 1
3 1 4 1
4 1 5 1
@<TRIPOS>MOLECULE
CH4
5 4
SMALL
USER_CHARGES


@<TRIPOS>ATOM
1 C 8.057 5.226 51.711 C 0.0 **** 0.0
2 H 9.043 4.949 52.084 H 0.0 **** 0.0
3 H 7.652 4.408 51.115 H 0.0 **** 0.0
4 H 8.141 6.119 51.092 H 0.0 **** 0.0
5 H 7.394 5.427 52.552 H 0.0 **** 0.0
@<TRIPOS>BOND
1 1 2 1
2 1 3 1
3 1 4 1
4 1 5 1
@<TRIPOS>MOLECULE
CH4
5 4
SMALL
USER_CHARGES


@<TRIPOS>ATOM
1 C 10.315 76.746 34.582 C 0.0 **** 0.0
2 H 10.731 75.85 34.121 H 0.0 **** 0.0
3 H 11.061 77.541 34.571 H 0.0 **** 0.0
4 H 10.033 76.526 35.612 H 0.0 **** 0.0
5 H 9.435 77.066 34.025 H 0.0 **** 0.0
@<TRIPOS>BOND
1 1 2 1
2 1 3 1
3 1 4 1
4 1 5 1
@<TRIPOS>MOLECULE
CH4
5 4
SMALL
USER_CHARGES


@<TRIPOS>ATOM
1 C 93.446 64.919 27.856 C 0.0 **** 0.0
2 H 93.514 64.209 28.681 H 0.0 **** 0.0
3 H 92.398 65.124 27.64 H 0.0 **** 0.0
4 H 93.924 64.496 26.973 H 0.0 **** 0.0
5 H 93.949 65.846 28.133 H 0.0 **** 0.0
@<TRIPOS>BOND
1 1 2 1
2 1 3 1
3 1 4 1
4 1 5 1
@<TRIPOS>MOLECULE
CH4
5 4
SMALL
USER_CHARGES


@<TRIPOS>ATOM
1 C 57.814 19.97 66.883 C 0.0 **** 0.0
2 H 56.955 19.866 67.546 H 0.0 **** 0.0
3 H 57.577 20.682 66.092 H 0.0 **** 0.0
4 H 58.05 19.002 66.441 H 0.0 **** 0.0
5 H 58.671 20.329 67.452 H 0.0 **** 0.0
@<TRIPOS>BOND
1 1 2 1
2 1 3 1
3 1 4 1
4 1 5 1
@<TRIPOS>MOLECULE
CH4
5 4
SMALL
USER_CHARGES


@<TRIPOS>ATOM
1 C 92.047 11.641 76.005 C 0.0 **** 0.0
2 H 92.415 12.663 75.91 H 0.0 **** 0.0
3 H 92.377 11.224 76.957 H 0.0 **** 0.0
4 H 92.439 11.037 75.187 H 0.0 **** 0.0
5 H 90.958 11.643 75.966 H 0.0 **** 0.0
@<TRIPOS>BOND
1 1 2 1
2 1 3 1
3 1 4 1
4 1 5 1
@<TRIPOS>MOLECULE
CH4
5 4
SMALL
USER_CHARGES


@<TRIPOS>ATOM
1 C 67.831 91.924 38.041 C 0.0 **** 0.0
2 H 68.723 92.432 38.409 H 0.0 **** 0.0
3 H 68.085 90.9 37.766 H 0.0 **** 0.0
4 H 67.448 92.451 37.168 H 0.0 **** 0.0
5 H 67.071 91.913 38.822 H 0.0 **** 0.0
@<TRIPOS>BOND
1 1 2 1
2 1 3 1
3 1 4 1
4 1 5 1
@<TRIPOS>MOLECULE
CH4
5 4
SMALL
USER_CHARGES


@<TRIPOS>ATOM
1 C 45.196 53.767 2.213 C 0.0 **** 0.0
2 H 44.351 53.998 2.862 H 0.0 **** 0.0
3 H 46.118 54.113 2.68 H 0.0 **** 0.0
4 H 45.064 54.267 1.253 H 0.0 **** 0.0
5 H 45.249 52.689 2.057 H 0.0 **** 0.0
@<TRIPOS>BOND
1 1 2 1
2 1 3 1
3 1 4 1
4 1 5 1
@<TRIPOS>MOLECULE
CH4
5 4
SMALL
USER_CHARGES


@<TRIPOS>ATOM
1 C 79.002 24.408 40.827 C 0.0 **** 0.0
2 H 79.16 23.828 39.918 H 0.0 **** 0.0
3 H 77.982 24.258 41.181 H 0.0 **** 0.0
4 H 79.163 25.465 40.616 H 0.0 **** 0.0
5 H 79.705 24.08 41.593 H 0.0 **** 0.0
@<TRIPOS>BOND
1 1 2 1
2 1 3 1
3 1 4 1
4 1 5 1
@<TRIPOS>MOLECULE
CH4
5 4
SMALL
USER_CHARGES


@<TRIPOS>ATOM
1 C 76.164 17.193 44.883 C 0.0 **** 0.0
2 H 76.013 17.276 45.959 H 0.0 **** 0.0
3 H 75.545 16.387 44.49 H 0.0 **** 0.0
4 H 77.213 16.979 44.679 H 0.0 **** 0.0
5 H 75.885 18.132 44.404 H 0.0 **** 0.0
@<TRIPOS>BOND
1 1 2 1
2 1 3 1
3 1 4 1
4 1 5 1
@<TRIPOS>MOLECULE
CH4
5 4
SMALL
USER_CHARGES


@<TRIPOS>ATOM
1 C 43.349 16.389 46.745 C 0.0 **** 0.0
2 H 43.807 15.984 45.842 H 0.0 **** 0.0
3 H 42.62 17.152 46.471 H 0.0 **** 0.0
4 H 44.12 16.832 47.375 H 0.0 **** 0.0
5 H 42.85 15.588 47.29 H 0.0 **** 0.0
@<TRIPOS>BOND
1 1 2 1
2 1 3 1
3 1 4 1
4 1 5 1
@<TRIPOS>MOLECULE
CH4
5 4
SMALL
USER_CHARGES


@<TRIPOS>ATOM
1 C 15.57 26.616 39.615 C 0.0 **** 0.0
2 H 15.462 26.84 38.554 H 0.0 **** 0.0
3 H 14.583 26.519 40.068 H 0.0 **** 0.0
4 H 16.116 27.424 40.103 H 0.0 **** 0.0
5 H 16.118 25.682 39.735 H 0.0 **** 0.0
@<TRIPOS>BOND
1 1 2 1
2 1 3 1
3 1 4 1
4 1 5 1
@<TRIPOS>MOLECULE
CH4
5 4
SMALL
USER_CHARGES


@<TRIPOS>ATOM
1 C 82.324 93.004 43.705 C 0.0 **** 0.0
2 H 82.383 93.624 42.81 H 0.0 **** 0.0
3 H 82.329 91.952 43.419 H 0.0 **** 0.0
4 H 81.404 93.23 44.243 H 0.0 **** 0.0
5 H 83.181 93.21 44.346 H 0.0 **** 0.0
@<TRIPOS>BOND
1 1 2 1
2 1 3 1
3 1 4 1
4 1 5 1
@<TRIPOS>MOLECULE
CH4
5 4
SMALL
USER_CHARGES


@<TRIPOS>ATOM
1 C 64.413 43.365 61.118 C 0.0 **** 0.0
2 H 63.996 42.681 61.858 H 0.0 **** 0.0
3 H 65.438 43.073 60.89 H 0.0 **** 0.0
4 H 64.403 44.379 61.516 H 0.0 **** 0.0
5 H 63.813 43.325 60.209 H 0.0 **** 0.0
@<TRIPOS>BOND
1 1 2 1
2 1 3 1
3 1 4 1
4 1 5 1
@<TRIPOS>MOLECULE
CH4
5 4
SMALL
USER_CHARGES


@<TRIPOS>ATOM
1 C 72.062 96.639 19.361 C 0.0 **** 0.0
2 H 72.398 95.698 18.924 H 0.0 **** 0.0
3 H 71.163 96.463 19.953 H 0.0 **** 0.0
4 H 71.84 97.35 18.565 H 0.0 **** 0.0
5 H 72.846 97.042 20.001 H 0.0 **** 0.0
@<TRIPOS>BOND
1 1 2 1
2 1 3 1
3 1 4 1
4 1 5 1
@<TRIPOS>MOLECULE
CH4
5 4
SMALL
USER_CHARGES


@<TRIPOS>ATOM
1 C 37.113 61.776 34.491 C 0.0 **** 0.0
2 H 36.046 61.578 34.391 H 0.0 **** 0.0
3 H 37.638 60.843 34.697 H 0.0 **** 0.0
4 H 37.278 62.475 35.31 H 0.0 **** 0.0
5 H 37.49 62.207 33.563 H 0.0 **** 0.0
@<TRIPOS>BOND
1 1 2 1
2 1 3 1
3 1 4 1
4 1 5 1
@<TRIPOS>MOLECULE
CH4
5 4
SMALL
USER_CHARGES


@<TRIPOS>ATOM
1 C 3.149 8.681 56.89 C 0.0 **** 0.0
2 H 3.006 8.994 55.856 H 0.0 **** 0.0
3 H 2.309 9.026 57.494 H 0.0 **** 0.0
4 H 4.074 9.11 57.274 H 0.0 **** 0.0
5 H 3.207 7.593 56.935 H 0.0 **** 0.0
@<TRIPOS>BOND
1 1 2 1
2 1 3 1
3 1 4 1
4 1 5 1
@<TRIPOS>MOLECULE
CH4
5 4
SMALL
USER_CHARGES


@<TRIPOS>ATOM
1 C 0.538 12.555 14.888 C 0.0 **** 0.0
2 H 0.279 13.612 14.827 H 0.0 **** 0.0
3 H 0.091 12.022 14.049 H 0.0 **** 0.0
4 H 0.16 12.142 15.824 H 0.0 **** 0.0
5 H 1.622 12.444 14.854 H 0.0 **** 0.0
@<TRIPOS>BOND
1 1 2 1
2 1 3 1
3 1 4 1
4 1 5 1
@<TRIPOS>MOLECULE
CH4
5 4
SMALL
USER_CHARGES


@<TRIPOS>ATOM
1 C 66.651 98.498 87.169 C 0.0 **** 0.0
2 H 66.532 98.871 86.152 H 0.0 **** 0.0
3 H 66.82 97.421 87.143 H 0.0 **** 0.0
4 H 65.749 98.711 87.742 H 0.0 **** 0.0
5 H 67.504 98.988 87.638 H 0.0 **** 0.0
@<TRIPOS>BOND
1 1 2 1
2 1 3 1
3 1 4 1
4 1 5 1
@<TRIPOS>MOLECULE
CH4
5 4
SMALL
USER_CHARGES


@<TRIPOS>ATOM
1 C 96.321 52.979 33.578 C 0.0 **** 0.0
2 H 96.995 53.836 33.603 H 0.0 **** 0.0
3 H 96.786 52.168 33.018 H 0.0 **** 0.0
4 H 95.387 53.266 33.095 H 0.0 **** 0.0
5 H 96.117 52.648 34.596 H 0.0 **** 0.0
@<TRIPOS>BOND
1 1 2 1
2 1 3 1
3 1 4 1
4 1 5 1
@<TRIPOS>MOLECULE
CH4
5 4
SMALL
USER_CHARGES


@<TRIPOS>ATOM
1 C 41.014 28.194 55.542 C 0.0 **** 0.0
2 H 40.611 28.608 54.618 H 0.0 **** 0.0
3 H 42.103 28.185 55.491 H 0.0 **** 0.0
4 H 40.647 27.176 55.674 H 0.0 **** 0.0
5 H 40.694 28.807 56.385 H 0.0 **** 0.0
@<TRIPOS>BOND
1 1 2 1
2 1 3 1
3 1 4 1
4 1 5 1
@<TRIPOS>MOLECULE
CH4
5 4
SMALL
USER_CHARGES


@<TRIPOS>ATOM
1 C 98.399 8.175 34.317 C 0.0 **** 0.0
2 H 99.0 9.06 34.524 H 0.0 **** 0.0
3 H 98.698 7.368 34.987 H 0.0 **** 0.0
4 H 98.553 7.865 33.283 H 0.0 **** 0.0
5 H 97.345 8.406 34.474 H 0.0 **** 0.0
@<TRIPOS>BOND
1 1 2 1
2 1 3 1
3 1 4 1
4 1 5 1
@<TRIPOS>MOLECULE
CH4
5 4
SMALL
USER_CHARGES


@<TRIPOS>ATOM
1 C 65.365 59.433 78.79 C 0.0 **** 0.0
2 H 66.214 59.906 78.295 H 0.0 **** 0.0
3 H 64.803 58.846 78.063 H 0.0 **** 0.0
4 H 64.719 60.201 79.215 H 0.0 **** 0.0
5 H 65.725 58.78 79.585 H 0.0 **** 0.0
@<TRIPOS>BOND
1 1 2 1
2 1 3 1
3 1 4 1
4 1 5 1
@<TRIPOS>MOLECULE
CH4
5 4
SMALL
USER_CHARGES


@<TRIPOS>ATOM
1 C 49.415 38.503 75.344 C 0.0 **** 0.0
2 H 48.566 38.868 75.922 H 0.0 **** 0.0
3 H 49.941 37.738 75.915 H 0.0 **** 0.0
4 H 50.092 39.33 75.132 H 0.0 **** 0.0
5 H 49.058 38.076 74.406 H 0.0 **** 0.0
@<TRIPOS>BOND
1 1 2 1
2 1 3 1
3 1 4 1
4 1 5 1
@<TRIPOS>MOLECULE
CH4
5 4
SMALL
USER_CHARGES


@<TRIPOS>ATOM
1 C 44.257 4.757 56.574 C 0.0 **** 0.0
2 H 44.394 4.638 55.5 H 0.0 **** 0.0
3 H 45.146 4.401 57.095 H 0.0 **** 0.0
4 H 43.391 4.178 56.896 H 0.0 **** 0.0
5 H 44.096 5.81 56.806 H 0.0 **** 0.0
@<TRIPOS>BOND
1 1 2 1
2 1 3 1
3 1 4 1
4 1 5 1
@<TRIPOS>MOLECULE
CH4
5 4
SMALL
USER_CHARGES


@<TRIPOS>ATOM
1 C 34.659 81.728 28.325 C 0.0 **** 0.0
2 H 34.218 81.138 27.522 H 0.0 **** 0.0
3 H 35.568 81.241 28.677 H 0.0 **** 0.0
4 H 33.948 81.809 29.148 H 0.0 **** 0.0
5 H 34.9 82.724 27.954 H 0.0 **** 0.0
@<TRIPOS>BOND
1 1 2 1
2 1 3 1
3 1 4 1
4 1 5 1
@<TRIPOS>MOLECULE
CH4
5 4
SMALL
USER_CHARGES


@<TRIPOS>ATOM
1 C 21.264 65.514 34.299 C 0.0 **** 0.0
2 H 21.43 65.452 33.224 H 0.0 **** 0.0
3 H 20.57 66.328 34.513 H 0.0 **** 0.0
4 H 22.212 65.703 34.803 H 0.0 **** 0.0
5 H 20.844 64.574 34.657 H 0.0 **** 0.0
@<TRIPOS>BOND
1 1 2 1
2 1 3 1
3 1 4 1
4 1 5 1
@<TRIPOS>MOLECULE
CH4
5 4
SMALL
USER_CHARGES


@<TRIPOS>ATOM
1 C 86.235 14.489 48.307 C 0.0 **** 0.0
2 H 86.395 13.682 49.022 H 0.0 **** 0.0
3 H 85.651 15.28 48.778 H 0.0 **** 0.0
4 H 85.696 14.105 47.441 H 0.0 **** 0.0
5 H 87.198 14.888 47.989 H 0.0 **** 0.0
@<TRIPOS>BOND
1 1 2 1
2 1 3 1
3 1 4 1
4 1 5 1
@<TRIPOS>MOLECULE
CH4
5 4
SMALL
USER_CHARGES


@<TRIPOS>ATOM
1 C 44.87 63.449 11.102 C 0.0 **** 0.0
2 H 45.243 63.946 11.998 H 0.0 **** 0.0
3 H 44.417 64.186 10.439 H 0.0 **** 0.0
4 H 44.125 62.705 11.382 H 0.0 **** 0.0
5 H 45.698 62.958 10.589 H 0.0 **** 0.0
@<TRIPOS>BOND
1 1 2 1
2 1 3 1
3 1 4 1
4 1 5 1
@<TRIPOS>MOLECULE
CH4
5 4
SMALL
USER_CHARGES


@<TRIPOS>ATOM
1 C 32.604 16.721 92.206 C 0.0 **** 0.0
2 H 32.484 15.678 91.916 H 0.0 **** 0.0
3 H 32.905 17.307 91.337 H 0.0 **** 0.0
4 H 33.368 16.797 92.979 H 0.0 **** 0.0
5 H 31.658 17.102 92.592 H 0.0 **** 0.0
@<TRIPOS>BOND
1 1 2 1
2 1 3 1
3 1 4 1
4 1 5 1
@<TRIPOS>MOLECULE
CH4
5 4
SMALL
USER_CHARGES


@<TRIPOS>ATOM
1 C 47.176 7.375 42.773 C 0.0 **** 0.0
2 H 47.072 6.676 43.603 H 0.0 **** 0.0
3 H 48.125 7.904 42.862 H 0.0 **** 0.0
4 H 46.356 8.092 42.797 H 0.0 **** 0.0
5 H 47.152 6.826 41.832 H 0.0 **** 0.0
@<TRIPOS>BOND
1 1 2 1
2 1 3 1
3 1 4 1
4 1 5 1
@<TRIPOS>MOLECULE
CH4
5 4
SMALL
USER_CHARGES


@<TRIPOS>ATOM
1 C 90.62 72.446 9.229 C 0.0 **** 0.0
2 H 90.727 72.39 8.146 H 0.0 **** 0.0
3 H 89.619 72.797 9.478 H 0.0 **** 0.0
4 H 91.359 73.138 9.631 H 0.0 **** 0.0
5 H 90.776 71.457 9.66 H 0.0 **** 0.0
@<TRIPOS>BOND
1 1 2 1
2 1 3 1
3 1 4 1
4 1 5 1
@<TRIPOS>MOLECULE
CH4
5 4
SMALL
USER_CHARGES


@<TRIPOS>ATOM
1 C 15.712 71.743 40.845 C 0.0 **** 0.0
2 H 15.655 71.739 39.756 H 0.0 **** 0.0
3 H 15.932 70.736 41.2 H 0.0 **** 0.0
4 H 14.759 72.074 41.257 H 0.0 **** 0.0
5 H 16.502 72.422 41.164 H 0.0 **** 0.0
@<TRIPOS>BOND
1 1 2 1
2 1 3 1
3 1 4 1
4 1 5 1
@<TRIPOS>MOLECULE
CH4
5 4
SMALL
USER_CHARGES


@<TRIPOS>ATOM
1 C 94.946 50.504 98.374 C 0.0 **** 0.0
2 H 94.772 49.586 98.936 H 0.0 **** 0.0
3 H 93.989 50.935 98.078 H 0.0 **** 0.0
4 H 95.534 50.279 97.485 H 0.0 **** 0.0
5 H 95.487 51.214 98.999 H 0.0 **** 0.0
@<TRIPOS>BOND
1 1 2 1
2 1 3 1
3 1 4 1
4 1 5 1
@<TRIPOS>MOLECULE
CH4
5 4
SMALL
USER_CHARGES


@<TRIPOS>ATOM
1 C 74.428 65.52 41.138 C 0.0 **** 0.0
2 H 73.349 65.67 41.11 H 0.0 **** 0.0
3 H 74.925 66.364 40.66 H 0.0 **** 0.0
4 H 74.68 64.602 40.607 H 0.0 **** 0.0
5 H 74.758 65.443 42.174 H 0.0 **** 0.0
@<TRIPOS>BOND
1 1 2 1
2 1 3 1
3 1 4 1
4 1 5 1
@<TRIPOS>MOLECULE
CH4
5 4
SMALL
USER_CHARGES


@<TRIPOS>ATOM
1 C 6.365 93.754 41.411 C 0.0 **** 0.0
2 H 6.162 92.843 41.975 H 0.0 **** 0.0
3 H 5.486 94.399 41.434 H 0.0 **** 0.0
4 H 6.599 93.496 40.378 H 0.0 **** 0.0
5 H 7.212 94.276 41.856 H 0.0 **** 0.0
@<TRIPOS>BOND
1 1 2 1
2 1 3 1
3 1 4 1
4 1 5 1
@<TRIPOS>MOLECULE
CH4
5 4
SMALL
USER_CHARGES


@<TRIPOS>ATOM
1 C 62.449 40.053 68.026 C 0.0 **** 0.0
2 H 61.881 39.738 68.902 H 0.0 **** 0.0
3 H 63.505 40.13 68.287 H 0.0 **** 0.0
4 H 62.086 41.023 67.687 H 0.0 **** 0.0
5 H 62.324 39.319 67.23 H 0.0 **** 0.0
@<TRIPOS>BOND
1 1 2 1
2 1 3 1
3 1 4 1
4 1 5 1
@<TRIPOS>MOLECULE
CH4
5 4
SMALL
USER_CHARGES


@<TRIPOS>ATOM
1 C 72.23 53.463 56.108 C 0.0 **** 0.0
2 H 72.484 54.101 56.955 H 0.0 **** 0.0
3 H 72.054 52.446 56.459 H 0.0 **** 0.0
4 H 73.053 53.464 55.393 H 0.0 **** 0.0
5 H 71.329 53.843 55.625 H 0.0 **** 0.0
@<TRIPOS>BOND
1 1 2 1
2 1 3 1
3 1 4 1
4 1 5 1
@<TRIPOS>MOLECULE
CH4
5 4
SMALL
USER_CHARGES


@<TRIPOS>ATOM
1 C 32.658 80.381 64.412 C 0.0 **** 0.0
2 H 32.646 80.391 63.322 H 0.0 **** 0.0
3 H 31.751 79.903 64.781 H 0.0 **** 0.0
4 H 32.707 81.405 64.783 H 0.0 **** 0.0
5 H 33.529 79.826 64.76 H 0.0 **** 0.0
@<TRIPOS>BOND
1 1 2 1
2 1 3 1
3 1 4 1
4 1 5 1
@<TRIPOS>MOLECULE
CH4
5 4
SMALL
USER_CHARGES


@<TRIPOS>ATOM
1 C 38.644 4.518 96.731 C 0.0 **** 0.0
2 H 38.472 4.67 95.665 H 0.0 **** 0.0
3 H 39.651 4.131 96.885 H 0.0 **** 0.0
4 H 37.917 3.804 97.117 H 0.0 **** 0.0
5 H 38.534 5.467 97.255 H 0.0 **** 0.0
@<TRIPOS>BOND
1 1 2 1
2 1 3 1
3 1 4 1
4 1 5 1
@<TRIPOS>MOLECULE
CH4
5 4
SMALL
USER_CHARGES


@<TRIPOS>ATOM
1 C 73.549 51.655 49.61 C 0.0 **** 0.0
2 H 74.279 52.007 50.338 H 0.0 **** 0.0
3 H 73.968 51.738 48.607 H 0.0 **** 0.0
4 H 72.646 52.261 49.679 H 0.0 **** 0.0
5 H 73.305 50.613 49.816 H 0.0 **** 0.0
@<TRIPOS>BOND
1 1 2 1
2 1 3 1
3 1 4 1
4 1 5 1
@<TRIPOS>MOLECULE
CH4
5 4
SMALL
USER_CHARGES


@<TRIPOS>ATOM
1 C 76.006 89.67 34.131 C 0.0 **** 0.0
2 H 75.965 89.706 33.042 H 0.0 **** 0.0
3 H 77.036 89.514 34.451 H 0.0 **** 0.0
4 H 75.385 88.849 34.49 H 0.0 **** 0.0
5 H 75.636 90.61 34.539 H 0.0 **** 0.0
@<TRIPOS>BOND
1 1 2 1
2 1 3 1
3 1 4 1
4 1 5 1
@<TRIPOS>MOLECULE
CH4
5 4
SMALL
USER_CHARGES


@<TRIPOS>ATOM
1 C 83.342 76.468 61.494 C 0.0 **** 0.0
2 H 83.932 76.163 60.63 H 0.0 **** 0.0
3 H 82.941 75.583 61.99 H 0.0 **** 0.0
4 H 82.52 77.105 61.167 H 0.0 **** 0.0
5 H 83.974 77.019 62.19 H 0.0 **** 0.0
@<TRIPOS>BOND
1 1 2 1
2 1 3 1
3 1 4 1
4 1 5 1
@<TRIPOS>MOLECULE
CH4
5 4
SMALL
USER_CHARGES


@<TRIPOS>ATOM
1 C 6.085 20.003 46.994 C 0.0 **** 0.0
2 H 5.842 19.376 46.136 H 0.0 **** 0.0
3 H 7.13 20.31 46.934 H 0.0 **** 0.0
4 H 5.923 19.44 47.913 H 0.0 **** 0.0
5 H 5.446 20.886 46.991 H 0.0 **** 0.0
@<TRIPOS>BOND
1 1 2 1
2 1 3 1
3 1 4 1
4 1 5 1
@<TRIPOS>MOLECULE
CH4
5 4
SMALL
USER_CHARGES


@<TRIPOS>ATOM
1 C 27.867 58.026 37.302 C 0.0 **** 0.0
2 H 26.882 58.468 37.149 H 0.0 **** 0.0
3 H 28.621 58.814 37.314 H 0.0 **** 0.0
4 H 28.082 57.329 36.492 H 0.0 **** 0.0
5 H 27.882 57.493 38.253 H 0.0 **** 0.0
@<TRIPOS>BOND
1 1 2 1
2 1 3 1
3 1 4 1
4 1 5 1
@<TRIPOS>MOLECULE
CH4
5 4
SMALL
USER_CHARGES


@<TRIPOS>ATOM
1 C 21.504 11.917 19.063 C 0.0 **** 0.0
2 H 20.484 11.778 18.704 H 0.0 **** 0.0
3 H 21.49 12.519 19.972 H 0.0 **** 0.0
4 H 22.092 12.426 18.299 H 0.0 **** 0.0
5 H 21.949 10.946 19.277 H 0.0 **** 0.0
@<TRIPOS>BOND
1 1 2 1
2 1 3 1
3 1 4 1
4 1 5 1
@<TRIPOS>MOLECULE
CH4
5 4
SMALL
USER_CHARGES


@<TRIPOS>ATOM
1 C 29.016 54.78 93.599 C 0.0 **** 0.0
2 H 28.672 55.214 94.538 H 0.0 **** 0.0
3 H 29.745 53.997 93.805 H 0.0 **** 0.0
4 H 29.479 55.556 92.989 H 0.0 **** 0.0
5 H 28.166 54.356 93.063 H 0.0 **** 0.0
@<TRIPOS>BOND
1 1 2 1
2 1 3 1
3 1 4 1
4 1 5 1
@<TRIPOS>MOLECULE
CH4
5 4
SMALL
USER_CHARGES


@<TRIPOS>ATOM
1 C 21.584 82.69 42.825 C 0.0 **** 0.0
2 H 21.183 81.677 42.807 H 0.0 **** 0.0
3 H 21.957 82.951 41.834 H 0.0 **** 0.0
4 H 22.4 82.745 43.546 H 0.0 **** 0.0
5 H 20.797 83.387 43.113 H 0.0 **** 0.0
@<TRIPOS>BOND
1 1 2 1
2 1 3 1
3 1 4 1
4 1 5 1
@<TRIPOS>MOLECULE
CH4
5 4
SMALL
USER_CHARGES


@<TRIPOS>ATOM
1 C 52.743 41.487 39.309 C 0.0 **** 0.0
2 H 52.448 41.466 40.358 H 0.0 **** 0.0
3 H 52.878 42.521 38.991 H 0.0 **** 0.0
4 H 51.965 41.02 38.704 H 0.0 **** 0.0
5 H 53.678 40.942 39.183 H 0.0 **** 0.0
@<TRIPOS>BOND
1 1 2 1
2 1 3 1
3 1 4 1
4 1 5 1
@<TRIPOS>MOLECULE
CH4
5 4
SMALL
USER_CHARGES


@<TRIPOS>ATOM
1 C 47.642 42.33 65.639 C 0.0 **** 0.0
2 H 46.745 42.444 65.032 H 0.0 **** 0.0
3 H 48.472 42.015 65.006 H 0.0 **** 0.0
4 H 47.467 41.578 66.409 H 0.0 **** 0.0
5 H 47.886 43.282 66.111 H 0.0 **** 0.0
@<TRIPOS>BOND
1 1 2 1
2 1 3 1
3 1 4 1
4 1 5 1
@<TRIPOS>MOLECULE
CH4
5 4
SMALL
USER_CHARGES


@<TRIPOS>ATOM
1 C 9.554 4.587 15.699 C 0.0 **** 0.0
2 H 8.817 4.234 16.42 H 0.0 **** 0.0
3 H 10.348 3.847 15.599 H 0.0 **** 0.0
4 H 9.977 5.53 16.044 H 0.0 **** 0.0
5 H 9.073 4.737 14.732 H 0.0 **** 0.0
@<TRIPOS>BOND
1 1 2 1
2 1 3 1
3 1 4 1
4 1 5 1
@<TRIPOS>MOLECULE
CH4
5 4
SMALL
USER_CHARGES


@<TRIPOS>ATOM
1 C 39.63 86.02 40.655 C 0.0 **** 0.0
2 H 40.433 86.23 39.949 H 0.0 **** 0.0
3 H 38.685 85.939 40.116 H 0.0 **** 0.0
4 H 39.565 86.829 41.382 H 0.0 **** 0.0
5 H 39.836 85.083 41.171 H 0.0 **** 0.0
@<TRIPOS>BOND
1 1 2 1
2 1 3 1
3 1 4 1
4 1 5 1
@<TRIPOS>MOLECULE
CH4
5 4
SMALL
USER_CHARGES


@<TRIPOS>ATOM
1 C 40.074 89.493 31.224 C 0.0 **** 0.0
2 H 40.441 89.926 32.154 H 0.0 **** 0.0
3 H 40.769 88.727 30.88 H 0.0 **** 0.0
4 H 39.99 90.274 30.468 H 0.0 **** 0.0
5 H 39.094 89.046 31.394 H 0.0 **** 0.0
@<TRIPOS>BOND
1 1 2 1
2 1 3 1
3 1 4 1
4 1 5 1
@<TRIPOS>MOLECULE
CH4
5 4
SMALL
USER_CHARGES


@<TRIPOS>ATOM
1 C 6.139 17.939 71.374 C 0.0 **** 0.0
2 H 5.647 17.499 70.507 H 0.0 **** 0.0
3 H 6.871 18.676 71.041 H 0.0 **** 0.0
4 H 6.643 17.157 71.941 H 0.0 **** 0.0
5 H 5.396 18.425 72.006 H 0.0 **** 0.0
@<TRIPOS>BOND
1 1 2 1
2 1 3 1
3 1 4 1
4 1 5 1
@<TRIPOS>MOLECULE
CH4
5 4
SMALL
USER_CHARGES


@<TRIPOS>ATOM
1 C 3.304 33.812 40.207 C 0.0 **** 0.0
2 H 3.19 33.62 41.274 H 0.0 **** 0.0
3 H 4.345 33.662 39.92 H 0.0 **** 0.0
4 H 3.011 34.839 39.99 H 0.0 **** 0.0
5 H 2.669 33.126 39.646 H 0.0 **** 0.0
@<TRIPOS>BOND
1 1 2 1
2 1 3 1
3 1 4 1
4 1 5 1
@<TRIPOS>MOLECULE
CH4
5 4
SMALL
USER_CHARGES


@<TRIPOS>ATOM
1 C 18.596 40.999 23.982 C 0.0 **** 0.0
2 H 17.855 40.5 24.607 H 0.0 **** 0.0
3 H 18.342 40.853 22.932 H 0.0 **** 0.0
4 H 19.581 40.578 24.181 H 0.0 **** 0.0
5 H 18.604 42.065 24.21 H 0.0 **** 0.0
@<TRIPOS>BOND
1 1 2 1
2 1 3 1
3 1 4 1
4 1 5 1
@<TRIPOS>MOLECULE
CH4
5 4
SMALL
USER_CHARGES


@<TRIPOS>ATOM
1 C 94.254 24.263 91.769 C 0.0 **** 0.0
2 H 94.325 24.823 90.837 H 0.0 **** 0.0
3 H 93.619 23.389 91.621 H 0.0 **** 0.0
4 H 93.822 24.899 92.542 H 0.0 **** 0.0
5 H 95.249 23.942 92.077 H 0.0 **** 0.0
@<TRIPOS>BOND
1 1 2 1
2 1 3 1
3 1 4 1
4 1 5 1
@<TRIPOS>MOLECULE
CH4
5 4
SMALL
USER_CHARGES


@<TRIPOS>ATOM
1 C 28.804 68.635 35.634 C 0.0 **** 0.0
2 H 29.268 69.62 35.681 H 0.0 **** 0.0
3 H 29.552 67.895 35.351 H 0.0 **** 0.0
4 H 28.004 68.645 34.894 H 0.0 **** 0.0
5 H 28.393 68.381 36.611 H 0.0 **** 0.0
@<TRIPOS>BOND
1 1 2 1
2 1 3 1
3 1 4 1
4 1 5 1
@<TRIPOS>MOLECULE
CH4
5 4
SMALL
USER_CHARGES


@<TRIPOS>ATOM
1 C 12.684 3.229 55.369 C 0.0 **** 0.0
2 H 12.923 2.492 54.602 H 0.0 **** 0.0
3 H 13.39 4.058 55.308 H 0.0 **** 0.0
4 H 12.751 2.765 56.352 H 0.0 **** 0.0
5 H 11.672 3.602 55.21 H 0.0 **** 0.0
@<TRIPOS>BOND
1 1 2 1
2 1 3 1
3 1 4 1
4 1 5 1
@<TRIPOS>MOLECULE
CH4
5 4
SMALL
USER_CHARGES


@<TRIPOS>ATOM
1 C 74.496 32.015 42.309 C 0.0 **** 0.0
2 H 74.011 32.954 42.578 H 0.0 **** 0.0
3 H 74.131 31.684 41.336 H 0.0 **** 0.0
4 H 74.266 31.26 43.06 H 0.0 **** 0.0
5 H 75.575 32.164 42.261 H 0.0 **** 0.0
@<TRIPOS>BOND
1 1 2 1
2 1 3 1
3 1 4 1
4 1 5 1
@<TRIPOS>MOLECULE
CH4
5 4
SMALL
USER_CHARGES


@<TRIPOS>ATOM
1 C 55.775 26.853 75.079 C 0.0 **** 0.0
2 H 56.072 27.27 74.117 H 0.0 **** 0.0
3 H 55.04 26.063 74.921 H 0.0 **** 0.0
4 H 55.337 27.638 75.696 H 0.0 **** 0.0
5 H 56.65 26.441 75.582 H 0.0 **** 0.0
@<TRIPOS>BOND
1 1 2 1
2 1 3 1
3 1 4 1
4 1 5 1
@<TRIPOS>MOLECULE
CH4
5 4
SMALL
USER_CHARGES


@<TRIPOS>ATOM
1 C 70.388 50.792 59.098 C 0.0 **** 0.0
2 H 70.461 51.792 59.526 H 0.0 **** 0.0
3 H 71.016 50.107 59.667 H 0.0 **** 0.0
4 H 70.724 50.817 58.061 H 0.0 **** 0.0
5 H 69.353 50.454 59.137 H 0.0 **** 0.0
@<TRIPOS>BOND
1 1 2 1
2 1 3 1
3 1 4 1
4 1 5 1
@<TRIPOS>MOLECULE
CH4
5 4
SMALL
USER_CHARGES


@<TRIPOS>ATOM
1 C 63.207 83.548 35.246 C 0.0 **** 0.0
2 H 63.453 83.274 34.22 H 0.0 **** 0.0
3 H 63.844 82.99 35.933 H 0.0 **** 0.0
4 H 62.162 83.31 35.445 H 0.0 **** 0.0
5 H 63.37 84.616 35.386 H 0.0 **** 0.0
@<TRIPOS>BOND
1 1 2 1
2 1 3 1
3 1 4 1
4 1 5 1
@<TRIPOS>MOLECULE
CH4
5 4
SMALL
USER_CHARGES


@<TRIPOS>ATOM
1 C 93.632 51.043 36.243 C 0.0 **** 0.0
2 H 93.424 50.441 35.359 H 0.0 **** 0.0
3 H 94.111 50.423 37.001 H 0.0 **** 0.0
4 H 92.697 51.443 36.638 H 0.0 **** 0.0
5 H 94.294 51.866 35.974 H 0.0 **** 0.0
@<TRIPOS>BOND
1 1 4 1
2 1 5 1
3 1 2 1
4 1 3 1
@<TRIPOS>MOLECULE
CH4
5 4
SMALL
USER_CHARGES


@<TRIPOS>ATOM
1 C 44.087 45.107 3.809 C 0.0 **** 0.0
2 H 44.452 45.423 2.832 H 0.0 **** 0.0
3 H 44.887 44.599 4.349 H 0.0 **** 0.0
4 H 43.246 44.425 3.679 H 0.0 **** 0.0
5 H 43.762 45.98 4.376 H 0.0 **** 0.0
@<TRIPOS>BOND
1 1 2 1
2 1 3 1
3 1 4 1
4 1 5 1
@<TRIPOS>MOLECULE
CH4
5 4
SMALL
USER_CHARGES


@<TRIPOS>ATOM
1 C 94.836 13.535 81.891 C 0.0 **** 0.0
2 H 93.919 12.986 82.105 H 0.0 **** 0.0
3 H 95.17 13.304 80.88 H 0.0 **** 0.0
4 H 95.608 13.244 82.604 H 0.0 **** 0.0
5 H 94.647 14.605 81.976 H 0.0 **** 0.0
@<TRIPOS>BOND
1 1 2 1
2 1 3 1
3 1 4 1
4 1 5 1
@<TRIPOS>MOLECULE
CH4
5 4
SMALL
USER_CHARGES


@<TRIPOS>ATOM
1 C 35.068 27.199 84.696 C 0.0 **** 0.0
2 H 35.285 26.966 83.654 H 0.0 **** 0.0
3 H 35.997 27.436 85.216 H 0.0 **** 0.0
4 H 34.595 26.339 85.17 H 0.0 **** 0.0
5 H 34.396 28.056 84.744 H 0.0 **** 0.0
@<TRIPOS>BOND
1 1 2 1
2 1 3 1
3 1 4 1
4 1 5 1
@<TRIPOS>MOLECULE
CH4
5 4
SMALL
USER_CHARGES


@<TRIPOS>ATOM
1 C 84.942 97.17 7.2 C 0.0 **** 0.0
2 H 85.391 96.362 6.623 H 0.0 **** 0.0
3 H 85.726 97.832 7.57 H 0.0 **** 0.0
4 H 84.391 96.752 8.043 H 0.0 **** 0.0
5 H 84.259 97.734 6.564 H 0.0 **** 0.0
@<TRIPOS>BOND
1 1 2 1
2 1 3 1
3 1 4 1
4 1 5 1
@<TRIPOS>MOLECULE
CH4
5 4
SMALL
USER_CHARGES


@<TRIPOS>ATOM
1 C 18.027 58.604 28.073 C 0.0 **** 0.0
2 H 17.167 59.212 28.353 H 0.0 **** 0.0
3 H 18.071 58.516 26.987 H 0.0 **** 0.0
4 H 17.931 57.613 28.515 H 0.0 **** 0.0
5 H 18.94 59.077 28.436 H 0.0 **** 0.0
@<TRIPOS>BOND
1 1 3 1
2 1 2 1
3 1 4 1
4 1 5 1
@<TRIPOS>MOLECULE
CH4
5 4
SMALL
USER_CHARGES


@<TRIPOS>ATOM
1 C 32.407 87.918 66.48 C 0.0 **** 0.0
2 H 32.37 87.778 67.561 H 0.0 **** 0.0
3 H 31.505 87.505 66.03 H 0.0 **** 0.0
4 H 33.282 87.406 66.078 H 0.0 **** 0.0
5 H 32.473 88.982 66.254 H 0.0 **** 0.0
@<TRIPOS>BOND
1 1 2 1
2 1 3 1
3 1 4 1
4 1 5 1
@<TRIPOS>MOLECULE
CH4
5 4
SMALL
USER_CHARGES


@<TRIPOS>ATOM
1 C 30.111 77.714 54.624 C 0.0 **** 0.0
2 H 29.8 76.697 54.866 H 0.0 **** 0.0
3 H 31.185 77.813 54.783 H 0.0 **** 0.0
4 H 29.582 78.417 55.267 H 0.0 **** 0.0
5 H 29.876 77.927 53.582 H 0.0 **** 0.0
@<TRIPOS>BOND
1 1 2 1
2 1 3 1
3 1 4 1
4 1 5 1
@<TRIPOS>MOLECULE
CH4
5 4
SMALL
USER_CHARGES


@<TRIPOS>ATOM
1 C 86.323 85.379 6.223 C 0.0 **** 0.0
2 H 85.502 86.07 6.03 H 0.0 **** 0.0
3 H 86.413 84.681 5.391 H 0.0 **** 0.0
4 H 86.124 84.827 7.142 H 0.0 **** 0.0
5 H 87.252 85.939 6.33 H 0.0 **** 0.0
@<TRIPOS>BOND
1 1 2 1
2 1 3 1
3 1 4 1
4 1 5 1
@<TRIPOS>MOLECULE
CH4
5 4
SMALL
USER_CHARGES


@<TRIPOS>ATOM
1 C 26.649 37.136 51.315 C 0.0 **** 0.0
2 H 27.433 36.916 52.04 H 0.0 **** 0.0
3 H 27.097 37.55 50.411 H 0.0 **** 0.0
4 H 25.954 37.86 51.74 H 0.0 **** 0.0
5 H 26.114 36.219 51.068 H 0.0 **** 0.0
@<TRIPOS>BOND
1 1 2 1
2 1 3 1
3 1 4 1
4 1 5 1
@<TRIPOS>MOLECULE
CH4
5 4
SMALL
USER_CHARGES


@<TRIPOS>ATOM
1 C 65.28 81.375 63.726 C 0.0 **** 0.0
2 H 64.193 81.288 63.74 H 0.0 **** 0.0
3 H 65.7 80.574 63.118 H 0.0 **** 0.0
4 H 65.663 81.3 64.743 H 0.0 **** 0.0
5 H 65.561 82.339 63.302 H 0.0 **** 0.0
@<TRIPOS>BOND
1 1 2 1
2 1 3 1
3 1 4 1
4 1 5 1
@<TRIPOS>MOLECULE
CH4
5 4
SMALL
USER_CHARGES


@<TRIPOS>ATOM
1 C 40.082 23.103 44.706 C 0.0 **** 0.0
2 H 40.222 22.891 45.767 H 0.0 **** 0.0
3 H 39.197 23.726 44.574 H 0.0 **** 0.0
4 H 39.954 22.167 44.163 H 0.0 **** 0.0
5 H 40.957 23.629 44.323 H 0.0 **** 0.0
@<TRIPOS>BOND
1 1 2 1
2 1 3 1
3 1 4 1
4 1 5 1
@<TRIPOS>MOLECULE
CH4
5 4
SMALL
USER_CHARGES


@<TRIPOS>ATOM
1 C 96.245 77.752 34.933 C 0.0 **** 0.0
2 H 95.528 76.958 34.724 H 0.0 **** 0.0
3 H 96.817 77.971 34.031 H 0.0 **** 0.0
4 H 96.922 77.431 35.724 H 0.0 **** 0.0
5 H 95.712 78.648 35.251 H 0.0 **** 0.0
@<TRIPOS>BOND
1 1 2 1
2 1 3 1
3 1 4 1
4 1 5 1
@<TRIPOS>MOLECULE
CH4
5 4
SMALL
USER_CHARGES


@<TRIPOS>ATOM
1 C 20.098 27.531 66.369 C 0.0 **** 0.0
2 H 19.816 27.297 67.395 H 0.0 **** 0.0
3 H 19.893 26.671 65.731 H 0.0 **** 0.0
4 H 21.161 27.768 66.329 H 0.0 **** 0.0
5 H 19.522 28.388 66.021 H 0.0 **** 0.0
@<TRIPOS>BOND
1 1 2 1
2 1 3 1
3 1 4 1
4 1 5 1
@<TRIPOS>MOLECULE
CH4
5 4
SMALL
USER_CHARGES


@<TRIPOS>ATOM
1 C 43.567 97.763 68.081 C 0.0 **** 0.0
2 H 42.736 97.058 68.082 H 0.0 **** 0.0
3 H 43.914 97.914 67.058 H 0.0 **** 0.0
4 H 44.382 97.364 68.686 H 0.0 **** 0.0
5 H 43.238 98.715 68.497 H 0.0 **** 0.0
@<TRIPOS>BOND
1 1 2 1
2 1 3 1
3 1 4 1
4 1 5 1
@<TRIPOS>MOLECULE
CH4
5 4
SMALL
USER_CHARGES


@<TRIPOS>ATOM
1 C 49.809 39.875 66.521 C 0.0 **** 0.0
2 H 49.805 39.895 65.431 H 0.0 **** 0.0
3 H 48.789 39.754 66.886 H 0.0 **** 0.0
4 H 50.223 40.81 66.9 H 0.0 **** 0.0
5 H 50.421 39.041 66.866 H 0.0 **** 0.0
@<TRIPOS>BOND
1 1 2 1
2 1 3 1
3 1 4 1
4 1 5 1
@<TRIPOS>MOLECULE
CH4
5 4
SMALL
USER_CHARGES


@<TRIPOS>ATOM
1 C 69.876 13.206 61.199 C 0.0 **** 0.0
2 H 69.997 12.791 60.199 H 0.0 **** 0.0
3 H 68.841 13.085 61.52 H 0.0 **** 0.0
4 H 70.132 14.265 61.186 H 0.0 **** 0.0
5 H 70.534 12.681 61.892 H 0.0 **** 0.0
@<TRIPOS>BOND
1 1 2 1
2 1 3 1
3 1 4 1
4 1 5 1
@<TRIPOS>MOLECULE
CH4
5 4
SMALL
USER_CHARGES


@<TRIPOS>ATOM
1 C 19.215 50.798 65.728 C 0.0 **** 0.0
2 H 19.813 49.89 65.8 H 0.0 **** 0.0
3 H 19.59 51.416 64.913 H 0.0 **** 0.0
4 H 19.282 51.352 66.665 H 0.0 **** 0.0
5 H 18.175 50.533 65.536 H 0.0 **** 0.0
@<TRIPOS>BOND
1 1 3 1
2 1 4 1
3 1 5 1
4 1 2 1
@<TRIPOS>MOLECULE
CH4
5 4
SMALL
USER_CHARGES


@<TRIPOS>ATOM
1 C 51.359 4.433 27.39 C 0.0 **** 0.0
2 H 51.151 4.203 28.435 H 0.0 **** 0.0
3 H 51.548 3.507 26.846 H 0.0 **** 0.0
4 H 52.235 5.078 27.327 H 0.0 **** 0.0
5 H 50.5 4.942 26.953 H 0.0 **** 0.0
@<TRIPOS>BOND
1 1 2 1
2 1 3 1
3 1 4 1
4 1 5 1
@<TRIPOS>MOLECULE
CH4
5 4
SMALL
USER_CHARGES


@<TRIPOS>ATOM
1 C 73.114 2.822 84.85 C 0.0 **** 0.0
2 H 72.931 3.772 85.352 H 0.0 **** 0.0
3 H 72.161 2.358 84.592 H 0.0 **** 0.0
4 H 73.672 2.162 85.513 H 0.0 **** 0.0
5 H 73.691 2.996 83.942 H 0.0 **** 0.0
@<TRIPOS>BOND
1 1 2 1
2 1 3 1
3 1 4 1
4 1 5 1
@<TRIPOS>MOLECULE
CH4
5 4
SMALL
USER_CHARGES


@<TRIPOS>ATOM
1 C 46.597 73.925 30.332 C 0.0 **** 0.0
2 H 46.242 74.884 29.955 H 0.0 **** 0.0
3 H 47.455 73.599 29.744 H 0.0 **** 0.0
4 H 45.799 73.186 30.251 H 0.0 **** 0.0
5 H 46.89 74.031 31.376 H 0.0 **** 0.0
@<TRIPOS>BOND
1 1 2 1
2 1 3 1
3 1 4 1
4 1 5 1
@<TRIPOS>MOLECULE
CH4
5 4
SMALL
USER_CHARGES


@<TRIPOS>ATOM
1 C 90.404 1.735 93.785 C 0.0 **** 0.0
2 H 89.887 1.556 94.728 H 0.0 **** 0.0
3 H 90.413 0.817 93.197 H 0.0 **** 0.0
4 H 91.429 2.048 93.986 H 0.0 **** 0.0
5 H 89.887 2.517 93.23 H 0.0 **** 0.0
@<TRIPOS>BOND
1 1 2 1
2 1 3 1
3 1 4 1
4 1 5 1
@<TRIPOS>MOLECULE
CH4
5 4
SMALL
USER_CHARGES


@<TRIPOS>ATOM
1 C 10.262 7.888 89.781 C 0.0 **** 0.0
2 H 10.313 7.729 90.858 H 0.0 **** 0.0
3 H 9.286 8.297 89.52 H 0.0 **** 0.0
4 H 10.408 6.938 89.267 H 0.0 **** 0.0
5 H 11.042 8.587 89.48 H 0.0 **** 0.0
@<TRIPOS>BOND
1 1 2 1
2 1 3 1
3 1 4 1
4 1 5 1
@<TRIPOS>MOLECULE
CH4
5 4
SMALL
USER_CHARGES


@<TRIPOS>ATOM
1 C 52.0 38.456 83.518 C 0.0 **** 0.0
2 H 52.896 38.265 82.927 H 0.0 **** 0.0
3 H 51.548 39.395 83.199 H 0.0 **** 0.0
4 H 52.268 38.52 84.573 H 0.0 **** 0.0
5 H 51.29 37.642 83.372 H 0.0 **** 0.0
@<TRIPOS>BOND
1 1 2 1
2 1 3 1
3 1 4 1
4 1 5 1
@<TRIPOS>MOLECULE
CH4
5 4
SMALL
USER_CHARGES


@<TRIPOS>ATOM
1 C 94.659 49.918 21.982 C 0.0 **** 0.0
2 H 94.724 49.995 20.897 H 0.0 **** 0.0
3 H 95.548 50.362 22.431 H 0.0 **** 0.0
4 H 94.592 48.868 22.268 H 0.0 **** 0.0
5 H 93.773 50.447 22.332 H 0.0 **** 0.0
@<TRIPOS>BOND
1 1 2 1
2 1 3 1
3 1 4 1
4 1 5 1
@<TRIPOS>MOLECULE
CH4
5 4
SMALL
USER_CHARGES


@<TRIPOS>ATOM
1 C 33.634 46.805 34.391 C 0.0 **** 0.0
2 H 33.16 47.31 33.549 H 0.0 **** 0.0
3 H 34.53 46.288 34.046 H 0.0 **** 0.0
4 H 32.94 46.083 34.82 H 0.0 **** 0.0
5 H 33.908 47.54 35.148 H 0.0 **** 0.0
@<TRIPOS>BOND
1 1 2 1
2 1 3 1
3 1 4 1
4 1 5 1
@<TRIPOS>MOLECULE
CH4
5 4
SMALL
USER_CHARGES


@<TRIPOS>ATOM
1 C 61.637 61.589 9.002 C 0.0 **** 0.0
2 H 61.411 61.579 7.935 H 0.0 **** 0.0
3 H 62.705 61.749 9.145 H 0.0 **** 0.0
4 H 61.35 60.634 9.443 H 0.0 **** 0.0
5 H 61.08 62.393 9.483 H 0.0 **** 0.0
@<TRIPOS>BOND
1 1 2 1
2 1 3 1
3 1 4 1
4 1 5 1
@<TRIPOS>MOLECULE
CH4
5 4
SMALL
USER_CHARGES


@<TRIPOS>ATOM
1 C 20.242 66.073 24.898 C 0.0 **** 0.0
2 H 20.271 66.045 23.808 H 0.0 **** 0.0
3 H 21.105 65.541 25.298 H 0.0 **** 0.0
4 H 19.326 65.597 25.248 H 0.0 **** 0.0
5 H 20.265 67.11 25.235 H 0.0 **** 0.0
@<TRIPOS>BOND
1 1 2 1
2 1 3 1
3 1 4 1
4 1 5 1
@<TRIPOS>MOLECULE
CH4
5 4
SMALL
USER_CHARGES


@<TRIPOS>ATOM
1 C 9.06 40.319 36.112 C 0.0 **** 0.0
2 H 8.394 39.679 35.533 H 0.0 **** 0.0
3 H 8.669 41.337 36.119 H 0.0 **** 0.0
4 H 10.052 40.314 35.661 H 0.0 **** 0.0
5 H 9.123 39.947 37.134 H 0.0 **** 0.0
@<TRIPOS>BOND
1 1 2 1
2 1 3 1
3 1 4 1
4 1 5 1
@<TRIPOS>MOLECULE
CH4
5 4
SMALL
USER_CHARGES


@<TRIPOS>ATOM
1 C 88.666 47.694 76.737 C 0.0 **** 0.0
2 H 87.994 47.395 75.933 H 0.0 **** 0.0
3 H 88.383 48.683 77.098 H 0.0 **** 0.0
4 H 89.69 47.723 76.363 H 0.0 **** 0.0
5 H 88.598 46.975 77.553 H 0.0 **** 0.0
@<TRIPOS>BOND
1 1 2 1
2 1 3 1
3 1 4 1
4 1 5 1
@<TRIPOS>MOLECULE
CH4
5 4
SMALL
USER_CHARGES


@<TRIPOS>ATOM
1 C 68.981 23.61 55.556 C 0.0 **** 0.0
2 H 69.196 23.502 54.493 H 0.0 **** 0.0
3 H 69.162 24.641 55.86 H 0.0 **** 0.0
4 H 69.628 22.943 56.126 H 0.0 **** 0.0
5 H 67.939 23.353 55.743 H 0.0 **** 0.0
@<TRIPOS>BOND
1 1 2 1
2 1 3 1
3 1 4 1
4 1 5 1
@<TRIPOS>MOLECULE
CH4
5 4
SMALL
USER_CHARGES


@<TRIPOS>ATOM
1 C 84.868 69.726 43.834 C 0.0 **** 0.0
2 H 84.873 69.707 42.744 H 0.0 **** 0.0
3 H 85.87 69.511 44.206 H 0.0 **** 0.0
4 H 84.173 68.973 44.206 H 0.0 **** 0.0
5 H 84.555 70.712 44.178 H 0.0 **** 0.0
@<TRIPOS>BOND
1 1 2 1
2 1 3 1
3 1 4 1
4 1 5 1
@<TRIPOS>MOLECULE
CH4
5 4
SMALL
USER_CHARGES


@<TRIPOS>ATOM
1 C 50.028 78.305 63.215 C 0.0 **** 0.0
2 H 50.921 78.886 62.987 H 0.0 **** 0.0
3 H 49.876 78.282 64.294 H 0.0 **** 0.0
4 H 50.152 77.288 62.843 H 0.0 **** 0.0
5 H 49.164 78.764 62.736 H 0.0 **** 0.0
@<TRIPOS>BOND
1 1 2 1
2 1 3 1
3 1 4 1
4 1 5 1
@<TRIPOS>MOLECULE
CH4
5 4
SMALL
USER_CHARGES


@<TRIPOS>ATOM
1 C 40.923 52.783 33.647 C 0.0 **** 0.0
2 H 41.018 52.964 34.718 H 0.0 **** 0.0
3 H 39.874 52.856 33.358 H 0.0 **** 0.0
4 H 41.296 51.785 33.413 H 0.0 **** 0.0
5 H 41.504 53.525 33.1 H 0.0 **** 0.0
@<TRIPOS>BOND
1 1 4 1
2 1 5 1
3 1 2 1
4 1 3 1
@<TRIPOS>MOLECULE
CH4
5 4
SMALL
USER_CHARGES


@<TRIPOS>ATOM
1 C 44.708 1.394 5.651 C 0.0 **** 0.0
2 H 44.976 0.553 5.011 H 0.0 **** 0.0
3 H 44.434 1.025 6.639 H 0.0 **** 0.0
4 H 43.864 1.929 5.215 H 0.0 **** 0.0
5 H 45.56 2.069 5.738 H 0.0 **** 0.0
@<TRIPOS>BOND
1 1 2 1
2 1 3 1
3 1 4 1
4 1 5 1
@<TRIPOS>MOLECULE
CH4
5 4
SMALL
USER_CHARGES


@<TRIPOS>ATOM
1 C 70.506 22.683 29.498 C 0.0 **** 0.0
2 H 70.153 21.694 29.787 H 0.0 **** 0.0
3 H 71.062 22.611 28.563 H 0.0 **** 0.0
4 H 71.156 23.08 30.278 H 0.0 **** 0.0
5 H 69.652 23.348 29.363 H 0.0 **** 0.0
@<TRIPOS>BOND
1 1 2 1
2 1 3 1
3 1 4 1
4 1 5 1
@<TRIPOS>MOLECULE
CH4
5 4
SMALL
USER_CHARGES


@<TRIPOS>ATOM
1 C 74.912 97.56 66.625 C 0.0 **** 0.0
2 H 74.222 97.209 65.858 H 0.0 **** 0.0
3 H 74.944 98.649 66.615 H 0.0 **** 0.0
4 H 75.908 97.165 66.424 H 0.0 **** 0.0
5 H 74.575 97.215 67.602 H 0.0 **** 0.0
@<TRIPOS>BOND
1 1 2 1
2 1 3 1
3 1 4 1
4 1 5 1
@<TRIPOS>MOLECULE
CH4
5 4
SMALL
USER_CHARGES


@<TRIPOS>ATOM
1 C 43.242 31.571 6.607 C 0.0 **** 0.0
2 H 44.222 31.119 6.455 H 0.0 **** 0.0
3 H 43.231 32.57 6.172 H 0.0 **** 0.0
4 H 43.033 31.636 7.675 H 0.0 **** 0.0
5 H 42.481 30.956 6.125 H 0.0 **** 0.0
@<TRIPOS>BOND
1 1 2 1
2 1 3 1
3 1 4 1
4 1 5 1
@<TRIPOS>MOLECULE
CH4
5 4
SMALL
USER_CHARGES


@<TRIPOS>ATOM
1 C 31.176 24.09 71.813 C 0.0 **** 0.0
2 H 30.403 24.48 72.476 H 0.0 **** 0.0
3 H 31.95 24.845 71.675 H 0.0 **** 0.0
4 H 30.734 23.84 70.849 H 0.0 **** 0.0
5 H 31.615 23.195 72.255 H 0.0 **** 0.0
@<TRIPOS>BOND
1 1 2 1
2 1 3 1
3 1 4 1
4 1 5 1
@<TRIPOS>MOLECULE
CH4
5 4
SMALL
USER_CHARGES


@<TRIPOS>ATOM
1 C 20.214 9.799 21.112 C 0.0 **** 0.0
2 H 19.441 9.967 20.362 H 0.0 **** 0.0
3 H 19.769 9.337 21.994 H 0.0 **** 0.0
4 H 20.665 10.752 21.389 H 0.0 **** 0.0
5 H 20.98 9.14 20.703 H 0.0 **** 0.0
@<TRIPOS>BOND
1 1 2 1
2 1 3 1
3 1 4 1
4 1 5 1
@<TRIPOS>MOLECULE
CH4
5 4
SMALL
USER_CHARGES


@<TRIPOS>ATOM
1 C 86.786 82.249 50.558 C 0.0 **** 0.0
2 H 86.639 81.956 51.597 H 0.0 **** 0.0
3 H 85.887 82.02 49.985 H 0.0 **** 0.0
4 H 87.631 81.701 50.142 H 0.0 **** 0.0
5 H 86.986 83.319 50.508 H 0.0 **** 0.0
@<TRIPOS>BOND
1 1 2 1
2 1 3 1
3 1 4 1
4 1 5 1
@<TRIPOS>MOLECULE
CH4
5 4
SMALL
USER_CHARGES


@<TRIPOS>ATOM
1 C 62.384 67.736 74.921 C 0.0 **** 0.0
2 H 62.306 67.595 73.843 H 0.0 **** 0.0
3 H 63.15 68.481 75.135 H 0.0 **** 0.0
4 H 62.654 66.79 75.392 H 0.0 **** 0.0
5 H 61.426 68.076 75.312 H 0.0 **** 0.0
@<TRIPOS>BOND
1 1 2 1
2 1 3 1
3 1 4 1
4 1 5 1
@<TRIPOS>MOLECULE
CH4
5 4
SMALL
USER_CHARGES


@<TRIPOS>ATOM
1 C 23.182 85.46 54.344 C 0.0 **** 0.0
2 H 23.799 84.6 54.605 H 0.0 **** 0.0
3 H 23.294 86.232 55.106 H 0.0 **** 0.0
4 H 22.137 85.153 54.289 H 0.0 **** 0.0
5 H 23.497 85.853 53.378 H 0.0 **** 0.0
@<TRIPOS>BOND
1 1 2 1
2 1 3 1
3 1 4 1
4 1 5 1
@<TRIPOS>MOLECULE
CH4
5 4
SMALL
USER_CHARGES


@<TRIPOS>ATOM
1 C 97.133 26.94 83.395 C 0.0 **** 0.0
2 H 97.232 27.42 84.369 H 0.0 **** 0.0
3 H 96.27 27.353 82.873 H 0.0 **** 0.0
4 H 96.998 25.867 83.531 H 0.0 **** 0.0
5 H 98.034 27.121 82.809 H 0.0 **** 0.0
@<TRIPOS>BOND
1 1 2 1
2 1 3 1
3 1 4 1
4 1 5 1
@<TRIPOS>MOLECULE
CH4
5 4
SMALL
USER_CHARGES


@<TRIPOS>ATOM
1 C 84.249 47.587 57.312 C 0.0 **** 0.0
2 H 84.398 47.534 56.233 H 0.0 **** 0.0
3 H 83.199 47.789 57.524 H 0.0 **** 0.0
4 H 84.864 48.387 57.724 H 0.0 **** 0.0
5 H 84.536 46.638 57.765 H 0.0 **** 0.0
@<TRIPOS>BOND
1 1 2 1
2 1 3 1
3 1 4 1
4 1 5 1
@<TRIPOS>MOLECULE
CH4
5 4
SMALL
USER_CHARGES


@<TRIPOS>ATOM
1 C 21.831 69.838 17.102 C 0.0 **** 0.0
2 H 21.43 69.258 16.271 H 0.0 **** 0.0
3 H 22.038 69.175 17.942 H 0.0 **** 0.0
4 H 21.102 70.591 17.404 H 0.0 **** 0.0
5 H 22.752 70.33 16.79 H 0.0 **** 0.0
@<TRIPOS>BOND
1 1 2 1
2 1 3 1
3 1 4 1
4 1 5 1
@<TRIPOS>MOLECULE
CH4
5 4
SMALL
USER_CHARGES


@<TRIPOS>ATOM
1 C 54.471 25.23 27.393 C 0.0 **** 0.0
2 H 55.453 25.048 27.83 H 0.0 **** 0.0
3 H 53.7 24.834 28.055 H 0.0 **** 0.0
4 H 54.407 24.736 26.424 H 0.0 **** 0.0
5 H 54.324 26.303 27.265 H 0.0 **** 0.0
@<TRIPOS>BOND
1 1 2 1
2 1 3 1
3 1 4 1
4 1 5 1
@<TRIPOS>MOLECULE
CH4
5 4
SMALL
USER_CHARGES


@<TRIPOS>ATOM
1 C 78.71 50.27 51.848 C 0.0 **** 0.0
2 H 79.198 50.617 50.938 H 0.0 **** 0.0
3 H 79.414 50.317 52.679 H 0.0 **** 0.0
4 H 78.377 49.24 51.712 H 0.0 **** 0.0
5 H 77.85 50.904 52.064 H 0.0 **** 0.0
@<TRIPOS>BOND
1 1 2 1
2 1 3 1
3 1 4 1
4 1 5 1
@<TRIPOS>MOLECULE
CH4
5 4
SMALL
USER_CHARGES


@<TRIPOS>ATOM
1 C 98.486 89.229 39.489 C 0.0 **** 0.0
2 H 98.494 88.994 38.425 H 0.0 **** 0.0
3 H 99.0 90.176 39.655 H 0.0 **** 0.0
4 H 98.996 88.438 40.039 H 0.0 **** 0.0
5 H 97.456 89.308 39.836 H 0.0 **** 0.0
@<TRIPOS>BOND
1 1 2 1
2 1 3 1
3 1 4 1
4 1 5 1
@<TRIPOS>MOLECULE
CH4
5 4
SMALL
USER_CHARGES


@<TRIPOS>ATOM
1 C 92.601 3.134 53.669 C 0.0 **** 0.0
2 H 93.196 2.222 53.715 H 0.0 **** 0.0
3 H 91.542 2.877 53.677 H 0.0 **** 0.0
4 H 92.838 3.676 52.753 H 0.0 **** 0.0
5 H 92.83 3.761 54.531 H 0.0 **** 0.0
@<TRIPOS>BOND
1 1 2 1
2 1 3 1
3 1 4 1
4 1 5 1
@<TRIPOS>MOLECULE
CH4
5 4
SMALL
USER_CHARGES


@<TRIPOS>ATOM
1 C 73.454 83.666 87.961 C 0.0 **** 0.0
2 H 73.381 83.589 86.876 H 0.0 **** 0.0
3 H 72.59 83.181 88.418 H 0.0 **** 0.0
4 H 73.476 84.717 88.25 H 0.0 **** 0.0
5 H 74.367 83.176 88.299 H 0.0 **** 0.0
@<TRIPOS>BOND
1 1 2 1
2 1 3 1
3 1 4 1
4 1 5 1
@<TRIPOS>MOLECULE
CH4
5 4
SMALL
USER_CHARGES


@<TRIPOS>ATOM
1 C 58.794 46.833 52.421 C 0.0 **** 0.0
2 H 58.68 46.608 51.361 H 0.0 **** 0.0
3 H 58.725 45.911 52.998 H 0.0 **** 0.0
4 H 58.006 47.518 52.734 H 0.0 **** 0.0
5 H 59.766 47.296 52.591 H 0.0 **** 0.0
@<TRIPOS>BOND
1 1 2 1
2 1 3 1
3 1 4 1
4 1 5 1
@<TRIPOS>MOLECULE
CH4
5 4
SMALL
USER_CHARGES


@<TRIPOS>ATOM
1 C 0.615 43.14 34.271 C 0.0 **** 0.0
2 H 1.422 42.904 34.964 H 0.0 **** 0.0
3 H 0.001 42.253 34.113 H 0.0 **** 0.0
4 H 1.037 43.464 33.319 H 0.0 **** 0.0
5 H 0.001 43.938 34.687 H 0.0 **** 0.0
@<TRIPOS>BOND
1 1 2 1
2 1 3 1
3 1 4 1
4 1 5 1
@<TRIPOS>MOLECULE
CH4
5 4
SMALL
USER_CHARGES


@<TRIPOS>ATOM
1 C 4.565 79.922 3.799 C 0.0 **** 0.0
2 H 4.684 79.942 2.715 H 0.0 **** 0.0
3 H 4.812 80.902 4.209 H 0.0 **** 0.0
4 H 5.231 79.171 4.223 H 0.0 **** 0.0
5 H 3.533 79.674 4.046 H 0.0 **** 0.0
@<TRIPOS>BOND
1 1 2 1
2 1 3 1
3 1 4 1
4 1 5 1
@<TRIPOS>MOLECULE
CH4
5 4
SMALL
USER_CHARGES


@<TRIPOS>ATOM
1 C 6.286 84.154 76.82 C 0.0 **** 0.0
2 H 6.52 84.086 77.883 H 0.0 **** 0.0
3 H 6.676 85.091 76.422 H 0.0 **** 0.0
4 H 5.205 84.122 76.683 H 0.0 **** 0.0
5 H 6.744 83.317 76.294 H 0.0 **** 0.0
@<TRIPOS>BOND
1 1 2 1
2 1 3 1
3 1 4 1
4 1 5 1
@<TRIPOS>MOLECULE
CH4
5 4
SMALL
USER_CHARGES


@<TRIPOS>ATOM
1 C 93.594 37.307 67.054 C 0.0 **** 0.0
2 H 93.017 37.366 67.977 H 0.0 **** 0.0
3 H 94.102 36.344 67.004 H 0.0 **** 0.0
4 H 94.331 38.109 67.034 H 0.0 **** 0.0
5 H 92.924 37.409 66.2 H 0.0 **** 0.0
@<TRIPOS>BOND
1 1 2 1
2 1 3 1
3 1 4 1
4 1 5 1
@<TRIPOS>MOLECULE
CH4
5 4
SMALL
USER_CHARGES


@<TRIPOS>ATOM
1 C 15.794 75.268 92.68 C 0.0 **** 0.0
2 H 15.545 74.211 92.594 H 0.0 **** 0.0
3 H 15.349 75.673 93.589 H 0.0 **** 0.0
4 H 15.404 75.804 91.815 H 0.0 **** 0.0
5 H 16.877 75.384 92.722 H 0.0 **** 0.0
@<TRIPOS>BOND
1 1 2 1
2 1 3 1
3 1 4 1
4 1 5 1
@<TRIPOS>MOLECULE
CH4
5 4
SMALL
USER_CHARGES


@<TRIPOS>ATOM
1 C 56.735 78.397 50.754 C 0.0 **** 0.0
2 H 56.915 77.456 51.274 H 0.0 **** 0.0
3 H 56.153 79.06 51.395 H 0.0 **** 0.0
4 H 56.183 78.203 49.834 H 0.0 **** 0.0
5 H 57.688 78.867 50.514 H 0.0 **** 0.0
@<TRIPOS>BOND
1 1 2 1
2 1 3 1
3 1 4 1
4 1 5 1
@<TRIPOS>MOLECULE
CH4
5 4
SMALL
USER_CHARGES


@<TRIPOS>ATOM
1 C 59.62 79.946 23.974 C 0.0 **** 0.0
2 H 60.024 80.933 24.202 H 0.0 **** 0.0
3 H 60.409 79.2 24.069 H 0.0 **** 0.0
4 H 59.232 79.939 22.955 H 0.0 **** 0.0
5 H 58.814 79.715 24.671 H 0.0 **** 0.0
@<TRIPOS>BOND
1 1 2 1
2 1 3 1
3 1 4 1
4 1 5 1
@<TRIPOS>MOLECULE
CH4
5 4
SMALL
USER_CHARGES


@<TRIPOS>ATOM
1 C 78.714 0.971 67.553 C 0.0 **** 0.0
2 H 77.725 0.662 67.215 H 0.0 **** 0.0
3 H 79.378 0.107 67.568 H 0.0 **** 0.0
4 H 78.639 1.39 68.557 H 0.0 **** 0.0
5 H 79.111 1.724 66.873 H 0.0 **** 0.0
@<TRIPOS>BOND
1 1 2 1
2 1 3 1
3 1 4 1
4 1 5 1
@<TRIPOS>MOLECULE
CH4
5 4
SMALL
USER_CHARGES


@<TRIPOS>ATOM
1 C 30.962 81.641 11.148 C 0.0 **** 0.0
2 H 30.019 81.095 11.166 H 0.0 **** 0.0
3 H 31.712 81.053 10.618 H 0.0 **** 0.0
4 H 31.297 81.821 12.17 H 0.0 **** 0.0
5 H 30.82 82.594 10.638 H 0.0 **** 0.0
@<TRIPOS>BOND
1 1 2 1
2 1 3 1
3 1 4 1
4 1 5 1
@<TRIPOS>MOLECULE
CH4
5 4
SMALL
USER_CHARGES


@<TRIPOS>ATOM
1 C 88.593 2.956 98.288 C 0.0 **** 0.0
2 H 88.923 2.702 97.28 H 0.0 **** 0.0
3 H 89.379 2.707 99.001 H 0.0 **** 0.0
4 H 87.692 2.391 98.527 H 0.0 **** 0.0
5 H 88.378 4.023 98.341 H 0.0 **** 0.0
@<TRIPOS>BOND
1 1 2 1
2 1 3 1
3 1 4 1
4 1 5 1
@<TRIPOS>MOLECULE
CH4
5 4
SMALL
USER_CHARGES


@<TRIPOS>ATOM
1 C 34.191 13.903 32.175 C 0.0 **** 0.0
2 H 34.94 14.647 31.902 H 0.0 **** 0.0
3 H 33.797 14.133 33.165 H 0.0 **** 0.0
4 H 34.65 12.914 32.187 H 0.0 **** 0.0
5 H 33.38 13.919 31.447 H 0.0 **** 0.0
@<TRIPOS>BOND
1 1 2 1
2 1 3 1
3 1 4 1
4 1 5 1
@<TRIPOS>MOLECULE
CH4
5 4
SMALL
USER_CHARGES


@<TRIPOS>ATOM
1 C 43.69 56.925 39.726 C 0.0 **** 0.0
2 H 43.641 56.805 40.808 H 0.0 **** 0.0
3 H 43.863 57.974 39.485 H 0.0 **** 0.0
4 H 42.75 56.6 39.282 H 0.0 **** 0.0
5 H 44.507 56.322 39.331 H 0.0 **** 0.0
@<TRIPOS>BOND
1 1 2 1
2 1 3 1
3 1 4 1
4 1 5 1
@<TRIPOS>MOLECULE
CH4
5 4
SMALL
USER_CHARGES


@<TRIPOS>ATOM
1 C 93.879 63.179 65.798 C 0.0 **** 0.0
2 H 93.972 62.376 66.529 H 0.0 **** 0.0
3 H 92.828 63.319 65.545 H 0.0 **** 0.0
4 H 94.438 62.919 64.899 H 0.0 **** 0.0
5 H 94.278 64.102 66.22 H 0.0 **** 0.0
@<TRIPOS>BOND
1 1 2 1
2 1 3 1
3 1 4 1
4 1 5 1
@<TRIPOS>MOLECULE
CH4
5 4
SMALL
USER_CHARGES


@<TRIPOS>ATOM
1 C 81.206 62.776 90.032 C 0.0 **** 0.0
2 H 80.655 63.717 90.042 H 0.0 **** 0.0
3 H 81.802 62.715 89.121 H 0.0 **** 0.0
4 H 80.504 61.944 90.064 H 0.0 **** 0.0
5 H 81.863 62.731 90.9 H 0.0 **** 0.0
@<TRIPOS>BOND
1 1 2 1
2 1 3 1
3 1 4 1
4 1 5 1
@<TRIPOS>MOLECULE
CH4
5 4
SMALL
USER_CHARGES


@<TRIPOS>ATOM
1 C 53.335 85.307 93.5 C 0.0 **** 0.0
2 H 53.435 84.225 93.589 H 0.0 **** 0.0
3 H 54.215 85.789 93.926 H 0.0 **** 0.0
4 H 52.445 85.634 94.038 H 0.0 **** 0.0
5 H 53.244 85.578 92.449 H 0.0 **** 0.0
@<TRIPOS>BOND
1 1 2 1
2 1 3 1
3 1 4 1
4 1 5 1
@<TRIPOS>MOLECULE
CH4
5 4
SMALL
USER_CHARGES


@<TRIPOS>ATOM
1 C 4.705 5.738 48.271 C 0.0 **** 0.0
2 H 4.95 5.518 49.31 H 0.0 **** 0.0
3 H 4.929 6.784 48.06 H 0.0 **** 0.0
4 H 3.645 5.551 48.1 H 0.0 **** 0.0
5 H 5.297 5.099 47.616 H 0.0 **** 0.0
@<TRIPOS>BOND
1 1 5 1
2 1 2 1
3 1 3 1
4 1 4 1
@<TRIPOS>MOLECULE
CH4
5 4
SMALL
USER_CHARGES


@<TRIPOS>ATOM
1 C 26.177 40.767 16.288 C 0.0 **** 0.0
2 H 26.095 40.757 15.201 H 0.0 **** 0.0
3 H 25.186 40.883 16.726 H 0.0 **** 0.0
4 H 26.811 41.598 16.597 H 0.0 **** 0.0
5 H 26.617 39.829 16.628 H 0.0 **** 0.0
@<TRIPOS>BOND
1 1 2 1
2 1 3 1
3 1 4 1
4 1 5 1
@<TRIPOS>MOLECULE
CH4
5 4
SMALL
USER_CHARGES


@<TRIPOS>ATOM
1 C 71.628 92.48 10.285 C 0.0 **** 0.0
2 H 72.109 91.599 10.71 H 0.0 **** 0.0
3 H 72.019 93.375 10.769 H 0.0 **** 0.0
4 H 70.552 92.42 10.447 H 0.0 **** 0.0
5 H 71.833 92.526 9.216 H 0.0 **** 0.0
@<TRIPOS>BOND
1 1 2 1
2 1 3 1
3 1 4 1
4 1 5 1
@<TRIPOS>MOLECULE
CH4
5 4
SMALL
USER_CHARGES


@<TRIPOS>ATOM
1 C 81.6 54.19 89.655 C 0.0 **** 0.0
2 H 80.565 53.849 89.63 H 0.0 **** 0.0
3 H 81.669 55.096 90.258 H 0.0 **** 0.0
4 H 81.936 54.402 88.64 H 0.0 **** 0.0
5 H 82.228 53.414 90.091 H 0.0 **** 0.0
@<TRIPOS>BOND
1 1 2 1
2 1 3 1
3 1 4 1
4 1 5 1
@<TRIPOS>MOLECULE
CH4
5 4
SMALL
USER_CHARGES


@<TRIPOS>ATOM
1 C 84.985 61.415 41.463 C 0.0 **** 0.0
2 H 86.067 61.457 41.34 H 0.0 **** 0.0
3 H 84.505 61.937 40.635 H 0.0 **** 0.0
4 H 84.708 61.891 42.403 H 0.0 **** 0.0
5 H 84.662 60.374 41.474 H 0.0 **** 0.0
@<TRIPOS>BOND
1 1 2 1
2 1 3 1
3 1 4 1
4 1 5 1
@<TRIPOS>MOLECULE
CH4
5 4
SMALL
USER_CHARGES


@<TRIPOS>ATOM
1 C 52.847 51.207 46.694 C 0.0 **** 0.0
2 H 52.471 51.566 45.736 H 0.0 **** 0.0
3 H 52.519 50.179 46.85 H 0.0 **** 0.0
4 H 52.462 51.838 47.495 H 0.0 **** 0.0
5 H 53.937 51.244 46.693 H 0.0 **** 0.0
@<TRIPOS>BOND
1 1 2 1
2 1 3 1
3 1 4 1
4 1 5 1
@<TRIPOS>MOLECULE
CH4
5 4
SMALL
USER_CHARGES


@<TRIPOS>ATOM
1 C 90.312 51.943 10.082 C 0.0 **** 0.0
2 H 89.543 52.644 10.407 H 0.0 **** 0.0
3 H 90.921 52.406 9.305 H 0.0 **** 0.0
4 H 89.84 51.043 9.687 H 0.0 **** 0.0
5 H 90.944 51.679 10.93 H 0.0 **** 0.0
@<TRIPOS>BOND
1 1 2 1
2 1 3 1
3 1 4 1
4 1 5 1
@<TRIPOS>MOLECULE
CH4
5 4
SMALL
USER_CHARGES


@<TRIPOS>ATOM
1 C 54.719 20.729 62.951 C 0.0 **** 0.0
2 H 54.305 20.907 63.944 H 0.0 **** 0.0
3 H 55.093 19.707 62.891 H 0.0 **** 0.0
4 H 55.536 21.427 62.768 H 0.0 **** 0.0
5 H 53.941 20.877 62.202 H 0.0 **** 0.0
@<TRIPOS>BOND
1 1 2 1
2 1 3 1
3 1 4 1
4 1 5 1
@<TRIPOS>MOLECULE
CH4
5 4
SMALL
USER_CHARGES


@<TRIPOS>ATOM
1 C 44.499 35.034 37.048 C 0.0 **** 0.0
2 H 45.191 34.581 37.758 H 0.0 **** 0.0
3 H 43.598 34.424 36.98 H 0.0 **** 0.0
4 H 44.972 35.095 36.068 H 0.0 **** 0.0
5 H 44.235 36.036 37.388 H 0.0 **** 0.0
@<TRIPOS>BOND
1 1 2 1
2 1 3 1
3 1 4 1
4 1 5 1
@<TRIPOS>MOLECULE
CH4
5 4
SMALL
USER_CHARGES


@<TRIPOS>ATOM
1 C 35.609 52.969 45.987 C 0.0 **** 0.0
2 H 35.295 53.593 45.149 H 0.0 **** 0.0
3 H 34.736 52.494 46.434 H 0.0 **** 0.0
4 H 36.109 53.588 46.732 H 0.0 **** 0.0
5 H 36.298 52.203 45.63 H 0.0 **** 0.0
@<TRIPOS>BOND
1 1 2 1
2 1 3 1
3 1 4 1
4 1 5 1
@<TRIPOS>MOLECULE
CH4
5 4
SMALL
USER_CHARGES


@<TRIPOS>ATOM
1 C 75.847 70.347 66.735 C 0.0 **** 0.0
2 H 75.538 69.302 66.761 H 0.0 **** 0.0
3 H 75.531 70.843 67.653 H 0.0 **** 0.0
4 H 75.387 70.84 65.878 H 0.0 **** 0.0
5 H 76.932 70.403 66.646 H 0.0 **** 0.0
@<TRIPOS>BOND
1 1 2 1
2 1 3 1
3 1 4 1
4 1 5 1
@<TRIPOS>MOLECULE
CH4
5 4
SMALL
USER_CHARGES


@<TRIPOS>ATOM
1 C 5.744 71.361 60.531 C 0.0 **** 0.0
2 H 4.714 71.423 60.882 H 0.0 **** 0.0
3 H 5.816 70.605 59.748 H 0.0 **** 0.0
4 H 6.395 71.089 61.361 H 0.0 **** 0.0
5 H 6.05 72.328 60.131 H 0.0 **** 0.0
@<TRIPOS>BOND
1 1 2 1
2 1 3 1
3 1 4 1
4 1 5 1
@<TRIPOS>MOLECULE
CH4
5 4
SMALL
USER_CHARGES


@<TRIPOS>ATOM
1 C 74.884 12.311 6.881 C 0.0 **** 0.0
2 H 75.427 12.631 7.77 H 0.0 **** 0.0
3 H 75.553 12.329 6.02 H 0.0 **** 0.0
4 H 74.046 12.985 6.705 H 0.0 **** 0.0
5 H 74.51 11.298 7.029 H 0.0 **** 0.0
@<TRIPOS>BOND
1 1 2 1
2 1 3 1
3 1 4 1
4 1 5 1
@<TRIPOS>MOLECULE
CH4
5 4
SMALL
USER_CHARGES


@<TRIPOS>ATOM
1 C 67.41 48.254 90.241 C 0.0 **** 0.0
2 H 67.795 48.983 90.955 H 0.0 **** 0.0
3 H 67.389 47.268 90.705 H 0.0 **** 0.0
4 H 68.055 48.23 89.363 H 0.0 **** 0.0
5 H 66.4 48.537 89.943 H 0.0 **** 0.0
@<TRIPOS>BOND
1 1 2 1
2 1 3 1
3 1 4 1
4 1 5 1
@<TRIPOS>MOLECULE
CH4
5 4
SMALL
USER_CHARGES


@<TRIPOS>ATOM
1 C 15.188 75.564 26.885 C 0.0 **** 0.0
2 H 15.541 75.382 25.87 H 0.0 **** 0.0
3 H 14.947 76.621 27.001 H 0.0 **** 0.0
4 H 15.967 75.288 27.595 H 0.0 **** 0.0
5 H 14.297 74.965 27.072 H 0.0 **** 0.0
@<TRIPOS>BOND
1 1 2 1
2 1 3 1
3 1 4 1
4 1 5 1
@<TRIPOS>MOLECULE
CH4
5 4
SMALL
USER_CHARGES


@<TRIPOS>ATOM
1 C 72.039 4.299 1.287 C 0.0 **** 0.0
2 H 71.225 5.001 1.469 H 0.0 **** 0.0
3 H 72.682 4.254 2.167 H 0.0 **** 0.0
4 H 72.621 4.633 0.428 H 0.0 **** 0.0
5 H 71.627 3.311 1.086 H 0.0 **** 0.0
@<TRIPOS>BOND
1 1 2 1
2 1 3 1
3 1 4 1
4 1 5 1
@<TRIPOS>MOLECULE
CH4
5 4
SMALL
USER_CHARGES


@<TRIPOS>ATOM
1 C 59.444 28.422 34.95 C 0.0 **** 0.0
2 H 59.396 28.431 36.039 H 0.0 **** 0.0
3 H 58.504 28.043 34.548 H 0.0 **** 0.0
4 H 60.263 27.778 34.628 H 0.0 **** 0.0
5 H 59.613 29.435 34.585 H 0.0 **** 0.0
@<TRIPOS>BOND
1 1 2 1
2 1 3 1
3 1 4 1
4 1 5 1
@<TRIPOS>MOLECULE
CH4
5 4
SMALL
USER_CHARGES


@<TRIPOS>ATOM
1 C 60.303 56.244 31.561 C 0.0 **** 0.0
2 H 60.356 55.444 30.823 H 0.0 **** 0.0
3 H 59.998 57.17 31.072 H 0.0 **** 0.0
4 H 61.283 56.38 32.019 H 0.0 **** 0.0
5 H 59.576 55.982 32.33 H 0.0 **** 0.0
@<TRIPOS>BOND
1 1 2 1
2 1 3 1
3 1 4 1
4 1 5 1
@<TRIPOS>MOLECULE
CH4
5 4
SMALL
USER_CHARGES


@<TRIPOS>ATOM
1 C 45.333 34.912 85.137 C 0.0 **** 0.0
2 H 45.68 34.974 84.105 H 0.0 **** 0.0
3 H 45.458 35.88 85.621 H 0.0 **** 0.0
4 H 45.915 34.16 85.671 H 0.0 **** 0.0
5 H 44.28 34.632 85.149 H 0.0 **** 0.0
@<TRIPOS>BOND
1 1 2 1
2 1 3 1
3 1 4 1
4 1 5 1
@<TRIPOS>MOLECULE
CH4
5 4
SMALL
USER_CHARGES


@<TRIPOS>ATOM
1 C 15.01 60.482 45.131 C 0.0 **** 0.0
2 H 14.721 60.017 44.189 H 0.0 **** 0.0
3 H 14.454 61.411 45.263 H 0.0 **** 0.0
4 H 16.078 60.696 45.118 H 0.0 **** 0.0
5 H 14.785 59.804 45.955 H 0.0 **** 0.0
@<TRIPOS>BOND
1 1 2 1
2 1 3 1
3 1 4 1
4 1 5 1
@<TRIPOS>MOLECULE
CH4
5 4
SMALL
USER_CHARGES


@<TRIPOS>ATOM
1 C 77.816 96.916 30.634 C 0.0 **** 0.0
2 H 77.034 97.266 29.96 H 0.0 **** 0.0
3 H 78.735 96.754 30.071 H 0.0 **** 0.0
4 H 77.503 95.98 31.097 H 0.0 **** 0.0
5 H 77.99 97.664 31.407 H 0.0 **** 0.0
@<TRIPOS>BOND
1 1 2 1
2 1 3 1
3 1 4 1
4 1 5 1
@<TRIPOS>MOLECULE
CH4
5 4
SMALL
USER_CHARGES


@<TRIPOS>ATOM
1 C 70.736 44.386 40.4 C 0.0 **** 0.0
2 H 70.818 43.381 40.814 H 0.0 **** 0.0
3 H 69.794 44.833 40.717 H 0.0 **** 0.0
4 H 70.768 44.335 39.312 H 0.0 **** 0.0
5 H 71.566 44.995 40.76 H 0.0 **** 0.0
@<TRIPOS>BOND
1 1 2 1
2 1 3 1
3 1 4 1
4 1 5 1
@<TRIPOS>MOLECULE
CH4
5 4
SMALL
USER_CHARGES


@<TRIPOS>ATOM
1 C 93.432 29.168 80.103 C 0.0 **** 0.0
2 H 93.738 30.194 80.309 H 0.0 **** 0.0
3 H 92.785 28.815 80.906 H 0.0 **** 0.0
4 H 94.314 28.532 80.039 H 0.0 **** 0.0
5 H 92.89 29.134 79.158 H 0.0 **** 0.0
@<TRIPOS>BOND
1 1 2 1
2 1 3 1
3 1 4 1
4 1 5 1
@<TRIPOS>MOLECULE
CH4
5 4
SMALL
USER_CHARGES


@<TRIPOS>ATOM
1 C 62.078 47.338 71.757 C 0.0 **** 0.0
2 H 62.914 46.719 71.432 H 0.0 **** 0.0
3 H 61.219 47.156 71.112 H 0.0 **** 0.0
4 H 62.36 48.389 71.7 H 0.0 **** 0.0
5 H 61.82 47.087 72.786 H 0.0 **** 0.0
@<TRIPOS>BOND
1 1 2 1
2 1 3 1
3 1 4 1
4 1 5 1
@<TRIPOS>MOLECULE
CH4
5 4
SMALL
USER_CHARGES


@<TRIPOS>ATOM
1 C 47.196 32.838 73.113 C 0.0 **** 0.0
2 H 47.648 32.701 74.095 H 0.0 **** 0.0
3 H 47.972 32.799 72.347 H 0.0 **** 0.0
4 H 46.696 33.806 73.075 H 0.0 **** 0.0
5 H 46.469 32.047 72.934 H 0.0 **** 0.0
@<TRIPOS>BOND
1 1 2 1
2 1 3 1
3 1 4 1
4 1 5 1
@<TRIPOS>MOLECULE
CH4
5 4
SMALL
USER_CHARGES


@<TRIPOS>ATOM
1 C 84.263 91.818 21.303 C 0.0 **** 0.0
2 H 83.634 92.208 20.503 H 0.0 **** 0.0
3 H 83.757 90.983 21.788 H 0.0 **** 0.0
4 H 84.45 92.605 22.033 H 0.0 **** 0.0
5 H 85.21 91.476 20.885 H 0.0 **** 0.0
@<TRIPOS>BOND
1 1 2 1
2 1 3 1
3 1 4 1
4 1 5 1
@<TRIPOS>MOLECULE
CH4
5 4
SMALL
USER_CHARGES


@<TRIPOS>ATOM
1 C 81.901 68.301 69.009 C 0.0 **** 0.0
2 H 81.695 67.231 68.992 H 0.0 **** 0.0
3 H 82.249 68.588 70.002 H 0.0 **** 0.0
4 H 80.991 68.85 68.77 H 0.0 **** 0.0
5 H 82.67 68.534 68.272 H 0.0 **** 0.0
@<TRIPOS>BOND
1 1 2 1
2 1 3 1
3 1 4 1
4 1 5 1
@<TRIPOS>MOLECULE
CH4
5 4
SMALL
USER_CHARGES


@<TRIPOS>ATOM
1 C 52.389 96.943 15.715 C 0.0 **** 0.0
2 H 52.072 97.543 16.568 H 0.0 **** 0.0
3 H 52.146 95.896 15.897 H 0.0 **** 0.0
4 H 53.466 97.048 15.578 H 0.0 **** 0.0
5 H 51.874 97.286 14.818 H 0.0 **** 0.0
@<TRIPOS>BOND
1 1 2 1
2 1 3 1
3 1 4 1
4 1 5 1
@<TRIPOS>MOLECULE
CH4
5 4
SMALL
USER_CHARGES


@<TRIPOS>ATOM
1 C 92.315 38.607 10.528 C 0.0 **** 0.0
2 H 93.291 38.897 10.139 H 0.0 **** 0.0
3 H 92.405 37.664 11.067 H 0.0 **** 0.0
4 H 91.616 38.487 9.7 H 0.0 **** 0.0
5 H 91.949 39.379 11.204 H 0.0 **** 0.0
@<TRIPOS>BOND
1 1 2 1
2 1 3 1
3 1 4 1
4 1 5 1
@<TRIPOS>CRYSIN
100 100 100 90 90 90 1 1
